data_PCOD8241501
_publ_section_title
;
Structure prediction by ZEFSAII (Michael W. Deem and Ramdas Pophale) SiO2 
 PCOD8241501
Probable space group: P M M N
;
_chemical_formula_sum "Si O2"
_cell_formula_units_Z 64
_cell_length_a 18.758005
_cell_length_b 9.409095
_cell_length_c 19.883807
_cell_angle_alpha 90.000000
_cell_angle_beta 90.000000
_cell_angle_gamma 90.000000
_cell_volume 3509.409439
_symmetry_space_group_name_H-M "P M M N"
_symmetry_group_IT_number 59
_space_group.IT_coordinate_system_code '2'
_symmetry_cell_setting 'orthorhombic'
loop_
_space_group_symop_operation_xyz
x,y,z
1/2-x,1/2-y,z
1/2+x,-y,-z
-x,1/2+y,-z
-x,-y,-z
1/2+x,1/2+y,-z
1/2-x,y,z
x,1/2-y,z
loop_
_atom_site_type_symbol
_atom_site_label
_atom_site_fract_x
_atom_site_fract_y
_atom_site_fract_z
Si Si1 0.420857 0.418203 0.095128
Si Si2 0.900959 0.417238 0.662223
Si Si3 0.832000 0.085911 0.523835
Si Si4 0.553609 0.581666 0.287559
Si Si5 0.055631 0.082849 0.864495
Si Si6 0.668803 0.588163 0.775559
Si Si7 0.831548 0.583170 0.392631
Si Si8 0.329145 0.416697 0.970200
O O1 0.434529 0.250000 0.089618
O O2 0.495524 0.499872 0.094102
O O3 0.380348 0.460899 0.163100
O O4 0.374379 0.476802 0.032837
O O5 0.893456 0.250000 0.673514
O O6 0.881611 0.459243 0.586111
O O7 0.844998 0.490891 0.711366
O O8 0.980440 0.472302 0.678611
O O9 0.750000 0.054606 0.542949
O O10 0.842916 0.250000 0.505013
O O11 0.856582 0.993296 0.460557
O O12 0.555457 0.750000 0.285728
O O13 0.560249 0.523383 0.211642
O O14 0.619933 0.525422 0.331581
O O15 0.037405 0.250000 0.866217
O O16 0.130920 0.050230 0.900178
O O17 0.750000 0.570244 0.799110
O O18 0.652182 0.750000 0.755293
O O19 0.750000 0.545228 0.374852
O O20 0.842180 0.750000 0.404105
O O21 0.250000 0.486097 0.967903
O O22 0.321128 0.250000 0.981039
#
# Coordination Sequence:
#
# PCOD8241501 Si02
#       8
#     8   8   8   8   8   8   8   8
#     4  10  19  33  52  74 103 137 168 205 253 302
#     4  10  19  33  51  71 101 135 165 202 250 301
#     4   9  18  32  49  70  96 128 165 203 248 302
#     4   9  18  32  50  74 102 129 163 209 252 293
#     4  10  19  33  54  77 102 134 171 212 252 296
#     4  10  20  32  48  72 101 133 169 206 243 289
#     4   9  18  33  52  72  96 129 166 206 254 300
#     4   9  18  32  52  78 104 133 172 213 253 298
#
# _framework density 18.236685999999999
#
# number of rings (size 3 to 8) (size 9 to 14) (size 15 to 20)
#    0.000    2.500    1.250    1.125    0.000    3.750 
#    0.000    5.000    0.000    2.250    0.000    0.000 
#    0.000    0.000    0.000    0.000    0.000    0.000 
#
# Total GULP energy -793664.030534 kJ/mol
# GULP energy per Si atom -12401.000477 kJ/mol
# Density = 1.819518 g / cm^3
# Si number density = 18.236686 Si / 1000 Ang^3
#
#
#
# Elastic Constant Matrix: (Units=GPa)
#
#
# Indices 1 2 3 4 5 6 
#
# 1 117.5037 28.9484 75.8418 0.0000 0.0000 0.0000
# 2 28.9484 29.0123 31.7539 0.0000 0.0000 0.0000
# 3 75.8418 31.7539 135.8276 0.0000 0.0000 0.0000
# 4 0.0000 0.0000 0.0000 20.5504 0.0000 0.0000
# 5 0.0000 0.0000 0.0000 0.0000 36.2381 0.0000
# 6 0.0000 0.0000 0.0000 0.0000 0.0000 20.7920
#
#
#
# Elastic Compliance Matrix: (Units=1/GPa)
#
#
# Indices 1 2 3 4 5 6 
#
# 1 0.014424 -0.007495 -0.006302 0.000000 0.000000 0.000000
# 2 -0.007495 0.050215 -0.007554 0.000000 0.000000 0.000000
# 3 -0.006302 -0.007554 0.012647 0.000000 0.000000 0.000000
# 4 0.000000 0.000000 0.000000 0.048661 0.000000 0.000000
# 5 0.000000 0.000000 0.000000 0.000000 0.027595 0.000000
# 6 0.000000 0.000000 0.000000 0.000000 0.000000 0.048096
#
#
# Mechanical properties :
#
#
# Convention : Reuss Voigt Hill
#
# Bulk Modulus (GPa) = 28.91526 61.71464 45.31495
# Shear Modulus (GPa) = 19.54126 25.23605 22.38866
#
# Velocity S-wave (km/s) = 3.27698 3.72399 3.50762
# Velocity P-wave (km/s) = 5.49619 7.23914 6.42703
#
# Compressibility (1/GPa) = 0.03458382
#
# Stress axis : x y z
#
# Youngs Moduli (GPa) = 69.32692 19.91436 79.06968
#
# Poissons Ratio (x) = 0.14926 0.49829
# Poissons Ratio (y) = 0.51962 0.59731
# Poissons Ratio (z) = 0.43689 0.15044
#
# Static dielectric constant tensor:
#      x y z
#    x 3.501580 0.000000 0.000000 
#    y 0.000000 3.040220 0.000000 
#    z 0.000000 0.000000 3.487370 
# 
# 
# High freq. dielectric constant tensor:
#      x y z
#    x 1.712090 0.000000 0.000000 
#    y 0.000000 1.671420 0.000000 
#    z 0.000000 0.000000 1.715010 
# 
# From -- ./inp_files/26319.got.cif
#   From: 2010.03.12/outbox.cif.g09.slc.cpg/sg59_14_cif.got.tgz:26319.got - 2010.04.16 16:29:54.
