data_PCOD8241054
_publ_section_title
;
Structure prediction by ZEFSAII (Michael W. Deem and Ramdas Pophale) SiO2 
 PCOD8241054
Probable space group: P M M N
;
_chemical_formula_sum "Si O2"
_cell_formula_units_Z 64
_cell_length_a 30.693147
_cell_length_b 8.951383
_cell_length_c 14.414930
_cell_angle_alpha 90.000000
_cell_angle_beta 90.000000
_cell_angle_gamma 90.000000
_cell_volume 3960.446005
_symmetry_space_group_name_H-M "P M M N"
_symmetry_group_IT_number 59
_space_group.IT_coordinate_system_code '2'
_symmetry_cell_setting 'orthorhombic'
loop_
_space_group_symop_operation_xyz
x,y,z
1/2-x,1/2-y,z
1/2+x,-y,-z
-x,1/2+y,-z
-x,-y,-z
1/2+x,1/2+y,-z
1/2-x,y,z
x,1/2-y,z
loop_
_atom_site_type_symbol
_atom_site_label
_atom_site_fract_x
_atom_site_fract_y
_atom_site_fract_z
Si Si1 0.458926 0.423416 0.449803
Si Si2 0.619250 0.917082 0.070500
Si Si3 0.612233 0.076091 0.435917
Si Si4 0.927101 0.583077 0.264961
Si Si5 0.014298 0.079694 0.245850
Si Si6 0.701799 0.572281 0.160437
Si Si7 0.958322 0.575826 0.954630
Si Si8 0.701337 0.423737 0.355683
O O1 0.500000 0.500000 0.500000
O O2 0.461934 0.250000 0.474220
O O3 0.412448 0.486328 0.483564
O O4 0.459108 0.452417 0.339677
O O5 0.625242 0.750000 0.032448
O O6 0.601335 0.918761 0.173948
O O7 0.667504 0.990558 0.082874
O O8 0.585707 0.997723 0.999700
O O9 0.604717 0.250000 0.454622
O O10 0.664124 0.036079 0.432117
O O11 0.591040 0.035180 0.337867
O O12 0.927979 0.750000 0.308341
O O13 0.975388 0.536077 0.237014
O O14 0.996608 0.250000 0.245451
O O15 0.044683 0.052020 0.155993
O O16 0.750000 0.521761 0.129110
O O17 0.697488 0.750000 0.167058
O O18 0.690903 0.512426 0.262341
O O19 0.961025 0.750000 0.981645
O O20 0.000000 0.500000 0.000000
O O21 0.750000 0.463883 0.393763
O O22 0.698261 0.250000 0.330498
#
# Coordination Sequence:
#
# PCOD8241054 Si02
#       8
#     8   8   8   8   8   8   8   8
#     4  11  22  34  48  68  92 123 161 198 236 277
#     4   9  17  28  43  67  93 120 152 183 224 267
#     4  11  21  32  47  69  95 126 159 191 230 280
#     4  11  19  28  46  68  94 125 155 190 226 267
#     4  10  21  34  47  64  90 122 159 196 230 268
#     4   9  16  27  44  66  92 120 150 183 220 269
#     4  10  19  32  47  65  90 120 153 189 225 268
#     4   9  18  31  46  66  93 122 152 188 230 276
#
# _framework density 16.159796
#
# number of rings (size 3 to 8) (size 9 to 14) (size 15 to 20)
#    0.000    2.000    3.750    1.125    0.000    1.000 
#    0.000    0.625    0.000    0.000    0.000    0.875 
#    0.000    3.000    0.000    0.000    0.000    0.000 
#
# Total GULP energy -793102.729081 kJ/mol
# GULP energy per Si atom -12392.230142 kJ/mol
# Density = 1.612302 g / cm^3
# Si number density = 16.159796 Si / 1000 Ang^3
#
#
#
# Elastic Constant Matrix: (Units=GPa)
#
#
# Indices 1 2 3 4 5 6 
#
# 1 136.0323 34.2647 50.9265 0.0000 0.0000 0.0000
# 2 34.2647 47.4414 24.0743 0.0000 0.0000 0.0000
# 3 50.9265 24.0743 84.2803 0.0000 0.0000 0.0000
# 4 0.0000 0.0000 0.0000 15.3976 0.0000 0.0000
# 5 0.0000 0.0000 0.0000 0.0000 21.9448 0.0000
# 6 0.0000 0.0000 0.0000 0.0000 0.0000 20.0519
#
#
#
# Elastic Compliance Matrix: (Units=1/GPa)
#
#
# Indices 1 2 3 4 5 6 
#
# 1 0.010452 -0.005081 -0.004864 0.000000 0.000000 0.000000
# 2 -0.005081 0.027122 -0.004677 0.000000 0.000000 0.000000
# 3 -0.004864 -0.004677 0.016141 0.000000 0.000000 0.000000
# 4 0.000000 0.000000 0.000000 0.064945 0.000000 0.000000
# 5 0.000000 0.000000 0.000000 0.000000 0.045569 0.000000
# 6 0.000000 0.000000 0.000000 0.000000 0.000000 0.049871
#
#
# Mechanical properties :
#
#
# Convention : Reuss Voigt Hill
#
# Bulk Modulus (GPa) = 40.86681 54.03168 47.44925
# Shear Modulus (GPa) = 19.88074 22.04475 20.96275
#
# Velocity S-wave (km/s) = 3.51131 3.69748 3.60560
# Velocity P-wave (km/s) = 6.46399 7.19284 6.83813
#
# Compressibility (1/GPa) = 0.02446973
#
# Stress axis : x y z
#
# Youngs Moduli (GPa) = 95.67541 36.87103 61.95584
#
# Poissons Ratio (x) = 0.18732 0.30138
# Poissons Ratio (y) = 0.48608 0.28978
# Poissons Ratio (z) = 0.46540 0.17245
#
# Static dielectric constant tensor:
#      x y z
#    x 3.458760 0.000000 0.000000 
#    y 0.000000 3.083140 0.000000 
#    z 0.000000 0.000000 2.996970 
# 
# 
# High freq. dielectric constant tensor:
#      x y z
#    x 1.622530 0.000000 0.000000 
#    y 0.000000 1.616520 0.000000 
#    z 0.000000 0.000000 1.592270 
# 
# From -- ./inp_files/21966.got.cif
#   From: 2010.03.12/outbox.cif.g09.slc.cpg/sg59_11_cif.got.tgz:21966.got - 2010.04.16 16:29:54.
