data_PCOD8241282
_publ_section_title
;
Structure prediction by ZEFSAII (Michael W. Deem and Ramdas Pophale) SiO2 
 PCOD8241282
Probable space group: P M M N
;
_chemical_formula_sum "Si O2"
_cell_formula_units_Z 56
_cell_length_a 21.174375
_cell_length_b 8.965814
_cell_length_c 16.633144
_cell_angle_alpha 90.000000
_cell_angle_beta 90.000000
_cell_angle_gamma 90.000000
_cell_volume 3157.727669
_symmetry_space_group_name_H-M "P M M N"
_symmetry_group_IT_number 59
_space_group.IT_coordinate_system_code '2'
_symmetry_cell_setting 'orthorhombic'
loop_
_space_group_symop_operation_xyz
x,y,z
1/2-x,1/2-y,z
1/2+x,-y,-z
-x,1/2+y,-z
-x,-y,-z
1/2+x,1/2+y,-z
1/2-x,y,z
x,1/2-y,z
loop_
_atom_site_type_symbol
_atom_site_label
_atom_site_fract_x
_atom_site_fract_y
_atom_site_fract_z
Si Si1 0.677658 0.578339 0.136149
Si Si2 0.117585 0.425531 0.696739
Si Si3 0.029301 0.425102 0.118504
Si Si4 0.014107 0.072925 0.300775
Si Si5 0.820958 0.078239 0.444248
Si Si6 0.558001 0.426086 0.547708
Si Si7 0.906897 0.424386 0.019301
O O1 0.750000 0.545578 0.154568
O O2 0.665197 0.750000 0.115575
O O3 0.639037 0.528698 0.214371
O O4 0.657364 0.482179 0.059133
O O5 0.104784 0.250000 0.689398
O O6 0.171146 0.474670 0.633978
O O7 0.055330 0.517888 0.675361
O O8 0.038964 0.250000 0.112192
O O9 0.031782 0.478914 0.210658
O O10 0.963085 0.474528 0.079122
O O11 0.085183 0.503614 0.068791
O O12 0.016938 0.250000 0.310075
O O13 0.062039 0.994842 0.362637
O O14 0.750000 0.050622 0.478841
O O15 0.829321 0.250000 0.418408
O O16 0.874096 0.034587 0.509401
O O17 0.500000 0.500000 0.500000
O O18 0.545954 0.250000 0.551290
O O19 0.903604 0.250000 0.007405
#
# Coordination Sequence:
#
# PCOD8241282 Si02
#       7
#     8   8   8   8   8   8   8
#     4  10  21  35  50  73 109 148 180 214 262 320
#     4  11  21  33  53  80 111 145 182 222 268 323
#     4   9  19  34  52  75 104 136 170 215 268 315
#     4  11  21  35  55  80 112 144 180 224 272 324
#     4  10  22  39  57  77 107 147 185 224 272 328
#     4  11  22  36  56  82 111 143 183 228 277 328
#     4  10  19  32  52  77 103 134 176 218 258 309
#
# _framework density 17.734272000000001
#
# number of rings (size 3 to 8) (size 9 to 14) (size 15 to 20)
#    0.000    1.714    2.857    2.143    0.000    4.000 
#    0.000    0.000    0.000    0.857    0.000    4.000 
#    0.000    0.000    0.000    0.000    0.000    0.000 
#
# Total GULP energy -694525.995649 kJ/mol
# GULP energy per Si atom -12402.249922 kJ/mol
# Density = 1.769391 g / cm^3
# Si number density = 17.734272 Si / 1000 Ang^3
#
#
#
# Elastic Constant Matrix: (Units=GPa)
#
#
# Indices 1 2 3 4 5 6 
#
# 1 85.3134 32.0669 47.9912 0.0000 0.0000 0.0000
# 2 32.0669 58.3635 46.7923 0.0000 0.0000 0.0000
# 3 47.9912 46.7923 120.2164 0.0000 0.0000 0.0000
# 4 0.0000 0.0000 0.0000 33.1052 0.0000 0.0000
# 5 0.0000 0.0000 0.0000 0.0000 27.2547 0.0000
# 6 0.0000 0.0000 0.0000 0.0000 0.0000 23.5374
#
#
#
# Elastic Compliance Matrix: (Units=1/GPa)
#
#
# Indices 1 2 3 4 5 6 
#
# 1 0.016210 -0.005405 -0.004367 0.000000 0.000000 0.000000
# 2 -0.005405 0.026708 -0.008238 0.000000 0.000000 0.000000
# 3 -0.004367 -0.008238 0.013268 0.000000 0.000000 0.000000
# 4 0.000000 0.000000 0.000000 0.030207 0.000000 0.000000
# 5 0.000000 0.000000 0.000000 0.000000 0.036691 0.000000
# 6 0.000000 0.000000 0.000000 0.000000 0.000000 0.042486
#
#
# Mechanical properties :
#
#
# Convention : Reuss Voigt Hill
#
# Bulk Modulus (GPa) = 49.58839 57.51045 53.54942
# Shear Modulus (GPa) = 24.00242 25.91566 24.95904
#
# Velocity S-wave (km/s) = 3.68291 3.82688 3.75559
# Velocity P-wave (km/s) = 6.79027 7.21291 7.00478
#
# Compressibility (1/GPa) = 0.02016601
#
# Stress axis : x y z
#
# Youngs Moduli (GPa) = 61.69140 37.44127 75.36697
#
# Poissons Ratio (x) = 0.20236 0.32915
# Poissons Ratio (y) = 0.33343 0.62089
# Poissons Ratio (z) = 0.26943 0.30845
#
# Static dielectric constant tensor:
#      x y z
#    x 3.180280 0.000000 0.000000 
#    y 0.000000 3.282310 0.000000 
#    z 0.000000 0.000000 3.445970 
# 
# 
# High freq. dielectric constant tensor:
#      x y z
#    x 1.663540 0.000000 0.000000 
#    y 0.000000 1.693320 0.000000 
#    z 0.000000 0.000000 1.685730 
# 
# From -- ./inp_files/24205.got.cif
#   From: 2010.03.12/outbox.cif.g09.slc.cpg/sg59_13_cif.got.tgz:24205.got - 2010.04.16 16:29:54.
