data_PCOD8241987
_publ_section_title
;
Structure prediction by ZEFSAII (Michael W. Deem and Ramdas Pophale) SiO2 
 PCOD8241987
Probable space group: P M M N
;
_chemical_formula_sum "Si O2"
_cell_formula_units_Z 64
_cell_length_a 18.602700
_cell_length_b 8.709645
_cell_length_c 20.803941
_cell_angle_alpha 90.000000
_cell_angle_beta 90.000000
_cell_angle_gamma 90.000000
_cell_volume 3370.715124
_symmetry_space_group_name_H-M "P M M N"
_symmetry_group_IT_number 59
_space_group.IT_coordinate_system_code '2'
_symmetry_cell_setting 'orthorhombic'
loop_
_space_group_symop_operation_xyz
x,y,z
1/2-x,1/2-y,z
1/2+x,-y,-z
-x,1/2+y,-z
-x,-y,-z
1/2+x,1/2+y,-z
1/2-x,y,z
x,1/2-y,z
loop_
_atom_site_type_symbol
_atom_site_label
_atom_site_fract_x
_atom_site_fract_y
_atom_site_fract_z
Si Si1 0.410640 0.933942 0.387813
Si Si2 0.089139 0.068238 0.879910
Si Si3 0.912196 0.082503 0.751098
Si Si4 0.427382 0.565710 0.112200
Si Si5 0.668965 0.431371 0.003423
Si Si6 0.581507 0.918504 0.260930
Si Si7 0.065233 0.571232 0.610278
Si Si8 0.665966 0.572051 0.494095
O O1 0.404904 0.750000 0.391083
O O2 0.389351 0.998590 0.316049
O O3 0.492497 0.978443 0.404693
O O4 0.355184 0.013241 0.435453
O O5 0.092296 0.250000 0.886852
O O6 0.112479 0.019643 0.807223
O O7 0.009045 0.007968 0.897262
O O8 0.145361 0.993128 0.927805
O O9 0.875446 0.250000 0.751411
O O10 0.894533 0.999961 0.819520
O O11 0.997396 0.101399 0.749422
O O12 0.425508 0.750000 0.115890
O O13 0.380331 0.499879 0.053657
O O14 0.750000 0.485128 0.990123
O O15 0.662172 0.250000 0.004281
O O16 0.614131 0.750000 0.277549
O O17 0.598191 0.033397 0.319429
O O18 0.047736 0.750000 0.605648
O O19 0.124246 0.527452 0.558079
O O20 0.750000 0.544572 0.483886
O O21 0.645266 0.750000 0.486952
#
# Coordination Sequence:
#
# PCOD8241987 Si02
#       8
#     8   8   8   8   8   8   8   8
#     4  10  19  34  57  82 108 136 170 212 256 305
#     4   9  17  31  53  74  93 125 168 211 249 292
#     4   7  12  25  48  75  99 124 157 203 249 290
#     4   8  14  28  49  72  97 126 164 205 246 291
#     4  10  20  31  44  67 101 135 164 201 249 298
#     4   8  15  30  51  75 100 126 162 207 255 300
#     4  11  21  34  56  83 108 134 168 209 254 307
#     4  11  24  40  55  73 103 141 177 215 259 304
#
# _framework density 18.987068000000001
#
# number of rings (size 3 to 8) (size 9 to 14) (size 15 to 20)
#    0.000    2.750    0.000    4.875    0.000    1.750 
#    0.000    1.250    0.000    6.750    0.000    0.000 
#    0.000    0.000    0.000    0.000    0.000    0.000 
#
# Total GULP energy -793054.631628 kJ/mol
# GULP energy per Si atom -12391.478619 kJ/mol
# Density = 1.894385 g / cm^3
# Si number density = 18.987068 Si / 1000 Ang^3
#
#
#
# Elastic Constant Matrix: (Units=GPa)
#
#
# Indices 1 2 3 4 5 6 
#
# 1 34.7995 15.1156 16.2507 0.0000 0.0000 0.0000
# 2 15.1156 34.3064 15.9383 0.0000 0.0000 0.0000
# 3 16.2507 15.9383 110.8627 0.0000 0.0000 0.0000
# 4 0.0000 0.0000 0.0000 26.6079 0.0000 0.0000
# 5 0.0000 0.0000 0.0000 0.0000 7.6528 0.0000
# 6 0.0000 0.0000 0.0000 0.0000 0.0000 20.1007
#
#
#
# Elastic Compliance Matrix: (Units=1/GPa)
#
#
# Indices 1 2 3 4 5 6 
#
# 1 0.036608 -0.014613 -0.003265 0.000000 0.000000 0.000000
# 2 -0.014613 0.037068 -0.003187 0.000000 0.000000 0.000000
# 3 -0.003265 -0.003187 0.009957 0.000000 0.000000 0.000000
# 4 0.000000 0.000000 0.000000 0.037583 0.000000 0.000000
# 5 0.000000 0.000000 0.000000 0.000000 0.130672 0.000000
# 6 0.000000 0.000000 0.000000 0.000000 0.000000 0.049750
#
#
# Mechanical properties :
#
#
# Convention : Reuss Voigt Hill
#
# Bulk Modulus (GPa) = 24.09471 30.50864 27.30168
# Shear Modulus (GPa) = 13.98201 19.71654 16.84927
#
# Velocity S-wave (km/s) = 2.71661 3.22595 2.98217
# Velocity P-wave (km/s) = 4.74948 5.47528 5.12524
#
# Compressibility (1/GPa) = 0.04150289
#
# Stress axis : x y z
#
# Youngs Moduli (GPa) = 27.31630 26.97728 100.43166
#
# Poissons Ratio (x) = 0.39421 0.32795
# Poissons Ratio (y) = 0.39917 0.32009
# Poissons Ratio (z) = 0.08920 0.08598
#
# Static dielectric constant tensor:
#      x y z
#    x 3.174030 0.000000 0.000000 
#    y 0.000000 3.198180 0.000000 
#    z 0.000000 0.000000 4.136480 
# 
# 
# High freq. dielectric constant tensor:
#      x y z
#    x 1.699480 0.000000 0.000000 
#    y 0.000000 1.706470 0.000000 
#    z 0.000000 0.000000 1.764800 
# 
# From -- ./inp_files/30708.got.cif
#   From: 2010.03.12/outbox.cif.g09.slc.cpg/sg59_16_cif.got.tgz:30708.got - 2010.04.16 16:29:54.
