data_PCOD8241246
_publ_section_title
;
Structure prediction by ZEFSAII (Michael W. Deem and Ramdas Pophale) SiO2 
 PCOD8241246
Probable space group: P M M N
;
_chemical_formula_sum "Si O2"
_cell_formula_units_Z 64
_cell_length_a 8.925849
_cell_length_b 17.353678
_cell_length_c 23.057176
_cell_angle_alpha 90.000000
_cell_angle_beta 90.000000
_cell_angle_gamma 90.000000
_cell_volume 3571.471468
_symmetry_space_group_name_H-M "P M M N"
_symmetry_group_IT_number 59
_space_group.IT_coordinate_system_code '2'
_symmetry_cell_setting 'orthorhombic'
loop_
_space_group_symop_operation_xyz
x,y,z
1/2-x,1/2-y,z
1/2+x,-y,-z
-x,1/2+y,-z
-x,-y,-z
1/2+x,1/2+y,-z
1/2-x,y,z
x,1/2-y,z
loop_
_atom_site_type_symbol
_atom_site_label
_atom_site_fract_x
_atom_site_fract_y
_atom_site_fract_z
Si Si1 0.578425 0.659204 0.953182
Si Si2 0.427046 0.990796 0.243602
Si Si3 0.923596 0.053859 0.133059
Si Si4 0.922944 0.606867 0.076899
Si Si5 0.923885 0.165038 0.812719
Si Si6 0.574765 0.062168 0.540653
Si Si7 0.571986 0.478239 0.364073
Si Si8 0.074718 0.665359 0.560396
O O1 0.750000 0.632280 0.944202
O O2 0.564728 0.750000 0.954604
O O3 0.478180 0.629666 0.900064
O O4 0.512133 0.625539 0.013355
O O5 0.250000 0.997583 0.253414
O O6 0.478747 0.902210 0.230996
O O7 0.477242 0.044503 0.190573
O O8 0.513565 0.022182 0.299075
O O9 0.750000 0.061475 0.150693
O O10 0.951690 0.982488 0.090102
O O11 0.750000 0.629481 0.078402
O O12 0.999735 0.659950 0.124879
O O13 0.750000 0.152670 0.824154
O O14 0.957868 0.250000 0.785998
O O15 0.750000 0.045615 0.548020
O O16 0.546376 0.143301 0.507562
O O17 0.500000 0.000000 0.500000
O O18 0.495537 0.054058 0.603343
O O19 0.750000 0.483669 0.365657
O O20 0.511805 0.399942 0.395607
O O21 0.250000 0.670454 0.572006
O O22 0.001627 0.750000 0.571894
#
# Coordination Sequence:
#
# PCOD8241246 Si02
#       8
#     8   8   8   8   8   8   8   8
#     4  10  20  33  49  71 100 131 162 200 250 305
#     4  10  20  35  54  72  96 132 170 207 247 294
#     4  10  20  34  52  73  97 127 166 208 249 299
#     4   9  18  32  51  74  98 126 159 197 249 310
#     4   9  18  32  50  73  98 124 159 204 251 299
#     4   9  16  28  49  74 100 129 158 192 236 286
#     4  10  19  32  52  75 100 131 169 209 244 288
#     4   8  15  29  50  76 102 128 161 201 242 281
#
# _framework density 17.919785999999998
#
# number of rings (size 3 to 8) (size 9 to 14) (size 15 to 20)
#    0.000    2.625    0.000    3.000    0.000    2.500 
#    0.000    1.250    0.000   19.500    0.000    0.000 
#    0.000    0.000    0.000    0.000    0.000    0.000 
#
# Total GULP energy -793302.402206 kJ/mol
# GULP energy per Si atom -12395.350034 kJ/mol
# Density = 1.787900 g / cm^3
# Si number density = 17.919786 Si / 1000 Ang^3
#
#
#
# Elastic Constant Matrix: (Units=GPa)
#
#
# Indices 1 2 3 4 5 6 
#
# 1 60.1323 28.4224 35.2816 0.0000 0.0000 0.0000
# 2 28.4224 73.2239 56.0746 0.0000 0.0000 0.0000
# 3 35.2816 56.0746 114.5618 0.0000 0.0000 0.0000
# 4 0.0000 0.0000 0.0000 19.0207 0.0000 0.0000
# 5 0.0000 0.0000 0.0000 0.0000 32.6216 0.0000
# 6 0.0000 0.0000 0.0000 0.0000 0.0000 20.3859
#
#
#
# Elastic Compliance Matrix: (Units=1/GPa)
#
#
# Indices 1 2 3 4 5 6 
#
# 1 0.021483 -0.005234 -0.004054 0.000000 0.000000 0.000000
# 2 -0.005234 0.023120 -0.009705 0.000000 0.000000 0.000000
# 3 -0.004054 -0.009705 0.014728 0.000000 0.000000 0.000000
# 4 0.000000 0.000000 0.000000 0.052574 0.000000 0.000000
# 5 0.000000 0.000000 0.000000 0.000000 0.030655 0.000000
# 6 0.000000 0.000000 0.000000 0.000000 0.000000 0.049054
#
#
# Mechanical properties :
#
#
# Convention : Reuss Voigt Hill
#
# Bulk Modulus (GPa) = 46.84994 54.16391 50.50693
# Shear Modulus (GPa) = 21.12259 22.94827 22.03543
#
# Velocity S-wave (km/s) = 3.43699 3.58244 3.51047
# Velocity P-wave (km/s) = 6.47700 6.88500 6.68411
#
# Compressibility (1/GPa) = 0.02134474
#
# Stress axis : x y z
#
# Youngs Moduli (GPa) = 46.54935 43.25222 67.89953
#
# Poissons Ratio (x) = 0.22638 0.27527
# Poissons Ratio (y) = 0.24364 0.65895
# Poissons Ratio (z) = 0.18872 0.41975
#
# Static dielectric constant tensor:
#      x y z
#    x 3.309460 0.000000 0.000000 
#    y 0.000000 3.495270 0.000000 
#    z 0.000000 0.000000 3.366770 
# 
# 
# High freq. dielectric constant tensor:
#      x y z
#    x 1.687710 0.000000 0.000000 
#    y 0.000000 1.683750 0.000000 
#    z 0.000000 0.000000 1.685450 
# 
# From -- ./inp_files/29428.got.cif
#   From: 2010.03.12/outbox.cif.g09.slc.cpg/sg59_15_cif.got.tgz:29428.got - 2010.04.16 16:29:54.
