data_PCOD8241020
_publ_section_title
;
Structure prediction by ZEFSAII (Michael W. Deem and Ramdas Pophale) SiO2 
 PCOD8241020
Probable space group: P M M N
;
_chemical_formula_sum "Si O2"
_cell_formula_units_Z 48
_cell_length_a 14.725467
_cell_length_b 8.665237
_cell_length_c 19.870319
_cell_angle_alpha 90.000000
_cell_angle_beta 90.000000
_cell_angle_gamma 90.000000
_cell_volume 2535.445978
_symmetry_space_group_name_H-M "P M M N"
_symmetry_group_IT_number 59
_space_group.IT_coordinate_system_code '2'
_symmetry_cell_setting 'orthorhombic'
loop_
_space_group_symop_operation_xyz
x,y,z
1/2-x,1/2-y,z
1/2+x,-y,-z
-x,1/2+y,-z
-x,-y,-z
1/2+x,1/2+y,-z
1/2-x,y,z
x,1/2-y,z
loop_
_atom_site_type_symbol
_atom_site_label
_atom_site_fract_x
_atom_site_fract_y
_atom_site_fract_z
Si Si1 0.350134 0.565882 0.916323
Si Si2 0.939988 0.432900 0.440152
Si Si3 0.250000 0.433341 0.525047
Si Si4 0.250000 0.433679 0.371508
Si Si5 0.514343 0.568587 0.830451
Si Si6 0.143621 0.575797 0.066417
Si Si7 0.060795 0.066752 0.315499
O O1 0.250000 0.502593 0.897324
O O2 0.348438 0.750000 0.916466
O O3 0.421899 0.498885 0.862557
O O4 0.378093 0.511969 0.991484
O O5 0.936160 0.250000 0.447953
O O6 0.839054 0.501282 0.438537
O O7 0.000000 0.500000 0.500000
O O8 0.986793 0.483746 0.370423
O O9 0.250000 0.250000 0.529994
O O10 0.250000 0.491710 0.448258
O O11 0.250000 0.250000 0.370833
O O12 0.339793 0.499567 0.334908
O O13 0.503682 0.750000 0.823252
O O14 0.597967 0.533977 0.879082
O O15 0.531327 0.496301 0.756612
O O16 0.250000 0.570655 0.079755
O O17 0.106784 0.750000 0.074999
O O18 0.067429 0.250000 0.311878
#
# Coordination Sequence:
#
# PCOD8241020 Si02
#       7
#     8   8   4   4   8   8   8
#     4   8  15  30  50  72  99 133 172 213 255 305
#     4  11  21  37  58  83 111 141 184 228 269 322
#     4  11  21  37  61  83 107 144 181 222 278 327
#     4   9  16  31  53  75 105 140 163 198 264 323
#     4  10  19  31  52  79 101 129 173 216 257 305
#     4   9  18  32  49  70 102 139 169 204 259 313
#     4   9  19  33  51  78 110 139 168 212 268 315
#
# _framework density 18.931581000000001
#
# number of rings (size 3 to 8) (size 9 to 14) (size 15 to 20)
#    0.000    2.500    1.667    2.250    1.167    0.333 
#    1.500    1.667    0.000    1.500    0.000    0.000 
#    0.000    0.000    0.000    0.000    0.000    0.000 
#
# Total GULP energy -595092.565973 kJ/mol
# GULP energy per Si atom -12397.761791 kJ/mol
# Density = 1.888849 g / cm^3
# Si number density = 18.931581 Si / 1000 Ang^3
#
#
#
# Elastic Constant Matrix: (Units=GPa)
#
#
# Indices 1 2 3 4 5 6 
#
# 1 157.6694 24.4529 101.0320 0.0000 0.0000 0.0000
# 2 24.4529 26.9773 20.6349 0.0000 0.0000 0.0000
# 3 101.0320 20.6349 170.2779 0.0000 0.0000 0.0000
# 4 0.0000 0.0000 0.0000 18.1306 0.0000 0.0000
# 5 0.0000 0.0000 0.0000 0.0000 25.0135 0.0000
# 6 0.0000 0.0000 0.0000 0.0000 0.0000 26.0484
#
#
#
# Elastic Compliance Matrix: (Units=1/GPa)
#
#
# Indices 1 2 3 4 5 6 
#
# 1 0.010913 -0.005444 -0.005815 0.000000 0.000000 0.000000
# 2 -0.005444 0.043571 -0.002050 0.000000 0.000000 0.000000
# 3 -0.005815 -0.002050 0.009572 0.000000 0.000000 0.000000
# 4 0.000000 0.000000 0.000000 0.055155 0.000000 0.000000
# 5 0.000000 0.000000 0.000000 0.000000 0.039978 0.000000
# 6 0.000000 0.000000 0.000000 0.000000 0.000000 0.038390
#
#
# Mechanical properties :
#
#
# Convention : Reuss Voigt Hill
#
# Bulk Modulus (GPa) = 26.71159 71.90714 49.30936
# Shear Modulus (GPa) = 21.12589 27.75885 24.44237
#
# Velocity S-wave (km/s) = 3.34414 3.83335 3.59707
# Velocity P-wave (km/s) = 5.38992 7.59328 6.58442
#
# Compressibility (1/GPa) = 0.03743693
#
# Stress axis : x y z
#
# Youngs Moduli (GPa) = 91.63325 22.95126 104.47466
#
# Poissons Ratio (x) = 0.12494 0.60757
# Poissons Ratio (y) = 0.49882 0.21419
# Poissons Ratio (z) = 0.53289 0.04705
#
# Static dielectric constant tensor:
#      x y z
#    x 3.751710 0.000000 0.000000 
#    y 0.000000 3.066800 0.000000 
#    z 0.000000 0.000000 3.720220 
# 
# 
# High freq. dielectric constant tensor:
#      x y z
#    x 1.749110 0.000000 0.000000 
#    y 0.000000 1.692020 0.000000 
#    z 0.000000 0.000000 1.736190 
# 
# From -- ./inp_files/27405.got.cif
#   From: 2010.03.12/outbox.cif.g09.slc.cpg/sg59_14_cif.got.tgz:27405.got - 2010.04.16 16:29:54.
