data_PCOD8241390
_publ_section_title
;
Structure prediction by ZEFSAII (Michael W. Deem and Ramdas Pophale) SiO2 
 PCOD8241390
Probable space group: P M M N
;
_chemical_formula_sum "Si O2"
_cell_formula_units_Z 64
_cell_length_a 9.440782
_cell_length_b 15.667176
_cell_length_c 23.660760
_cell_angle_alpha 90.000000
_cell_angle_beta 90.000000
_cell_angle_gamma 90.000000
_cell_volume 3499.672314
_symmetry_space_group_name_H-M "P M M N"
_symmetry_group_IT_number 59
_space_group.IT_coordinate_system_code '2'
_symmetry_cell_setting 'orthorhombic'
loop_
_space_group_symop_operation_xyz
x,y,z
1/2-x,1/2-y,z
1/2+x,-y,-z
-x,1/2+y,-z
-x,-y,-z
1/2+x,1/2+y,-z
1/2-x,y,z
x,1/2-y,z
loop_
_atom_site_type_symbol
_atom_site_label
_atom_site_fract_x
_atom_site_fract_y
_atom_site_fract_z
Si Si1 0.915537 0.492774 0.138427
Si Si2 0.587393 0.345899 0.672173
Si Si3 0.589708 0.571514 0.028611
Si Si4 0.585263 0.600062 0.557762
Si Si5 0.912640 0.154236 0.336381
Si Si6 0.087067 0.155634 0.080157
Si Si7 0.416850 0.009182 0.735231
Si Si8 0.588981 0.401935 0.549595
O O1 0.750000 0.472017 0.143121
O O2 0.947370 0.574132 0.096084
O O3 0.974342 0.513506 0.200519
O O4 0.989012 0.408768 0.113990
O O5 0.750000 0.370974 0.684508
O O6 0.554199 0.250000 0.693893
O O7 0.488108 0.413410 0.702502
O O8 0.559138 0.346674 0.605114
O O9 0.750000 0.540118 0.024395
O O10 0.500000 0.500000 0.000000
O O11 0.565221 0.654317 0.989039
O O12 0.750000 0.624401 0.557038
O O13 0.510972 0.648612 0.608915
O O14 0.558706 0.499835 0.565751
O O15 0.515769 0.631038 0.499081
O O16 0.750000 0.138254 0.354530
O O17 0.930565 0.250000 0.310622
O O18 0.959144 0.083124 0.290514
O O19 0.250000 0.133887 0.094338
O O20 0.046561 0.250000 0.100539
O O21 0.250000 0.024290 0.731939
O O22 0.750000 0.390957 0.528010
#
# Coordination Sequence:
#
# PCOD8241390 Si02
#       8
#     8   8   8   8   8   8   8   8
#     4   9  18  32  51  74  99 134 175 213 257 306
#     4  10  21  38  59  80 103 136 177 218 265 320
#     4   8  14  27  46  68  96 127 161 198 241 292
#     4  10  19  32  53  80 107 134 169 214 263 315
#     4  10  21  36  53  73 102 142 180 214 261 319
#     4   9  17  29  47  74 105 135 168 208 254 306
#     4  10  21  37  56  78 106 139 179 225 266 307
#     4   9  18  33  53  78 107 136 167 207 262 323
#
# _framework density 18.287427000000001
#
# number of rings (size 3 to 8) (size 9 to 14) (size 15 to 20)
#    0.000    2.625    1.250    0.375    0.000    3.250 
#    0.000    3.125    0.000    2.250    0.000    0.000 
#    0.000    0.000    0.000    0.000    0.000    0.000 
#
# Total GULP energy -793046.966737 kJ/mol
# GULP energy per Si atom -12391.358855 kJ/mol
# Density = 1.824580 g / cm^3
# Si number density = 18.287427 Si / 1000 Ang^3
#
#
#
# Elastic Constant Matrix: (Units=GPa)
#
#
# Indices 1 2 3 4 5 6 
#
# 1 55.5242 29.6900 42.6071 0.0000 0.0000 0.0000
# 2 29.6900 75.8587 39.6261 0.0000 0.0000 0.0000
# 3 42.6071 39.6261 109.7463 0.0000 0.0000 0.0000
# 4 0.0000 0.0000 0.0000 13.8537 0.0000 0.0000
# 5 0.0000 0.0000 0.0000 0.0000 23.1044 0.0000
# 6 0.0000 0.0000 0.0000 0.0000 0.0000 22.3396
#
#
#
# Elastic Compliance Matrix: (Units=1/GPa)
#
#
# Indices 1 2 3 4 5 6 
#
# 1 0.028044 -0.006518 -0.008534 0.000000 0.000000 0.000000
# 2 -0.006518 0.017762 -0.003883 0.000000 0.000000 0.000000
# 3 -0.008534 -0.003883 0.013827 0.000000 0.000000 0.000000
# 4 0.000000 0.000000 0.000000 0.072183 0.000000 0.000000
# 5 0.000000 0.000000 0.000000 0.000000 0.043282 0.000000
# 6 0.000000 0.000000 0.000000 0.000000 0.000000 0.044764
#
#
# Mechanical properties :
#
#
# Convention : Reuss Voigt Hill
#
# Bulk Modulus (GPa) = 45.94934 51.66394 48.80664
# Shear Modulus (GPa) = 18.86894 20.47329 19.67111
#
# Velocity S-wave (km/s) = 3.21565 3.34956 3.28329
# Velocity P-wave (km/s) = 6.24243 6.57813 6.41248
#
# Compressibility (1/GPa) = 0.02176310
#
# Stress axis : x y z
#
# Youngs Moduli (GPa) = 35.65776 56.30096 72.32175
#
# Poissons Ratio (x) = 0.36698 0.61721
# Poissons Ratio (y) = 0.23242 0.28080
# Poissons Ratio (z) = 0.30431 0.21860
#
# Static dielectric constant tensor:
#      x y z
#    x 3.378310 0.000000 0.000000 
#    y 0.000000 3.363420 0.000000 
#    z 0.000000 0.000000 3.559690 
# 
# 
# High freq. dielectric constant tensor:
#      x y z
#    x 1.706860 0.000000 0.000000 
#    y 0.000000 1.693910 0.000000 
#    z 0.000000 0.000000 1.706430 
# 
# From -- ./inp_files/31662.got.cif
#   From: 2010.03.12/outbox.cif.g09.slc.cpg/sg59_16_cif.got.tgz:31662.got - 2010.04.16 16:29:54.
