data_PCOD8241818
_publ_section_title
;
Structure prediction by ZEFSAII (Michael W. Deem and Ramdas Pophale) SiO2 
 PCOD8241818
Probable space group: P M M N
;
_chemical_formula_sum "Si O2"
_cell_formula_units_Z 64
_cell_length_a 23.136058
_cell_length_b 8.892086
_cell_length_c 19.048961
_cell_angle_alpha 90.000000
_cell_angle_beta 90.000000
_cell_angle_gamma 90.000000
_cell_volume 3918.901171
_symmetry_space_group_name_H-M "P M M N"
_symmetry_group_IT_number 59
_space_group.IT_coordinate_system_code '2'
_symmetry_cell_setting 'orthorhombic'
loop_
_space_group_symop_operation_xyz
x,y,z
1/2-x,1/2-y,z
1/2+x,-y,-z
-x,1/2+y,-z
-x,-y,-z
1/2+x,1/2+y,-z
1/2-x,y,z
x,1/2-y,z
loop_
_atom_site_type_symbol
_atom_site_label
_atom_site_fract_x
_atom_site_fract_y
_atom_site_fract_z
Si Si1 0.913834 0.422730 0.845306
Si Si2 0.982491 0.920635 0.429215
Si Si3 0.474992 0.580648 0.287118
Si Si4 0.133812 0.072153 0.913477
Si Si5 0.083206 0.574389 0.683493
Si Si6 0.013886 0.927337 0.926264
Si Si7 0.184750 0.923437 0.782825
Si Si8 0.184144 0.925107 0.051369
O O1 0.929134 0.250000 0.864287
O O2 0.917758 0.450357 0.760406
O O3 0.850906 0.461419 0.876702
O O4 0.961412 0.534188 0.875526
O O5 0.968210 0.750000 0.448054
O O6 0.035412 0.935892 0.371696
O O7 0.925248 0.993112 0.392510
O O8 0.000000 0.000000 0.500000
O O9 0.496856 0.750000 0.272019
O O10 0.528756 0.471165 0.266269
O O11 0.126686 0.250000 0.914576
O O12 0.072891 0.995292 0.896166
O O13 0.177737 0.022509 0.852714
O O14 0.157714 0.021096 0.988661
O O15 0.083451 0.750000 0.669537
O O16 0.142324 0.521299 0.720705
O O17 0.020605 0.750000 0.934617
O O18 0.000000 0.000000 0.000000
O O19 0.250000 0.943748 0.755344
O O20 0.171468 0.750000 0.802081
O O21 0.250000 0.973288 0.065322
O O22 0.179530 0.750000 0.031093
#
# Coordination Sequence:
#
# PCOD8241818 Si02
#       8
#     8   8   8   8   8   8   8   8
#     4  10  19  34  52  71  97 127 161 200 247 301
#     4   9  17  30  49  75 105 133 157 189 236 291
#     4   8  17  30  47  71  99 128 156 195 244 292
#     4  12  24  36  51  71  96 130 170 215 262 306
#     4   9  17  30  49  73 100 132 164 202 247 295
#     4  12  23  35  51  73  96 125 161 206 257 308
#     4  10  21  36  52  71  99 138 180 218 255 298
#     4  10  21  36  53  70  92 127 169 213 258 301
#
# _framework density 16.331108
#
# number of rings (size 3 to 8) (size 9 to 14) (size 15 to 20)
#    0.750    1.250    1.250    3.750    0.000    5.500 
#    0.000    0.000    0.000    0.000    0.000    0.875 
#    0.000    5.000    0.000    0.000    0.000    0.000 
#
# Total GULP energy -792983.310211 kJ/mol
# GULP energy per Si atom -12390.364222 kJ/mol
# Density = 1.629394 g / cm^3
# Si number density = 16.331108 Si / 1000 Ang^3
#
#
#
# Elastic Constant Matrix: (Units=GPa)
#
#
# Indices 1 2 3 4 5 6 
#
# 1 90.0631 33.0261 44.8726 0.0000 0.0000 0.0000
# 2 33.0261 89.5650 40.7093 0.0000 0.0000 0.0000
# 3 44.8726 40.7093 108.6274 0.0000 0.0000 0.0000
# 4 0.0000 0.0000 0.0000 22.9325 0.0000 0.0000
# 5 0.0000 0.0000 0.0000 0.0000 17.2079 0.0000
# 6 0.0000 0.0000 0.0000 0.0000 0.0000 19.0817
#
#
#
# Elastic Compliance Matrix: (Units=1/GPa)
#
#
# Indices 1 2 3 4 5 6 
#
# 1 0.014708 -0.003208 -0.004873 0.000000 0.000000 0.000000
# 2 -0.003208 0.014157 -0.003980 0.000000 0.000000 0.000000
# 3 -0.004873 -0.003980 0.012711 0.000000 0.000000 0.000000
# 4 0.000000 0.000000 0.000000 0.043606 0.000000 0.000000
# 5 0.000000 0.000000 0.000000 0.000000 0.058113 0.000000
# 6 0.000000 0.000000 0.000000 0.000000 0.000000 0.052406
#
#
# Mechanical properties :
#
#
# Convention : Reuss Voigt Hill
#
# Bulk Modulus (GPa) = 57.30046 58.38573 57.84309
# Shear Modulus (GPa) = 22.15901 23.15426 22.65663
#
# Velocity S-wave (km/s) = 3.68755 3.76945 3.72873
# Velocity P-wave (km/s) = 7.30025 7.40094 7.35076
#
# Compressibility (1/GPa) = 0.01745187
#
# Stress axis : x y z
#
# Youngs Moduli (GPa) = 67.99090 70.63520 78.67508
#
# Poissons Ratio (x) = 0.22662 0.38340
# Poissons Ratio (y) = 0.21814 0.31315
# Poissons Ratio (z) = 0.33134 0.28115
#
# Static dielectric constant tensor:
#      x y z
#    x 3.099630 0.000000 0.000000 
#    y 0.000000 3.339200 0.000000 
#    z 0.000000 0.000000 3.026130 
# 
# 
# High freq. dielectric constant tensor:
#      x y z
#    x 1.603030 0.000000 0.000000 
#    y 0.000000 1.636610 0.000000 
#    z 0.000000 0.000000 1.613740 
# 
# From -- ./inp_files/31067.got.cif
#   From: 2010.03.12/outbox.cif.g09.slc.cpg/sg59_16_cif.got.tgz:31067.got - 2010.04.16 16:29:54.
