data_PCOD8241483
_publ_section_title
;
Structure prediction by ZEFSAII (Michael W. Deem and Ramdas Pophale) SiO2 
 PCOD8241483
Probable space group: P M M N
;
_chemical_formula_sum "Si O2"
_cell_formula_units_Z 56
_cell_length_a 21.124703
_cell_length_b 13.979925
_cell_length_c 9.704387
_cell_angle_alpha 90.000000
_cell_angle_beta 90.000000
_cell_angle_gamma 90.000000
_cell_volume 2865.916683
_symmetry_space_group_name_H-M "P M M N"
_symmetry_group_IT_number 59
_space_group.IT_coordinate_system_code '2'
_symmetry_cell_setting 'orthorhombic'
loop_
_space_group_symop_operation_xyz
x,y,z
1/2-x,1/2-y,z
1/2+x,-y,-z
-x,1/2+y,-z
-x,-y,-z
1/2+x,1/2+y,-z
1/2-x,y,z
x,1/2-y,z
loop_
_atom_site_type_symbol
_atom_site_label
_atom_site_fract_x
_atom_site_fract_y
_atom_site_fract_z
Si Si1 0.879121 0.942654 0.162883
Si Si2 0.043998 0.072513 0.083123
Si Si3 0.448228 0.358248 0.584821
Si Si4 0.750000 0.637022 0.593210
Si Si5 0.408896 0.854692 0.479050
Si Si6 0.250000 0.137159 0.730289
Si Si7 0.377807 0.039922 0.345935
Si Si8 0.078355 0.854846 0.802261
O O1 0.923053 0.924639 0.294143
O O2 0.808969 0.908857 0.192643
O O3 0.881757 0.057634 0.130598
O O4 0.907548 0.884545 0.031573
O O5 0.088577 0.025223 0.199229
O O6 0.995657 0.147681 0.151449
O O7 0.000000 0.000000 0.000000
O O8 0.422525 0.250000 0.603019
O O9 0.523266 0.363174 0.593731
O O10 0.424234 0.397425 0.439817
O O11 0.750000 0.750000 0.614957
O O12 0.750000 0.610413 0.430957
O O13 0.689023 0.593225 0.668524
O O14 0.379226 0.750000 0.448313
O O15 0.418235 0.869668 0.639801
O O16 0.364361 0.936066 0.414179
O O17 0.250000 0.250000 0.751198
O O18 0.106630 0.750000 0.843048
#
# Coordination Sequence:
#
# PCOD8241483 Si02
#       8
#     8   8   8   4   8   4   8   8
#     4  11  22  39  56  85 121 160 199 243 300 362
#     4  10  23  38  59  88 122 160 194 242 312 371
#     4  11  20  33  59  87 114 153 201 253 307 357
#     4  11  24  39  62  92 117 160 215 254 300 355
#     4  10  19  32  58  91 114 147 196 250 309 358
#     4  11  22  39  62  84 117 160 209 256 298 355
#     4  12  21  39  60  84 125 160 203 257 299 357
#     4  10  19  34  57  87 118 150 191 246 305 362
#
# _framework density 19.539997
#
# number of rings (size 3 to 8) (size 9 to 14) (size 15 to 20)
#    0.000    1.286    4.286    3.000    0.000    2.286 
#    0.000    5.714    0.000    2.571    0.000    4.000 
#    0.000    0.000    0.000    0.000    0.000    0.000 
#
# Total GULP energy -694149.730120 kJ/mol
# GULP energy per Si atom -12395.530895 kJ/mol
# Density = 1.949552 g / cm^3
# Si number density = 19.539997 Si / 1000 Ang^3
#
#
#
# Elastic Constant Matrix: (Units=GPa)
#
#
# Indices 1 2 3 4 5 6 
#
# 1 83.5563 40.7708 40.3140 0.0000 0.0000 0.0000
# 2 40.7708 122.7357 24.0107 0.0000 0.0000 0.0000
# 3 40.3140 24.0107 93.0679 0.0000 0.0000 0.0000
# 4 0.0000 0.0000 0.0000 9.2965 0.0000 0.0000
# 5 0.0000 0.0000 0.0000 0.0000 26.2700 0.0000
# 6 0.0000 0.0000 0.0000 0.0000 0.0000 21.1827
#
#
#
# Elastic Compliance Matrix: (Units=1/GPa)
#
#
# Indices 1 2 3 4 5 6 
#
# 1 0.017188 -0.004479 -0.006290 0.000000 0.000000 0.000000
# 2 -0.004479 0.009748 -0.000575 0.000000 0.000000 0.000000
# 3 -0.006290 -0.000575 0.013618 0.000000 0.000000 0.000000
# 4 0.000000 0.000000 0.000000 0.107567 0.000000 0.000000
# 5 0.000000 0.000000 0.000000 0.000000 0.038066 0.000000
# 6 0.000000 0.000000 0.000000 0.000000 0.000000 0.047208
#
#
# Mechanical properties :
#
#
# Convention : Reuss Voigt Hill
#
# Bulk Modulus (GPa) = 55.97053 56.61677 56.29365
# Shear Modulus (GPa) = 19.08119 24.30080 21.69099
#
# Velocity S-wave (km/s) = 3.12832 3.53036 3.33540
# Velocity P-wave (km/s) = 6.46179 6.75690 6.61099
#
# Compressibility (1/GPa) = 0.01786655
#
# Stress axis : x y z
#
# Youngs Moduli (GPa) = 58.17930 102.58610 73.43418
#
# Poissons Ratio (x) = 0.45950 0.46189
# Poissons Ratio (y) = 0.26060 0.04220
# Poissons Ratio (z) = 0.36594 0.05895
#
# Static dielectric constant tensor:
#      x y z
#    x 3.457570 0.000000 0.000000 
#    y 0.000000 3.811250 0.000000 
#    z 0.000000 0.000000 3.677050 
# 
# 
# High freq. dielectric constant tensor:
#      x y z
#    x 1.736170 0.000000 0.000000 
#    y 0.000000 1.765420 0.000000 
#    z 0.000000 0.000000 1.757920 
# 
# From -- ./inp_files/9395.got.cif
#   From: 2010.03.12/outbox.cif.g09.slc.cpg/sg59_5_cif.got.tgz:9395.got - 2010.04.16 16:29:54.
