data_PCOD8241141
_publ_section_title
;
Structure prediction by ZEFSAII (Michael W. Deem and Ramdas Pophale) SiO2 
 PCOD8241141
Probable space group: P M M N
;
_chemical_formula_sum "Si O2"
_cell_formula_units_Z 48
_cell_length_a 8.989347
_cell_length_b 18.163378
_cell_length_c 14.691566
_cell_angle_alpha 90.000000
_cell_angle_beta 90.000000
_cell_angle_gamma 90.000000
_cell_volume 2398.793463
_symmetry_space_group_name_H-M "P M M N"
_symmetry_group_IT_number 59
_space_group.IT_coordinate_system_code '2'
_symmetry_cell_setting 'orthorhombic'
loop_
_space_group_symop_operation_xyz
x,y,z
1/2-x,1/2-y,z
1/2+x,-y,-z
-x,1/2+y,-z
-x,-y,-z
1/2+x,1/2+y,-z
1/2-x,y,z
x,1/2-y,z
loop_
_atom_site_type_symbol
_atom_site_label
_atom_site_fract_x
_atom_site_fract_y
_atom_site_fract_z
Si Si1 0.577502 0.332076 0.327849
Si Si2 0.584780 0.851229 0.853360
Si Si3 0.928027 0.523961 0.593717
Si Si4 0.413856 0.987609 0.090672
Si Si5 0.074289 0.750000 0.210450
Si Si6 0.077898 0.250000 0.984659
Si Si7 0.426751 0.593322 0.259051
O O1 0.750000 0.354767 0.333764
O O2 0.553598 0.250000 0.371359
O O3 0.530561 0.325297 0.222583
O O4 0.481561 0.394046 0.379577
O O5 0.750000 0.820183 0.830624
O O6 0.536698 0.821305 0.953218
O O7 0.590593 0.938433 0.850956
O O8 0.750000 0.524624 0.586886
O O9 0.988306 0.461312 0.663707
O O10 0.000000 0.500000 0.500000
O O11 0.250000 0.961422 0.062298
O O12 0.489400 0.929075 0.158967
O O13 0.500000 0.000000 0.000000
O O14 0.250000 0.750000 0.198782
O O15 0.023571 0.821343 0.269962
O O16 0.013122 0.750000 0.108190
O O17 0.250000 0.250000 0.956742
O O18 0.250000 0.584616 0.257879
#
# Coordination Sequence:
#
# PCOD8241141 Si02
#       7
#     8   8   8   8   4   4   8
#     4  11  23  39  62  94 125 154 198 251 306 368
#     4  10  19  33  54  78 115 161 201 243 303 364
#     4  11  23  44  69  93 124 161 205 256 317 383
#     4  10  19  32  50  78 111 154 203 246 296 358
#     4  10  20  36  58  83 114 159 208 251 300 354
#     4  10  20  32  50  81 120 163 204 249 308 362
#     4   9  19  37  60  83 116 159 203 248 301 366
#
# _framework density 20.010059999999999
#
# number of rings (size 3 to 8) (size 9 to 14) (size 15 to 20)
#    0.000    1.833    2.500    2.000    0.000    2.333 
#    1.500    1.667    0.000    0.000    0.000    0.000 
#    0.000    0.000    0.000    0.000    0.000    0.000 
#
# Total GULP energy -594823.903869 kJ/mol
# GULP energy per Si atom -12392.164664 kJ/mol
# Density = 1.996452 g / cm^3
# Si number density = 20.010060 Si / 1000 Ang^3
#
#
#
# Elastic Constant Matrix: (Units=GPa)
#
#
# Indices 1 2 3 4 5 6 
#
# 1 73.0382 38.9093 41.0536 0.0000 0.0000 0.0000
# 2 38.9093 148.5661 56.9119 0.0000 0.0000 0.0000
# 3 41.0536 56.9119 117.0273 0.0000 0.0000 0.0000
# 4 0.0000 0.0000 0.0000 23.6707 0.0000 0.0000
# 5 0.0000 0.0000 0.0000 0.0000 32.3401 0.0000
# 6 0.0000 0.0000 0.0000 0.0000 0.0000 23.6136
#
#
#
# Elastic Compliance Matrix: (Units=1/GPa)
#
#
# Indices 1 2 3 4 5 6 
#
# 1 0.017964 -0.002815 -0.004933 0.000000 0.000000 0.000000
# 2 -0.002815 0.008713 -0.003250 0.000000 0.000000 0.000000
# 3 -0.004933 -0.003250 0.011856 0.000000 0.000000 0.000000
# 4 0.000000 0.000000 0.000000 0.042246 0.000000 0.000000
# 5 0.000000 0.000000 0.000000 0.000000 0.030921 0.000000
# 6 0.000000 0.000000 0.000000 0.000000 0.000000 0.042348
#
#
# Mechanical properties :
#
#
# Convention : Reuss Voigt Hill
#
# Bulk Modulus (GPa) = 60.46844 68.04238 64.25541
# Shear Modulus (GPa) = 27.53960 29.37533 28.45747
#
# Velocity S-wave (km/s) = 3.71386 3.83564 3.77524
# Velocity P-wave (km/s) = 6.97674 7.32763 7.15434
#
# Compressibility (1/GPa) = 0.01653755
#
# Stress axis : x y z
#
# Youngs Moduli (GPa) = 55.66772 114.76850 84.34646
#
# Poissons Ratio (x) = 0.32308 0.41606
# Poissons Ratio (y) = 0.15671 0.27411
# Poissons Ratio (z) = 0.27459 0.37298
#
# Static dielectric constant tensor:
#      x y z
#    x 3.469840 0.000000 0.000000 
#    y 0.000000 4.261620 0.000000 
#    z 0.000000 0.000000 3.458580 
# 
# 
# High freq. dielectric constant tensor:
#      x y z
#    x 1.757380 0.000000 0.000000 
#    y 0.000000 1.805330 0.000000 
#    z 0.000000 0.000000 1.762570 
# 
# From -- ./inp_files/20611.got.cif
#   From: 2010.03.12/outbox.cif.g09.slc.cpg/sg59_11_cif.got.tgz:20611.got - 2010.04.16 16:29:54.
