data_PCOD8241446
_publ_section_title
;
Structure prediction by ZEFSAII (Michael W. Deem and Ramdas Pophale) SiO2 
 PCOD8241446
Probable space group: P M M N
;
_chemical_formula_sum "Si O2"
_cell_formula_units_Z 48
_cell_length_a 19.174977
_cell_length_b 8.726437
_cell_length_c 15.131774
_cell_angle_alpha 90.000000
_cell_angle_beta 90.000000
_cell_angle_gamma 90.000000
_cell_volume 2531.988073
_symmetry_space_group_name_H-M "P M M N"
_symmetry_group_IT_number 59
_space_group.IT_coordinate_system_code '2'
_symmetry_cell_setting 'orthorhombic'
loop_
_space_group_symop_operation_xyz
x,y,z
1/2-x,1/2-y,z
1/2+x,-y,-z
-x,1/2+y,-z
-x,-y,-z
1/2+x,1/2+y,-z
1/2-x,y,z
x,1/2-y,z
loop_
_atom_site_type_symbol
_atom_site_label
_atom_site_fract_x
_atom_site_fract_y
_atom_site_fract_z
Si Si1 0.330513 0.426336 0.597274
Si Si2 0.929996 0.070517 0.538767
Si Si3 0.064536 0.431070 0.272988
Si Si4 0.171993 0.432053 0.128211
Si Si5 0.081600 0.428659 0.770503
Si Si6 0.827715 0.567912 0.068338
O O1 0.250000 0.471410 0.604636
O O2 0.340555 0.250000 0.569132
O O3 0.364960 0.532620 0.523379
O O4 0.364851 0.458217 0.691525
O O5 0.941597 0.250000 0.545261
O O6 0.913829 0.006416 0.635203
O O7 0.000000 0.000000 0.500000
O O8 0.070875 0.250000 0.282823
O O9 0.117562 0.497515 0.199331
O O10 0.986816 0.472875 0.245155
O O11 0.250000 0.491937 0.150418
O O12 0.171566 0.250000 0.130646
O O13 0.149670 0.487117 0.029782
O O14 0.061619 0.250000 0.777497
O O15 0.117277 0.493245 0.859790
O O16 0.750000 0.505335 0.089619
O O17 0.825869 0.750000 0.073732
#
# Coordination Sequence:
#
# PCOD8241446 Si02
#       6
#     8   8   8   8   8   8
#     4  10  21  37  58  85 115 148 186 227 274 335
#     4  12  24  40  60  81 109 147 188 233 285 337
#     4  11  22  35  55  82 111 147 186 230 283 338
#     4   8  16  32  53  78 109 145 188 233 273 320
#     4  10  19  32  54  83 114 147 184 227 274 329
#     4   8  14  28  52  80 109 144 187 231 271 319
#
# _framework density 18.957435
#
# number of rings (size 3 to 8) (size 9 to 14) (size 15 to 20)
#    0.000    2.167    1.667    3.500    0.000    3.667 
#    0.000    1.667    0.000    4.000    0.000    4.667 
#    0.000    0.000    0.000    0.000    0.000    0.000 
#
# Total GULP energy -595201.773618 kJ/mol
# GULP energy per Si atom -12400.036950 kJ/mol
# Density = 1.891429 g / cm^3
# Si number density = 18.957435 Si / 1000 Ang^3
#
#
#
# Elastic Constant Matrix: (Units=GPa)
#
#
# Indices 1 2 3 4 5 6 
#
# 1 117.3861 33.3764 68.7889 0.0000 0.0000 0.0000
# 2 33.3764 63.5852 41.7571 0.0000 0.0000 0.0000
# 3 68.7889 41.7571 152.5114 0.0000 0.0000 0.0000
# 4 0.0000 0.0000 0.0000 19.5055 0.0000 0.0000
# 5 0.0000 0.0000 0.0000 0.0000 15.9828 0.0000
# 6 0.0000 0.0000 0.0000 0.0000 0.0000 15.7900
#
#
#
# Elastic Compliance Matrix: (Units=1/GPa)
#
#
# Indices 1 2 3 4 5 6 
#
# 1 0.012150 -0.003388 -0.004553 0.000000 0.000000 0.000000
# 2 -0.003388 0.020119 -0.003981 0.000000 0.000000 0.000000
# 3 -0.004553 -0.003981 0.009700 0.000000 0.000000 0.000000
# 4 0.000000 0.000000 0.000000 0.051267 0.000000 0.000000
# 5 0.000000 0.000000 0.000000 0.000000 0.062567 0.000000
# 6 0.000000 0.000000 0.000000 0.000000 0.000000 0.063331
#
#
# Mechanical properties :
#
#
# Convention : Reuss Voigt Hill
#
# Bulk Modulus (GPa) = 55.16484 69.03638 62.10061
# Shear Modulus (GPa) = 20.07871 22.89301 21.48586
#
# Velocity S-wave (km/s) = 3.25798 3.47882 3.37021
# Velocity P-wave (km/s) = 6.58142 7.25478 6.92629
#
# Compressibility (1/GPa) = 0.01812749
#
# Stress axis : x y z
#
# Youngs Moduli (GPa) = 82.30445 49.70341 103.09148
#
# Poissons Ratio (x) = 0.16839 0.46933
# Poissons Ratio (y) = 0.27884 0.41036
# Poissons Ratio (z) = 0.37469 0.19784
#
# Static dielectric constant tensor:
#      x y z
#    x 3.954340 0.000000 0.000000 
#    y 0.000000 3.146400 0.000000 
#    z 0.000000 0.000000 3.872960 
# 
# 
# High freq. dielectric constant tensor:
#      x y z
#    x 1.741010 0.000000 0.000000 
#    y 0.000000 1.701620 0.000000 
#    z 0.000000 0.000000 1.752690 
# 
# From -- ./inp_files/20306.got.cif
#   From: 2010.03.12/outbox.cif.g09.slc.cpg/sg59_11_cif.got.tgz:20306.got - 2010.04.16 16:29:54.
