data_PCOD8241939
_publ_section_title
;
Structure prediction by ZEFSAII (Michael W. Deem and Ramdas Pophale) SiO2 
 PCOD8241939
Probable space group: P M M N
;
_chemical_formula_sum "Si O2"
_cell_formula_units_Z 48
_cell_length_a 9.045962
_cell_length_b 17.704108
_cell_length_c 15.834066
_cell_angle_alpha 90.000000
_cell_angle_beta 90.000000
_cell_angle_gamma 90.000000
_cell_volume 2535.836567
_symmetry_space_group_name_H-M "P M M N"
_symmetry_group_IT_number 59
_space_group.IT_coordinate_system_code '2'
_symmetry_cell_setting 'orthorhombic'
loop_
_space_group_symop_operation_xyz
x,y,z
1/2-x,1/2-y,z
1/2+x,-y,-z
-x,1/2+y,-z
-x,-y,-z
1/2+x,1/2+y,-z
1/2-x,y,z
x,1/2-y,z
loop_
_atom_site_type_symbol
_atom_site_label
_atom_site_fract_x
_atom_site_fract_y
_atom_site_fract_z
Si Si1 0.581564 0.886827 0.021024
Si Si2 0.076061 0.890972 0.402485
Si Si3 0.419058 0.962065 0.874692
Si Si4 0.575061 0.250000 0.894179
Si Si5 0.079007 0.460802 0.301372
Si Si6 0.074325 0.750000 0.294849
Si Si7 0.578685 0.836121 0.565928
O O1 0.750000 0.859282 0.011676
O O2 0.479065 0.822732 0.057426
O O3 0.568157 0.955640 0.085304
O O4 0.520924 0.905680 0.928158
O O5 0.250000 0.883921 0.414128
O O6 0.015123 0.824465 0.342117
O O7 0.005096 0.882026 0.493889
O O8 0.031108 0.971543 0.363770
O O9 0.250000 0.933638 0.875843
O O10 0.476446 0.964452 0.779811
O O11 0.750000 0.250000 0.892336
O O12 0.509214 0.250000 0.799523
O O13 0.250000 0.470906 0.274522
O O14 0.052258 0.380446 0.346586
O O15 0.250000 0.750000 0.291855
O O16 0.750000 0.836059 0.541807
O O17 0.519556 0.750000 0.575376
#
# Coordination Sequence:
#
# PCOD8241939 Si02
#       7
#     8   8   8   4   8   4   8
#     4  10  21  38  59  83 116 152 186 231 289 342
#     4  10  19  34  56  80 108 144 187 230 280 336
#     4  10  21  38  60  85 112 147 192 237 282 338
#     4  11  21  35  57  86 117 150 189 231 278 339
#     4  10  21  36  56  81 110 147 189 233 282 341
#     4   9  18  31  51  80 111 140 175 227 284 333
#     4  10  21  37  54  77 111 149 186 229 284 337
#
# _framework density 18.928664999999999
#
# number of rings (size 3 to 8) (size 9 to 14) (size 15 to 20)
#    0.000    2.000    0.833    2.750    0.000    4.667 
#    1.500    1.667    0.000    0.000    0.000    0.000 
#    0.000    0.000    0.000    0.000    0.000    0.000 
#
# Total GULP energy -595347.374223 kJ/mol
# GULP energy per Si atom -12403.070296 kJ/mol
# Density = 1.888558 g / cm^3
# Si number density = 18.928665 Si / 1000 Ang^3
#
#
#
# Elastic Constant Matrix: (Units=GPa)
#
#
# Indices 1 2 3 4 5 6 
#
# 1 74.7842 29.2363 51.3029 0.0000 0.0000 0.0000
# 2 29.2363 70.8046 39.6047 0.0000 0.0000 0.0000
# 3 51.3029 39.6047 108.0131 0.0000 0.0000 0.0000
# 4 0.0000 0.0000 0.0000 19.2082 0.0000 0.0000
# 5 0.0000 0.0000 0.0000 0.0000 34.1579 0.0000
# 6 0.0000 0.0000 0.0000 0.0000 0.0000 34.5183
#
#
#
# Elastic Compliance Matrix: (Units=1/GPa)
#
#
# Indices 1 2 3 4 5 6 
#
# 1 0.020625 -0.003820 -0.008395 0.000000 0.000000 0.000000
# 2 -0.003820 0.018475 -0.004960 0.000000 0.000000 0.000000
# 3 -0.008395 -0.004960 0.015064 0.000000 0.000000 0.000000
# 4 0.000000 0.000000 0.000000 0.052061 0.000000 0.000000
# 5 0.000000 0.000000 0.000000 0.000000 0.029276 0.000000
# 6 0.000000 0.000000 0.000000 0.000000 0.000000 0.028970
#
#
# Mechanical properties :
#
#
# Convention : Reuss Voigt Hill
#
# Bulk Modulus (GPa) = 50.47100 54.87665 52.67382
# Shear Modulus (GPa) = 24.33970 26.47408 25.40689
#
# Velocity S-wave (km/s) = 3.58979 3.74388 3.66764
# Velocity P-wave (km/s) = 6.62599 6.90963 6.76930
#
# Compressibility (1/GPa) = 0.01981336
#
# Stress axis : x y z
#
# Youngs Moduli (GPa) = 48.48580 54.12711 66.38271
#
# Poissons Ratio (x) = 0.20678 0.55730
# Poissons Ratio (y) = 0.18523 0.32923
# Poissons Ratio (z) = 0.40705 0.26845
#
# Static dielectric constant tensor:
#      x y z
#    x 3.407880 0.000000 0.000000 
#    y 0.000000 3.707500 0.000000 
#    z 0.000000 0.000000 3.438380 
# 
# 
# High freq. dielectric constant tensor:
#      x y z
#    x 1.728820 0.000000 0.000000 
#    y 0.000000 1.740110 0.000000 
#    z 0.000000 0.000000 1.739370 
# 
# From -- ./inp_files/20610.got.cif
#   From: 2010.03.12/outbox.cif.g09.slc.cpg/sg59_11_cif.got.tgz:20610.got - 2010.04.16 16:29:54.
