data_PCOD8241472
_publ_section_title
;
Structure prediction by ZEFSAII (Michael W. Deem and Ramdas Pophale) SiO2 
 PCOD8241472
Probable space group: P M M N
;
_chemical_formula_sum "Si O2"
_cell_formula_units_Z 40
_cell_length_a 28.420336
_cell_length_b 9.057255
_cell_length_c 7.720751
_cell_angle_alpha 90.000000
_cell_angle_beta 90.000000
_cell_angle_gamma 90.000000
_cell_volume 1987.400293
_symmetry_space_group_name_H-M "P M M N"
_symmetry_group_IT_number 59
_space_group.IT_coordinate_system_code '2'
_symmetry_cell_setting 'orthorhombic'
loop_
_space_group_symop_operation_xyz
x,y,z
1/2-x,1/2-y,z
1/2+x,-y,-z
-x,1/2+y,-z
-x,-y,-z
1/2+x,1/2+y,-z
1/2-x,y,z
x,1/2-y,z
loop_
_atom_site_type_symbol
_atom_site_label
_atom_site_fract_x
_atom_site_fract_y
_atom_site_fract_z
Si Si1 0.861802 0.422453 0.684755
Si Si2 0.947326 0.417985 0.152632
Si Si3 0.848383 0.082209 0.301577
Si Si4 0.695431 0.921671 0.986985
Si Si5 0.051092 0.420863 0.200443
O O1 0.865564 0.250000 0.722623
O O2 0.836088 0.453864 0.501536
O O3 0.914509 0.487859 0.674828
O O4 0.832779 0.494382 0.839202
O O5 0.949039 0.250000 0.079797
O O6 0.904548 0.439537 0.284585
O O7 0.996617 0.453184 0.249917
O O8 0.939345 0.530518 0.996515
O O9 0.834247 0.250000 0.255347
O O10 0.819377 0.974997 0.177687
O O11 0.750000 0.955420 0.959694
O O12 0.683829 0.750000 0.972171
O O13 0.064006 0.250000 0.218351
#
# Coordination Sequence:
#
# PCOD8241472 Si02
#       5
#     8   8   8   8   8
#     4  11  23  39  61  90 123 159 200 242 290 354
#     4   9  18  34  56  84 120 160 201 244 291 347
#     4  10  22  40  63  90 120 157 200 244 292 352
#     4  11  25  44  65  89 117 150 193 249 308 359
#     4  10  19  32  55  87 121 160 203 243 290 345
#
# _framework density 20.126795000000001
#
# number of rings (size 3 to 8) (size 9 to 14) (size 15 to 20)
#    0.000    1.800    2.000    1.800    0.000    5.600 
#    0.000    4.000    0.000    0.000    0.000    0.000 
#    0.000    0.000    0.000    0.000    0.000    0.000 
#
# Total GULP energy -496031.033553 kJ/mol
# GULP energy per Si atom -12400.775839 kJ/mol
# Density = 2.008099 g / cm^3
# Si number density = 20.126795 Si / 1000 Ang^3
#
#
#
# Elastic Constant Matrix: (Units=GPa)
#
#
# Indices 1 2 3 4 5 6 
#
# 1 56.6742 45.5000 20.0437 0.0000 0.0000 0.0000
# 2 45.5000 107.4019 43.4884 0.0000 0.0000 0.0000
# 3 20.0437 43.4884 82.2903 0.0000 0.0000 0.0000
# 4 0.0000 0.0000 0.0000 20.4900 0.0000 0.0000
# 5 0.0000 0.0000 0.0000 0.0000 11.0385 0.0000
# 6 0.0000 0.0000 0.0000 0.0000 0.0000 29.4044
#
#
#
# Elastic Compliance Matrix: (Units=1/GPa)
#
#
# Indices 1 2 3 4 5 6 
#
# 1 0.026768 -0.011069 -0.000671 0.000000 0.000000 0.000000
# 2 -0.011069 0.016423 -0.005983 0.000000 0.000000 0.000000
# 3 -0.000671 -0.005983 0.015477 0.000000 0.000000 0.000000
# 4 0.000000 0.000000 0.000000 0.048804 0.000000 0.000000
# 5 0.000000 0.000000 0.000000 0.000000 0.090592 0.000000
# 6 0.000000 0.000000 0.000000 0.000000 0.000000 0.034009
#
#
# Mechanical properties :
#
#
# Convention : Reuss Voigt Hill
#
# Bulk Modulus (GPa) = 43.05917 51.60340 47.33128
# Shear Modulus (GPa) = 18.16476 21.34218 19.75347
#
# Velocity S-wave (km/s) = 3.00745 3.25989 3.13621
# Velocity P-wave (km/s) = 5.78792 6.31379 6.05657
#
# Compressibility (1/GPa) = 0.02322386
#
# Stress axis : x y z
#
# Youngs Moduli (GPa) = 37.35782 60.89206 64.61117
#
# Poissons Ratio (x) = 0.67399 0.04332
# Poissons Ratio (y) = 0.41350 0.38656
# Poissons Ratio (z) = 0.02505 0.36431
#
# Static dielectric constant tensor:
#      x y z
#    x 3.826670 0.000000 0.000000 
#    y 0.000000 3.723670 0.000000 
#    z 0.000000 0.000000 3.439700 
# 
# 
# High freq. dielectric constant tensor:
#      x y z
#    x 1.789970 0.000000 0.000000 
#    y 0.000000 1.791790 0.000000 
#    z 0.000000 0.000000 1.772060 
# 
# From -- ./inp_files/12774.got.cif
#   From: 2010.03.12/outbox.cif.g09.slc.cpg/sg59_7_cif.got.tgz:12774.got - 2010.04.16 16:29:54.
