data_PCOD8241782
_publ_section_title
;
Structure prediction by ZEFSAII (Michael W. Deem and Ramdas Pophale) SiO2 
 PCOD8241782
Probable space group: P M M N
;
_chemical_formula_sum "Si O2"
_cell_formula_units_Z 64
_cell_length_a 9.549063
_cell_length_b 30.558505
_cell_length_c 11.793316
_cell_angle_alpha 90.000000
_cell_angle_beta 90.000000
_cell_angle_gamma 90.000000
_cell_volume 3441.349630
_symmetry_space_group_name_H-M "P M M N"
_symmetry_group_IT_number 59
_space_group.IT_coordinate_system_code '2'
_symmetry_cell_setting 'orthorhombic'
loop_
_space_group_symop_operation_xyz
x,y,z
1/2-x,1/2-y,z
1/2+x,-y,-z
-x,1/2+y,-z
-x,-y,-z
1/2+x,1/2+y,-z
1/2-x,y,z
x,1/2-y,z
loop_
_atom_site_type_symbol
_atom_site_label
_atom_site_fract_x
_atom_site_fract_y
_atom_site_fract_z
Si Si1 0.090480 0.450794 0.242390
Si Si2 0.088703 0.951667 0.219202
Si Si3 0.914833 0.371101 0.626692
Si Si4 0.090546 0.299696 0.752414
Si Si5 0.085127 0.621157 0.632033
Si Si6 0.412761 0.325490 0.002784
Si Si7 0.912062 0.574263 0.010156
Si Si8 0.589257 0.298860 0.212808
O O1 0.250000 0.435450 0.264145
O O2 0.067937 0.501205 0.279019
O O3 0.988577 0.420676 0.314178
O O4 0.054838 0.447830 0.109615
O O5 0.250000 0.944599 0.185302
O O6 0.037820 0.914735 0.307090
O O7 0.000082 0.950531 0.104814
O O8 0.750000 0.363297 0.635666
O O9 0.963681 0.375553 0.497415
O O10 0.989067 0.329115 0.678472
O O11 0.250000 0.315902 0.735193
O O12 0.071788 0.250000 0.711316
O O13 0.051129 0.302383 0.884606
O O14 0.250000 0.613494 0.641681
O O15 0.037754 0.665681 0.695073
O O16 0.250000 0.321291 0.034459
O O17 0.460389 0.375604 0.995274
O O18 0.499334 0.301486 0.099403
O O19 0.750000 0.570465 0.043800
O O20 0.750000 0.307950 0.180274
O O21 0.571226 0.250000 0.264496
#
# Coordination Sequence:
#
# PCOD8241782 Si02
#       8
#     8   8   8   8   8   8   8   8
#     4  10  21  37  56  82 113 144 180 226 275 326
#     4  10  21  36  56  82 113 145 181 226 274 325
#     4  10  22  39  57  79 108 145 187 228 272 320
#     4  10  21  37  57  82 111 142 177 220 271 324
#     4  10  22  39  57  78 107 144 186 229 271 319
#     4  10  19  34  57  83 112 144 177 217 269 327
#     4  10  19  33  56  83 111 143 179 218 271 332
#     4  10  21  36  55  80 108 139 177 221 269 321
#
# _framework density 18.597353999999999
#
# number of rings (size 3 to 8) (size 9 to 14) (size 15 to 20)
#    0.000    2.000    2.500    0.750    0.000    4.500 
#    0.000    1.250    0.000    0.000    0.000    0.000 
#    0.000    0.000    0.000    0.000    0.000    0.000 
#
# Total GULP energy -793822.778220 kJ/mol
# GULP energy per Si atom -12403.480910 kJ/mol
# Density = 1.855503 g / cm^3
# Si number density = 18.597354 Si / 1000 Ang^3
#
#
#
# Elastic Constant Matrix: (Units=GPa)
#
#
# Indices 1 2 3 4 5 6 
#
# 1 47.5703 38.4794 45.7419 0.0000 0.0000 0.0000
# 2 38.4794 115.7327 53.5084 0.0000 0.0000 0.0000
# 3 45.7419 53.5084 109.1164 0.0000 0.0000 0.0000
# 4 0.0000 0.0000 0.0000 11.4046 0.0000 0.0000
# 5 0.0000 0.0000 0.0000 0.0000 21.6400 0.0000
# 6 0.0000 0.0000 0.0000 0.0000 0.0000 32.2509
#
#
#
# Elastic Compliance Matrix: (Units=1/GPa)
#
#
# Indices 1 2 3 4 5 6 
#
# 1 0.039189 -0.007028 -0.012982 0.000000 0.000000 0.000000
# 2 -0.007028 0.012434 -0.003151 0.000000 0.000000 0.000000
# 3 -0.012982 -0.003151 0.016152 0.000000 0.000000 0.000000
# 4 0.000000 0.000000 0.000000 0.087684 0.000000 0.000000
# 5 0.000000 0.000000 0.000000 0.000000 0.046211 0.000000
# 6 0.000000 0.000000 0.000000 0.000000 0.000000 0.031007
#
#
# Mechanical properties :
#
#
# Convention : Reuss Voigt Hill
#
# Bulk Modulus (GPa) = 46.61308 60.87542 53.74425
# Shear Modulus (GPa) = 17.47332 22.03840 19.75586
#
# Velocity S-wave (km/s) = 3.06855 3.44616 3.26282
# Velocity P-wave (km/s) = 6.13787 6.97418 6.56934
#
# Compressibility (1/GPa) = 0.02145321
#
# Stress axis : x y z
#
# Youngs Moduli (GPa) = 25.51715 80.42283 61.91160
#
# Poissons Ratio (x) = 0.56519 0.80374
# Poissons Ratio (y) = 0.17933 0.19511
# Poissons Ratio (z) = 0.33127 0.25345
#
# Static dielectric constant tensor:
#      x y z
#    x 3.329490 0.000000 0.000000 
#    y 0.000000 3.563700 0.000000 
#    z 0.000000 0.000000 3.329190 
# 
# 
# High freq. dielectric constant tensor:
#      x y z
#    x 1.715460 0.000000 0.000000 
#    y 0.000000 1.736710 0.000000 
#    z 0.000000 0.000000 1.712490 
# 
# From -- ./inp_files/14909.got.cif
#   From: 2010.03.12/outbox.cif.g09.slc.cpg/sg59_8_cif.got.tgz:14909.got - 2010.04.16 16:29:54.
