data_PCOD8241018
_publ_section_title
;
Structure prediction by ZEFSAII (Michael W. Deem and Ramdas Pophale) SiO2 
 PCOD8241018
Probable space group: P M M N
;
_chemical_formula_sum "Si O2"
_cell_formula_units_Z 64
_cell_length_a 28.784868
_cell_length_b 8.945538
_cell_length_c 12.551125
_cell_angle_alpha 90.000000
_cell_angle_beta 90.000000
_cell_angle_gamma 90.000000
_cell_volume 3231.866121
_symmetry_space_group_name_H-M "P M M N"
_symmetry_group_IT_number 59
_space_group.IT_coordinate_system_code '2'
_symmetry_cell_setting 'orthorhombic'
loop_
_space_group_symop_operation_xyz
x,y,z
1/2-x,1/2-y,z
1/2+x,-y,-z
-x,1/2+y,-z
-x,-y,-z
1/2+x,1/2+y,-z
1/2-x,y,z
x,1/2-y,z
loop_
_atom_site_type_symbol
_atom_site_label
_atom_site_fract_x
_atom_site_fract_y
_atom_site_fract_z
Si Si1 0.601386 0.075445 0.624729
Si Si2 0.073496 0.079392 0.586655
Si Si3 0.199904 0.579793 0.451695
Si Si4 0.697560 0.423796 0.123674
Si Si5 0.677614 0.919984 0.340560
Si Si6 0.542108 0.422436 0.216219
Si Si7 0.108853 0.426494 0.950724
Si Si8 0.062433 0.421434 0.170754
O O1 0.592658 0.250000 0.611032
O O2 0.656484 0.034168 0.622659
O O3 0.573765 0.994052 0.529886
O O4 0.582492 0.024496 0.737404
O O5 0.057266 0.250000 0.573444
O O6 0.122889 0.065646 0.643368
O O7 0.038219 0.993405 0.665297
O O8 0.250000 0.563494 0.391327
O O9 0.192481 0.750000 0.490763
O O10 0.203127 0.473778 0.553570
O O11 0.750000 0.452788 0.082046
O O12 0.684831 0.250000 0.118045
O O13 0.693819 0.476235 0.245008
O O14 0.661715 0.514351 0.049352
O O15 0.692169 0.750000 0.315985
O O16 0.556117 0.250000 0.227153
O O17 0.581018 0.503926 0.147225
O O18 0.492644 0.443102 0.159287
O O19 0.108906 0.250000 0.934635
O O20 0.085198 0.475022 0.060816
O O21 0.075057 0.250000 0.196469
#
# Coordination Sequence:
#
# PCOD8241018 Si02
#       8
#     8   8   8   8   8   8   8   8
#     4  10  21  37  59  85 115 155 199 242 292 348
#     4  10  20  35  57  86 122 157 188 233 290 346
#     4   9  18  33  53  79 112 149 191 238 287 341
#     4  11  23  37  56  84 118 155 193 236 288 345
#     4  10  19  31  51  82 118 152 187 231 283 342
#     4  11  22  38  63  91 118 150 191 240 295 355
#     4  11  23  41  63  87 118 153 193 243 295 347
#     4  10  24  43  61  84 115 153 196 243 295 350
#
# _framework density 19.802800000000001
#
# number of rings (size 3 to 8) (size 9 to 14) (size 15 to 20)
#    0.000    1.750    1.250    3.000    0.000    6.750 
#    0.000    0.625    0.000    2.250    0.000    0.000 
#    0.000    0.000    0.000    0.000    0.000    0.000 
#
# Total GULP energy -793708.330906 kJ/mol
# GULP energy per Si atom -12401.692670 kJ/mol
# Density = 1.975773 g / cm^3
# Si number density = 19.802800 Si / 1000 Ang^3
#
#
#
# Elastic Constant Matrix: (Units=GPa)
#
#
# Indices 1 2 3 4 5 6 
#
# 1 75.1177 32.4091 30.8845 0.0000 0.0000 0.0000
# 2 32.4091 103.5639 45.5538 0.0000 0.0000 0.0000
# 3 30.8845 45.5538 91.9632 0.0000 0.0000 0.0000
# 4 0.0000 0.0000 0.0000 27.4225 0.0000 0.0000
# 5 0.0000 0.0000 0.0000 0.0000 13.1862 0.0000
# 6 0.0000 0.0000 0.0000 0.0000 0.0000 28.9237
#
#
#
# Elastic Compliance Matrix: (Units=1/GPa)
#
#
# Indices 1 2 3 4 5 6 
#
# 1 0.016358 -0.003456 -0.003782 0.000000 0.000000 0.000000
# 2 -0.003456 0.013076 -0.005317 0.000000 0.000000 0.000000
# 3 -0.003782 -0.005317 0.014778 0.000000 0.000000 0.000000
# 4 0.000000 0.000000 0.000000 0.036466 0.000000 0.000000
# 5 0.000000 0.000000 0.000000 0.000000 0.075837 0.000000
# 6 0.000000 0.000000 0.000000 0.000000 0.000000 0.034574
#
#
# Mechanical properties :
#
#
# Convention : Reuss Voigt Hill
#
# Bulk Modulus (GPa) = 52.34664 54.25997 53.30330
# Shear Modulus (GPa) = 22.46539 24.69298 23.57919
#
# Velocity S-wave (km/s) = 3.37182 3.53504 3.45440
# Velocity P-wave (km/s) = 6.45370 6.64241 6.54874
#
# Compressibility (1/GPa) = 0.01910342
#
# Stress axis : x y z
#
# Youngs Moduli (GPa) = 61.13112 76.47704 67.67008
#
# Poissons Ratio (x) = 0.26427 0.25593
# Poissons Ratio (y) = 0.21124 0.35977
# Poissons Ratio (z) = 0.23120 0.40660
#
# Static dielectric constant tensor:
#      x y z
#    x 3.796350 0.000000 0.000000 
#    y 0.000000 3.699980 0.000000 
#    z 0.000000 0.000000 3.398350 
# 
# 
# High freq. dielectric constant tensor:
#      x y z
#    x 1.781820 0.000000 0.000000 
#    y 0.000000 1.782760 0.000000 
#    z 0.000000 0.000000 1.749530 
# 
# From -- ./inp_files/19234.got.cif
#   From: 2010.03.12/outbox.cif.g09.slc.cpg/sg59_10_cif.got.tgz:19234.got - 2010.04.16 16:29:54.
