data_PCOD8241049
_publ_section_title
;
Structure prediction by ZEFSAII (Michael W. Deem and Ramdas Pophale) SiO2 
 PCOD8241049
Probable space group: P M M N
;
_chemical_formula_sum "Si O2"
_cell_formula_units_Z 64
_cell_length_a 29.624837
_cell_length_b 9.080683
_cell_length_c 15.066762
_cell_angle_alpha 90.000000
_cell_angle_beta 90.000000
_cell_angle_gamma 90.000000
_cell_volume 4053.166202
_symmetry_space_group_name_H-M "P M M N"
_symmetry_group_IT_number 59
_space_group.IT_coordinate_system_code '2'
_symmetry_cell_setting 'orthorhombic'
loop_
_space_group_symop_operation_xyz
x,y,z
1/2-x,1/2-y,z
1/2+x,-y,-z
-x,1/2+y,-z
-x,-y,-z
1/2+x,1/2+y,-z
1/2-x,y,z
x,1/2-y,z
loop_
_atom_site_type_symbol
_atom_site_label
_atom_site_fract_x
_atom_site_fract_y
_atom_site_fract_z
Si Si1 0.438594 0.080707 0.045327
Si Si2 0.698870 0.418648 0.720109
Si Si3 0.536477 0.075320 0.318323
Si Si4 0.298859 0.924521 0.483731
Si Si5 0.056115 0.574482 0.358576
Si Si6 0.393962 0.924250 0.535793
Si Si7 0.383438 0.421492 0.212954
Si Si8 0.965281 0.422395 0.118133
O O1 0.443058 0.250000 0.019788
O O2 0.396973 0.050458 0.110782
O O3 0.483852 0.027080 0.095680
O O4 0.431185 0.994588 0.952967
O O5 0.750000 0.437012 0.753754
O O6 0.682714 0.250000 0.730616
O O7 0.694270 0.468999 0.618449
O O8 0.667921 0.524996 0.778925
O O9 0.527382 0.250000 0.323750
O O10 0.579960 0.026120 0.375666
O O11 0.546030 0.024263 0.217603
O O12 0.493652 0.992671 0.358389
O O13 0.250000 0.987819 0.517742
O O14 0.296779 0.750000 0.491030
O O15 0.342211 0.987004 0.537924
O O16 0.053188 0.750000 0.353117
O O17 0.079949 0.518838 0.448723
O O18 0.084348 0.515465 0.275912
O O19 0.391437 0.750000 0.530218
O O20 0.388532 0.250000 0.237588
O O21 0.958964 0.250000 0.110792
#
# Coordination Sequence:
#
# PCOD8241049 Si02
#       8
#     8   8   8   8   8   8   8   8
#     4   9  18  31  45  63  86 114 150 187 226 269
#     4   9  17  30  48  69  94 122 153 189 225 268
#     4  10  19  32  46  63  92 122 153 193 234 269
#     4   8  13  24  43  66  90 115 147 185 220 256
#     4  11  20  30  44  65  92 125 163 187 214 268
#     4   9  17  28  44  65  90 123 156 186 220 269
#     4  11  20  31  47  68  95 124 153 190 232 272
#     4   9  17  30  45  63  86 115 149 187 230 269
#
# _framework density 15.790126000000001
#
# number of rings (size 3 to 8) (size 9 to 14) (size 15 to 20)
#    0.000    2.500    2.500    1.875    0.000    1.750 
#    0.000    0.625    0.000    0.000    0.000    0.875 
#    0.000    3.000    0.000    0.000    0.000    0.000 
#
# Total GULP energy -793319.864569 kJ/mol
# GULP energy per Si atom -12395.622884 kJ/mol
# Density = 1.575419 g / cm^3
# Si number density = 15.790126 Si / 1000 Ang^3
#
#
#
# Elastic Constant Matrix: (Units=GPa)
#
#
# Indices 1 2 3 4 5 6 
#
# 1 123.6811 30.6153 63.5567 0.0000 0.0000 0.0000
# 2 30.6153 33.4479 27.5845 0.0000 0.0000 0.0000
# 3 63.5567 27.5845 101.1021 0.0000 0.0000 0.0000
# 4 0.0000 0.0000 0.0000 18.5443 0.0000 0.0000
# 5 0.0000 0.0000 0.0000 0.0000 18.1211 0.0000
# 6 0.0000 0.0000 0.0000 0.0000 0.0000 21.5766
#
#
#
# Elastic Compliance Matrix: (Units=1/GPa)
#
#
# Indices 1 2 3 4 5 6 
#
# 1 0.012999 -0.006657 -0.006355 0.000000 0.000000 0.000000
# 2 -0.006657 0.041987 -0.007271 0.000000 0.000000 0.000000
# 3 -0.006355 -0.007271 0.015870 0.000000 0.000000 0.000000
# 4 0.000000 0.000000 0.000000 0.053925 0.000000 0.000000
# 5 0.000000 0.000000 0.000000 0.000000 0.055184 0.000000
# 6 0.000000 0.000000 0.000000 0.000000 0.000000 0.046346
#
#
# Mechanical properties :
#
#
# Convention : Reuss Voigt Hill
#
# Bulk Modulus (GPa) = 33.01478 55.74935 44.38207
# Shear Modulus (GPa) = 18.05225 20.74672 19.39949
#
# Velocity S-wave (km/s) = 3.38488 3.62872 3.50892
# Velocity P-wave (km/s) = 6.01918 7.27598 6.67721
#
# Compressibility (1/GPa) = 0.03028946
#
# Stress axis : x y z
#
# Youngs Moduli (GPa) = 76.92896 23.81712 63.01190
#
# Poissons Ratio (x) = 0.15855 0.40047
# Poissons Ratio (y) = 0.51210 0.45815
# Poissons Ratio (z) = 0.48892 0.17317
#
# Static dielectric constant tensor:
#      x y z
#    x 3.265980 0.000000 0.000000 
#    y 0.000000 2.829210 0.000000 
#    z 0.000000 0.000000 2.997030 
# 
# 
# High freq. dielectric constant tensor:
#      x y z
#    x 1.597790 0.000000 0.000000 
#    y 0.000000 1.587180 0.000000 
#    z 0.000000 0.000000 1.588600 
# 
# From -- ./inp_files/25099.got.cif
#   From: 2010.03.12/outbox.cif.g09.slc.cpg/sg59_13_cif.got.tgz:25099.got - 2010.04.16 16:29:54.
