data_PCOD8241748
_publ_section_title
;
Structure prediction by ZEFSAII (Michael W. Deem and Ramdas Pophale) SiO2 
 PCOD8241748
Probable space group: P M M N
;
_chemical_formula_sum "Si O2"
_cell_formula_units_Z 64
_cell_length_a 8.880314
_cell_length_b 19.492337
_cell_length_c 18.725357
_cell_angle_alpha 90.000000
_cell_angle_beta 90.000000
_cell_angle_gamma 90.000000
_cell_volume 3241.323216
_symmetry_space_group_name_H-M "P M M N"
_symmetry_group_IT_number 59
_space_group.IT_coordinate_system_code '2'
_symmetry_cell_setting 'orthorhombic'
loop_
_space_group_symop_operation_xyz
x,y,z
1/2-x,1/2-y,z
1/2+x,-y,-z
-x,1/2+y,-z
-x,-y,-z
1/2+x,1/2+y,-z
1/2-x,y,z
x,1/2-y,z
loop_
_atom_site_type_symbol
_atom_site_label
_atom_site_fract_x
_atom_site_fract_y
_atom_site_fract_z
Si Si1 0.081097 0.123406 0.824000
Si Si2 0.421183 0.328138 0.978477
Si Si3 0.570589 0.170424 0.446580
Si Si4 0.571067 0.561115 0.644443
Si Si5 0.573975 0.515257 0.802233
Si Si6 0.918793 0.674818 0.325167
Si Si7 0.925868 0.422364 0.576132
Si Si8 0.574112 0.054478 0.053615
O O1 0.250000 0.091637 0.830201
O O2 0.036745 0.162721 0.895687
O O3 0.074073 0.178075 0.760373
O O4 0.961043 0.064812 0.807320
O O5 0.250000 0.352769 0.992891
O O6 0.441770 0.250000 0.000699
O O7 0.537933 0.369918 0.026033
O O8 0.750000 0.169637 0.444854
O O9 0.514330 0.250000 0.452324
O O10 0.505579 0.133750 0.375759
O O11 0.504734 0.122277 0.510806
O O12 0.750000 0.567914 0.639721
O O13 0.520532 0.543906 0.725219
O O14 0.514048 0.500398 0.589301
O O15 0.750000 0.527651 0.812865
O O16 0.486213 0.552437 0.865851
O O17 0.750000 0.654751 0.350573
O O18 0.962258 0.750000 0.354568
O O19 0.037108 0.619378 0.352476
O O20 0.750000 0.426389 0.565353
O O21 0.750000 0.039904 0.053681
O O22 0.500000 0.000000 0.000000
#
# Coordination Sequence:
#
# PCOD8241748 Si02
#       8
#     8   8   8   8   8   8   8   8
#     4  10  19  33  55  82 117 157 193 233 286 346
#     4  10  21  38  60  87 120 157 196 241 295 352
#     4  10  22  39  60  86 116 153 196 241 294 353
#     4  10  22  39  61  88 117 150 193 243 293 348
#     4  11  22  38  60  88 118 150 196 246 294 350
#     4  10  20  32  49  80 120 159 197 233 277 341
#     4  10  20  37  58  84 117 152 192 238 291 346
#     4  12  24  39  61  88 119 156 199 244 292 346
#
# _framework density 19.745024000000001
#
# number of rings (size 3 to 8) (size 9 to 14) (size 15 to 20)
#    0.000    1.625    2.500    2.625    0.000    4.750 
#    0.000    0.625    0.000    3.000    0.000    0.000 
#    0.000    0.000    0.000    0.000    0.000    0.000 
#
# Total GULP energy -793361.643005 kJ/mol
# GULP energy per Si atom -12396.275672 kJ/mol
# Density = 1.970008 g / cm^3
# Si number density = 19.745024 Si / 1000 Ang^3
#
#
#
# Elastic Constant Matrix: (Units=GPa)
#
#
# Indices 1 2 3 4 5 6 
#
# 1 49.1026 28.8995 31.4735 0.0000 0.0000 0.0000
# 2 28.8995 117.2580 46.9344 0.0000 0.0000 0.0000
# 3 31.4735 46.9344 88.5266 0.0000 0.0000 0.0000
# 4 0.0000 0.0000 0.0000 31.2503 0.0000 0.0000
# 5 0.0000 0.0000 0.0000 0.0000 26.9270 0.0000
# 6 0.0000 0.0000 0.0000 0.0000 0.0000 29.8220
#
#
#
# Elastic Compliance Matrix: (Units=1/GPa)
#
#
# Indices 1 2 3 4 5 6 
#
# 1 0.027550 -0.003642 -0.007863 0.000000 0.000000 0.000000
# 2 -0.003642 0.011307 -0.004700 0.000000 0.000000 0.000000
# 3 -0.007863 -0.004700 0.016583 0.000000 0.000000 0.000000
# 4 0.000000 0.000000 0.000000 0.032000 0.000000 0.000000
# 5 0.000000 0.000000 0.000000 0.000000 0.037137 0.000000
# 6 0.000000 0.000000 0.000000 0.000000 0.000000 0.033532
#
#
# Mechanical properties :
#
#
# Convention : Reuss Voigt Hill
#
# Bulk Modulus (GPa) = 43.42393 52.16688 47.79541
# Shear Modulus (GPa) = 25.22745 27.43852 26.33299
#
# Velocity S-wave (km/s) = 3.57832 3.73183 3.65588
# Velocity P-wave (km/s) = 6.25400 6.71166 6.48687
#
# Compressibility (1/GPa) = 0.02302878
#
# Stress axis : x y z
#
# Youngs Moduli (GPa) = 36.29825 88.44040 60.30143
#
# Poissons Ratio (x) = 0.32214 0.47418
# Poissons Ratio (y) = 0.13221 0.28340
# Poissons Ratio (z) = 0.28543 0.41564
#
# Static dielectric constant tensor:
#      x y z
#    x 3.445010 0.000000 0.000000 
#    y 0.000000 3.631280 0.000000 
#    z 0.000000 0.000000 3.716960 
# 
# 
# High freq. dielectric constant tensor:
#      x y z
#    x 1.756230 0.000000 0.000000 
#    y 0.000000 1.766370 0.000000 
#    z 0.000000 0.000000 1.771220 
# 
# From -- ./inp_files/26256.got.cif
#   From: 2010.03.12/outbox.cif.g09.slc.cpg/sg59_14_cif.got.tgz:26256.got - 2010.04.16 16:29:54.
