data_PCOD8241876
_publ_section_title
;
Structure prediction by ZEFSAII (Michael W. Deem and Ramdas Pophale) SiO2 
 PCOD8241876
Probable space group: P M M N
;
_chemical_formula_sum "Si O2"
_cell_formula_units_Z 48
_cell_length_a 8.933759
_cell_length_b 18.116102
_cell_length_c 14.669255
_cell_angle_alpha 90.000000
_cell_angle_beta 90.000000
_cell_angle_gamma 90.000000
_cell_volume 2374.143951
_symmetry_space_group_name_H-M "P M M N"
_symmetry_group_IT_number 59
_space_group.IT_coordinate_system_code '2'
_symmetry_cell_setting 'orthorhombic'
loop_
_space_group_symop_operation_xyz
x,y,z
1/2-x,1/2-y,z
1/2+x,-y,-z
-x,1/2+y,-z
-x,-y,-z
1/2+x,1/2+y,-z
1/2-x,y,z
x,1/2-y,z
loop_
_atom_site_type_symbol
_atom_site_label
_atom_site_fract_x
_atom_site_fract_y
_atom_site_fract_z
Si Si1 0.073649 0.250000 0.287543
Si Si2 0.924898 0.331106 0.835016
Si Si3 0.573077 0.750000 0.505824
Si Si4 0.085958 0.487563 0.408879
Si Si5 0.428377 0.478747 0.904882
Si Si6 0.083736 0.650556 0.367197
Si Si7 0.428096 0.408255 0.235213
O O1 0.250000 0.250000 0.300606
O O2 0.006585 0.250000 0.390891
O O3 0.026528 0.178172 0.227738
O O4 0.750000 0.353144 0.841737
O O5 0.953422 0.250000 0.881346
O O6 0.974001 0.320423 0.729867
O O7 0.021685 0.395452 0.881113
O O8 0.750000 0.750000 0.508269
O O9 0.519540 0.822629 0.450717
O O10 0.250000 0.461311 0.437979
O O11 0.085647 0.563451 0.354268
O O12 0.020051 0.428104 0.338513
O O13 0.000000 0.500000 0.500000
O O14 0.250000 0.480447 0.910910
O O15 0.481449 0.541057 0.834102
O O16 0.500000 0.500000 0.000000
O O17 0.250000 0.680649 0.387723
O O18 0.250000 0.421773 0.221868
#
# Coordination Sequence:
#
# PCOD8241876 Si02
#       7
#     4   8   4   8   8   8   8
#     4   9  20  37  61  88 121 168 217 265 318 370
#     4  10  20  40  68  94 126 165 203 249 312 377
#     4  11  21  33  53  86 125 166 213 265 306 356
#     4  10  20  33  54  81 118 162 208 255 306 370
#     4  12  26  45  70  98 127 162 208 263 326 388
#     4  10  19  34  54  80 117 166 206 244 308 370
#     4  10  20  41  65  87 122 168 214 266 323 377
#
# _framework density 20.217813
#
# number of rings (size 3 to 8) (size 9 to 14) (size 15 to 20)
#    0.000    1.667    2.500    2.750    0.000    3.667 
#    1.500    2.083    0.000    0.000    0.000    0.000 
#    0.000    0.000    0.000    0.000    0.000    0.000 
#
# Total GULP energy -594813.516193 kJ/mol
# GULP energy per Si atom -12391.948254 kJ/mol
# Density = 2.017180 g / cm^3
# Si number density = 20.217813 Si / 1000 Ang^3
#
#
#
# Elastic Constant Matrix: (Units=GPa)
#
#
# Indices 1 2 3 4 5 6 
#
# 1 97.9510 50.7771 60.1317 0.0000 0.0000 0.0000
# 2 50.7771 152.8114 55.7606 0.0000 0.0000 0.0000
# 3 60.1317 55.7606 110.7483 0.0000 0.0000 0.0000
# 4 0.0000 0.0000 0.0000 -10.1203 0.0000 0.0000
# 5 0.0000 0.0000 0.0000 0.0000 33.4010 0.0000
# 6 0.0000 0.0000 0.0000 0.0000 0.0000 22.9779
#
#
#
# Elastic Compliance Matrix: (Units=1/GPa)
#
#
# Indices 1 2 3 4 5 6 
#
# 1 0.016147 -0.002654 -0.007431 0.000000 0.000000 0.000000
# 2 -0.002654 0.008453 -0.002815 0.000000 0.000000 0.000000
# 3 -0.007431 -0.002815 0.014481 0.000000 0.000000 0.000000
# 4 0.000000 0.000000 0.000000 -0.098812 0.000000 0.000000
# 5 0.000000 0.000000 0.000000 0.000000 0.029939 0.000000
# 6 0.000000 0.000000 0.000000 0.000000 0.000000 0.043520
#
#
# Mechanical properties :
#
#
# Convention : Reuss Voigt Hill
#
# Bulk Modulus (GPa) = 75.29134 77.20550 76.24842
# Shear Modulus (GPa) = 113.75109 22.24114 67.99611
#
# Velocity S-wave (km/s) = 7.50899 3.32034 5.80558
# Velocity P-wave (km/s) = 10.60664 7.27800 9.09588
#
# Compressibility (1/GPa) = 0.01328174
#
# Stress axis : x y z
#
# Youngs Moduli (GPa) = 61.93238 118.30010 69.05374
#
# Poissons Ratio (x) = 0.31395 0.51312
# Poissons Ratio (y) = 0.16436 0.19439
# Poissons Ratio (z) = 0.46021 0.33303
#
# Static dielectric constant tensor:
#      x y z
#    x 3.620410 0.000000 0.000000 
#    y 0.000000 4.164800 0.000000 
#    z 0.000000 0.000000 3.394590 
# 
# 
# High freq. dielectric constant tensor:
#      x y z
#    x 1.763970 0.000000 0.000000 
#    y 0.000000 1.816900 0.000000 
#    z 0.000000 0.000000 1.774840 
# 
# From -- ./inp_files/20504.got.cif
#   From: 2010.03.12/outbox.cif.g09.slc.cpg/sg59_11_cif.got.tgz:20504.got - 2010.04.16 16:29:54.
