data_PCOD8241380
_publ_section_title
;
Structure prediction by ZEFSAII (Michael W. Deem and Ramdas Pophale) SiO2 
 PCOD8241380
Probable space group: P M M N
;
_chemical_formula_sum "Si O2"
_cell_formula_units_Z 64
_cell_length_a 15.504202
_cell_length_b 17.598826
_cell_length_c 12.912030
_cell_angle_alpha 90.000000
_cell_angle_beta 90.000000
_cell_angle_gamma 90.000000
_cell_volume 3523.121672
_symmetry_space_group_name_H-M "P M M N"
_symmetry_group_IT_number 59
_space_group.IT_coordinate_system_code '2'
_symmetry_cell_setting 'orthorhombic'
loop_
_space_group_symop_operation_xyz
x,y,z
1/2-x,1/2-y,z
1/2+x,-y,-z
-x,1/2+y,-z
-x,-y,-z
1/2+x,1/2+y,-z
1/2-x,y,z
x,1/2-y,z
loop_
_atom_site_type_symbol
_atom_site_label
_atom_site_fract_x
_atom_site_fract_y
_atom_site_fract_z
Si Si1 0.350984 0.073788 0.448284
Si Si2 0.587686 0.332865 0.680574
Si Si3 0.153332 0.032107 0.850882
Si Si4 0.977412 0.664971 0.124823
Si Si5 0.649041 0.042441 0.364153
Si Si6 0.345129 0.517416 0.249396
Si Si7 0.081905 0.544448 0.034634
Si Si8 0.021193 0.662438 0.546668
O O1 0.250000 0.100829 0.443697
O O2 0.418894 0.142694 0.452640
O O3 0.364577 0.018647 0.545415
O O4 0.381672 0.031170 0.344144
O O5 0.632658 0.250000 0.682923
O O6 0.504989 0.333388 0.755680
O O7 0.657236 0.394355 0.716525
O O8 0.553837 0.352922 0.568096
O O9 0.250000 0.059779 0.833929
O O10 0.102495 0.107759 0.884131
O O11 0.119669 0.995299 0.744245
O O12 0.151566 0.968499 0.943456
O O13 0.953012 0.750000 0.086313
O O14 0.057324 0.633136 0.054088
O O15 0.750000 0.069103 0.361291
O O16 0.583863 0.113009 0.379477
O O17 0.250000 0.490189 0.224075
O O18 0.396541 0.504900 0.144026
O O19 0.000000 0.500000 0.000000
O O20 0.030298 0.750000 0.580631
#
# Coordination Sequence:
#
# PCOD8241380 Si02
#       8
#     8   8   8   8   8   8   8   8
#     4  10  21  35  55  82 109 141 184 234 279 327
#     4   9  18  31  49  78 109 138 175 219 273 327
#     4  10  20  34  55  79 106 143 181 218 262 324
#     4   9  18  33  53  80 108 134 171 224 276 319
#     4  10  21  36  56  83 112 145 186 226 270 329
#     4  10  19  32  53  79 105 137 176 227 278 322
#     4   9  19  33  54  77 103 138 178 220 265 323
#     4  11  22  34  54  78 110 154 185 224 277 329
#
# _framework density 18.165709
#
# number of rings (size 3 to 8) (size 9 to 14) (size 15 to 20)
#    0.000    2.250    1.250    1.500    5.250    1.000 
#    0.000    1.875    0.000    6.375    0.000    1.750 
#    0.000    0.000    0.000    0.000    0.000    0.000 
#
# Total GULP energy -792989.337088 kJ/mol
# GULP energy per Si atom -12390.458392 kJ/mol
# Density = 1.812436 g / cm^3
# Si number density = 18.165709 Si / 1000 Ang^3
#
#
#
# Elastic Constant Matrix: (Units=GPa)
#
#
# Indices 1 2 3 4 5 6 
#
# 1 59.9221 37.9814 22.3778 0.0000 0.0000 0.0000
# 2 37.9814 98.6618 43.6829 0.0000 0.0000 0.0000
# 3 22.3778 43.6829 121.9832 0.0000 0.0000 0.0000
# 4 0.0000 0.0000 0.0000 20.3935 0.0000 0.0000
# 5 0.0000 0.0000 0.0000 0.0000 23.2133 0.0000
# 6 0.0000 0.0000 0.0000 0.0000 0.0000 22.4429
#
#
#
# Elastic Compliance Matrix: (Units=1/GPa)
#
#
# Indices 1 2 3 4 5 6 
#
# 1 0.022223 -0.008022 -0.001204 0.000000 0.000000 0.000000
# 2 -0.008022 0.014941 -0.003879 0.000000 0.000000 0.000000
# 3 -0.001204 -0.003879 0.009808 0.000000 0.000000 0.000000
# 4 0.000000 0.000000 0.000000 0.049035 0.000000 0.000000
# 5 0.000000 0.000000 0.000000 0.000000 0.043079 0.000000
# 6 0.000000 0.000000 0.000000 0.000000 0.000000 0.044558
#
#
# Mechanical properties :
#
#
# Convention : Reuss Voigt Hill
#
# Bulk Modulus (GPa) = 48.16508 54.29461 51.22984
# Shear Modulus (GPa) = 23.06558 24.97828 24.02193
#
# Velocity S-wave (km/s) = 3.56720 3.71215 3.64040
# Velocity P-wave (km/s) = 6.59836 6.95175 6.77736
#
# Compressibility (1/GPa) = 0.02076193
#
# Stress axis : x y z
#
# Youngs Moduli (GPa) = 44.99925 66.92920 101.95960
#
# Poissons Ratio (x) = 0.53689 0.12277
# Poissons Ratio (y) = 0.36098 0.39549
# Poissons Ratio (z) = 0.05418 0.25961
#
# Static dielectric constant tensor:
#      x y z
#    x 3.324620 0.000000 0.000000 
#    y 0.000000 3.432440 0.000000 
#    z 0.000000 0.000000 4.762980 
# 
# 
# High freq. dielectric constant tensor:
#      x y z
#    x 1.702540 0.000000 0.000000 
#    y 0.000000 1.684080 0.000000 
#    z 0.000000 0.000000 1.709240 
# 
# From -- ./inp_files/17237.got.cif
#   From: 2010.03.12/outbox.cif.g09.slc.cpg/sg59_9_cif.got.tgz:17237.got - 2010.04.16 16:29:54.
