data_PCOD8241484
_publ_section_title
;
Structure prediction by ZEFSAII (Michael W. Deem and Ramdas Pophale) SiO2 
 PCOD8241484
Probable space group: P M M N
;
_chemical_formula_sum "Si O2"
_cell_formula_units_Z 64
_cell_length_a 29.204947
_cell_length_b 8.871011
_cell_length_c 15.024068
_cell_angle_alpha 90.000000
_cell_angle_beta 90.000000
_cell_angle_gamma 90.000000
_cell_volume 3892.396566
_symmetry_space_group_name_H-M "P M M N"
_symmetry_group_IT_number 59
_space_group.IT_coordinate_system_code '2'
_symmetry_cell_setting 'orthorhombic'
loop_
_space_group_symop_operation_xyz
x,y,z
1/2-x,1/2-y,z
1/2+x,-y,-z
-x,1/2+y,-z
-x,-y,-z
1/2+x,1/2+y,-z
1/2-x,y,z
x,1/2-y,z
loop_
_atom_site_type_symbol
_atom_site_label
_atom_site_fract_x
_atom_site_fract_y
_atom_site_fract_z
Si Si1 0.103819 0.425723 0.454612
Si Si2 0.056830 0.428412 0.635300
Si Si3 0.199141 0.078060 0.529218
Si Si4 0.117190 0.427226 0.799445
Si Si5 0.543013 0.428285 0.688545
Si Si6 0.697870 0.421553 0.286202
Si Si7 0.964927 0.573036 0.877089
Si Si8 0.436092 0.926730 0.949680
O O1 0.092628 0.250000 0.440749
O O2 0.079304 0.488578 0.544088
O O3 0.158711 0.454570 0.458607
O O4 0.085169 0.518967 0.371603
O O5 0.059793 0.250000 0.635939
O O6 0.085376 0.490181 0.719375
O O7 0.004525 0.485156 0.643903
O O8 0.250000 0.053239 0.486508
O O9 0.194128 0.250000 0.564010
O O10 0.192017 0.968176 0.611592
O O11 0.111284 0.250000 0.813228
O O12 0.169264 0.468727 0.777286
O O13 0.105137 0.511475 0.890446
O O14 0.543148 0.250000 0.698031
O O15 0.549717 0.498143 0.785236
O O16 0.750000 0.438806 0.255348
O O17 0.680779 0.250000 0.276645
O O18 0.957241 0.750000 0.870374
O O19 0.017174 0.530015 0.898921
O O20 0.932999 0.507206 0.954862
O O21 0.431386 0.750000 0.964864
#
# Coordination Sequence:
#
# PCOD8241484 Si02
#       8
#     8   8   8   8   8   8   8   8
#     4  10  19  33  48  68  97 131 170 208 247 297
#     4   9  18  31  46  67  97 132 168 205 239 280
#     4   9  17  31  51  71  93 126 166 208 253 298
#     4  11  19  32  52  73  99 133 171 205 243 297
#     4  11  21  33  48  69  99 134 171 210 249 290
#     4  10  20  32  47  71 102 131 163 207 253 296
#     4  10  20  34  51  72  97 130 166 203 245 291
#     4  10  20  33  51  75 100 127 161 203 248 293
#
# _framework density 16.442312000000001
#
# number of rings (size 3 to 8) (size 9 to 14) (size 15 to 20)
#    0.000    2.000    2.500    2.250    0.000    2.250 
#    0.000    0.625    0.000    0.000    0.000    0.875 
#    0.000    5.000    0.000    0.000    0.000    0.000 
#
# Total GULP energy -793700.258899 kJ/mol
# GULP energy per Si atom -12401.566545 kJ/mol
# Density = 1.640489 g / cm^3
# Si number density = 16.442312 Si / 1000 Ang^3
#
#
#
# Elastic Constant Matrix: (Units=GPa)
#
#
# Indices 1 2 3 4 5 6 
#
# 1 96.3461 30.5798 52.1572 0.0000 0.0000 0.0000
# 2 30.5798 55.8099 36.6468 0.0000 0.0000 0.0000
# 3 52.1572 36.6468 111.9158 0.0000 0.0000 0.0000
# 4 0.0000 0.0000 0.0000 28.2444 0.0000 0.0000
# 5 0.0000 0.0000 0.0000 0.0000 20.4096 0.0000
# 6 0.0000 0.0000 0.0000 0.0000 0.0000 23.1572
#
#
#
# Elastic Compliance Matrix: (Units=1/GPa)
#
#
# Indices 1 2 3 4 5 6 
#
# 1 0.014732 -0.004540 -0.005379 0.000000 0.000000 0.000000
# 2 -0.004540 0.024225 -0.005817 0.000000 0.000000 0.000000
# 3 -0.005379 -0.005817 0.013347 0.000000 0.000000 0.000000
# 4 0.000000 0.000000 0.000000 0.035405 0.000000 0.000000
# 5 0.000000 0.000000 0.000000 0.000000 0.048996 0.000000
# 6 0.000000 0.000000 0.000000 0.000000 0.000000 0.043183
#
#
# Mechanical properties :
#
#
# Convention : Reuss Voigt Hill
#
# Bulk Modulus (GPa) = 48.00213 55.87103 51.93658
# Shear Modulus (GPa) = 22.90376 24.00812 23.45594
#
# Velocity S-wave (km/s) = 3.73631 3.82533 3.78108
# Velocity P-wave (km/s) = 6.91889 7.31879 7.12164
#
# Compressibility (1/GPa) = 0.02083241
#
# Stress axis : x y z
#
# Youngs Moduli (GPa) = 67.87817 41.27964 74.92408
#
# Poissons Ratio (x) = 0.18741 0.40303
# Poissons Ratio (y) = 0.30817 0.43581
# Poissons Ratio (z) = 0.36513 0.24011
#
# Static dielectric constant tensor:
#      x y z
#    x 3.145040 0.000000 0.000000 
#    y 0.000000 3.046280 0.000000 
#    z 0.000000 0.000000 2.960850 
# 
# 
# High freq. dielectric constant tensor:
#      x y z
#    x 1.620040 0.000000 0.000000 
#    y 0.000000 1.635260 0.000000 
#    z 0.000000 0.000000 1.613010 
# 
# From -- ./inp_files/25008.got.cif
#   From: 2010.03.12/outbox.cif.g09.slc.cpg/sg59_13_cif.got.tgz:25008.got - 2010.04.16 16:29:54.
