data_PCOD8241200
_publ_section_title
;
Structure prediction by ZEFSAII (Michael W. Deem and Ramdas Pophale) SiO2 
 PCOD8241200
Probable space group: P M M N
;
_chemical_formula_sum "Si O2"
_cell_formula_units_Z 64
_cell_length_a 23.050784
_cell_length_b 9.390643
_cell_length_c 15.334711
_cell_angle_alpha 90.000000
_cell_angle_beta 90.000000
_cell_angle_gamma 90.000000
_cell_volume 3319.377358
_symmetry_space_group_name_H-M "P M M N"
_symmetry_group_IT_number 59
_space_group.IT_coordinate_system_code '2'
_symmetry_cell_setting 'orthorhombic'
loop_
_space_group_symop_operation_xyz
x,y,z
1/2-x,1/2-y,z
1/2+x,-y,-z
-x,1/2+y,-z
-x,-y,-z
1/2+x,1/2+y,-z
1/2-x,y,z
x,1/2-y,z
loop_
_atom_site_type_symbol
_atom_site_label
_atom_site_fract_x
_atom_site_fract_y
_atom_site_fract_z
Si Si1 0.513931 0.089519 0.135094
Si Si2 0.882055 0.916885 0.883019
Si Si3 0.818347 0.412772 0.229703
Si Si4 0.375855 0.084386 0.615418
Si Si5 0.509428 0.587912 0.298500
Si Si6 0.129752 0.912981 0.953899
Si Si7 0.682963 0.085079 0.535319
Si Si8 0.621043 0.084687 0.711376
O O1 0.514189 0.250000 0.169653
O O2 0.449945 0.048472 0.103107
O O3 0.560341 0.068528 0.058203
O O4 0.534244 0.997422 0.216757
O O5 0.867730 0.750000 0.879950
O O6 0.860293 0.989207 0.793686
O O7 0.849774 0.988176 0.965645
O O8 0.750000 0.424474 0.238508
O O9 0.839303 0.250000 0.245470
O O10 0.845691 0.515173 0.301172
O O11 0.837160 0.462794 0.133249
O O12 0.358657 0.250000 0.612356
O O13 0.445884 0.064284 0.621581
O O14 0.355809 0.010360 0.527191
O O15 0.509781 0.750000 0.267945
O O16 0.443674 0.542195 0.322452
O O17 0.145598 0.750000 0.976430
O O18 0.750000 0.046477 0.521603
O O19 0.670907 0.250000 0.513469
O O20 0.665861 0.050648 0.634545
O O21 0.623766 0.250000 0.738953
#
# Coordination Sequence:
#
# PCOD8241200 Si02
#       8
#     8   8   8   8   8   8   8   8
#     4   9  17  30  49  76 107 141 178 216 259 311
#     4  10  20  32  51  80 110 138 175 220 269 321
#     4  10  21  37  56  77 105 144 188 228 263 310
#     4  11  22  35  55  84 114 141 172 215 271 331
#     4   9  18  32  52  80 112 143 174 211 266 328
#     4  10  19  32  51  75 105 142 182 219 261 310
#     4  10  22  40  61  82 103 136 184 228 266 315
#     4   9  19  38  59  78 106 142 180 225 271 316
#
# _framework density 19.280723999999999
#
# number of rings (size 3 to 8) (size 9 to 14) (size 15 to 20)
#    0.000    2.250    1.250    1.500    0.000    5.000 
#    0.000    0.625    0.000    3.750    0.000    0.000 
#    0.000    0.000    0.000    0.000    0.000    0.000 
#
# Total GULP energy -793540.752065 kJ/mol
# GULP energy per Si atom -12399.074251 kJ/mol
# Density = 1.923684 g / cm^3
# Si number density = 19.280724 Si / 1000 Ang^3
#
#
#
# Elastic Constant Matrix: (Units=GPa)
#
#
# Indices 1 2 3 4 5 6 
#
# 1 24.0652 14.0046 11.1520 0.0000 0.0000 0.0000
# 2 14.0046 83.2789 56.1194 0.0000 0.0000 0.0000
# 3 11.1520 56.1194 95.9056 0.0000 0.0000 0.0000
# 4 0.0000 0.0000 0.0000 36.4880 0.0000 0.0000
# 5 0.0000 0.0000 0.0000 0.0000 19.0392 0.0000
# 6 0.0000 0.0000 0.0000 0.0000 0.0000 20.8843
#
#
#
# Elastic Compliance Matrix: (Units=1/GPa)
#
#
# Indices 1 2 3 4 5 6 
#
# 1 0.046169 -0.006846 -0.001363 0.000000 0.000000 0.000000
# 2 -0.006846 0.020840 -0.011399 0.000000 0.000000 0.000000
# 3 -0.001363 -0.011399 0.017255 0.000000 0.000000 0.000000
# 4 0.000000 0.000000 0.000000 0.027406 0.000000 0.000000
# 5 0.000000 0.000000 0.000000 0.000000 0.052523 0.000000
# 6 0.000000 0.000000 0.000000 0.000000 0.000000 0.047883
#
#
# Mechanical properties :
#
#
# Convention : Reuss Voigt Hill
#
# Bulk Modulus (GPa) = 22.19742 40.64466 31.42104
# Shear Modulus (GPa) = 18.77520 23.41386 21.09453
#
# Velocity S-wave (km/s) = 3.12393 3.48856 3.31127
# Velocity P-wave (km/s) = 4.95476 6.11170 5.56339
#
# Compressibility (1/GPa) = 0.04505028
#
# Stress axis : x y z
#
# Youngs Moduli (GPa) = 21.65954 47.98372 57.95277
#
# Poissons Ratio (x) = 0.32848 0.07898
# Poissons Ratio (y) = 0.14827 0.66059
# Poissons Ratio (z) = 0.02952 0.54696
#
# Static dielectric constant tensor:
#      x y z
#    x 3.509580 0.000000 0.000000 
#    y 0.000000 3.532680 0.000000 
#    z 0.000000 0.000000 3.363020 
# 
# 
# High freq. dielectric constant tensor:
#      x y z
#    x 1.739950 0.000000 0.000000 
#    y 0.000000 1.748930 0.000000 
#    z 0.000000 0.000000 1.742690 
# 
# From -- ./inp_files/24792.got.cif
#   From: 2010.03.12/outbox.cif.g09.slc.cpg/sg59_13_cif.got.tgz:24792.got - 2010.04.16 16:29:54.
