data_PCOD8241292
_publ_section_title
;
Structure prediction by ZEFSAII (Michael W. Deem and Ramdas Pophale) SiO2 
 PCOD8241292
Probable space group: P M M N
;
_chemical_formula_sum "Si O2"
_cell_formula_units_Z 64
_cell_length_a 9.115419
_cell_length_b 18.750199
_cell_length_c 21.286665
_cell_angle_alpha 90.000000
_cell_angle_beta 90.000000
_cell_angle_gamma 90.000000
_cell_volume 3638.229937
_symmetry_space_group_name_H-M "P M M N"
_symmetry_group_IT_number 59
_space_group.IT_coordinate_system_code '2'
_symmetry_cell_setting 'orthorhombic'
loop_
_space_group_symop_operation_xyz
x,y,z
1/2-x,1/2-y,z
1/2+x,-y,-z
-x,1/2+y,-z
-x,-y,-z
1/2+x,1/2+y,-z
1/2-x,y,z
x,1/2-y,z
loop_
_atom_site_type_symbol
_atom_site_label
_atom_site_fract_x
_atom_site_fract_y
_atom_site_fract_z
Si Si1 0.922320 0.167748 0.968405
Si Si2 0.580783 0.902985 0.144956
Si Si3 0.917553 0.127917 0.737486
Si Si4 0.585040 0.002335 0.307667
Si Si5 0.919644 0.831973 0.903865
Si Si6 0.914149 0.433645 0.183646
Si Si7 0.418274 0.671602 0.396296
Si Si8 0.417507 0.034834 0.557294
O O1 0.750000 0.154033 0.970032
O O2 0.960149 0.250000 0.952948
O O3 0.993951 0.116028 0.917716
O O4 0.987493 0.145613 0.035511
O O5 0.750000 0.884031 0.135213
O O6 0.518600 0.854529 0.202285
O O7 0.554767 0.986008 0.160058
O O8 0.750000 0.130545 0.760587
O O9 0.946214 0.180082 0.678782
O O10 0.955415 0.050193 0.711126
O O11 0.750000 0.969079 0.296686
O O12 0.570103 0.069700 0.260265
O O13 0.566584 0.018033 0.382018
O O14 0.750000 0.846509 0.918320
O O15 0.948139 0.750000 0.885828
O O16 0.969448 0.879610 0.845258
O O17 0.750000 0.410382 0.163797
O O18 0.250000 0.648366 0.408206
O O19 0.449956 0.750000 0.425449
O O20 0.522364 0.613707 0.428283
O O21 0.250000 0.043980 0.537501
O O22 0.500000 0.000000 0.500000
#
# Coordination Sequence:
#
# PCOD8241292 Si02
#       8
#     8   8   8   8   8   8   8   8
#     4  10  21  36  52  69  92 126 167 207 247 296
#     4  10  20  33  49  72 102 133 165 202 246 294
#     4   9  16  27  45  69  97 129 163 198 239 287
#     4   8  16  31  49  71  99 127 158 197 238 285
#     4  10  21  36  53  73  96 123 158 202 255 309
#     4   9  18  33  53  75  98 126 161 201 243 289
#     4   9  18  32  49  71 101 135 171 211 250 290
#     4  10  19  32  52  77 105 137 172 208 248 296
#
# _framework density 17.590972000000001
#
# number of rings (size 3 to 8) (size 9 to 14) (size 15 to 20)
#    0.000    2.625    0.000    2.625    0.000    6.250 
#    0.000    1.250    0.000    0.750    0.000    1.750 
#    0.000    0.000    0.000    0.000    0.000    0.000 
#
# Total GULP energy -793190.385244 kJ/mol
# GULP energy per Si atom -12393.599769 kJ/mol
# Density = 1.755093 g / cm^3
# Si number density = 17.590972 Si / 1000 Ang^3
#
#
#
# Elastic Constant Matrix: (Units=GPa)
#
#
# Indices 1 2 3 4 5 6 
#
# 1 107.6097 45.0947 61.6110 0.0000 0.0000 0.0000
# 2 45.0947 58.2007 49.5999 0.0000 0.0000 0.0000
# 3 61.6110 49.5999 119.3858 0.0000 0.0000 0.0000
# 4 0.0000 0.0000 0.0000 19.4450 0.0000 0.0000
# 5 0.0000 0.0000 0.0000 0.0000 32.8425 0.0000
# 6 0.0000 0.0000 0.0000 0.0000 0.0000 24.9536
#
#
#
# Elastic Compliance Matrix: (Units=1/GPa)
#
#
# Indices 1 2 3 4 5 6 
#
# 1 0.015220 -0.007894 -0.004575 0.000000 0.000000 0.000000
# 2 -0.007894 0.030694 -0.008678 0.000000 0.000000 0.000000
# 3 -0.004575 -0.008678 0.014343 0.000000 0.000000 0.000000
# 4 0.000000 0.000000 0.000000 0.051427 0.000000 0.000000
# 5 0.000000 0.000000 0.000000 0.000000 0.030448 0.000000
# 6 0.000000 0.000000 0.000000 0.000000 0.000000 0.040074
#
#
# Mechanical properties :
#
#
# Convention : Reuss Voigt Hill
#
# Bulk Modulus (GPa) = 55.67168 66.42304 61.04736
# Shear Modulus (GPa) = 21.69299 24.04093 22.86696
#
# Velocity S-wave (km/s) = 3.51549 3.70085 3.60936
# Velocity P-wave (km/s) = 6.94225 7.49022 7.22143
#
# Compressibility (1/GPa) = 0.01796245
#
# Stress axis : x y z
#
# Youngs Moduli (GPa) = 65.70186 32.57951 69.72161
#
# Poissons Ratio (x) = 0.25718 0.31898
# Poissons Ratio (y) = 0.51864 0.60507
# Poissons Ratio (z) = 0.30059 0.28274
#
# Static dielectric constant tensor:
#      x y z
#    x 3.377340 0.000000 0.000000 
#    y 0.000000 3.017590 0.000000 
#    z 0.000000 0.000000 3.360520 
# 
# 
# High freq. dielectric constant tensor:
#      x y z
#    x 1.693990 0.000000 0.000000 
#    y 0.000000 1.644120 0.000000 
#    z 0.000000 0.000000 1.677430 
# 
# From -- ./inp_files/29379.got.cif
#   From: 2010.03.12/outbox.cif.g09.slc.cpg/sg59_15_cif.got.tgz:29379.got - 2010.04.16 16:29:54.
