data_PCOD8241356
_publ_section_title
;
Structure prediction by ZEFSAII (Michael W. Deem and Ramdas Pophale) SiO2 
 PCOD8241356
Probable space group: P M M N
;
_chemical_formula_sum "Si O2"
_cell_formula_units_Z 48
_cell_length_a 9.539956
_cell_length_b 23.356586
_cell_length_c 12.606070
_cell_angle_alpha 90.000000
_cell_angle_beta 90.000000
_cell_angle_gamma 90.000000
_cell_volume 2808.894637
_symmetry_space_group_name_H-M "P M M N"
_symmetry_group_IT_number 59
_space_group.IT_coordinate_system_code '2'
_symmetry_cell_setting 'orthorhombic'
loop_
_space_group_symop_operation_xyz
x,y,z
1/2-x,1/2-y,z
1/2+x,-y,-z
-x,1/2+y,-z
-x,-y,-z
1/2+x,1/2+y,-z
1/2-x,y,z
x,1/2-y,z
loop_
_atom_site_type_symbol
_atom_site_label
_atom_site_fract_x
_atom_site_fract_y
_atom_site_fract_z
Si Si1 0.411554 0.005990 0.605739
Si Si2 0.912339 0.117191 0.318811
Si Si3 0.916300 0.313412 0.119808
Si Si4 0.911850 0.815488 0.511675
Si Si5 0.411929 0.124652 0.705150
Si Si6 0.413555 0.816336 0.117058
O O1 0.250000 0.012919 0.571222
O O2 0.433868 0.951002 0.680953
O O3 0.500000 0.000000 0.500000
O O4 0.461108 0.061288 0.671039
O O5 0.750000 0.133819 0.333491
O O6 0.971524 0.141602 0.207327
O O7 0.995145 0.144229 0.415834
O O8 0.750000 0.311449 0.118526
O O9 0.973997 0.250000 0.148796
O O10 0.966164 0.331196 0.002158
O O11 0.750000 0.826123 0.540609
O O12 0.955739 0.750000 0.529883
O O13 0.940359 0.831129 0.389834
O O14 0.250000 0.124951 0.738868
O O15 0.502018 0.142777 0.805452
O O16 0.250000 0.829609 0.130886
O O17 0.444889 0.750000 0.142328
#
# Coordination Sequence:
#
# PCOD8241356 Si02
#       6
#     8   8   8   8   8   8
#     4  10  20  34  52  73  99 134 171 205 244 295
#     4  10  19  32  53  77  98 127 169 211 248 291
#     4   8  15  30  51  74 101 129 158 202 258 300
#     4  10  20  32  47  70 102 135 162 197 251 306
#     4  10  20  34  50  70 101 137 167 200 248 301
#     4   9  18  33  53  75  98 128 167 208 248 294
#
# _framework density 17.088573
#
# number of rings (size 3 to 8) (size 9 to 14) (size 15 to 20)
#    0.000    2.500    1.667    2.000    0.000    3.333 
#    0.000    1.667    0.000    1.000    0.000    0.000 
#    0.000    0.000    0.000    0.000    0.000    0.000 
#
# Total GULP energy -595177.077936 kJ/mol
# GULP energy per Si atom -12399.522457 kJ/mol
# Density = 1.704968 g / cm^3
# Si number density = 17.088573 Si / 1000 Ang^3
#
#
#
# Elastic Constant Matrix: (Units=GPa)
#
#
# Indices 1 2 3 4 5 6 
#
# 1 41.2603 33.6478 38.5820 0.0000 0.0000 0.0000
# 2 33.6478 98.2680 49.5857 0.0000 0.0000 0.0000
# 3 38.5820 49.5857 105.3767 0.0000 0.0000 0.0000
# 4 0.0000 0.0000 0.0000 28.5217 0.0000 0.0000
# 5 0.0000 0.0000 0.0000 0.0000 18.1833 0.0000
# 6 0.0000 0.0000 0.0000 0.0000 0.0000 24.6415
#
#
#
# Elastic Compliance Matrix: (Units=1/GPa)
#
#
# Indices 1 2 3 4 5 6 
#
# 1 0.041787 -0.008639 -0.011234 0.000000 0.000000 0.000000
# 2 -0.008639 0.015131 -0.003957 0.000000 0.000000 0.000000
# 3 -0.011234 -0.003957 0.015465 0.000000 0.000000 0.000000
# 4 0.000000 0.000000 0.000000 0.035061 0.000000 0.000000
# 5 0.000000 0.000000 0.000000 0.000000 0.054996 0.000000
# 6 0.000000 0.000000 0.000000 0.000000 0.000000 0.040582
#
#
# Mechanical properties :
#
#
# Convention : Reuss Voigt Hill
#
# Bulk Modulus (GPa) = 40.45011 54.28180 47.36596
# Shear Modulus (GPa) = 19.31076 22.47526 20.89301
#
# Velocity S-wave (km/s) = 3.36525 3.63053 3.50041
# Velocity P-wave (km/s) = 6.23074 7.02910 6.64193
#
# Compressibility (1/GPa) = 0.02472181
#
# Stress axis : x y z
#
# Youngs Moduli (GPa) = 23.93098 66.08911 64.66243
#
# Poissons Ratio (x) = 0.57097 0.72643
# Poissons Ratio (y) = 0.20675 0.25586
# Poissons Ratio (z) = 0.26885 0.26150
#
# Static dielectric constant tensor:
#      x y z
#    x 3.010950 0.000000 0.000000 
#    y 0.000000 3.482620 0.000000 
#    z 0.000000 0.000000 3.246450 
# 
# 
# High freq. dielectric constant tensor:
#      x y z
#    x 1.640250 0.000000 0.000000 
#    y 0.000000 1.664960 0.000000 
#    z 0.000000 0.000000 1.657160 
# 
# From -- ./inp_files/14341.got.cif
#   From: 2010.03.12/outbox.cif.g09.slc.cpg/sg59_8_cif.got.tgz:14341.got - 2010.04.16 16:29:54.
