data_PCOD8241184
_publ_section_title
;
Structure prediction by ZEFSAII (Michael W. Deem and Ramdas Pophale) SiO2 
 PCOD8241184
Probable space group: P M M N
;
_chemical_formula_sum "Si O2"
_cell_formula_units_Z 40
_cell_length_a 8.989994
_cell_length_b 25.420615
_cell_length_c 9.310130
_cell_angle_alpha 90.000000
_cell_angle_beta 90.000000
_cell_angle_gamma 90.000000
_cell_volume 2127.654961
_symmetry_space_group_name_H-M "P M M N"
_symmetry_group_IT_number 59
_space_group.IT_coordinate_system_code '2'
_symmetry_cell_setting 'orthorhombic'
loop_
_space_group_symop_operation_xyz
x,y,z
1/2-x,1/2-y,z
1/2+x,-y,-z
-x,1/2+y,-z
-x,-y,-z
1/2+x,1/2+y,-z
1/2-x,y,z
x,1/2-y,z
loop_
_atom_site_type_symbol
_atom_site_label
_atom_site_fract_x
_atom_site_fract_y
_atom_site_fract_z
Si Si1 0.072258 0.750000 0.164808
Si Si2 0.076670 0.061684 0.152318
Si Si3 0.073147 0.750000 0.840181
Si Si4 0.422791 0.558796 0.142233
Si Si5 0.925599 0.151558 0.656491
Si Si6 0.427109 0.851271 0.666593
O O1 0.250000 0.750000 0.161059
O O2 0.009288 0.698840 0.246987
O O3 0.010188 0.750000 0.002197
O O4 0.250000 0.074458 0.157763
O O5 0.992661 0.095091 0.271623
O O6 0.042454 0.000813 0.187597
O O7 0.016667 0.076395 0.995377
O O8 0.250000 0.750000 0.839645
O O9 0.014304 0.698250 0.758463
O O10 0.250000 0.566419 0.102325
O O11 0.471109 0.595829 0.274051
O O12 0.750000 0.157805 0.650183
O O13 0.988761 0.155007 0.495317
O O14 0.250000 0.855165 0.670096
#
# Coordination Sequence:
#
# PCOD8241184 Si02
#       6
#     4   8   4   8   8   8
#     4   9  15  25  45  73 100 123 156 204 248 285
#     4  10  20  33  50  73 100 132 170 208 247 294
#     4   9  17  29  50  77 100 127 164 204 246 295
#     4   9  18  34  53  72  98 133 171 208 247 294
#     4   9  17  29  48  74 101 128 160 202 249 295
#     4  10  19  32  51  75 102 130 162 202 249 298
#
# _framework density 18.800039999999999
#
# number of rings (size 3 to 8) (size 9 to 14) (size 15 to 20)
#    0.000    2.600    0.000    2.400    0.000    7.200 
#    0.000    1.500    0.000    0.000    0.000    1.400 
#    0.000    0.000    0.000    0.000    0.000    0.000 
#
# Total GULP energy -496036.907165 kJ/mol
# GULP energy per Si atom -12400.922679 kJ/mol
# Density = 1.875725 g / cm^3
# Si number density = 18.800040 Si / 1000 Ang^3
#
#
#
# Elastic Constant Matrix: (Units=GPa)
#
#
# Indices 1 2 3 4 5 6 
#
# 1 26.3282 25.7526 27.9722 0.0000 0.0000 0.0000
# 2 25.7526 132.0109 98.9281 0.0000 0.0000 0.0000
# 3 27.9722 98.9281 188.1317 0.0000 0.0000 0.0000
# 4 0.0000 0.0000 0.0000 35.2278 0.0000 0.0000
# 5 0.0000 0.0000 0.0000 0.0000 16.2856 0.0000
# 6 0.0000 0.0000 0.0000 0.0000 0.0000 22.1507
#
#
#
# Elastic Compliance Matrix: (Units=1/GPa)
#
#
# Indices 1 2 3 4 5 6 
#
# 1 0.048439 -0.006688 -0.003686 0.000000 0.000000 0.000000
# 2 -0.006688 0.013425 -0.006065 0.000000 0.000000 0.000000
# 3 -0.003686 -0.006065 0.009053 0.000000 0.000000 0.000000
# 4 0.000000 0.000000 0.000000 0.028387 0.000000 0.000000
# 5 0.000000 0.000000 0.000000 0.000000 0.061404 0.000000
# 6 0.000000 0.000000 0.000000 0.000000 0.000000 0.045145
#
#
# Mechanical properties :
#
#
# Convention : Reuss Voigt Hill
#
# Bulk Modulus (GPa) = 26.28787 72.41964 49.35375
# Shear Modulus (GPa) = 19.88791 27.65400 23.77096
#
# Velocity S-wave (km/s) = 3.25601 3.83946 3.55971
# Velocity P-wave (km/s) = 5.30554 7.63282 6.57300
#
# Compressibility (1/GPa) = 0.03804036
#
# Stress axis : x y z
#
# Youngs Moduli (GPa) = 20.64447 74.48867 110.46454
#
# Poissons Ratio (x) = 0.49815 0.40712
# Poissons Ratio (y) = 0.13806 0.66997
# Poissons Ratio (z) = 0.07609 0.45178
#
# Static dielectric constant tensor:
#      x y z
#    x 2.984690 0.000000 0.000000 
#    y 0.000000 3.594330 0.000000 
#    z 0.000000 0.000000 3.629750 
# 
# 
# High freq. dielectric constant tensor:
#      x y z
#    x 1.679140 0.000000 0.000000 
#    y 0.000000 1.744610 0.000000 
#    z 0.000000 0.000000 1.737570 
# 
# From -- ./inp_files/5941.got.cif
#   From: 2010.03.12/outbox.cif.g09.slc.cpg/sg59_3_cif.got.tgz:5941.got - 2010.04.16 16:29:54.
