data_PCOD8241382
_publ_section_title
;
Structure prediction by ZEFSAII (Michael W. Deem and Ramdas Pophale) SiO2 
 PCOD8241382
Probable space group: P M M N
;
_chemical_formula_sum "Si O2"
_cell_formula_units_Z 48
_cell_length_a 8.861160
_cell_length_b 25.859868
_cell_length_c 11.729296
_cell_angle_alpha 90.000000
_cell_angle_beta 90.000000
_cell_angle_gamma 90.000000
_cell_volume 2687.749739
_symmetry_space_group_name_H-M "P M M N"
_symmetry_group_IT_number 59
_space_group.IT_coordinate_system_code '2'
_symmetry_cell_setting 'orthorhombic'
loop_
_space_group_symop_operation_xyz
x,y,z
1/2-x,1/2-y,z
1/2+x,-y,-z
-x,1/2+y,-z
-x,-y,-z
1/2+x,1/2+y,-z
1/2-x,y,z
x,1/2-y,z
loop_
_atom_site_type_symbol
_atom_site_label
_atom_site_fract_x
_atom_site_fract_y
_atom_site_fract_z
Si Si1 0.580767 0.540459 0.166641
Si Si2 0.073776 0.690819 0.164414
Si Si3 0.074772 0.893532 0.343047
Si Si4 0.071889 0.053630 0.458461
Si Si5 0.423980 0.122855 0.019195
Si Si6 0.577567 0.073833 0.219767
O O1 0.750000 0.554186 0.210678
O O2 0.460227 0.558058 0.260899
O O3 0.564220 0.479440 0.148950
O O4 0.549350 0.569339 0.048291
O O5 0.250000 0.683167 0.139787
O O6 0.030100 0.750000 0.186712
O O7 0.026856 0.659066 0.277741
O O8 0.985700 0.670871 0.053663
O O9 0.250000 0.893944 0.375244
O O10 0.978335 0.899740 0.458001
O O11 0.250000 0.046911 0.460237
O O12 0.018735 0.069869 0.333885
O O13 0.000000 0.000000 0.500000
O O14 0.250000 0.132986 0.046114
O O15 0.511922 0.118896 0.139016
O O16 0.750000 0.086822 0.251146
#
# Coordination Sequence:
#
# PCOD8241382 Si02
#       6
#     8   8   8   8   8   8
#     4   9  18  31  48  71 104 142 177 214 255 307
#     4   9  19  37  60  83 106 135 174 220 270 322
#     4  10  19  32  53  79 106 139 178 221 266 312
#     4  12  23  35  51  74 107 146 184 221 261 314
#     4  10  20  33  50  77 108 138 175 219 267 316
#     4  11  21  33  50  73 105 146 183 215 257 312
#
# _framework density 17.858803999999999
#
# number of rings (size 3 to 8) (size 9 to 14) (size 15 to 20)
#    0.000    1.833    1.667    3.500    0.000    2.333 
#    0.000    0.000    0.000    1.000    0.000    2.333 
#    0.000    0.000    0.000    0.000    0.000    0.000 
#
# Total GULP energy -595252.248764 kJ/mol
# GULP energy per Si atom -12401.088516 kJ/mol
# Density = 1.781816 g / cm^3
# Si number density = 17.858804 Si / 1000 Ang^3
#
#
#
# Elastic Constant Matrix: (Units=GPa)
#
#
# Indices 1 2 3 4 5 6 
#
# 1 111.0658 39.2664 57.6900 0.0000 0.0000 0.0000
# 2 39.2664 81.3218 44.1287 0.0000 0.0000 0.0000
# 3 57.6900 44.1287 108.8993 0.0000 0.0000 0.0000
# 4 0.0000 0.0000 0.0000 16.6276 0.0000 0.0000
# 5 0.0000 0.0000 0.0000 0.0000 35.0464 0.0000
# 6 0.0000 0.0000 0.0000 0.0000 0.0000 21.6991
#
#
#
# Elastic Compliance Matrix: (Units=1/GPa)
#
#
# Indices 1 2 3 4 5 6 
#
# 1 0.013068 -0.003273 -0.005596 0.000000 0.000000 0.000000
# 2 -0.003273 0.016583 -0.004986 0.000000 0.000000 0.000000
# 3 -0.005596 -0.004986 0.014168 0.000000 0.000000 0.000000
# 4 0.000000 0.000000 0.000000 0.060141 0.000000 0.000000
# 5 0.000000 0.000000 0.000000 0.000000 0.028534 0.000000
# 6 0.000000 0.000000 0.000000 0.000000 0.000000 0.046085
#
#
# Mechanical properties :
#
#
# Convention : Reuss Voigt Hill
#
# Bulk Modulus (GPa) = 62.08128 64.82856 63.45492
# Shear Modulus (GPa) = 23.62308 25.35474 24.48891
#
# Velocity S-wave (km/s) = 3.64094 3.77202 3.70706
# Velocity P-wave (km/s) = 7.24658 7.43978 7.34382
#
# Compressibility (1/GPa) = 0.01610792
#
# Stress axis : x y z
#
# Youngs Moduli (GPa) = 76.52471 60.30380 70.58201
#
# Poissons Ratio (x) = 0.19737 0.39501
# Poissons Ratio (y) = 0.25046 0.35191
# Poissons Ratio (z) = 0.42826 0.30067
#
# Static dielectric constant tensor:
#      x y z
#    x 3.411180 0.000000 0.000000 
#    y 0.000000 3.095310 0.000000 
#    z 0.000000 0.000000 3.297050 
# 
# 
# High freq. dielectric constant tensor:
#      x y z
#    x 1.703830 0.000000 0.000000 
#    y 0.000000 1.654160 0.000000 
#    z 0.000000 0.000000 1.689050 
# 
# From -- ./inp_files/14319.got.cif
#   From: 2010.03.12/outbox.cif.g09.slc.cpg/sg59_8_cif.got.tgz:14319.got - 2010.04.16 16:29:54.
