data_PCOD8241994
_publ_section_title
;
Structure prediction by ZEFSAII (Michael W. Deem and Ramdas Pophale) SiO2 
 PCOD8241994
Probable space group: P M M N
;
_chemical_formula_sum "Si O2"
_cell_formula_units_Z 64
_cell_length_a 17.188583
_cell_length_b 19.279641
_cell_length_c 9.455069
_cell_angle_alpha 90.000000
_cell_angle_beta 90.000000
_cell_angle_gamma 90.000000
_cell_volume 3133.312570
_symmetry_space_group_name_H-M "P M M N"
_symmetry_group_IT_number 59
_space_group.IT_coordinate_system_code '2'
_symmetry_cell_setting 'orthorhombic'
loop_
_space_group_symop_operation_xyz
x,y,z
1/2-x,1/2-y,z
1/2+x,-y,-z
-x,1/2+y,-z
-x,-y,-z
1/2+x,1/2+y,-z
1/2-x,y,z
x,1/2-y,z
loop_
_atom_site_type_symbol
_atom_site_label
_atom_site_fract_x
_atom_site_fract_y
_atom_site_fract_z
Si Si1 0.948494 0.118318 0.614316
Si Si2 0.422409 0.044656 0.755892
Si Si3 0.661042 0.171992 0.847347
Si Si4 0.837071 0.673236 0.272021
Si Si5 0.664391 0.562352 0.745989
Si Si6 0.091376 0.173171 0.441532
Si Si7 0.658820 0.467858 0.006179
Si Si8 0.334898 0.527331 0.520818
O O1 0.897166 0.166644 0.715339
O O2 0.894314 0.091211 0.486657
O O3 0.987444 0.054203 0.707496
O O4 0.013956 0.161402 0.534339
O O5 0.393010 0.119761 0.811383
O O6 0.370704 0.032701 0.616336
O O7 0.402170 0.983669 0.866376
O O8 0.750000 0.161242 0.794302
O O9 0.651377 0.250000 0.912511
O O10 0.641663 0.111561 0.960737
O O11 0.750000 0.657570 0.222486
O O12 0.863526 0.750000 0.224860
O O13 0.839537 0.667137 0.443609
O O14 0.750000 0.596677 0.767105
O O15 0.603701 0.619989 0.688939
O O16 0.636297 0.525302 0.889380
O O17 0.672746 0.499230 0.638074
O O18 0.087395 0.250000 0.374640
O O19 0.750000 0.475335 0.050543
O O20 0.250000 0.550318 0.578740
#
# Coordination Sequence:
#
# PCOD8241994 Si02
#       8
#     8   8   8   8   8   8   8   8
#     4  11  21  35  58  87 117 145 190 245 294 342
#     4  11  22  34  57  87 119 149 187 237 299 344
#     4  10  21  39  62  84 112 154 198 235 281 344
#     4   9  16  28  48  75 108 144 183 224 271 336
#     4  10  19  34  57  82 115 151 190 235 279 337
#     4  10  20  32  52  81 114 149 189 236 289 339
#     4  10  21  38  59  87 116 148 194 241 282 342
#     4  11  20  35  58  85 114 149 193 243 288 339
#
# _framework density 20.425666
#
# number of rings (size 3 to 8) (size 9 to 14) (size 15 to 20)
#    0.000    1.750    3.750    2.625    0.000    1.750 
#    0.000    0.625    0.000    3.750    0.000    1.750 
#    0.000    0.000    0.000    0.000    0.000    0.000 
#
# Total GULP energy -793039.883946 kJ/mol
# GULP energy per Si atom -12391.248187 kJ/mol
# Density = 2.037918 g / cm^3
# Si number density = 20.425666 Si / 1000 Ang^3
#
#
#
# Elastic Constant Matrix: (Units=GPa)
#
#
# Indices 1 2 3 4 5 6 
#
# 1 90.8434 36.4594 21.8889 0.0000 0.0000 0.0000
# 2 36.4594 116.3164 26.6229 0.0000 0.0000 0.0000
# 3 21.8889 26.6229 44.8967 0.0000 0.0000 0.0000
# 4 0.0000 0.0000 0.0000 21.0976 0.0000 0.0000
# 5 0.0000 0.0000 0.0000 0.0000 20.6626 0.0000
# 6 0.0000 0.0000 0.0000 0.0000 0.0000 23.5794
#
#
#
# Elastic Compliance Matrix: (Units=1/GPa)
#
#
# Indices 1 2 3 4 5 6 
#
# 1 0.013389 -0.003127 -0.004673 0.000000 0.000000 0.000000
# 2 -0.003127 0.010678 -0.004807 0.000000 0.000000 0.000000
# 3 -0.004673 -0.004807 0.027402 0.000000 0.000000 0.000000
# 4 0.000000 0.000000 0.000000 0.047399 0.000000 0.000000
# 5 0.000000 0.000000 0.000000 0.000000 0.048397 0.000000
# 6 0.000000 0.000000 0.000000 0.000000 0.000000 0.042410
#
#
# Mechanical properties :
#
#
# Convention : Reuss Voigt Hill
#
# Bulk Modulus (GPa) = 38.08955 46.88876 42.48916
# Shear Modulus (GPa) = 22.35728 24.20694 23.28211
#
# Velocity S-wave (km/s) = 3.31202 3.44630 3.37982
# Velocity P-wave (km/s) = 5.77185 6.23230 6.00649
#
# Compressibility (1/GPa) = 0.02625392
#
# Stress axis : x y z
#
# Youngs Moduli (GPa) = 74.68771 93.65315 36.49330
#
# Poissons Ratio (x) = 0.29287 0.17055
# Poissons Ratio (y) = 0.23356 0.17543
# Poissons Ratio (z) = 0.34904 0.45020
#
# Static dielectric constant tensor:
#      x y z
#    x 3.867820 0.000000 0.000000 
#    y 0.000000 3.682240 0.000000 
#    z 0.000000 0.000000 3.275150 
# 
# 
# High freq. dielectric constant tensor:
#      x y z
#    x 1.805000 0.000000 0.000000 
#    y 0.000000 1.793150 0.000000 
#    z 0.000000 0.000000 1.753070 
# 
# From -- ./inp_files/10678.got.cif
#   From: 2010.03.12/outbox.cif.g09.slc.cpg/sg59_6_cif.got.tgz:10678.got - 2010.04.16 16:29:54.
