data_PCOD8241235
_publ_section_title
;
Structure prediction by ZEFSAII (Michael W. Deem and Ramdas Pophale) SiO2 
 PCOD8241235
Probable space group: P M M N
;
_chemical_formula_sum "Si O2"
_cell_formula_units_Z 56
_cell_length_a 8.819658
_cell_length_b 14.432283
_cell_length_c 22.989984
_cell_angle_alpha 90.000000
_cell_angle_beta 90.000000
_cell_angle_gamma 90.000000
_cell_volume 2926.344490
_symmetry_space_group_name_H-M "P M M N"
_symmetry_group_IT_number 59
_space_group.IT_coordinate_system_code '2'
_symmetry_cell_setting 'orthorhombic'
loop_
_space_group_symop_operation_xyz
x,y,z
1/2-x,1/2-y,z
1/2+x,-y,-z
-x,1/2+y,-z
-x,-y,-z
1/2+x,1/2+y,-z
1/2-x,y,z
x,1/2-y,z
loop_
_atom_site_type_symbol
_atom_site_label
_atom_site_fract_x
_atom_site_fract_y
_atom_site_fract_z
Si Si1 0.929589 0.350925 0.906606
Si Si2 0.569493 0.648838 0.406921
Si Si3 0.578941 0.857558 0.537429
Si Si4 0.071239 0.960803 0.640568
Si Si5 0.577292 0.357286 0.037194
Si Si6 0.927421 0.541771 0.859654
Si Si7 0.930042 0.144920 0.247553
O O1 0.750000 0.345567 0.910940
O O2 0.992114 0.250000 0.885073
O O3 0.977862 0.433186 0.862819
O O4 0.987036 0.371841 0.971998
O O5 0.750000 0.653147 0.408926
O O6 0.506691 0.750000 0.386637
O O7 0.514277 0.626092 0.472437
O O8 0.512620 0.567811 0.363399
O O9 0.750000 0.896034 0.543644
O O10 0.575270 0.750000 0.553156
O O11 0.469975 0.909550 0.581510
O O12 0.250000 0.959896 0.646718
O O13 0.000525 0.909448 0.696709
O O14 0.750000 0.393976 0.043911
O O15 0.571678 0.250000 0.054849
O O16 0.464573 0.412753 0.078693
O O17 0.750000 0.551971 0.846570
O O18 0.021350 0.591395 0.809803
O O19 0.750000 0.147064 0.249960
O O20 0.993992 0.250000 0.247287
#
# Coordination Sequence:
#
# PCOD8241235 Si02
#       7
#     8   8   8   8   8   8   8
#     4   8  16  32  52  74 100 129 159 191 236 294
#     4   8  15  29  49  74 102 128 154 190 242 297
#     4   9  17  29  47  73 104 132 154 186 242 301
#     4  10  19  32  52  73  93 125 169 207 234 273
#     4   9  17  31  52  75 101 133 160 186 234 296
#     4  11  21  32  51  76  98 125 164 206 240 275
#     4  10  22  38  51  66  95 132 164 197 241 289
#
# _framework density 19.136503000000001
#
# number of rings (size 3 to 8) (size 9 to 14) (size 15 to 20)
#    0.000    2.714    0.000    3.857    0.000    3.714 
#    0.000    1.429    0.000    5.571    0.000    0.000 
#    0.000    0.000    0.000    0.000    0.000    0.000 
#
# Total GULP energy -694085.204553 kJ/mol
# GULP energy per Si atom -12394.378653 kJ/mol
# Density = 1.909295 g / cm^3
# Si number density = 19.136503 Si / 1000 Ang^3
#
#
#
# Elastic Constant Matrix: (Units=GPa)
#
#
# Indices 1 2 3 4 5 6 
#
# 1 7.1381 12.7901 7.1273 0.0000 0.0000 0.0000
# 2 12.7901 150.7244 85.3884 0.0000 0.0000 0.0000
# 3 7.1273 85.3884 85.2017 0.0000 0.0000 0.0000
# 4 0.0000 0.0000 0.0000 33.1507 0.0000 0.0000
# 5 0.0000 0.0000 0.0000 0.0000 21.7040 0.0000
# 6 0.0000 0.0000 0.0000 0.0000 0.0000 20.3670
#
#
#
# Elastic Compliance Matrix: (Units=1/GPa)
#
#
# Indices 1 2 3 4 5 6 
#
# 1 0.165224 -0.014322 0.000532 0.000000 0.000000 0.000000
# 2 -0.014322 0.016591 -0.015429 0.000000 0.000000 0.000000
# 3 0.000532 -0.015429 0.027155 0.000000 0.000000 0.000000
# 4 0.000000 0.000000 0.000000 0.030165 0.000000 0.000000
# 5 0.000000 0.000000 0.000000 0.000000 0.046075 0.000000
# 6 0.000000 0.000000 0.000000 0.000000 0.000000 0.049099
#
#
# Mechanical properties :
#
#
# Convention : Reuss Voigt Hill
#
# Bulk Modulus (GPa) = 6.64309 50.40843 28.52576
# Shear Modulus (GPa) = 11.28859 24.22824 17.75841
#
# Velocity S-wave (km/s) = 2.43142 3.56205 3.04959
# Velocity P-wave (km/s) = 3.37066 6.58151 5.22866
#
# Compressibility (1/GPa) = 0.15053225
#
# Stress axis : x y z
#
# Youngs Moduli (GPa) = 6.05238 60.27397 36.82513
#
# Poissons Ratio (x) = 0.86324 -0.01959
# Poissons Ratio (y) = 0.08668 0.56818
# Poissons Ratio (z) = -0.00322 0.92998
#
# Static dielectric constant tensor:
#      x y z
#    x 3.087330 0.000000 0.000000 
#    y 0.000000 4.103040 0.000000 
#    z 0.000000 0.000000 3.407890 
# 
# 
# High freq. dielectric constant tensor:
#      x y z
#    x 1.704550 0.000000 0.000000 
#    y 0.000000 1.763120 0.000000 
#    z 0.000000 0.000000 1.725760 
# 
# From -- ./inp_files/28966.got.cif
#   From: 2010.03.12/outbox.cif.g09.slc.cpg/sg59_15_cif.got.tgz:28966.got - 2010.04.16 16:29:54.
