data_PCOD8241702
_publ_section_title
;
Structure prediction by ZEFSAII (Michael W. Deem and Ramdas Pophale) SiO2 
 PCOD8241702
Probable space group: P M M N
;
_chemical_formula_sum "Si O2"
_cell_formula_units_Z 56
_cell_length_a 9.188660
_cell_length_b 19.441841
_cell_length_c 16.364441
_cell_angle_alpha 90.000000
_cell_angle_beta 90.000000
_cell_angle_gamma 90.000000
_cell_volume 2923.416836
_symmetry_space_group_name_H-M "P M M N"
_symmetry_group_IT_number 59
_space_group.IT_coordinate_system_code '2'
_symmetry_cell_setting 'orthorhombic'
loop_
_space_group_symop_operation_xyz
x,y,z
1/2-x,1/2-y,z
1/2+x,-y,-z
-x,1/2+y,-z
-x,-y,-z
1/2+x,1/2+y,-z
1/2-x,y,z
x,1/2-y,z
loop_
_atom_site_type_symbol
_atom_site_label
_atom_site_fract_x
_atom_site_fract_y
_atom_site_fract_z
Si Si1 0.419946 0.565890 0.251493
Si Si2 0.083631 0.170011 0.491513
Si Si3 0.077401 0.329381 0.852496
Si Si4 0.580549 0.448983 0.562006
Si Si5 0.920811 0.674807 0.692094
Si Si6 0.418034 0.071756 0.997433
Si Si7 0.418564 0.427705 0.178518
O O1 0.250000 0.583065 0.241257
O O2 0.507406 0.635156 0.227718
O O3 0.453151 0.537603 0.342607
O O4 0.477257 0.505756 0.189992
O O5 0.250000 0.153223 0.515528
O O6 0.050843 0.250000 0.503043
O O7 0.053437 0.146157 0.398708
O O8 0.973436 0.128689 0.548162
O O9 0.250000 0.332130 0.843966
O O10 0.024978 0.250000 0.859531
O O11 0.023385 0.371987 0.932697
O O12 0.500000 0.500000 0.500000
O O13 0.750000 0.455632 0.543082
O O14 0.750000 0.681925 0.708573
O O15 0.993193 0.750000 0.701856
O O16 0.995577 0.623873 0.757471
O O17 0.250000 0.055605 0.979845
O O18 0.441314 0.102812 0.088140
O O19 0.500000 0.000000 0.000000
O O20 0.250000 0.432565 0.202534
#
# Coordination Sequence:
#
# PCOD8241702 Si02
#       7
#     8   8   8   8   8   8   8
#     4  10  21  37  56  78 105 142 186 228 271 326
#     4   9  18  34  55  77 106 145 184 224 274 330
#     4  10  22  38  55  81 115 146 181 229 280 327
#     4  11  23  37  56  82 112 143 184 236 283 336
#     4   8  14  26  47  76 106 135 170 214 262 312
#     4  10  19  33  55  79 107 142 178 219 268 326
#     4   9  16  28  50  76 102 133 173 217 260 310
#
# _framework density 19.155667999999999
#
# number of rings (size 3 to 8) (size 9 to 14) (size 15 to 20)
#    0.000    2.429    1.429    2.143    0.000    5.143 
#    0.000    5.714    0.000    0.000    0.000    0.000 
#    0.000    0.000    0.000    0.000    0.000    0.000 
#
# Total GULP energy -694090.543754 kJ/mol
# GULP energy per Si atom -12394.473996 kJ/mol
# Density = 1.911207 g / cm^3
# Si number density = 19.155668 Si / 1000 Ang^3
#
#
#
# Elastic Constant Matrix: (Units=GPa)
#
#
# Indices 1 2 3 4 5 6 
#
# 1 43.3191 33.2400 36.5178 0.0000 0.0000 0.0000
# 2 33.2400 101.9623 46.4987 0.0000 0.0000 0.0000
# 3 36.5178 46.4987 88.2149 0.0000 0.0000 0.0000
# 4 0.0000 0.0000 0.0000 36.3365 0.0000 0.0000
# 5 0.0000 0.0000 0.0000 0.0000 23.8057 0.0000
# 6 0.0000 0.0000 0.0000 0.0000 0.0000 26.6150
#
#
#
# Elastic Compliance Matrix: (Units=1/GPa)
#
#
# Indices 1 2 3 4 5 6 
#
# 1 0.038949 -0.007036 -0.012415 0.000000 0.000000 0.000000
# 2 -0.007036 0.014182 -0.004563 0.000000 0.000000 0.000000
# 3 -0.012415 -0.004563 0.018880 0.000000 0.000000 0.000000
# 4 0.000000 0.000000 0.000000 0.027521 0.000000 0.000000
# 5 0.000000 0.000000 0.000000 0.000000 0.042007 0.000000
# 6 0.000000 0.000000 0.000000 0.000000 0.000000 0.037573
#
#
# Mechanical properties :
#
#
# Convention : Reuss Voigt Hill
#
# Bulk Modulus (GPa) = 41.69395 51.77882 46.73639
# Shear Modulus (GPa) = 21.26452 25.16742 23.21597
#
# Velocity S-wave (km/s) = 3.33542 3.62862 3.48510
# Velocity P-wave (km/s) = 6.05363 6.68170 6.37540
#
# Compressibility (1/GPa) = 0.02398430
#
# Stress axis : x y z
#
# Youngs Moduli (GPa) = 25.67465 70.51130 52.96502
#
# Poissons Ratio (x) = 0.49611 0.65755
# Poissons Ratio (y) = 0.18064 0.24168
# Poissons Ratio (z) = 0.31875 0.32174
#
# Static dielectric constant tensor:
#      x y z
#    x 3.141100 0.000000 0.000000 
#    y 0.000000 3.738210 0.000000 
#    z 0.000000 0.000000 3.709760 
# 
# 
# High freq. dielectric constant tensor:
#      x y z
#    x 1.702770 0.000000 0.000000 
#    y 0.000000 1.750630 0.000000 
#    z 0.000000 0.000000 1.753260 
# 
# From -- ./inp_files/21058.got.cif
#   From: 2010.03.12/outbox.cif.g09.slc.cpg/sg59_11_cif.got.tgz:21058.got - 2010.04.16 16:29:54.
