data_PCOD8241242
_publ_section_title
;
Structure prediction by ZEFSAII (Michael W. Deem and Ramdas Pophale) SiO2 
 PCOD8241242
Probable space group: P M M N
;
_chemical_formula_sum "Si O2"
_cell_formula_units_Z 64
_cell_length_a 14.218594
_cell_length_b 9.528332
_cell_length_c 25.657331
_cell_angle_alpha 90.000000
_cell_angle_beta 90.000000
_cell_angle_gamma 90.000000
_cell_volume 3476.041970
_symmetry_space_group_name_H-M "P M M N"
_symmetry_group_IT_number 59
_space_group.IT_coordinate_system_code '2'
_symmetry_cell_setting 'orthorhombic'
loop_
_space_group_symop_operation_xyz
x,y,z
1/2-x,1/2-y,z
1/2+x,-y,-z
-x,1/2+y,-z
-x,-y,-z
1/2+x,1/2+y,-z
1/2-x,y,z
x,1/2-y,z
loop_
_atom_site_type_symbol
_atom_site_label
_atom_site_fract_x
_atom_site_fract_y
_atom_site_fract_z
Si Si1 0.359310 0.584566 0.771448
Si Si2 0.145740 0.083312 0.580667
Si Si3 0.640635 0.908030 0.032219
Si Si4 0.851905 0.584425 0.915795
Si Si5 0.855647 0.411862 0.628982
Si Si6 0.961248 0.912967 0.317306
Si Si7 0.862088 0.906330 0.532229
Si Si8 0.452679 0.915042 0.878685
O O1 0.250000 0.541522 0.768030
O O2 0.372754 0.750000 0.763712
O O3 0.419274 0.505697 0.728253
O O4 0.400731 0.533882 0.826628
O O5 0.250000 0.020492 0.590066
O O6 0.151310 0.250000 0.578714
O O7 0.081260 0.032918 0.628091
O O8 0.103804 0.033828 0.524396
O O9 0.750000 0.908204 0.045684
O O10 0.600189 0.750000 0.038082
O O11 0.589794 0.010527 0.071620
O O12 0.623460 0.969074 0.974062
O O13 0.750000 0.522715 0.897010
O O14 0.841501 0.750000 0.920323
O O15 0.935866 0.544624 0.875944
O O16 0.750000 0.459873 0.645150
O O17 0.857058 0.250000 0.612532
O O18 0.895250 0.493785 0.578834
O O19 0.925890 0.436793 0.677868
O O20 0.936752 0.750000 0.306677
O O21 0.750000 0.901273 0.529771
O O22 0.901963 0.750000 0.542854
O O23 0.438387 0.750000 0.886483
#
# Coordination Sequence:
#
# PCOD8241242 Si02
#       8
#     8   8   8   8   8   8   8   8
#     4  10  22  38  52  71 101 127 151 197 254 293
#     4   8  14  26  45  69  94 118 152 199 240 277
#     4   9  17  29  47  74 106 135 164 201 241 281
#     4   8  15  29  49  74 104 135 165 198 237 281
#     4   9  18  32  48  69  99 128 155 195 243 285
#     4  10  20  34  53  72  90 124 171 205 235 285
#     4   8  14  26  45  68  94 124 155 189 233 285
#     4  10  19  32  52  74  98 132 168 200 240 290
#
# _framework density 18.411745
#
# number of rings (size 3 to 8) (size 9 to 14) (size 15 to 20)
#    0.000    3.000    0.000    2.625    0.000    3.000 
#    0.000    1.250    0.000    4.125    0.000    0.000 
#    0.000    0.000    0.000    0.000    0.000    0.000 
#
# Total GULP energy -793138.633817 kJ/mol
# GULP energy per Si atom -12392.791153 kJ/mol
# Density = 1.836984 g / cm^3
# Si number density = 18.411745 Si / 1000 Ang^3
#
#
#
# Elastic Constant Matrix: (Units=GPa)
#
#
# Indices 1 2 3 4 5 6 
#
# 1 100.2128 28.3246 59.1881 0.0000 0.0000 0.0000
# 2 28.3246 34.7778 28.3931 0.0000 0.0000 0.0000
# 3 59.1881 28.3931 75.0195 0.0000 0.0000 0.0000
# 4 0.0000 0.0000 0.0000 25.0636 0.0000 0.0000
# 5 0.0000 0.0000 0.0000 0.0000 31.0843 0.0000
# 6 0.0000 0.0000 0.0000 0.0000 0.0000 19.1492
#
#
#
# Elastic Compliance Matrix: (Units=1/GPa)
#
#
# Indices 1 2 3 4 5 6 
#
# 1 0.019210 -0.004735 -0.013364 0.000000 0.000000 0.000000
# 2 -0.004735 0.042779 -0.012455 0.000000 0.000000 0.000000
# 3 -0.013364 -0.012455 0.028588 0.000000 0.000000 0.000000
# 4 0.000000 0.000000 0.000000 0.039899 0.000000 0.000000
# 5 0.000000 0.000000 0.000000 0.000000 0.032171 0.000000
# 6 0.000000 0.000000 0.000000 0.000000 0.000000 0.052222
#
#
# Mechanical properties :
#
#
# Convention : Reuss Voigt Hill
#
# Bulk Modulus (GPa) = 33.93464 49.09128 41.51296
# Shear Modulus (GPa) = 17.49480 21.33302 19.41391
#
# Velocity S-wave (km/s) = 3.08587 3.40761 3.25072
# Velocity P-wave (km/s) = 5.58281 6.49641 6.05686
#
# Compressibility (1/GPa) = 0.02946841
#
# Stress axis : x y z
#
# Youngs Moduli (GPa) = 52.05514 23.37607 34.97985
#
# Poissons Ratio (x) = 0.11068 0.46748
# Poissons Ratio (y) = 0.24648 0.43567
# Poissons Ratio (z) = 0.69568 0.29115
#
# Static dielectric constant tensor:
#      x y z
#    x 3.721240 0.000000 0.000000 
#    y 0.000000 3.139790 0.000000 
#    z 0.000000 0.000000 3.366760 
# 
# 
# High freq. dielectric constant tensor:
#      x y z
#    x 1.724010 0.000000 0.000000 
#    y 0.000000 1.682020 0.000000 
#    z 0.000000 0.000000 1.697400 
# 
# From -- ./inp_files/32235.got.cif
#   From: 2010.03.12/outbox.cif.g09.slc.cpg/sg59_17_cif.got.tgz:32235.got - 2010.04.16 16:29:54.
