data_PCOD8241877
_publ_section_title
;
Structure prediction by ZEFSAII (Michael W. Deem and Ramdas Pophale) SiO2 
 PCOD8241877
Probable space group: P M M N
;
_chemical_formula_sum "Si O2"
_cell_formula_units_Z 48
_cell_length_a 19.929545
_cell_length_b 11.033154
_cell_length_c 11.004015
_cell_angle_alpha 90.000000
_cell_angle_beta 90.000000
_cell_angle_gamma 90.000000
_cell_volume 2419.625972
_symmetry_space_group_name_H-M "P M M N"
_symmetry_group_IT_number 59
_space_group.IT_coordinate_system_code '2'
_symmetry_cell_setting 'orthorhombic'
loop_
_space_group_symop_operation_xyz
x,y,z
1/2-x,1/2-y,z
1/2+x,-y,-z
-x,1/2+y,-z
-x,-y,-z
1/2+x,1/2+y,-z
1/2-x,y,z
x,1/2-y,z
loop_
_atom_site_type_symbol
_atom_site_label
_atom_site_fract_x
_atom_site_fract_y
_atom_site_fract_z
Si Si1 0.328254 0.528075 0.726911
Si Si2 0.442171 0.118366 0.629921
Si Si3 0.935928 0.883454 0.895943
Si Si4 0.067317 0.453876 0.363725
Si Si5 0.409654 0.887238 0.950620
Si Si6 0.177634 0.613661 0.464984
O O1 0.250000 0.494555 0.746464
O O2 0.372636 0.407863 0.701290
O O3 0.355484 0.600022 0.843361
O O4 0.340426 0.610697 0.608012
O O5 0.467012 0.250000 0.674644
O O6 0.495778 0.016310 0.661907
O O7 0.432542 0.127549 0.484283
O O8 0.916163 0.750000 0.952158
O O9 0.015576 0.901427 0.900781
O O10 0.915026 0.876060 0.754510
O O11 0.898262 0.999290 0.956650
O O12 0.123010 0.555957 0.378650
O O13 0.400143 0.750000 0.006796
O O14 0.250000 0.549181 0.445215
O O15 0.181880 0.750000 0.421718
#
# Coordination Sequence:
#
# PCOD8241877 Si02
#       6
#     8   8   8   8   8   8
#     4  10  20  36  56  82 115 149 186 236 293 346
#     4  10  20  32  52  84 116 149 190 234 286 346
#     4  10  21  38  58  81 112 150 189 235 285 338
#     4  10  19  34  54  81 111 152 187 236 279 345
#     4  10  21  37  57  83 111 147 193 239 285 337
#     4   9  18  32  53  82 114 147 185 233 288 341
#
# _framework density 19.837778
#
# number of rings (size 3 to 8) (size 9 to 14) (size 15 to 20)
#    0.000    2.167    1.667    1.500    0.000    3.333 
#    0.000    0.833    0.000    2.500    0.000    0.000 
#    0.000    0.000    0.000    0.000    0.000    0.000 
#
# Total GULP energy -594727.881570 kJ/mol
# GULP energy per Si atom -12390.164199 kJ/mol
# Density = 1.979263 g / cm^3
# Si number density = 19.837778 Si / 1000 Ang^3
#
#
#
# Elastic Constant Matrix: (Units=GPa)
#
#
# Indices 1 2 3 4 5 6 
#
# 1 93.2105 30.5796 20.3100 0.0000 0.0000 0.0000
# 2 30.5796 121.6958 35.7664 0.0000 0.0000 0.0000
# 3 20.3100 35.7664 71.4730 0.0000 0.0000 0.0000
# 4 0.0000 0.0000 0.0000 12.3693 0.0000 0.0000
# 5 0.0000 0.0000 0.0000 0.0000 23.8159 0.0000
# 6 0.0000 0.0000 0.0000 0.0000 0.0000 17.3616
#
#
#
# Elastic Compliance Matrix: (Units=1/GPa)
#
#
# Indices 1 2 3 4 5 6 
#
# 1 0.011987 -0.002358 -0.002226 0.000000 0.000000 0.000000
# 2 -0.002358 0.010098 -0.004383 0.000000 0.000000 0.000000
# 3 -0.002226 -0.004383 0.016817 0.000000 0.000000 0.000000
# 4 0.000000 0.000000 0.000000 0.080845 0.000000 0.000000
# 5 0.000000 0.000000 0.000000 0.000000 0.041989 0.000000
# 6 0.000000 0.000000 0.000000 0.000000 0.000000 0.057598
#
#
# Mechanical properties :
#
#
# Convention : Reuss Voigt Hill
#
# Bulk Modulus (GPa) = 47.69258 51.07680 49.38469
# Shear Modulus (GPa) = 20.47013 24.02425 22.24719
#
# Velocity S-wave (km/s) = 3.21577 3.48377 3.35245
# Velocity P-wave (km/s) = 6.15481 6.47961 6.31930
#
# Compressibility (1/GPa) = 0.02096762
#
# Stress axis : x y z
#
# Youngs Moduli (GPa) = 83.42346 99.03071 59.46224
#
# Poissons Ratio (x) = 0.23349 0.13239
# Poissons Ratio (y) = 0.19669 0.26063
# Poissons Ratio (z) = 0.18574 0.43407
#
# Static dielectric constant tensor:
#      x y z
#    x 3.577500 0.000000 0.000000 
#    y 0.000000 3.612630 0.000000 
#    z 0.000000 0.000000 3.439700 
# 
# 
# High freq. dielectric constant tensor:
#      x y z
#    x 1.755600 0.000000 0.000000 
#    y 0.000000 1.771940 0.000000 
#    z 0.000000 0.000000 1.756320 
# 
# From -- ./inp_files/17624.got.cif
#   From: 2010.03.12/outbox.cif.g09.slc.cpg/sg59_9_cif.got.tgz:17624.got - 2010.04.16 16:29:54.
