data_PCOD8241925
_publ_section_title
;
Structure prediction by ZEFSAII (Michael W. Deem and Ramdas Pophale) SiO2 
 PCOD8241925
Probable space group: P M M N
;
_chemical_formula_sum "Si O2"
_cell_formula_units_Z 40
_cell_length_a 9.574043
_cell_length_b 9.024986
_cell_length_c 24.141439
_cell_angle_alpha 90.000000
_cell_angle_beta 90.000000
_cell_angle_gamma 90.000000
_cell_volume 2085.955619
_symmetry_space_group_name_H-M "P M M N"
_symmetry_group_IT_number 59
_space_group.IT_coordinate_system_code '2'
_symmetry_cell_setting 'orthorhombic'
loop_
_space_group_symop_operation_xyz
x,y,z
1/2-x,1/2-y,z
1/2+x,-y,-z
-x,1/2+y,-z
-x,-y,-z
1/2+x,1/2+y,-z
1/2-x,y,z
x,1/2-y,z
loop_
_atom_site_type_symbol
_atom_site_label
_atom_site_fract_x
_atom_site_fract_y
_atom_site_fract_z
Si Si1 0.750000 0.925076 0.580410
Si Si2 0.908050 0.073971 0.846079
Si Si3 0.986804 0.925411 0.374192
Si Si4 0.912754 0.925542 0.048563
Si Si5 0.250000 0.425062 0.543513
Si Si6 0.596383 0.925746 0.251991
O O1 0.750000 0.750000 0.577044
O O2 0.750000 0.994019 0.518158
O O3 0.623434 0.982312 0.616065
O O4 0.750000 0.009401 0.852466
O O5 0.899546 0.250000 0.844555
O O6 0.009447 0.022466 0.895555
O O7 0.977704 0.011493 0.789437
O O8 0.014865 0.750000 0.376041
O O9 0.884063 0.978696 0.422680
O O10 0.929951 0.976134 0.314724
O O11 0.750000 0.977937 0.049064
O O12 0.919951 0.750000 0.041310
O O13 0.000000 0.000000 0.000000
O O14 0.250000 0.250000 0.540198
O O15 0.750000 0.983785 0.233937
O O16 0.594651 0.750000 0.248552
#
# Coordination Sequence:
#
# PCOD8241925 Si02
#       6
#     4   8   8   8   4   8
#     4  11  23  35  49  73 109 143 170 207 260 318
#     4   9  17  28  46  76 110 137 166 211 266 314
#     4  10  19  34  56  79 101 131 174 220 261 307
#     4  10  20  34  53  78 110 146 181 216 256 306
#     4   9  18  35  55  77 103 133 172 217 262 310
#     4   9  16  28  49  76 103 129 163 214 269 312
#
# _framework density 19.175863
#
# number of rings (size 3 to 8) (size 9 to 14) (size 15 to 20)
#    0.000    2.400    1.000    2.100    1.400    3.600 
#    0.000    1.500    0.000    1.200    0.000    0.000 
#    0.000    0.000    0.000    0.000    0.000    0.000 
#
# Total GULP energy -495805.599108 kJ/mol
# GULP energy per Si atom -12395.139978 kJ/mol
# Density = 1.913222 g / cm^3
# Si number density = 19.175863 Si / 1000 Ang^3
#
#
#
# Elastic Constant Matrix: (Units=GPa)
#
#
# Indices 1 2 3 4 5 6 
#
# 1 184.7559 21.4333 69.8587 0.0000 0.0000 0.0000
# 2 21.4333 16.6930 15.3683 0.0000 0.0000 0.0000
# 3 69.8587 15.3683 121.0144 0.0000 0.0000 0.0000
# 4 0.0000 0.0000 0.0000 20.2042 0.0000 0.0000
# 5 0.0000 0.0000 0.0000 0.0000 44.4621 0.0000
# 6 0.0000 0.0000 0.0000 0.0000 0.0000 -588.5829
#
#
#
# Elastic Compliance Matrix: (Units=1/GPa)
#
#
# Indices 1 2 3 4 5 6 
#
# 1 0.007478 -0.006372 -0.003508 0.000000 0.000000 0.000000
# 2 -0.006372 0.073267 -0.005626 0.000000 0.000000 0.000000
# 3 -0.003508 -0.005626 0.011003 0.000000 0.000000 0.000000
# 4 0.000000 0.000000 0.000000 0.049495 0.000000 0.000000
# 5 0.000000 0.000000 0.000000 0.000000 0.022491 0.000000
# 6 0.000000 0.000000 0.000000 0.000000 0.000000 -0.001699
#
#
# Mechanical properties :
#
#
# Convention : Reuss Voigt Hill
#
# Bulk Modulus (GPa) = 16.46476 59.53155 37.99815
# Shear Modulus (GPa) = 23.44210 -90.39645 -33.47717
#
# Velocity S-wave (km/s) = 3.50019 -6.87336 -4.18281
# Velocity P-wave (km/s) = 4.99399 5.64609 1.86258
#
# Compressibility (1/GPa) = 0.06073578
#
# Stress axis : x y z
#
# Youngs Moduli (GPa) = 133.72399 13.64876 90.88564
#
# Poissons Ratio (x) = 0.08697 0.31880
# Poissons Ratio (y) = 0.85214 0.51132
# Poissons Ratio (z) = 0.46906 0.07679
#
# Static dielectric constant tensor:
#      x y z
#    x 3.847560 0.000000 0.000000 
#    y 0.000000 2.908600 0.000000 
#    z 0.000000 0.000000 3.813790 
# 
# 
# High freq. dielectric constant tensor:
#      x y z
#    x 1.766540 0.000000 0.000000 
#    y 0.000000 1.678990 0.000000 
#    z 0.000000 0.000000 1.762110 
# 
# From -- ./inp_files/32438.got.cif
#   From: 2010.03.12/outbox.cif.g09.slc.cpg/sg59_17_cif.got.tgz:32438.got - 2010.04.16 16:29:54.
