data_PCOD8241535
_publ_section_title
;
Structure prediction by ZEFSAII (Michael W. Deem and Ramdas Pophale) SiO2 
 PCOD8241535
Probable space group: P M M N
;
_chemical_formula_sum "Si O2"
_cell_formula_units_Z 40
_cell_length_a 8.855858
_cell_length_b 20.568459
_cell_length_c 11.542229
_cell_angle_alpha 90.000000
_cell_angle_beta 90.000000
_cell_angle_gamma 90.000000
_cell_volume 2102.432620
_symmetry_space_group_name_H-M "P M M N"
_symmetry_group_IT_number 59
_space_group.IT_coordinate_system_code '2'
_symmetry_cell_setting 'orthorhombic'
loop_
_space_group_symop_operation_xyz
x,y,z
1/2-x,1/2-y,z
1/2+x,-y,-z
-x,1/2+y,-z
-x,-y,-z
1/2+x,1/2+y,-z
1/2-x,y,z
x,1/2-y,z
loop_
_atom_site_type_symbol
_atom_site_label
_atom_site_fract_x
_atom_site_fract_y
_atom_site_fract_z
Si Si1 0.427400 0.623389 0.231117
Si Si2 0.428784 0.376670 0.239421
Si Si3 0.569768 0.750000 0.628192
Si Si4 0.072060 0.750000 0.373672
Si Si5 0.927631 0.999405 0.623191
Si Si6 0.071180 0.428190 0.995154
O O1 0.250000 0.623584 0.203811
O O2 0.478450 0.688080 0.298149
O O3 0.476512 0.564026 0.311223
O O4 0.516055 0.615456 0.111447
O O5 0.250000 0.375480 0.247400
O O6 0.493183 0.311721 0.299674
O O7 0.494524 0.438163 0.308295
O O8 0.479079 0.385474 0.106374
O O9 0.750000 0.750000 0.621176
O O10 0.508581 0.750000 0.497654
O O11 0.250000 0.750000 0.397090
O O12 0.750000 0.994526 0.610225
O O13 0.000000 0.000000 0.500000
O O14 0.250000 0.437929 0.991270
O O15 0.000000 0.500000 0.000000
#
# Coordination Sequence:
#
# PCOD8241535 Si02
#       6
#     8   8   4   4   8   8
#     4  10  21  38  57  80 115 153 188 234 288 337
#     4   9  19  35  55  80 111 145 179 228 285 328
#     4  10  20  37  60  82 112 149 187 230 279 342
#     4  10  22  39  58  82 118 155 185 232 291 336
#     4  10  19  33  52  76 108 142 184 232 277 329
#     4  11  21  37  60  85 115 149 191 239 289 344
#
# _framework density 19.025579
#
# number of rings (size 3 to 8) (size 9 to 14) (size 15 to 20)
#    0.000    2.000    2.000    1.800    0.000    2.400 
#    0.000    3.000    0.000    0.000    0.000    0.000 
#    0.000    0.000    0.000    0.000    0.000    0.000 
#
# Total GULP energy -495975.384220 kJ/mol
# GULP energy per Si atom -12399.384606 kJ/mol
# Density = 1.898228 g / cm^3
# Si number density = 19.025579 Si / 1000 Ang^3
#
#
#
# Elastic Constant Matrix: (Units=GPa)
#
#
# Indices 1 2 3 4 5 6 
#
# 1 34.7199 36.1305 49.3127 0.0000 0.0000 0.0000
# 2 36.1305 189.2989 105.5077 0.0000 0.0000 0.0000
# 3 49.3127 105.5077 206.3907 0.0000 0.0000 0.0000
# 4 0.0000 0.0000 0.0000 38.1125 0.0000 0.0000
# 5 0.0000 0.0000 0.0000 0.0000 36.4074 0.0000
# 6 0.0000 0.0000 0.0000 0.0000 0.0000 9.3505
#
#
#
# Elastic Compliance Matrix: (Units=1/GPa)
#
#
# Indices 1 2 3 4 5 6 
#
# 1 0.045338 -0.003658 -0.008963 0.000000 0.000000 0.000000
# 2 -0.003658 0.007683 -0.003053 0.000000 0.000000 0.000000
# 3 -0.008963 -0.003053 0.008548 0.000000 0.000000 0.000000
# 4 0.000000 0.000000 0.000000 0.026238 0.000000 0.000000
# 5 0.000000 0.000000 0.000000 0.000000 0.027467 0.000000
# 6 0.000000 0.000000 0.000000 0.000000 0.000000 0.106947
#
#
# Mechanical properties :
#
#
# Convention : Reuss Voigt Hill
#
# Bulk Modulus (GPa) = 33.09034 90.25682 61.67358
# Shear Modulus (GPa) = 18.96514 32.73798 25.85156
#
# Velocity S-wave (km/s) = 3.16068 4.15267 3.69016
# Velocity P-wave (km/s) = 5.54528 8.39855 7.11638
#
# Compressibility (1/GPa) = 0.03022030
#
# Stress axis : x y z
#
# Youngs Moduli (GPa) = 22.05644 130.16269 116.99312
#
# Poissons Ratio (x) = 0.47615 1.04856
# Poissons Ratio (y) = 0.08068 0.35723
# Poissons Ratio (z) = 0.19768 0.39744
#
# Static dielectric constant tensor:
#      x y z
#    x 3.200250 0.000000 0.000000 
#    y 0.000000 3.534010 0.000000 
#    z 0.000000 0.000000 3.652280 
# 
# 
# High freq. dielectric constant tensor:
#      x y z
#    x 1.713360 0.000000 0.000000 
#    y 0.000000 1.750990 0.000000 
#    z 0.000000 0.000000 1.757810 
# 
# From -- ./inp_files/14137.got.cif
#   From: 2010.03.12/outbox.cif.g09.slc.cpg/sg59_8_cif.got.tgz:14137.got - 2010.04.16 16:29:54.
