data_PCOD8241712
_publ_section_title
;
Structure prediction by ZEFSAII (Michael W. Deem and Ramdas Pophale) SiO2 
 PCOD8241712
Probable space group: P M M N
;
_chemical_formula_sum "Si O2"
_cell_formula_units_Z 64
_cell_length_a 9.064557
_cell_length_b 18.227707
_cell_length_c 19.786217
_cell_angle_alpha 90.000000
_cell_angle_beta 90.000000
_cell_angle_gamma 90.000000
_cell_volume 3269.199253
_symmetry_space_group_name_H-M "P M M N"
_symmetry_group_IT_number 59
_space_group.IT_coordinate_system_code '2'
_symmetry_cell_setting 'orthorhombic'
loop_
_space_group_symop_operation_xyz
x,y,z
1/2-x,1/2-y,z
1/2+x,-y,-z
-x,1/2+y,-z
-x,-y,-z
1/2+x,1/2+y,-z
1/2-x,y,z
x,1/2-y,z
loop_
_atom_site_type_symbol
_atom_site_label
_atom_site_fract_x
_atom_site_fract_y
_atom_site_fract_z
Si Si1 0.581871 0.583501 0.730611
Si Si2 0.080965 0.331269 0.654455
Si Si3 0.425620 0.923800 0.979000
Si Si4 0.420139 0.595501 0.452101
Si Si5 0.079096 0.548867 0.598009
Si Si6 0.424557 0.668397 0.106367
Si Si7 0.919992 0.080131 0.765903
Si Si8 0.577064 0.665429 0.862945
O O1 0.750000 0.591247 0.705899
O O2 0.480158 0.590581 0.664333
O O3 0.558260 0.506807 0.769799
O O4 0.541375 0.646628 0.784582
O O5 0.250000 0.350806 0.642849
O O6 0.059781 0.250000 0.684733
O O7 0.999096 0.334764 0.581868
O O8 0.013058 0.390786 0.703758
O O9 0.250000 0.934989 0.974532
O O10 0.485370 0.890930 0.908976
O O11 0.473125 0.864730 0.035130
O O12 0.500000 0.000000 0.000000
O O13 0.250000 0.594265 0.432438
O O14 0.490493 0.524733 0.416400
O O15 0.443499 0.600689 0.532567
O O16 0.250000 0.529363 0.608460
O O17 0.250000 0.672202 0.110737
O O18 0.492788 0.750000 0.113592
O O19 0.484691 0.616081 0.165845
O O20 0.750000 0.102190 0.755151
O O21 0.750000 0.653237 0.877549
O O22 0.530691 0.750000 0.876158
#
# Coordination Sequence:
#
# PCOD8241712 Si02
#       8
#     8   8   8   8   8   8   8   8
#     4  10  20  35  57  85 115 151 193 234 283 346
#     4  11  23  36  51  77 114 151 188 236 290 340
#     4  11  22  38  61  88 117 152 197 246 296 351
#     4  10  20  35  55  80 109 146 189 231 285 350
#     4  10  20  34  56  84 111 140 183 240 291 336
#     4   9  18  33  54  80 110 145 185 229 278 336
#     4  10  19  33  55  80 106 143 190 233 277 337
#     4  10  22  41  63  88 121 159 198 243 297 357
#
# _framework density 19.576658999999999
#
# number of rings (size 3 to 8) (size 9 to 14) (size 15 to 20)
#    0.000    1.875    1.250    3.000    0.000    6.250 
#    0.000    3.125    0.000    5.250    0.000    0.000 
#    0.000    0.000    0.000    0.000    0.000    0.000 
#
# Total GULP energy -793583.403026 kJ/mol
# GULP energy per Si atom -12399.740672 kJ/mol
# Density = 1.953210 g / cm^3
# Si number density = 19.576659 Si / 1000 Ang^3
#
#
#
# Elastic Constant Matrix: (Units=GPa)
#
#
# Indices 1 2 3 4 5 6 
#
# 1 94.9382 34.3204 46.4261 0.0000 0.0000 0.0000
# 2 34.3204 79.2474 32.2067 0.0000 0.0000 0.0000
# 3 46.4261 32.2067 110.1923 0.0000 0.0000 0.0000
# 4 0.0000 0.0000 0.0000 27.9890 0.0000 0.0000
# 5 0.0000 0.0000 0.0000 0.0000 31.8737 0.0000
# 6 0.0000 0.0000 0.0000 0.0000 0.0000 23.5293
#
#
#
# Elastic Compliance Matrix: (Units=1/GPa)
#
#
# Indices 1 2 3 4 5 6 
#
# 1 0.014448 -0.004293 -0.004833 0.000000 0.000000 0.000000
# 2 -0.004293 0.015595 -0.002749 0.000000 0.000000 0.000000
# 3 -0.004833 -0.002749 0.011915 0.000000 0.000000 0.000000
# 4 0.000000 0.000000 0.000000 0.035728 0.000000 0.000000
# 5 0.000000 0.000000 0.000000 0.000000 0.031374 0.000000
# 6 0.000000 0.000000 0.000000 0.000000 0.000000 0.042500
#
#
# Mechanical properties :
#
#
# Convention : Reuss Voigt Hill
#
# Bulk Modulus (GPa) = 54.92072 56.69828 55.80950
# Shear Modulus (GPa) = 27.56635 28.10671 27.83653
#
# Velocity S-wave (km/s) = 3.75657 3.79321 3.77493
# Velocity P-wave (km/s) = 6.85061 6.94332 6.89712
#
# Compressibility (1/GPa) = 0.01820807
#
# Stress axis : x y z
#
# Youngs Moduli (GPa) = 69.21181 64.12147 83.93022
#
# Poissons Ratio (x) = 0.27529 0.40560
# Poissons Ratio (y) = 0.29715 0.23075
# Poissons Ratio (z) = 0.33447 0.17629
#
# Static dielectric constant tensor:
#      x y z
#    x 3.483600 0.000000 0.000000 
#    y 0.000000 3.604580 0.000000 
#    z 0.000000 0.000000 3.761240 
# 
# 
# High freq. dielectric constant tensor:
#      x y z
#    x 1.752870 0.000000 0.000000 
#    y 0.000000 1.752590 0.000000 
#    z 0.000000 0.000000 1.772320 
# 
# From -- ./inp_files/29421.got.cif
#   From: 2010.03.12/outbox.cif.g09.slc.cpg/sg59_15_cif.got.tgz:29421.got - 2010.04.16 16:29:54.
