data_PCOD8241662
_publ_section_title
;
Structure prediction by ZEFSAII (Michael W. Deem and Ramdas Pophale) SiO2 
 PCOD8241662
Probable space group: P M M N
;
_chemical_formula_sum "Si O2"
_cell_formula_units_Z 64
_cell_length_a 8.400574
_cell_length_b 18.638839
_cell_length_c 20.201088
_cell_angle_alpha 90.000000
_cell_angle_beta 90.000000
_cell_angle_gamma 90.000000
_cell_volume 3163.024671
_symmetry_space_group_name_H-M "P M M N"
_symmetry_group_IT_number 59
_space_group.IT_coordinate_system_code '2'
_symmetry_cell_setting 'orthorhombic'
loop_
_space_group_symop_operation_xyz
x,y,z
1/2-x,1/2-y,z
1/2+x,-y,-z
-x,1/2+y,-z
-x,-y,-z
1/2+x,1/2+y,-z
1/2-x,y,z
x,1/2-y,z
loop_
_atom_site_type_symbol
_atom_site_label
_atom_site_fract_x
_atom_site_fract_y
_atom_site_fract_z
Si Si1 0.435216 0.588103 0.541794
Si Si2 0.564174 0.666701 0.890577
Si Si3 0.560984 0.169462 0.861163
Si Si4 0.063015 0.576430 0.256870
Si Si5 0.936467 0.326836 0.336741
Si Si6 0.435241 0.944715 0.401766
Si Si7 0.935427 0.427713 0.224731
Si Si8 0.560963 0.419232 0.988538
O O1 0.250000 0.565588 0.541072
O O2 0.466442 0.658461 0.585437
O O3 0.530734 0.526408 0.579561
O O4 0.494602 0.601569 0.465965
O O5 0.750000 0.657112 0.875586
O O6 0.513447 0.750000 0.887488
O O7 0.462381 0.621829 0.838436
O O8 0.522756 0.635472 0.961807
O O9 0.750000 0.173566 0.860523
O O10 0.491606 0.250000 0.873252
O O11 0.497038 0.140411 0.789898
O O12 0.508512 0.112170 0.917123
O O13 0.250000 0.584742 0.263334
O O14 0.984141 0.577990 0.331281
O O15 0.027208 0.502322 0.219035
O O16 0.750000 0.323392 0.321657
O O17 0.015748 0.250000 0.320546
O O18 0.008733 0.387205 0.288951
O O19 0.250000 0.933422 0.391638
O O20 0.750000 0.444721 0.232624
O O21 0.750000 0.418027 0.998156
O O22 0.500000 0.500000 0.000000
#
# Coordination Sequence:
#
# PCOD8241662 Si02
#       8
#     8   8   8   8   8   8   8   8
#     4   9  16  29  47  69  99 135 176 218 265 320
#     4  11  24  40  57  80 113 149 183 227 282 333
#     4   9  19  36  57  80 108 143 179 218 269 325
#     4  10  19  33  54  80 109 139 177 227 277 327
#     4   9  17  29  46  70 102 138 177 223 271 320
#     4   9  17  28  47  74 102 132 170 219 271 319
#     4  11  21  34  54  79 107 143 187 228 272 331
#     4  11  22  38  62  88 113 145 187 232 276 333
#
# _framework density 20.233796999999999
#
# number of rings (size 3 to 8) (size 9 to 14) (size 15 to 20)
#    0.000    2.125    1.250    2.625    0.000    3.000 
#    0.000    1.250    0.000    6.750    0.000    0.000 
#    0.000    3.000    0.000    0.000    0.000    0.000 
#
# Total GULP energy -793075.623678 kJ/mol
# GULP energy per Si atom -12391.806620 kJ/mol
# Density = 2.018774 g / cm^3
# Si number density = 20.233797 Si / 1000 Ang^3
#
#
#
# Elastic Constant Matrix: (Units=GPa)
#
#
# Indices 1 2 3 4 5 6 
#
# 1 14.6182 5.1481 7.4491 0.0000 0.0000 0.0000
# 2 5.1481 113.4991 58.0024 0.0000 0.0000 0.0000
# 3 7.4491 58.0024 155.9114 0.0000 0.0000 0.0000
# 4 0.0000 0.0000 0.0000 23.5639 0.0000 0.0000
# 5 0.0000 0.0000 0.0000 0.0000 19.1865 0.0000
# 6 0.0000 0.0000 0.0000 0.0000 0.0000 17.6188
#
#
#
# Elastic Compliance Matrix: (Units=1/GPa)
#
#
# Indices 1 2 3 4 5 6 
#
# 1 0.070418 -0.001821 -0.002687 0.000000 0.000000 0.000000
# 2 -0.001821 0.010926 -0.003978 0.000000 0.000000 0.000000
# 3 -0.002687 -0.003978 0.008022 0.000000 0.000000 0.000000
# 4 0.000000 0.000000 0.000000 0.042438 0.000000 0.000000
# 5 0.000000 0.000000 0.000000 0.000000 0.052120 0.000000
# 6 0.000000 0.000000 0.000000 0.000000 0.000000 0.056758
#
#
# Mechanical properties :
#
#
# Convention : Reuss Voigt Hill
#
# Bulk Modulus (GPa) = 13.81307 47.24755 30.53031
# Shear Modulus (GPa) = 17.74404 26.30244 22.02324
#
# Velocity S-wave (km/s) = 2.96455 3.60936 3.30273
# Velocity P-wave (km/s) = 4.30809 6.38525 5.44661
#
# Compressibility (1/GPa) = 0.07239522
#
# Stress axis : x y z
#
# Youngs Moduli (GPa) = 14.20084 91.52478 124.65603
#
# Poissons Ratio (x) = 0.16666 0.33495
# Poissons Ratio (y) = 0.02586 0.49585
# Poissons Ratio (z) = 0.03816 0.36406
#
# Static dielectric constant tensor:
#      x y z
#    x 3.358840 0.000000 0.000000 
#    y 0.000000 3.725930 0.000000 
#    z 0.000000 0.000000 4.274480 
# 
# 
# High freq. dielectric constant tensor:
#      x y z
#    x 1.756100 0.000000 0.000000 
#    y 0.000000 1.777780 0.000000 
#    z 0.000000 0.000000 1.811510 
# 
# From -- ./inp_files/29522.got.cif
#   From: 2010.03.12/outbox.cif.g09.slc.cpg/sg59_15_cif.got.tgz:29522.got - 2010.04.16 16:29:54.
