data_PCOD8241477
_publ_section_title
;
Structure prediction by ZEFSAII (Michael W. Deem and Ramdas Pophale) SiO2 
 PCOD8241477
Probable space group: P M M N
;
_chemical_formula_sum "Si O2"
_cell_formula_units_Z 40
_cell_length_a 15.453588
_cell_length_b 8.847265
_cell_length_c 14.349523
_cell_angle_alpha 90.000000
_cell_angle_beta 90.000000
_cell_angle_gamma 90.000000
_cell_volume 1961.895315
_symmetry_space_group_name_H-M "P M M N"
_symmetry_group_IT_number 59
_space_group.IT_coordinate_system_code '2'
_symmetry_cell_setting 'orthorhombic'
loop_
_space_group_symop_operation_xyz
x,y,z
1/2-x,1/2-y,z
1/2+x,-y,-z
-x,1/2+y,-z
-x,-y,-z
1/2+x,1/2+y,-z
1/2-x,y,z
x,1/2-y,z
loop_
_atom_site_type_symbol
_atom_site_label
_atom_site_fract_x
_atom_site_fract_y
_atom_site_fract_z
Si Si1 0.846811 0.423084 0.794417
Si Si2 0.918501 0.078014 0.599320
Si Si3 0.402586 0.923859 0.606260
Si Si4 0.498245 0.927471 0.899397
Si Si5 0.847332 0.576707 0.215526
O O1 0.750000 0.467572 0.826410
O O2 0.867577 0.250000 0.821543
O O3 0.850712 0.443941 0.682668
O O4 0.914955 0.529907 0.844733
O O5 0.955022 0.250000 0.597615
O O6 0.872150 0.043793 0.500155
O O7 0.996462 0.962861 0.616408
O O8 0.388785 0.750000 0.633965
O O9 0.347299 0.025002 0.676828
O O10 0.494715 0.750000 0.911181
O O11 0.412876 0.978378 0.844803
O O12 0.500000 0.000000 0.000000
O O13 0.750000 0.556849 0.176313
O O14 0.877399 0.750000 0.209800
#
# Coordination Sequence:
#
# PCOD8241477 Si02
#       5
#     8   8   8   8   8
#     4  10  21  39  64  93 126 165 206 249 300 360
#     4   9  18  33  56  86 126 169 208 248 296 357
#     4  10  19  32  56  90 125 165 209 253 299 355
#     4  12  26  45  69  93 120 156 199 253 314 371
#     4  11  24  42  64  91 125 164 206 255 309 365
#
# _framework density 20.388448
#
# number of rings (size 3 to 8) (size 9 to 14) (size 15 to 20)
#    0.000    1.600    2.000    3.000    0.000    4.400 
#    0.000    2.000    0.000    0.000    0.000    0.000 
#    0.000    0.000    0.000    0.000    0.000    0.000 
#
# Total GULP energy -496036.821419 kJ/mol
# GULP energy per Si atom -12400.920535 kJ/mol
# Density = 2.034204 g / cm^3
# Si number density = 20.388448 Si / 1000 Ang^3
#
#
#
# Elastic Constant Matrix: (Units=GPa)
#
#
# Indices 1 2 3 4 5 6 
#
# 1 107.0381 54.9918 52.5915 0.0000 0.0000 0.0000
# 2 54.9918 131.2263 57.4223 0.0000 0.0000 0.0000
# 3 52.5915 57.4223 128.2306 0.0000 0.0000 0.0000
# 4 0.0000 0.0000 0.0000 35.9358 0.0000 0.0000
# 5 0.0000 0.0000 0.0000 0.0000 6.3965 0.0000
# 6 0.0000 0.0000 0.0000 0.0000 0.0000 17.7041
#
#
#
# Elastic Compliance Matrix: (Units=1/GPa)
#
#
# Indices 1 2 3 4 5 6 
#
# 1 0.013141 -0.003916 -0.003636 0.000000 0.000000 0.000000
# 2 -0.003916 0.010644 -0.003161 0.000000 0.000000 0.000000
# 3 -0.003636 -0.003161 0.010705 0.000000 0.000000 0.000000
# 4 0.000000 0.000000 0.000000 0.027827 0.000000 0.000000
# 5 0.000000 0.000000 0.000000 0.000000 0.156336 0.000000
# 6 0.000000 0.000000 0.000000 0.000000 0.000000 0.056484
#
#
# Mechanical properties :
#
#
# Convention : Reuss Voigt Hill
#
# Bulk Modulus (GPa) = 76.53760 77.38959 76.96359
# Shear Modulus (GPa) = 16.61583 25.43989 21.02786
#
# Velocity S-wave (km/s) = 2.85785 3.53620 3.21497
# Velocity P-wave (km/s) = 6.96498 7.39682 7.18414
#
# Compressibility (1/GPa) = 0.01306547
#
# Stress axis : x y z
#
# Youngs Moduli (GPa) = 76.09964 93.94616 93.41410
#
# Poissons Ratio (x) = 0.36787 0.33965
# Poissons Ratio (y) = 0.29798 0.29525
# Poissons Ratio (z) = 0.27669 0.29693
#
# Static dielectric constant tensor:
#      x y z
#    x 3.502170 0.000000 0.000000 
#    y 0.000000 3.763910 0.000000 
#    z 0.000000 0.000000 3.921520 
# 
# 
# High freq. dielectric constant tensor:
#      x y z
#    x 1.784860 0.000000 0.000000 
#    y 0.000000 1.798740 0.000000 
#    z 0.000000 0.000000 1.802530 
# 
# From -- ./inp_files/19857.got.cif
#   From: 2010.03.12/outbox.cif.g09.slc.cpg/sg59_10_cif.got.tgz:19857.got - 2010.04.16 16:29:54.
