data_PCOD8241342
_publ_section_title
;
Structure prediction by ZEFSAII (Michael W. Deem and Ramdas Pophale) SiO2 
 PCOD8241342
Probable space group: P M M N
;
_chemical_formula_sum "Si O2"
_cell_formula_units_Z 56
_cell_length_a 10.517286
_cell_length_b 20.749582
_cell_length_c 13.564957
_cell_angle_alpha 90.000000
_cell_angle_beta 90.000000
_cell_angle_gamma 90.000000
_cell_volume 2960.270912
_symmetry_space_group_name_H-M "P M M N"
_symmetry_group_IT_number 59
_space_group.IT_coordinate_system_code '2'
_symmetry_cell_setting 'orthorhombic'
loop_
_space_group_symop_operation_xyz
x,y,z
1/2-x,1/2-y,z
1/2+x,-y,-z
-x,1/2+y,-z
-x,-y,-z
1/2+x,1/2+y,-z
1/2-x,y,z
x,1/2-y,z
loop_
_atom_site_type_symbol
_atom_site_label
_atom_site_fract_x
_atom_site_fract_y
_atom_site_fract_z
Si Si1 0.897105 0.678885 0.780100
Si Si2 0.039528 0.563678 0.869181
Si Si3 0.606094 0.871599 0.361654
Si Si4 0.111022 0.980215 0.664180
Si Si5 0.394153 0.105095 0.414493
Si Si6 0.889472 0.064756 0.914839
Si Si7 0.603413 0.322416 0.776383
O O1 0.750000 0.681951 0.804793
O O2 0.958179 0.750000 0.796454
O O3 0.920730 0.659828 0.666348
O O4 0.953443 0.626692 0.854897
O O5 0.122765 0.552899 0.771654
O O6 0.962639 0.498436 0.883897
O O7 0.118972 0.576078 0.967733
O O8 0.750000 0.849179 0.332292
O O9 0.584018 0.944382 0.325610
O O10 0.588607 0.864039 0.478706
O O11 0.496055 0.828384 0.313595
O O12 0.250000 0.969487 0.613230
O O13 0.996628 0.951830 0.599100
O O14 0.250000 0.077148 0.402470
O O15 0.750000 0.052838 0.873695
O O16 0.943292 0.129053 0.862452
O O17 0.750000 0.335986 0.742388
O O18 0.593445 0.250000 0.818338
#
# Coordination Sequence:
#
# PCOD8241342 Si02
#       7
#     8   8   8   8   8   8   8
#     4   9  18  33  52  77 108 139 177 223 266 317
#     4  10  19  33  55  80 105 141 175 222 276 328
#     4  10  20  35  54  80 111 145 184 228 275 322
#     4  10  19  32  52  82 116 143 175 227 278 322
#     4   9  19  33  53  79 109 147 186 221 268 325
#     4  10  20  35  55  78 103 138 182 226 272 329
#     4  10  22  39  56  77 108 145 185 228 275 328
#
# _framework density 18.917187999999999
#
# number of rings (size 3 to 8) (size 9 to 14) (size 15 to 20)
#    0.000    2.286    1.429    1.286    0.000    3.143 
#    0.000    2.143    0.000   10.286    0.000    0.000 
#    0.000    0.000    0.000    0.000    0.000    0.000 
#
# Total GULP energy -693996.899115 kJ/mol
# GULP energy per Si atom -12392.801770 kJ/mol
# Density = 1.887413 g / cm^3
# Si number density = 18.917188 Si / 1000 Ang^3
#
#
#
# Elastic Constant Matrix: (Units=GPa)
#
#
# Indices 1 2 3 4 5 6 
#
# 1 87.2209 49.0844 28.8179 0.0000 0.0000 0.0000
# 2 49.0844 119.4407 30.7934 0.0000 0.0000 0.0000
# 3 28.8179 30.7934 70.6517 0.0000 0.0000 0.0000
# 4 0.0000 0.0000 0.0000 12.7788 0.0000 0.0000
# 5 0.0000 0.0000 0.0000 0.0000 23.0481 0.0000
# 6 0.0000 0.0000 0.0000 0.0000 0.0000 22.3516
#
#
#
# Elastic Compliance Matrix: (Units=1/GPa)
#
#
# Indices 1 2 3 4 5 6 
#
# 1 0.015902 -0.005478 -0.004099 0.000000 0.000000 0.000000
# 2 -0.005478 0.011320 -0.002699 0.000000 0.000000 0.000000
# 3 -0.004099 -0.002699 0.017002 0.000000 0.000000 0.000000
# 4 0.000000 0.000000 0.000000 0.078255 0.000000 0.000000
# 5 0.000000 0.000000 0.000000 0.000000 0.043387 0.000000
# 6 0.000000 0.000000 0.000000 0.000000 0.000000 0.044740
#
#
# Mechanical properties :
#
#
# Convention : Reuss Voigt Hill
#
# Bulk Modulus (GPa) = 50.83397 54.96717 52.90057
# Shear Modulus (GPa) = 20.68551 22.87688 21.78119
#
# Velocity S-wave (km/s) = 3.31036 3.48130 3.39691
# Velocity P-wave (km/s) = 6.44527 6.72897 6.58865
#
# Compressibility (1/GPa) = 0.01967188
#
# Stress axis : x y z
#
# Youngs Moduli (GPa) = 62.88369 88.34253 58.81640
#
# Poissons Ratio (x) = 0.48398 0.24106
# Poissons Ratio (y) = 0.34450 0.15875
# Poissons Ratio (z) = 0.25773 0.23844
#
# Static dielectric constant tensor:
#      x y z
#    x 3.477850 0.000000 0.000000 
#    y 0.000000 3.459170 0.000000 
#    z 0.000000 0.000000 3.460060 
# 
# 
# High freq. dielectric constant tensor:
#      x y z
#    x 1.734120 0.000000 0.000000 
#    y 0.000000 1.729050 0.000000 
#    z 0.000000 0.000000 1.728880 
# 
# From -- ./inp_files/21060.got.cif
#   From: 2010.03.12/outbox.cif.g09.slc.cpg/sg59_11_cif.got.tgz:21060.got - 2010.04.16 16:29:54.
