data_PCOD8241006
_publ_section_title
;
Structure prediction by ZEFSAII (Michael W. Deem and Ramdas Pophale) SiO2 
 PCOD8241006
Probable space group: P M M N
;
_chemical_formula_sum "Si O2"
_cell_formula_units_Z 48
_cell_length_a 9.272333
_cell_length_b 18.271459
_cell_length_c 14.574969
_cell_angle_alpha 90.000000
_cell_angle_beta 90.000000
_cell_angle_gamma 90.000000
_cell_volume 2469.277434
_symmetry_space_group_name_H-M "P M M N"
_symmetry_group_IT_number 59
_space_group.IT_coordinate_system_code '2'
_symmetry_cell_setting 'orthorhombic'
loop_
_space_group_symop_operation_xyz
x,y,z
1/2-x,1/2-y,z
1/2+x,-y,-z
-x,1/2+y,-z
-x,-y,-z
1/2+x,1/2+y,-z
1/2-x,y,z
x,1/2-y,z
loop_
_atom_site_type_symbol
_atom_site_label
_atom_site_fract_x
_atom_site_fract_y
_atom_site_fract_z
Si Si1 0.080555 0.090965 0.747613
Si Si2 0.919616 0.750000 0.489745
Si Si3 0.415711 0.829621 0.822910
Si Si4 0.579470 0.480002 0.092299
Si Si5 0.085181 0.514931 0.407762
Si Si6 0.588010 0.854012 0.645719
Si Si7 0.918906 0.750000 0.286717
O O1 0.250000 0.080386 0.728419
O O2 0.040220 0.176114 0.769819
O O3 0.996421 0.074318 0.653735
O O4 0.031013 0.038575 0.830443
O O5 0.750000 0.750000 0.474878
O O6 0.967450 0.677856 0.547713
O O7 0.992624 0.750000 0.388685
O O8 0.250000 0.846053 0.801870
O O9 0.435553 0.750000 0.873268
O O10 0.474753 0.897949 0.882052
O O11 0.491497 0.822349 0.725805
O O12 0.750000 0.483271 0.076049
O O13 0.500000 0.500000 0.000000
O O14 0.250000 0.539450 0.428231
O O15 0.082063 0.440790 0.349974
O O16 0.000000 0.500000 0.500000
O O17 0.750000 0.825574 0.662226
O O18 0.750000 0.750000 0.302417
#
# Coordination Sequence:
#
# PCOD8241006 Si02
#       7
#     8   4   8   8   8   8   4
#     4  10  20  38  61  83 112 151 195 244 296 350
#     4   9  16  28  47  76 111 146 184 229 275 323
#     4  10  20  36  58  84 115 148 182 227 289 347
#     4  10  22  40  62  87 115 148 189 240 297 356
#     4  11  22  34  53  82 115 154 198 242 287 343
#     4  10  19  31  51  78 110 148 191 231 276 334
#     4   9  18  34  57  80 111 152 194 241 291 345
#
# _framework density 19.438884999999999
#
# number of rings (size 3 to 8) (size 9 to 14) (size 15 to 20)
#    0.000    2.000    2.500    1.500    0.000    4.667 
#    1.500    0.417    0.000    0.000    0.000    0.000 
#    0.000    0.000    0.000    0.000    0.000    0.000 
#
# Total GULP energy -594893.804208 kJ/mol
# GULP energy per Si atom -12393.620921 kJ/mol
# Density = 1.939464 g / cm^3
# Si number density = 19.438885 Si / 1000 Ang^3
#
#
#
# Elastic Constant Matrix: (Units=GPa)
#
#
# Indices 1 2 3 4 5 6 
#
# 1 55.6781 30.3150 38.1109 0.0000 0.0000 0.0000
# 2 30.3150 157.3359 58.5425 0.0000 0.0000 0.0000
# 3 38.1109 58.5425 111.1296 0.0000 0.0000 0.0000
# 4 0.0000 0.0000 0.0000 20.1842 0.0000 0.0000
# 5 0.0000 0.0000 0.0000 0.0000 32.2779 0.0000
# 6 0.0000 0.0000 0.0000 0.0000 0.0000 13.0901
#
#
#
# Elastic Compliance Matrix: (Units=1/GPa)
#
#
# Indices 1 2 3 4 5 6 
#
# 1 0.023935 -0.001937 -0.007188 0.000000 0.000000 0.000000
# 2 -0.001937 0.008062 -0.003583 0.000000 0.000000 0.000000
# 3 -0.007188 -0.003583 0.013351 0.000000 0.000000 0.000000
# 4 0.000000 0.000000 0.000000 0.049544 0.000000 0.000000
# 5 0.000000 0.000000 0.000000 0.000000 0.030981 0.000000
# 6 0.000000 0.000000 0.000000 0.000000 0.000000 0.076394
#
#
# Mechanical properties :
#
#
# Convention : Reuss Voigt Hill
#
# Bulk Modulus (GPa) = 50.16918 64.23114 57.20016
# Shear Modulus (GPa) = 21.33774 26.25544 23.79659
#
# Velocity S-wave (km/s) = 3.31673 3.67913 3.50262
# Velocity P-wave (km/s) = 6.36649 7.15278 6.77106
#
# Compressibility (1/GPa) = 0.01993256
#
# Stress axis : x y z
#
# Youngs Moduli (GPa) = 41.77960 124.03585 74.90151
#
# Poissons Ratio (x) = 0.24029 0.53838
# Poissons Ratio (y) = 0.08094 0.26835
# Poissons Ratio (z) = 0.30030 0.44439
#
# Static dielectric constant tensor:
#      x y z
#    x 3.399400 0.000000 0.000000 
#    y 0.000000 4.253670 0.000000 
#    z 0.000000 0.000000 3.272470 
# 
# 
# High freq. dielectric constant tensor:
#      x y z
#    x 1.732320 0.000000 0.000000 
#    y 0.000000 1.781240 0.000000 
#    z 0.000000 0.000000 1.730980 
# 
# From -- ./inp_files/20608.got.cif
#   From: 2010.03.12/outbox.cif.g09.slc.cpg/sg59_11_cif.got.tgz:20608.got - 2010.04.16 16:29:54.
