data_PCOD8241002
_publ_section_title
;
Structure prediction by ZEFSAII (Michael W. Deem and Ramdas Pophale) SiO2 
 PCOD8241002
Probable space group: P M M N
;
_chemical_formula_sum "Si O2"
_cell_formula_units_Z 64
_cell_length_a 28.307290
_cell_length_b 8.849976
_cell_length_c 13.995753
_cell_angle_alpha 90.000000
_cell_angle_beta 90.000000
_cell_angle_gamma 90.000000
_cell_volume 3506.199766
_symmetry_space_group_name_H-M "P M M N"
_symmetry_group_IT_number 59
_space_group.IT_coordinate_system_code '2'
_symmetry_cell_setting 'orthorhombic'
loop_
_space_group_symop_operation_xyz
x,y,z
1/2-x,1/2-y,z
1/2+x,-y,-z
-x,1/2+y,-z
-x,-y,-z
1/2+x,1/2+y,-z
1/2-x,y,z
x,1/2-y,z
loop_
_atom_site_type_symbol
_atom_site_label
_atom_site_fract_x
_atom_site_fract_y
_atom_site_fract_z
Si Si1 0.565772 0.425177 0.266591
Si Si2 0.871387 0.570919 0.124520
Si Si3 0.303503 0.571360 0.025894
Si Si4 0.642817 0.421384 0.418541
Si Si5 0.618135 0.073949 0.634616
Si Si6 0.800236 0.927066 0.280895
Si Si7 0.981515 0.928955 0.600168
Si Si8 0.303532 0.073145 0.231195
O O1 0.570464 0.250000 0.242118
O O2 0.577840 0.511735 0.165510
O O3 0.598246 0.474861 0.356023
O O4 0.514395 0.465795 0.308125
O O5 0.873780 0.750000 0.111509
O O6 0.837177 0.507176 0.206526
O O7 0.848287 0.500846 0.029745
O O8 0.250000 0.525337 0.989248
O O9 0.309291 0.750000 0.022732
O O10 0.309503 0.514215 0.132699
O O11 0.655047 0.250000 0.395009
O O12 0.635038 0.449066 0.527983
O O13 0.687398 0.522349 0.388081
O O14 0.613792 0.250000 0.662891
O O15 0.567457 0.995270 0.638762
O O16 0.657096 0.992353 0.698571
O O17 0.750000 0.995643 0.252111
O O18 0.799550 0.750000 0.274874
O O19 0.978257 0.750000 0.582090
O O20 0.000000 0.000000 0.500000
O O21 0.250000 0.046796 0.271014
O O22 0.312940 0.250000 0.214799
#
# Coordination Sequence:
#
# PCOD8241002 Si02
#       8
#     8   8   8   8   8   8   8   8
#     4   9  18  34  51  74 109 144 180 223 270 323
#     4  10  19  31  51  78 107 140 178 223 273 327
#     4  10  20  35  57  83 109 142 183 228 279 334
#     4   9  18  32  47  67  98 136 177 218 263 315
#     4  11  22  37  56  81 111 145 188 232 278 332
#     4   9  18  30  43  65  99 136 174 216 262 315
#     4  11  21  35  57  83 113 148 190 236 280 327
#     4  10  22  40  60  83 111 144 185 233 281 330
#
# _framework density 18.253381999999998
#
# number of rings (size 3 to 8) (size 9 to 14) (size 15 to 20)
#    0.000    2.125    1.250    2.250    0.000    5.250 
#    0.000    2.500    0.000    0.750    0.000    0.000 
#    0.000    0.000    0.000    0.000    0.000    0.000 
#
# Total GULP energy -792862.859280 kJ/mol
# GULP energy per Si atom -12388.482176 kJ/mol
# Density = 1.821184 g / cm^3
# Si number density = 18.253382 Si / 1000 Ang^3
#
#
#
# Elastic Constant Matrix: (Units=GPa)
#
#
# Indices 1 2 3 4 5 6 
#
# 1 101.0630 44.8308 16.9074 0.0000 0.0000 0.0000
# 2 44.8308 78.3694 -7.7457 0.0000 0.0000 0.0000
# 3 16.9074 -7.7457 196.6027 0.0000 0.0000 0.0000
# 4 0.0000 0.0000 0.0000 32.9451 0.0000 0.0000
# 5 0.0000 0.0000 0.0000 0.0000 32.2921 0.0000
# 6 0.0000 0.0000 0.0000 0.0000 0.0000 27.2110
#
#
#
# Elastic Compliance Matrix: (Units=1/GPa)
#
#
# Indices 1 2 3 4 5 6 
#
# 1 0.013681 -0.007974 -0.001491 0.000000 0.000000 0.000000
# 2 -0.007974 0.017457 0.001373 0.000000 0.000000 0.000000
# 3 -0.001491 0.001373 0.005269 0.000000 0.000000 0.000000
# 4 0.000000 0.000000 0.000000 0.030354 0.000000 0.000000
# 5 0.000000 0.000000 0.000000 0.000000 0.030967 0.000000
# 6 0.000000 0.000000 0.000000 0.000000 0.000000 0.036750
#
#
# Mechanical properties :
#
#
# Convention : Reuss Voigt Hill
#
# Bulk Modulus (GPa) = 49.44282 53.78001 51.61141
# Shear Modulus (GPa) = 31.76597 39.95916 35.86257
#
# Velocity S-wave (km/s) = 4.17619 4.68390 4.43731
# Velocity P-wave (km/s) = 7.09928 7.66674 7.38846
#
# Compressibility (1/GPa) = 0.02022538
#
# Stress axis : x y z
#
# Youngs Moduli (GPa) = 73.09276 57.28331 189.79984
#
# Poissons Ratio (x) = 0.45675 0.28293
# Poissons Ratio (y) = 0.58281 -0.26069
# Poissons Ratio (z) = 0.10896 -0.07868
#
# Static dielectric constant tensor:
#      x y z
#    x 3.758580 0.000000 0.000000 
#    y 0.000000 3.427660 0.000000 
#    z 0.000000 0.000000 3.305420 
# 
# 
# High freq. dielectric constant tensor:
#      x y z
#    x 1.703510 0.000000 0.000000 
#    y 0.000000 1.715750 0.000000 
#    z 0.000000 0.000000 1.693120 
# 
# From -- ./inp_files/19347.got.cif
#   From: 2010.03.12/outbox.cif.g09.slc.cpg/sg59_10_cif.got.tgz:19347.got - 2010.04.16 16:29:54.
