data_PCOD8241977
_publ_section_title
;
Structure prediction by ZEFSAII (Michael W. Deem and Ramdas Pophale) SiO2 
 PCOD8241977
Probable space group: P M M N
;
_chemical_formula_sum "Si O2"
_cell_formula_units_Z 64
_cell_length_a 18.196270
_cell_length_b 8.816596
_cell_length_c 20.936999
_cell_angle_alpha 90.000000
_cell_angle_beta 90.000000
_cell_angle_gamma 90.000000
_cell_volume 3358.905190
_symmetry_space_group_name_H-M "P M M N"
_symmetry_group_IT_number 59
_space_group.IT_coordinate_system_code '2'
_symmetry_cell_setting 'orthorhombic'
loop_
_space_group_symop_operation_xyz
x,y,z
1/2-x,1/2-y,z
1/2+x,-y,-z
-x,1/2+y,-z
-x,-y,-z
1/2+x,1/2+y,-z
1/2-x,y,z
x,1/2-y,z
loop_
_atom_site_type_symbol
_atom_site_label
_atom_site_fract_x
_atom_site_fract_y
_atom_site_fract_z
Si Si1 0.582499 0.072237 0.133521
Si Si2 0.582169 0.570041 0.373783
Si Si3 0.583865 0.930037 0.868235
Si Si4 0.079334 0.572158 0.005497
Si Si5 0.833524 0.430536 0.255947
Si Si6 0.077150 0.430242 0.378861
Si Si7 0.832365 0.929964 0.498432
Si Si8 0.332358 0.069719 0.256239
O O1 0.575949 0.250000 0.144203
O O2 0.499460 0.007350 0.139507
O O3 0.634761 0.005604 0.188701
O O4 0.617891 0.037872 0.063313
O O5 0.583786 0.750000 0.368848
O O6 0.617934 0.500068 0.311361
O O7 0.499825 0.513725 0.380900
O O8 0.627519 0.510807 0.434912
O O9 0.586256 0.750000 0.872719
O O10 0.630674 0.991414 0.808633
O O11 0.619981 0.996463 0.933725
O O12 0.072704 0.750000 0.017341
O O13 0.000000 0.500000 0.000000
O O14 0.750000 0.487433 0.262509
O O15 0.838153 0.250000 0.259529
O O16 0.064725 0.250000 0.378625
O O17 0.123220 0.486199 0.439876
O O18 0.120583 0.486389 0.316383
O O19 0.750000 0.997930 0.500453
O O20 0.828671 0.750000 0.498650
O O21 0.250000 0.003623 0.261354
O O22 0.330072 0.250000 0.255741
#
# Coordination Sequence:
#
# PCOD8241977 Si02
#       8
#     8   8   8   8   8   8   8   8
#     4   8  15  29  48  70  95 124 161 207 252 288
#     4  11  22  35  52  76 109 141 166 201 254 309
#     4   9  16  28  47  70  98 129 161 201 248 300
#     4   9  16  28  47  70  96 126 163 205 248 295
#     4  10  20  35  55  76  98 129 172 216 253 294
#     4  10  19  34  57  79  99 129 176 221 246 283
#     4   9  18  33  54  79 105 134 168 208 254 300
#     4   9  17  30  51  77 101 129 168 213 257 297
#
# _framework density 19.053827999999999
#
# number of rings (size 3 to 8) (size 9 to 14) (size 15 to 20)
#    0.000    2.625    0.000    3.375    0.000    4.250 
#    0.000    7.500    0.000    4.875    0.000    0.000 
#    0.000    0.000    0.000    0.000    0.000    0.000 
#
# Total GULP energy -793324.603779 kJ/mol
# GULP energy per Si atom -12395.696934 kJ/mol
# Density = 1.901046 g / cm^3
# Si number density = 19.053828 Si / 1000 Ang^3
#
#
#
# Elastic Constant Matrix: (Units=GPa)
#
#
# Indices 1 2 3 4 5 6 
#
# 1 127.4685 11.5732 73.0468 0.0000 0.0000 0.0000
# 2 11.5732 21.5418 20.9884 0.0000 0.0000 0.0000
# 3 73.0468 20.9884 186.8707 0.0000 0.0000 0.0000
# 4 0.0000 0.0000 0.0000 20.9136 0.0000 0.0000
# 5 0.0000 0.0000 0.0000 0.0000 18.4241 0.0000
# 6 0.0000 0.0000 0.0000 0.0000 0.0000 16.7093
#
#
#
# Elastic Compliance Matrix: (Units=1/GPa)
#
#
# Indices 1 2 3 4 5 6 
#
# 1 0.010171 -0.001786 -0.003775 0.000000 0.000000 0.000000
# 2 -0.001786 0.052439 -0.005192 0.000000 0.000000 0.000000
# 3 -0.003775 -0.005192 0.007410 0.000000 0.000000 0.000000
# 4 0.000000 0.000000 0.000000 0.047816 0.000000 0.000000
# 5 0.000000 0.000000 0.000000 0.000000 0.054277 0.000000
# 6 0.000000 0.000000 0.000000 0.000000 0.000000 0.059847
#
#
# Mechanical properties :
#
#
# Convention : Reuss Voigt Hill
#
# Bulk Modulus (GPa) = 20.61243 60.78865 40.70054
# Shear Modulus (GPa) = 18.54356 26.56093 22.55225
#
# Velocity S-wave (km/s) = 3.12303 3.73767 3.44409
# Velocity P-wave (km/s) = 4.88323 7.11336 6.10106
#
# Compressibility (1/GPa) = 0.04851441
#
# Stress axis : x y z
#
# Youngs Moduli (GPa) = 98.32330 19.06978 134.95258
#
# Poissons Ratio (x) = 0.03406 0.50945
# Poissons Ratio (y) = 0.17561 0.70061
# Poissons Ratio (z) = 0.37117 0.09900
#
# Static dielectric constant tensor:
#      x y z
#    x 2.847340 0.000000 0.000000 
#    y 0.000000 3.129460 0.000000 
#    z 0.000000 0.000000 4.042840 
# 
# 
# High freq. dielectric constant tensor:
#      x y z
#    x 1.730180 0.000000 0.000000 
#    y 0.000000 1.697580 0.000000 
#    z 0.000000 0.000000 1.767050 
# 
# From -- ./inp_files/30810.got.cif
#   From: 2010.03.12/outbox.cif.g09.slc.cpg/sg59_16_cif.got.tgz:30810.got - 2010.04.16 16:29:54.
