data_PCOD8241189
_publ_section_title
;
Structure prediction by ZEFSAII (Michael W. Deem and Ramdas Pophale) SiO2 
 PCOD8241189
Probable space group: P M M N
;
_chemical_formula_sum "Si O2"
_cell_formula_units_Z 64
_cell_length_a 9.043823
_cell_length_b 14.133482
_cell_length_c 25.722391
_cell_angle_alpha 90.000000
_cell_angle_beta 90.000000
_cell_angle_gamma 90.000000
_cell_volume 3287.854270
_symmetry_space_group_name_H-M "P M M N"
_symmetry_group_IT_number 59
_space_group.IT_coordinate_system_code '2'
_symmetry_cell_setting 'orthorhombic'
loop_
_space_group_symop_operation_xyz
x,y,z
1/2-x,1/2-y,z
1/2+x,-y,-z
-x,1/2+y,-z
-x,-y,-z
1/2+x,1/2+y,-z
1/2-x,y,z
x,1/2-y,z
loop_
_atom_site_type_symbol
_atom_site_label
_atom_site_fract_x
_atom_site_fract_y
_atom_site_fract_z
Si Si1 0.085677 0.382832 0.460791
Si Si2 0.077341 0.534713 0.923666
Si Si3 0.574445 0.146111 0.674238
Si Si4 0.413383 0.646308 0.639688
Si Si5 0.424287 0.037146 0.273653
Si Si6 0.084938 0.603097 0.440564
Si Si7 0.574310 0.640047 0.828980
Si Si8 0.577747 0.359916 0.969469
O O1 0.250000 0.339647 0.455327
O O2 0.093299 0.493983 0.453843
O O3 0.977244 0.341461 0.417739
O O4 0.021342 0.349845 0.516596
O O5 0.250000 0.523800 0.912223
O O6 0.998860 0.587789 0.876966
O O7 0.011332 0.428689 0.930389
O O8 0.046852 0.601938 0.972842
O O9 0.750000 0.142863 0.671094
O O10 0.516538 0.250000 0.690512
O O11 0.514561 0.119545 0.616712
O O12 0.522937 0.072109 0.719055
O O13 0.250000 0.598815 0.637858
O O14 0.400311 0.750000 0.664675
O O15 0.524939 0.587649 0.674325
O O16 0.250000 0.046136 0.271226
O O17 0.489135 0.086175 0.222045
O O18 0.250000 0.647537 0.443470
O O19 0.750000 0.631005 0.833784
O O20 0.526125 0.750000 0.826936
O O21 0.750000 0.367229 0.955344
O O22 0.524550 0.250000 0.964941
#
# Coordination Sequence:
#
# PCOD8241189 Si02
#       8
#     8   8   8   8   8   8   8   8
#     4  10  19  32  51  75 103 135 169 207 256 318
#     4  10  20  34  55  85 120 155 195 243 288 335
#     4   9  17  32  56  81 102 129 169 216 266 320
#     4  11  23  36  52  76 104 135 171 214 269 328
#     4  10  20  38  59  80 105 137 180 227 272 319
#     4   9  17  31  50  75 104 133 165 205 257 316
#     4  10  21  36  56  82 113 149 187 231 282 336
#     4   9  18  34  56  83 118 160 202 242 285 334
#
# _framework density 19.465582999999999
#
# number of rings (size 3 to 8) (size 9 to 14) (size 15 to 20)
#    0.000    2.250    1.250    1.875    0.000    4.500 
#    0.000    1.875    0.000    3.375    0.000    0.000 
#    0.000    0.000    0.000    0.000    0.000    0.000 
#
# Total GULP energy -793217.106443 kJ/mol
# GULP energy per Si atom -12394.017288 kJ/mol
# Density = 1.942128 g / cm^3
# Si number density = 19.465583 Si / 1000 Ang^3
#
#
#
# Elastic Constant Matrix: (Units=GPa)
#
#
# Indices 1 2 3 4 5 6 
#
# 1 32.9595 31.9513 29.7549 0.0000 0.0000 0.0000
# 2 31.9513 149.2050 68.4985 0.0000 0.0000 0.0000
# 3 29.7549 68.4985 112.5471 0.0000 0.0000 0.0000
# 4 0.0000 0.0000 0.0000 -23.4031 0.0000 0.0000
# 5 0.0000 0.0000 0.0000 0.0000 28.7660 0.0000
# 6 0.0000 0.0000 0.0000 0.0000 0.0000 13.5763
#
#
#
# Elastic Compliance Matrix: (Units=1/GPa)
#
#
# Indices 1 2 3 4 5 6 
#
# 1 0.042898 -0.005523 -0.007980 0.000000 0.000000 0.000000
# 2 -0.005523 0.010012 -0.004633 0.000000 0.000000 0.000000
# 3 -0.007980 -0.004633 0.013815 0.000000 0.000000 0.000000
# 4 0.000000 0.000000 0.000000 -0.042729 0.000000 0.000000
# 5 0.000000 0.000000 0.000000 0.000000 0.034763 0.000000
# 6 0.000000 0.000000 0.000000 0.000000 0.000000 0.073658
#
#
# Mechanical properties :
#
#
# Convention : Reuss Voigt Hill
#
# Bulk Modulus (GPa) = 32.83784 61.68012 47.25898
# Shear Modulus (GPa) = 27.95791 14.75497 21.35644
#
# Velocity S-wave (km/s) = 3.79393 2.75617 3.31590
# Velocity P-wave (km/s) = 6.00818 6.47180 6.24429
#
# Compressibility (1/GPa) = 0.03045267
#
# Stress axis : x y z
#
# Youngs Moduli (GPa) = 23.31094 99.87986 72.38567
#
# Poissons Ratio (x) = 0.55162 0.57764
# Poissons Ratio (y) = 0.12874 0.33539
# Poissons Ratio (z) = 0.18602 0.46278
#
# Static dielectric constant tensor:
#      x y z
#    x 3.500280 0.000000 0.000000 
#    y 0.000000 3.917650 0.000000 
#    z 0.000000 0.000000 3.496240 
# 
# 
# High freq. dielectric constant tensor:
#      x y z
#    x 1.740590 0.000000 0.000000 
#    y 0.000000 1.770360 0.000000 
#    z 0.000000 0.000000 1.740470 
# 
# From -- ./inp_files/31581.got.cif
#   From: 2010.03.12/outbox.cif.g09.slc.cpg/sg59_16_cif.got.tgz:31581.got - 2010.04.16 16:29:54.
