data_PCOD8241133
_publ_section_title
;
Structure prediction by ZEFSAII (Michael W. Deem and Ramdas Pophale) SiO2 
 PCOD8241133
Probable space group: P M M N
;
_chemical_formula_sum "Si O2"
_cell_formula_units_Z 56
_cell_length_a 21.531337
_cell_length_b 18.883004
_cell_length_c 7.818824
_cell_angle_alpha 90.000000
_cell_angle_beta 90.000000
_cell_angle_gamma 90.000000
_cell_volume 3178.948710
_symmetry_space_group_name_H-M "P M M N"
_symmetry_group_IT_number 59
_space_group.IT_coordinate_system_code '2'
_symmetry_cell_setting 'orthorhombic'
loop_
_space_group_symop_operation_xyz
x,y,z
1/2-x,1/2-y,z
1/2+x,-y,-z
-x,1/2+y,-z
-x,-y,-z
1/2+x,1/2+y,-z
1/2-x,y,z
x,1/2-y,z
loop_
_atom_site_type_symbol
_atom_site_label
_atom_site_fract_x
_atom_site_fract_y
_atom_site_fract_z
Si Si1 0.952663 0.173257 0.741943
Si Si2 0.680657 0.080963 0.109228
Si Si3 0.373001 0.541250 0.256239
Si Si4 0.318235 0.471723 0.585524
Si Si5 0.566127 0.327296 0.133570
Si Si6 0.988688 0.949150 0.724338
Si Si7 0.944786 0.918673 0.357289
O O1 0.944105 0.250000 0.648083
O O2 0.907855 0.111498 0.669757
O O3 0.025566 0.149976 0.733160
O O4 0.933930 0.184754 0.934410
O O5 0.750000 0.113937 0.102705
O O6 0.679656 0.017314 0.243067
O O7 0.632830 0.139355 0.180957
O O8 0.664889 0.054460 0.917067
O O9 0.329652 0.516935 0.412814
O O10 0.423376 0.480493 0.208977
O O11 0.250000 0.436310 0.568345
O O12 0.371098 0.410926 0.607066
O O13 0.558761 0.250000 0.224134
O O14 0.508780 0.378970 0.175226
O O15 0.984430 0.926188 0.529194
O O16 0.042201 0.009032 0.750099
#
# Coordination Sequence:
#
# PCOD8241133 Si02
#       7
#     8   8   8   8   8   8   8
#     4   9  19  31  48  74  98 127 163 200 253 302
#     4  10  20  32  49  71  97 135 168 195 238 287
#     4   9  19  33  52  71 100 129 162 210 247 282
#     4  10  19  32  50  74  99 125 164 204 238 290
#     4  10  20  32  47  70 101 132 164 205 244 291
#     4   9  17  30  48  73  92 125 161 203 256 291
#     4   9  17  30  49  70  96 122 160 207 249 291
#
# _framework density 17.615886
#
# number of rings (size 3 to 8) (size 9 to 14) (size 15 to 20)
#    0.000    2.571    1.429    1.286    2.000    2.571 
#    0.000    0.000    0.000    2.571    0.000    0.000 
#    0.000    1.714    0.000    0.000    0.000    0.000 
#
# Total GULP energy -693743.630295 kJ/mol
# GULP energy per Si atom -12388.279112 kJ/mol
# Density = 1.757579 g / cm^3
# Si number density = 17.615886 Si / 1000 Ang^3
#
#
#
# Elastic Constant Matrix: (Units=GPa)
#
#
# Indices 1 2 3 4 5 6 
#
# 1 114.6732 28.4029 9.9818 0.0000 0.0000 0.0000
# 2 28.4029 59.5582 -2.2238 0.0000 0.0000 0.0000
# 3 9.9818 -2.2238 39.2920 0.0000 0.0000 0.0000
# 4 0.0000 0.0000 0.0000 4.9356 0.0000 0.0000
# 5 0.0000 0.0000 0.0000 0.0000 24.3732 0.0000
# 6 0.0000 0.0000 0.0000 0.0000 0.0000 9.3662
#
#
#
# Elastic Compliance Matrix: (Units=1/GPa)
#
#
# Indices 1 2 3 4 5 6 
#
# 1 0.010202 -0.004973 -0.002873 0.000000 0.000000 0.000000
# 2 -0.004973 0.019250 0.002353 0.000000 0.000000 0.000000
# 3 -0.002873 0.002353 0.026314 0.000000 0.000000 0.000000
# 4 0.000000 0.000000 0.000000 0.202609 0.000000 0.000000
# 5 0.000000 0.000000 0.000000 0.000000 0.041029 0.000000
# 6 0.000000 0.000000 0.000000 0.000000 0.000000 0.106767
#
#
# Mechanical properties :
#
#
# Convention : Reuss Voigt Hill
#
# Bulk Modulus (GPa) = 22.33187 31.76056 27.04622
# Shear Modulus (GPa) = 11.57186 19.55918 15.56552
#
# Velocity S-wave (km/s) = 2.56578 3.33575 2.97578
# Velocity P-wave (km/s) = 4.63490 5.73629 5.21475
#
# Compressibility (1/GPa) = 0.04477905
#
# Stress axis : x y z
#
# Youngs Moduli (GPa) = 98.01826 51.94927 38.00324
#
# Poissons Ratio (x) = 0.25832 0.10919
# Poissons Ratio (y) = 0.48741 -0.08941
# Poissons Ratio (z) = 0.28163 -0.12222
#
# Static dielectric constant tensor:
#      x y z
#    x 3.437610 0.000000 0.000000 
#    y 0.000000 3.654920 0.000000 
#    z 0.000000 0.000000 3.228100 
# 
# 
# High freq. dielectric constant tensor:
#      x y z
#    x 1.677570 0.000000 0.000000 
#    y 0.000000 1.648680 0.000000 
#    z 0.000000 0.000000 1.682770 
# 
# From -- ./inp_files/10597.got.cif
#   From: 2010.03.12/outbox.cif.g09.slc.cpg/sg59_6_cif.got.tgz:10597.got - 2010.04.16 16:29:54.
