data_PCOD8241473
_publ_section_title
;
Structure prediction by ZEFSAII (Michael W. Deem and Ramdas Pophale) SiO2 
 PCOD8241473
Probable space group: P M M N
;
_chemical_formula_sum "Si O2"
_cell_formula_units_Z 64
_cell_length_a 14.562925
_cell_length_b 18.556309
_cell_length_c 11.602202
_cell_angle_alpha 90.000000
_cell_angle_beta 90.000000
_cell_angle_gamma 90.000000
_cell_volume 3135.311036
_symmetry_space_group_name_H-M "P M M N"
_symmetry_group_IT_number 59
_space_group.IT_coordinate_system_code '2'
_symmetry_cell_setting 'orthorhombic'
loop_
_space_group_symop_operation_xyz
x,y,z
1/2-x,1/2-y,z
1/2+x,-y,-z
-x,1/2+y,-z
-x,-y,-z
1/2+x,1/2+y,-z
1/2-x,y,z
x,1/2-y,z
loop_
_atom_site_type_symbol
_atom_site_label
_atom_site_fract_x
_atom_site_fract_y
_atom_site_fract_z
Si Si1 0.649806 0.041560 0.764938
Si Si2 0.147235 0.333491 0.632387
Si Si3 0.358273 0.899965 0.868085
Si Si4 0.112834 0.672186 0.096759
Si Si5 0.642542 0.967739 0.987867
Si Si6 0.596126 0.829619 0.115618
Si Si7 0.023417 0.576448 0.447651
Si Si8 0.858871 0.335011 0.371695
O O1 0.750000 0.016930 0.714504
O O2 0.672517 0.113311 0.838212
O O3 0.575078 0.058087 0.669777
O O4 0.607474 0.984388 0.857499
O O5 0.250000 0.350396 0.584626
O O6 0.121211 0.250000 0.611653
O O7 0.149915 0.350595 0.768540
O O8 0.073088 0.382890 0.569032
O O9 0.250000 0.905177 0.856208
O O10 0.396148 0.875333 0.743483
O O11 0.399262 0.976700 0.915845
O O12 0.386720 0.838941 0.959141
O O13 0.156245 0.750000 0.122812
O O14 0.010385 0.668797 0.146376
O O15 0.750000 0.980736 0.986477
O O16 0.618062 0.885839 0.015050
O O17 0.626032 0.750000 0.072189
O O18 0.089381 0.626763 0.523197
O O19 0.000000 0.500000 0.500000
O O20 0.750000 0.345423 0.388862
O O21 0.883262 0.250000 0.367061
#
# Coordination Sequence:
#
# PCOD8241473 Si02
#       8
#     8   8   8   8   8   8   8   8
#     4  10  22  40  58  84 120 158 197 244 303 366
#     4  10  22  42  65  87 117 157 203 259 313 366
#     4   9  19  34  55  87 123 159 193 228 287 365
#     4  10  19  32  55  88 123 154 188 234 291 363
#     4   9  19  35  58  85 119 156 191 237 296 361
#     4  10  20  34  57  89 120 151 196 248 302 361
#     4  12  26  41  62  89 119 160 212 260 311 361
#     4  10  22  40  62  89 125 165 205 254 304 358
#
# _framework density 20.412647
#
# number of rings (size 3 to 8) (size 9 to 14) (size 15 to 20)
#    0.000    2.000    1.250    2.625    1.750    6.750 
#    0.000    0.000    0.000    0.750    0.000    0.000 
#    0.000    0.000    0.000    0.000    0.000    0.000 
#
# Total GULP energy -793214.373606 kJ/mol
# GULP energy per Si atom -12393.974588 kJ/mol
# Density = 2.036619 g / cm^3
# Si number density = 20.412647 Si / 1000 Ang^3
#
#
#
# Elastic Constant Matrix: (Units=GPa)
#
#
# Indices 1 2 3 4 5 6 
#
# 1 78.5224 34.1063 47.8902 0.0000 0.0000 0.0000
# 2 34.1063 127.0391 62.0397 0.0000 0.0000 0.0000
# 3 47.8902 62.0397 106.9103 0.0000 0.0000 0.0000
# 4 0.0000 0.0000 0.0000 15.8529 0.0000 0.0000
# 5 0.0000 0.0000 0.0000 0.0000 18.7383 0.0000
# 6 0.0000 0.0000 0.0000 0.0000 0.0000 24.7029
#
#
#
# Elastic Compliance Matrix: (Units=1/GPa)
#
#
# Indices 1 2 3 4 5 6 
#
# 1 0.017658 -0.001225 -0.007199 0.000000 0.000000 0.000000
# 2 -0.001225 0.011069 -0.005875 0.000000 0.000000 0.000000
# 3 -0.007199 -0.005875 0.015988 0.000000 0.000000 0.000000
# 4 0.000000 0.000000 0.000000 0.063080 0.000000 0.000000
# 5 0.000000 0.000000 0.000000 0.000000 0.053367 0.000000
# 6 0.000000 0.000000 0.000000 0.000000 0.000000 0.040481
#
#
# Mechanical properties :
#
#
# Convention : Reuss Voigt Hill
#
# Bulk Modulus (GPa) = 62.04510 66.72713 64.38611
# Shear Modulus (GPa) = 21.22126 23.08783 22.15455
#
# Velocity S-wave (km/s) = 3.22780 3.36677 3.29802
# Velocity P-wave (km/s) = 6.65981 6.91907 6.79068
#
# Compressibility (1/GPa) = 0.01611731
#
# Stress axis : x y z
#
# Youngs Moduli (GPa) = 56.63193 90.33874 62.54882
#
# Poissons Ratio (x) = 0.11067 0.45028
# Poissons Ratio (y) = 0.06938 0.36746
# Poissons Ratio (z) = 0.40769 0.53072
#
# Static dielectric constant tensor:
#      x y z
#    x 3.547930 0.000000 0.000000 
#    y 0.000000 3.924110 0.000000 
#    z 0.000000 0.000000 3.865350 
# 
# 
# High freq. dielectric constant tensor:
#      x y z
#    x 1.800590 0.000000 0.000000 
#    y 0.000000 1.802280 0.000000 
#    z 0.000000 0.000000 1.779900 
# 
# From -- ./inp_files/17211.got.cif
#   From: 2010.03.12/outbox.cif.g09.slc.cpg/sg59_9_cif.got.tgz:17211.got - 2010.04.16 16:29:54.
