data_PCOD8241750
_publ_section_title
;
Structure prediction by ZEFSAII (Michael W. Deem and Ramdas Pophale) SiO2 
 PCOD8241750
Probable space group: P M M N
;
_chemical_formula_sum "Si O2"
_cell_formula_units_Z 64
_cell_length_a 22.291523
_cell_length_b 9.052515
_cell_length_c 17.533236
_cell_angle_alpha 90.000000
_cell_angle_beta 90.000000
_cell_angle_gamma 90.000000
_cell_volume 3538.107898
_symmetry_space_group_name_H-M "P M M N"
_symmetry_group_IT_number 59
_space_group.IT_coordinate_system_code '2'
_symmetry_cell_setting 'orthorhombic'
loop_
_space_group_symop_operation_xyz
x,y,z
1/2-x,1/2-y,z
1/2+x,-y,-z
-x,1/2+y,-z
-x,-y,-z
1/2+x,1/2+y,-z
1/2-x,y,z
x,1/2-y,z
loop_
_atom_site_type_symbol
_atom_site_label
_atom_site_fract_x
_atom_site_fract_y
_atom_site_fract_z
Si Si1 0.060839 0.917993 0.492525
Si Si2 0.417125 0.575568 0.655716
Si Si3 0.512187 0.081223 0.077555
Si Si4 0.546532 0.423541 0.672764
Si Si5 0.593237 0.575655 0.814924
Si Si6 0.148550 0.920973 0.905252
Si Si7 0.817616 0.579405 0.242464
Si Si8 0.180075 0.917632 0.074534
O O1 0.042539 0.750000 0.499912
O O2 0.101830 0.957473 0.566531
O O3 0.084087 0.950536 0.406701
O O4 0.000000 0.000000 0.500000
O O5 0.422252 0.750000 0.673157
O O6 0.481436 0.502356 0.674374
O O7 0.364044 0.510780 0.706353
O O8 0.500021 0.250000 0.058490
O O9 0.467105 0.025373 0.142083
O O10 0.578300 0.054106 0.109347
O O11 0.500000 0.000000 0.000000
O O12 0.536466 0.250000 0.687910
O O13 0.591319 0.493304 0.734268
O O14 0.597562 0.750000 0.801900
O O15 0.649979 0.522630 0.863324
O O16 0.167295 0.750000 0.895623
O O17 0.183161 0.018542 0.843754
O O18 0.165774 0.976855 0.989692
O O19 0.750000 0.560810 0.274962
O O20 0.836972 0.750000 0.241804
O O21 0.250000 0.923918 0.090622
O O22 0.155464 0.750000 0.082433
#
# Coordination Sequence:
#
# PCOD8241750 Si02
#       8
#     8   8   8   8   8   8   8   8
#     4   8  16  30  51  80 109 136 167 204 250 308
#     4  10  19  34  56  81 110 141 175 215 263 319
#     4  10  20  33  51  75 103 132 167 211 260 314
#     4  10  19  33  55  83 113 142 173 214 266 320
#     4  11  22  34  51  79 110 141 176 217 266 316
#     4  10  20  36  57  78 102 136 178 221 266 317
#     4  11  24  38  52  75 107 144 186 226 265 315
#     4  10  21  37  56  75  97 134 182 225 266 313
#
# _framework density 18.088764999999999
#
# number of rings (size 3 to 8) (size 9 to 14) (size 15 to 20)
#    0.000    2.000    1.250    2.625    0.000    5.250 
#    0.000    0.000    0.000    0.750    0.000    1.750 
#    0.000    0.000    0.000    0.000    0.000    0.000 
#
# Total GULP energy -793265.066047 kJ/mol
# GULP energy per Si atom -12394.766657 kJ/mol
# Density = 1.804759 g / cm^3
# Si number density = 18.088765 Si / 1000 Ang^3
#
#
#
# Elastic Constant Matrix: (Units=GPa)
#
#
# Indices 1 2 3 4 5 6 
#
# 1 63.1348 29.9411 39.8942 0.0000 0.0000 0.0000
# 2 29.9411 84.5464 61.5475 0.0000 0.0000 0.0000
# 3 39.8942 61.5475 143.1807 0.0000 0.0000 0.0000
# 4 0.0000 0.0000 0.0000 28.1606 0.0000 0.0000
# 5 0.0000 0.0000 0.0000 0.0000 16.9178 0.0000
# 6 0.0000 0.0000 0.0000 0.0000 0.0000 24.3445
#
#
#
# Elastic Compliance Matrix: (Units=1/GPa)
#
#
# Indices 1 2 3 4 5 6 
#
# 1 0.020324 -0.004476 -0.003739 0.000000 0.000000 0.000000
# 2 -0.004476 0.018200 -0.006577 0.000000 0.000000 0.000000
# 3 -0.003739 -0.006577 0.010853 0.000000 0.000000 0.000000
# 4 0.000000 0.000000 0.000000 0.035511 0.000000 0.000000
# 5 0.000000 0.000000 0.000000 0.000000 0.059109 0.000000
# 6 0.000000 0.000000 0.000000 0.000000 0.000000 0.041077
#
#
# Mechanical properties :
#
#
# Convention : Reuss Voigt Hill
#
# Bulk Modulus (GPa) = 50.51742 61.51415 56.01579
# Shear Modulus (GPa) = 22.59828 24.51651 23.55740
#
# Velocity S-wave (km/s) = 3.53838 3.68549 3.61268
# Velocity P-wave (km/s) = 6.68443 7.22434 6.95963
#
# Compressibility (1/GPa) = 0.01979515
#
# Stress axis : x y z
#
# Youngs Moduli (GPa) = 49.20217 54.94384 92.14072
#
# Poissons Ratio (x) = 0.24591 0.34451
# Poissons Ratio (y) = 0.22021 0.60597
# Poissons Ratio (z) = 0.18397 0.36134
#
# Static dielectric constant tensor:
#      x y z
#    x 3.069810 0.000000 0.000000 
#    y 0.000000 3.415380 0.000000 
#    z 0.000000 0.000000 77.198950 
# 
# 
# High freq. dielectric constant tensor:
#      x y z
#    x 1.672900 0.000000 0.000000 
#    y 0.000000 1.708300 0.000000 
#    z 0.000000 0.000000 1.712360 
# 
# From -- ./inp_files/28414.got.cif
#   From: 2010.03.12/outbox.cif.g09.slc.cpg/sg59_15_cif.got.tgz:28414.got - 2010.04.16 16:29:54.
