data_PCOD8241115
_publ_section_title
;
Structure prediction by ZEFSAII (Michael W. Deem and Ramdas Pophale) SiO2 
 PCOD8241115
Probable space group: P M M N
;
_chemical_formula_sum "Si O2"
_cell_formula_units_Z 64
_cell_length_a 13.803243
_cell_length_b 18.163835
_cell_length_c 15.411302
_cell_angle_alpha 90.000000
_cell_angle_beta 90.000000
_cell_angle_gamma 90.000000
_cell_volume 3863.918992
_symmetry_space_group_name_H-M "P M M N"
_symmetry_group_IT_number 59
_space_group.IT_coordinate_system_code '2'
_symmetry_cell_setting 'orthorhombic'
loop_
_space_group_symop_operation_xyz
x,y,z
1/2-x,1/2-y,z
1/2+x,-y,-z
-x,1/2+y,-z
-x,-y,-z
1/2+x,1/2+y,-z
1/2-x,y,z
x,1/2-y,z
loop_
_atom_site_type_symbol
_atom_site_label
_atom_site_fract_x
_atom_site_fract_y
_atom_site_fract_z
Si Si1 0.966063 0.337325 0.764016
Si Si2 0.864054 0.408580 0.233251
Si Si3 0.518933 0.333861 0.084088
Si Si4 0.638501 0.571011 0.177526
Si Si5 0.363490 0.607024 0.070118
Si Si6 0.138024 0.441533 0.025528
Si Si7 0.865040 0.331878 0.405498
Si Si8 0.357780 0.837463 0.405449
O O1 0.965755 0.250000 0.773131
O O2 0.892095 0.372097 0.832706
O O3 0.930228 0.364317 0.669610
O O4 0.074900 0.365925 0.777849
O O5 0.750000 0.396168 0.220260
O O6 0.916340 0.356029 0.165478
O O7 0.892041 0.492932 0.217554
O O8 0.899684 0.386775 0.329725
O O9 0.485190 0.250000 0.094494
O O10 0.422777 0.383561 0.081213
O O11 0.581082 0.340585 0.996536
O O12 0.750000 0.589456 0.197163
O O13 0.616967 0.570274 0.075638
O O14 0.250000 0.618380 0.056239
O O15 0.395038 0.523368 0.051014
O O16 0.250000 0.428822 0.048094
O O17 0.750000 0.326914 0.407468
O O18 0.907553 0.250000 0.387881
O O19 0.898913 0.362506 0.499973
O O20 0.250000 0.870133 0.388552
O O21 0.350599 0.750000 0.405604
#
# Coordination Sequence:
#
# PCOD8241115 Si02
#       8
#     8   8   8   8   8   8   8   8
#     4  11  21  32  48  72  98 126 160 201 243 286
#     4  10  19  32  50  73 100 128 157 195 245 295
#     4  12  22  31  48  75 101 124 156 202 245 281
#     4  10  20  35  51  65  89 130 172 205 236 278
#     4  11  21  33  49  70  98 129 157 190 238 293
#     4  10  21  38  53  63  89 136 178 201 228 278
#     4   8  14  27  48  72  97 125 154 185 229 289
#     4   8  15  29  48  70  98 127 151 182 233 296
#
# _framework density 16.563493000000001
#
# number of rings (size 3 to 8) (size 9 to 14) (size 15 to 20)
#    0.000    2.000    2.500    3.375    0.000    3.250 
#    0.000    1.875    0.000    0.000    0.000    0.875 
#    0.000    3.000    0.000    0.000    0.000    0.000 
#
# Total GULP energy -793631.184579 kJ/mol
# GULP energy per Si atom -12400.487259 kJ/mol
# Density = 1.652579 g / cm^3
# Si number density = 16.563493 Si / 1000 Ang^3
#
#
#
# Elastic Constant Matrix: (Units=GPa)
#
#
# Indices 1 2 3 4 5 6 
#
# 1 50.2867 31.9088 23.6202 0.0000 0.0000 0.0000
# 2 31.9088 60.3576 21.4571 0.0000 0.0000 0.0000
# 3 23.6202 21.4571 99.5676 0.0000 0.0000 0.0000
# 4 0.0000 0.0000 0.0000 21.3395 0.0000 0.0000
# 5 0.0000 0.0000 0.0000 0.0000 19.3640 0.0000
# 6 0.0000 0.0000 0.0000 0.0000 0.0000 22.2420
#
#
#
# Elastic Compliance Matrix: (Units=1/GPa)
#
#
# Indices 1 2 3 4 5 6 
#
# 1 0.031468 -0.015142 -0.004202 0.000000 0.000000 0.000000
# 2 -0.015142 0.025229 -0.001845 0.000000 0.000000 0.000000
# 3 -0.004202 -0.001845 0.011438 0.000000 0.000000 0.000000
# 4 0.000000 0.000000 0.000000 0.046861 0.000000 0.000000
# 5 0.000000 0.000000 0.000000 0.000000 0.051642 0.000000
# 6 0.000000 0.000000 0.000000 0.000000 0.000000 0.044960
#
#
# Mechanical properties :
#
#
# Convention : Reuss Voigt Hill
#
# Bulk Modulus (GPa) = 38.82446 40.46490 39.64468
# Shear Modulus (GPa) = 19.04315 21.47080 20.25698
#
# Velocity S-wave (km/s) = 3.39441 3.60428 3.50092
# Velocity P-wave (km/s) = 6.23325 6.46563 6.35050
#
# Compressibility (1/GPa) = 0.02575696
#
# Stress axis : x y z
#
# Youngs Moduli (GPa) = 31.77838 39.63717 87.42956
#
# Poissons Ratio (x) = 0.60019 0.36737
# Poissons Ratio (y) = 0.48119 0.16129
# Poissons Ratio (z) = 0.13353 0.07312
#
# Static dielectric constant tensor:
#      x y z
#    x 3.015280 0.000000 0.000000 
#    y 0.000000 3.022790 0.000000 
#    z 0.000000 0.000000 3.411820 
# 
# 
# High freq. dielectric constant tensor:
#      x y z
#    x 1.623540 0.000000 0.000000 
#    y 0.000000 1.625520 0.000000 
#    z 0.000000 0.000000 1.638450 
# 
# From -- ./inp_files/23443.got.cif
#   From: 2010.03.12/outbox.cif.g09.slc.cpg/sg59_12_cif.got.tgz:23443.got - 2010.04.16 16:29:54.
