data_PCOD8241690
_publ_section_title
;
Structure prediction by ZEFSAII (Michael W. Deem and Ramdas Pophale) SiO2 
 PCOD8241690
Probable space group: P M M N
;
_chemical_formula_sum "Si O2"
_cell_formula_units_Z 64
_cell_length_a 8.992388
_cell_length_b 19.963539
_cell_length_c 19.853396
_cell_angle_alpha 90.000000
_cell_angle_beta 90.000000
_cell_angle_gamma 90.000000
_cell_volume 3564.079437
_symmetry_space_group_name_H-M "P M M N"
_symmetry_group_IT_number 59
_space_group.IT_coordinate_system_code '2'
_symmetry_cell_setting 'orthorhombic'
loop_
_space_group_symop_operation_xyz
x,y,z
1/2-x,1/2-y,z
1/2+x,-y,-z
-x,1/2+y,-z
-x,-y,-z
1/2+x,1/2+y,-z
1/2-x,y,z
x,1/2-y,z
loop_
_atom_site_type_symbol
_atom_site_label
_atom_site_fract_x
_atom_site_fract_y
_atom_site_fract_z
Si Si1 0.082363 0.393954 0.692488
Si Si2 0.081370 0.952307 0.675880
Si Si3 0.574451 0.066250 0.472781
Si Si4 0.074042 0.435647 0.186975
Si Si5 0.425629 0.824168 0.424259
Si Si6 0.422401 0.326520 0.957584
Si Si7 0.425209 0.427208 0.840069
Si Si8 0.422749 0.827756 0.903684
O O1 0.250000 0.366896 0.687110
O O2 0.070173 0.468580 0.663592
O O3 0.027837 0.392728 0.769870
O O4 0.978570 0.345909 0.649492
O O5 0.250000 0.932529 0.696211
O O6 0.033048 0.918707 0.605231
O O7 0.972516 0.928909 0.734998
O O8 0.750000 0.056995 0.480231
O O9 0.512827 0.128003 0.516809
O O10 0.500000 0.000000 0.500000
O O11 0.250000 0.438671 0.181750
O O12 0.007835 0.501956 0.151562
O O13 0.015019 0.370134 0.149700
O O14 0.250000 0.825969 0.423213
O O15 0.485679 0.750000 0.439752
O O16 0.250000 0.337254 0.976057
O O17 0.450834 0.250000 0.934138
O O18 0.473026 0.376542 0.898657
O O19 0.520863 0.345066 0.021724
O O20 0.250000 0.442579 0.839882
O O21 0.250000 0.846636 0.899100
O O22 0.450863 0.750000 0.887108
#
# Coordination Sequence:
#
# PCOD8241690 Si02
#       8
#     8   8   8   8   8   8   8   8
#     4   9  17  31  51  74 101 136 177 215 254 304
#     4   9  18  34  54  77 104 133 173 222 266 314
#     4  10  19  33  55  77 101 136 178 221 263 315
#     4  11  22  35  55  82 110 140 176 223 270 318
#     4  10  21  34  48  73 108 140 171 213 264 316
#     4   9  18  34  56  80 106 140 182 225 268 316
#     4   9  19  35  54  78 111 144 177 219 265 317
#     4  10  21  38  59  80 105 140 179 220 270 327
#
# _framework density 17.956951
#
# number of rings (size 3 to 8) (size 9 to 14) (size 15 to 20)
#    0.000    2.375    1.250    2.250    0.000    5.000 
#    0.000    1.875    0.000    3.750    0.000    0.000 
#    0.000    0.000    0.000    0.000    0.000    0.000 
#
# Total GULP energy -793641.231570 kJ/mol
# GULP energy per Si atom -12400.644243 kJ/mol
# Density = 1.791608 g / cm^3
# Si number density = 17.956951 Si / 1000 Ang^3
#
#
#
# Elastic Constant Matrix: (Units=GPa)
#
#
# Indices 1 2 3 4 5 6 
#
# 1 67.6951 46.3439 48.2627 0.0000 0.0000 0.0000
# 2 46.3439 109.6453 76.5076 0.0000 0.0000 0.0000
# 3 48.2627 76.5076 116.3870 0.0000 0.0000 0.0000
# 4 0.0000 0.0000 0.0000 29.4494 0.0000 0.0000
# 5 0.0000 0.0000 0.0000 0.0000 31.3153 0.0000
# 6 0.0000 0.0000 0.0000 0.0000 0.0000 24.8637
#
#
#
# Elastic Compliance Matrix: (Units=1/GPa)
#
#
# Indices 1 2 3 4 5 6 
#
# 1 0.022685 -0.005587 -0.005734 0.000000 0.000000 0.000000
# 2 -0.005587 0.018225 -0.009663 0.000000 0.000000 0.000000
# 3 -0.005734 -0.009663 0.017322 0.000000 0.000000 0.000000
# 4 0.000000 0.000000 0.000000 0.033957 0.000000 0.000000
# 5 0.000000 0.000000 0.000000 0.000000 0.031933 0.000000
# 6 0.000000 0.000000 0.000000 0.000000 0.000000 0.040219
#
#
# Mechanical properties :
#
#
# Convention : Reuss Voigt Hill
#
# Bulk Modulus (GPa) = 61.49054 70.66178 66.07616
# Shear Modulus (GPa) = 23.61487 25.29988 24.45737
#
# Velocity S-wave (km/s) = 3.63034 3.75763 3.69453
# Velocity P-wave (km/s) = 7.20348 7.63298 7.42134
#
# Compressibility (1/GPa) = 0.01626266
#
# Stress axis : x y z
#
# Youngs Moduli (GPa) = 44.08138 54.87105 57.73021
#
# Poissons Ratio (x) = 0.30658 0.33104
# Poissons Ratio (y) = 0.24629 0.55785
# Poissons Ratio (z) = 0.25277 0.53023
#
# Static dielectric constant tensor:
#      x y z
#    x 3.241680 0.000000 0.000000 
#    y 0.000000 3.353160 0.000000 
#    z 0.000000 0.000000 3.442110 
# 
# 
# High freq. dielectric constant tensor:
#      x y z
#    x 1.688720 0.000000 0.000000 
#    y 0.000000 1.684570 0.000000 
#    z 0.000000 0.000000 1.701850 
# 
# From -- ./inp_files/26228.got.cif
#   From: 2010.03.12/outbox.cif.g09.slc.cpg/sg59_14_cif.got.tgz:26228.got - 2010.04.16 16:29:54.
