data_PCOD8241454
_publ_section_title
;
Structure prediction by ZEFSAII (Michael W. Deem and Ramdas Pophale) SiO2 
 PCOD8241454
Probable space group: P M M N
;
_chemical_formula_sum "Si O2"
_cell_formula_units_Z 64
_cell_length_a 18.308477
_cell_length_b 13.999256
_cell_length_c 13.057567
_cell_angle_alpha 90.000000
_cell_angle_beta 90.000000
_cell_angle_gamma 90.000000
_cell_volume 3346.720448
_symmetry_space_group_name_H-M "P M M N"
_symmetry_group_IT_number 59
_space_group.IT_coordinate_system_code '2'
_symmetry_cell_setting 'orthorhombic'
loop_
_space_group_symop_operation_xyz
x,y,z
1/2-x,1/2-y,z
1/2+x,-y,-z
-x,1/2+y,-z
-x,-y,-z
1/2+x,1/2+y,-z
1/2-x,y,z
x,1/2-y,z
loop_
_atom_site_type_symbol
_atom_site_label
_atom_site_fract_x
_atom_site_fract_y
_atom_site_fract_z
Si Si1 0.836894 0.642253 0.441374
Si Si2 0.669282 0.362662 0.958684
Si Si3 0.164584 0.358880 0.953359
Si Si4 0.663988 0.523434 0.247130
Si Si5 0.336334 0.451220 0.349504
Si Si6 0.081256 0.862200 0.844593
Si Si7 0.087302 0.137504 0.154864
Si Si8 0.663699 0.145582 0.734518
O O1 0.750000 0.644967 0.440424
O O2 0.868039 0.750000 0.434940
O O3 0.865463 0.581404 0.345282
O O4 0.865975 0.592642 0.544900
O O5 0.750000 0.409182 0.977811
O O6 0.678109 0.250000 0.962018
O O7 0.636276 0.389762 0.846970
O O8 0.614464 0.396398 0.046807
O O9 0.250000 0.364220 0.974856
O O10 0.139194 0.250000 0.935402
O O11 0.142219 0.416205 0.852495
O O12 0.124534 0.405378 0.052124
O O13 0.750000 0.504724 0.255030
O O14 0.623111 0.421291 0.243880
O O15 0.250000 0.436186 0.338509
O O16 0.374181 0.399192 0.256051
O O17 0.357174 0.564399 0.347932
O O18 0.093346 0.750000 0.823660
O O19 0.997094 0.891289 0.843686
O O20 0.098256 0.250000 0.152056
O O21 0.750000 0.156427 0.744050
O O22 0.630568 0.250000 0.703714
#
# Coordination Sequence:
#
# PCOD8241454 Si02
#       8
#     8   8   8   8   8   8   8   8
#     4   9  18  34  56  81 105 132 173 223 267 308
#     4   8  14  27  47  69  97 137 178 210 244 297
#     4   9  18  33  53  77 106 137 169 211 262 315
#     4  10  20  34  55  78 101 134 178 221 264 308
#     4  10  19  32  55  81 104 134 176 217 259 314
#     4  10  21  35  50  73 107 145 178 213 259 312
#     4  10  21  35  50  75 109 142 172 211 267 317
#     4   8  15  28  47  73 104 135 168 208 255 305
#
# _framework density 19.123197999999999
#
# number of rings (size 3 to 8) (size 9 to 14) (size 15 to 20)
#    0.000    2.750    0.000    2.250    1.750    4.000 
#    0.000    1.250    0.000    3.000    0.000    0.000 
#    0.000    0.000    0.000    0.000    0.000    0.000 
#
# Total GULP energy -793401.373353 kJ/mol
# GULP energy per Si atom -12396.896459 kJ/mol
# Density = 1.907967 g / cm^3
# Si number density = 19.123198 Si / 1000 Ang^3
#
#
#
# Elastic Constant Matrix: (Units=GPa)
#
#
# Indices 1 2 3 4 5 6 
#
# 1 54.1880 33.3861 47.5203 0.0000 0.0000 0.0000
# 2 33.3861 82.8982 71.5533 0.0000 0.0000 0.0000
# 3 47.5203 71.5533 152.5901 0.0000 0.0000 0.0000
# 4 0.0000 0.0000 0.0000 34.6464 0.0000 0.0000
# 5 0.0000 0.0000 0.0000 0.0000 -1.3052 0.0000
# 6 0.0000 0.0000 0.0000 0.0000 0.0000 18.4963
#
#
#
# Elastic Compliance Matrix: (Units=1/GPa)
#
#
# Indices 1 2 3 4 5 6 
#
# 1 0.027107 -0.006099 -0.005582 0.000000 0.000000 0.000000
# 2 -0.006099 0.021638 -0.008247 0.000000 0.000000 0.000000
# 3 -0.005582 -0.008247 0.012159 0.000000 0.000000 0.000000
# 4 0.000000 0.000000 0.000000 0.028863 0.000000 0.000000
# 5 0.000000 0.000000 0.000000 0.000000 -0.766148 0.000000
# 6 0.000000 0.000000 0.000000 0.000000 0.000000 0.054065
#
#
# Mechanical properties :
#
#
# Convention : Reuss Voigt Hill
#
# Bulk Modulus (GPa) = 47.51061 66.06621 56.78841
# Shear Modulus (GPa) = -8.68894 19.51525 5.41315
#
# Velocity S-wave (km/s) = -2.13390 3.19799 1.68429
# Velocity P-wave (km/s) = 4.33902 6.94686 5.79163
#
# Compressibility (1/GPa) = 0.02104793
#
# Stress axis : x y z
#
# Youngs Moduli (GPa) = 36.89086 46.21557 82.24316
#
# Poissons Ratio (x) = 0.28187 0.45906
# Poissons Ratio (y) = 0.22500 0.67826
# Poissons Ratio (z) = 0.20592 0.38114
#
# Static dielectric constant tensor:
#      x y z
#    x 3.141550 0.000000 0.000000 
#    y 0.000000 3.784260 0.000000 
#    z 0.000000 0.000000 3.567520 
# 
# 
# High freq. dielectric constant tensor:
#      x y z
#    x 1.702750 0.000000 0.000000 
#    y 0.000000 1.758110 0.000000 
#    z 0.000000 0.000000 1.732880 
# 
# From -- ./inp_files/17874.got.cif
#   From: 2010.03.12/outbox.cif.g09.slc.cpg/sg59_9_cif.got.tgz:17874.got - 2010.04.16 16:29:54.
