data_PCOD8241697
_publ_section_title
;
Structure prediction by ZEFSAII (Michael W. Deem and Ramdas Pophale) SiO2 
 PCOD8241697
Probable space group: P M M N
;
_chemical_formula_sum "Si O2"
_cell_formula_units_Z 32
_cell_length_a 5.231714
_cell_length_b 13.393017
_cell_length_c 20.695484
_cell_angle_alpha 90.000000
_cell_angle_beta 90.000000
_cell_angle_gamma 90.000000
_cell_volume 1450.100166
_symmetry_space_group_name_H-M "P M M N"
_symmetry_group_IT_number 59
_space_group.IT_coordinate_system_code '2'
_symmetry_cell_setting 'orthorhombic'
loop_
_space_group_symop_operation_xyz
x,y,z
1/2-x,1/2-y,z
1/2+x,-y,-z
-x,1/2+y,-z
-x,-y,-z
1/2+x,1/2+y,-z
1/2-x,y,z
x,1/2-y,z
loop_
_atom_site_type_symbol
_atom_site_label
_atom_site_fract_x
_atom_site_fract_y
_atom_site_fract_z
Si Si1 0.250000 0.061085 0.721034
Si Si2 0.750000 0.643076 0.851796
Si Si3 0.750000 0.564912 0.428506
Si Si4 0.750000 0.365061 0.499539
Si Si5 0.250000 0.383386 0.003156
Si Si6 0.250000 0.598666 0.058529
Si Si7 0.750000 0.367072 0.795342
Si Si8 0.250000 0.868530 0.785940
O O1 0.250000 0.090486 0.646673
O O2 0.500322 0.105851 0.754630
O O3 0.250000 0.938971 0.722880
O O4 0.750000 0.750000 0.816107
O O5 0.490308 0.591466 0.827934
O O6 0.750000 0.666151 0.927179
O O7 0.750000 0.444734 0.440519
O O8 0.500440 0.616488 0.457869
O O9 0.750000 0.250000 0.473951
O O10 0.493144 0.343614 0.962115
O O11 0.250000 0.501050 0.013858
O O12 0.250000 0.574490 0.135296
O O13 0.750000 0.250000 0.812064
O O14 0.250000 0.750000 0.769566
#
# Coordination Sequence:
#
# PCOD8241697 Si02
#       8
#     4   4   4   4   4   4   4   4
#     4  12  24  42  65  88 124 164 206 254 290 349
#     4  10  20  34  54  82 112 142 186 242 305 374
#     4  10  23  39  63  99 124 161 213 240 289 360
#     4  10  21  41  66  94 133 164 192 249 301 341
#     4  10  19  33  55  79 103 142 189 245 315 368
#     4  10  21  35  53  77 107 143 193 249 303 363
#     4  12  27  43  60  86 123 168 211 251 300 355
#     4  10  21  37  59  87 118 154 196 250 316 372
#
# _framework density 22.067442
#
# number of rings (size 3 to 8) (size 9 to 14) (size 15 to 20)
#    0.000    1.500    0.000    5.250    0.000    6.500 
#    0.000    0.000    0.000    6.000    0.000    0.000 
#    0.000    0.000    0.000    0.000    0.000    0.000 
#
# Total GULP energy -396505.736763 kJ/mol
# GULP energy per Si atom -12390.804274 kJ/mol
# Density = 2.201722 g / cm^3
# Si number density = 22.067442 Si / 1000 Ang^3
#
#
#
# Elastic Constant Matrix: (Units=GPa)
#
#
# Indices 1 2 3 4 5 6 
#
# 1 210.6848 18.9368 46.3051 0.0000 0.0000 0.0000
# 2 18.9368 89.3320 -6.3744 0.0000 0.0000 0.0000
# 3 46.3051 -6.3744 96.4406 0.0000 0.0000 0.0000
# 4 0.0000 0.0000 0.0000 3.5476 0.0000 0.0000
# 5 0.0000 0.0000 0.0000 0.0000 39.3684 0.0000
# 6 0.0000 0.0000 0.0000 0.0000 0.0000 6.2722
#
#
#
# Elastic Compliance Matrix: (Units=1/GPa)
#
#
# Indices 1 2 3 4 5 6 
#
# 1 0.005464 -0.001352 -0.002713 0.000000 0.000000 0.000000
# 2 -0.001352 0.011582 0.001415 0.000000 0.000000 0.000000
# 3 -0.002713 0.001415 0.011765 0.000000 0.000000 0.000000
# 4 0.000000 0.000000 0.000000 0.281880 0.000000 0.000000
# 5 0.000000 0.000000 0.000000 0.000000 0.025401 0.000000
# 6 0.000000 0.000000 0.000000 0.000000 0.000000 0.159433
#
#
# Mechanical properties :
#
#
# Convention : Reuss Voigt Hill
#
# Bulk Modulus (GPa) = 42.53396 57.13250 49.83323
# Shear Modulus (GPa) = 9.82970 32.34364 21.08667
#
# Velocity S-wave (km/s) = 2.11283 3.83256 3.09456
# Velocity P-wave (km/s) = 5.02677 6.74766 5.94976
#
# Compressibility (1/GPa) = 0.02351063
#
# Stress axis : x y z
#
# Youngs Moduli (GPa) = 183.00943 86.34303 84.99665
#
# Poissons Ratio (x) = 0.11673 0.23059
# Poissons Ratio (y) = 0.24741 -0.12024
# Poissons Ratio (z) = 0.49649 -0.12214
#
# Static dielectric constant tensor:
#      x y z
#    x 4.462540 0.000000 0.000000 
#    y 0.000000 4.183600 0.000000 
#    z 0.000000 0.000000 3.581330 
# 
# 
# High freq. dielectric constant tensor:
#      x y z
#    x 1.897620 0.000000 0.000000 
#    y 0.000000 1.883690 0.000000 
#    z 0.000000 0.000000 1.835290 
# 
# From -- ./inp_files/25149.got.cif
#   From: 2010.03.12/outbox.cif.g09.slc.cpg/sg59_13_cif.got.tgz:25149.got - 2010.04.16 16:29:54.
