data_PCOD8241495
_publ_section_title
;
Structure prediction by ZEFSAII (Michael W. Deem and Ramdas Pophale) SiO2 
 PCOD8241495
Probable space group: P M M N
;
_chemical_formula_sum "Si O2"
_cell_formula_units_Z 64
_cell_length_a 13.452137
_cell_length_b 13.452315
_cell_length_c 21.127497
_cell_angle_alpha 90.000000
_cell_angle_beta 90.000000
_cell_angle_gamma 90.000000
_cell_volume 3823.282232
_symmetry_space_group_name_H-M "P M M N"
_symmetry_group_IT_number 59
_space_group.IT_coordinate_system_code '2'
_symmetry_cell_setting 'orthorhombic'
loop_
_space_group_symop_operation_xyz
x,y,z
1/2-x,1/2-y,z
1/2+x,-y,-z
-x,1/2+y,-z
-x,-y,-z
1/2+x,1/2+y,-z
1/2-x,y,z
x,1/2-y,z
loop_
_atom_site_type_symbol
_atom_site_label
_atom_site_fract_x
_atom_site_fract_y
_atom_site_fract_z
Si Si1 0.864995 0.364975 0.999998
Si Si2 0.135684 0.975076 0.126053
Si Si3 0.635492 0.635479 0.428198
Si Si4 0.524983 0.364332 0.126083
Si Si5 0.135583 0.635658 0.746451
Si Si6 0.864326 0.135580 0.746487
Si Si7 0.364491 0.135575 0.426117
Si Si8 0.500740 0.500776 0.340664
O O1 0.750000 0.384437 0.014730
O O2 0.884569 0.250000 0.985249
O O3 0.900894 0.426746 0.939388
O O4 0.926694 0.400886 0.060636
O O5 0.250000 0.008077 0.122107
O O6 0.073428 0.073450 0.140949
O O7 0.119082 0.894361 0.180775
O O8 0.750000 0.613353 0.412202
O O9 0.610264 0.750000 0.414232
O O10 0.613238 0.610025 0.501055
O O11 0.567637 0.567651 0.385282
O O12 0.492041 0.250000 0.122179
O O13 0.605670 0.381037 0.180812
O O14 0.250000 0.604723 0.738948
O O15 0.118827 0.750000 0.726542
O O16 0.070366 0.567082 0.701883
O O17 0.750000 0.118836 0.726505
O O18 0.895264 0.250000 0.739035
O O19 0.933033 0.070431 0.701961
O O20 0.250000 0.113730 0.410109
O O21 0.389953 0.250000 0.412167
O O22 0.431511 0.068269 0.382393
#
# Coordination Sequence:
#
# PCOD8241495 Si02
#       8
#     8   8   8   8   8   8   8   8
#     4   9  17  30  52  76  97 127 170 212 248 294
#     4  10  19  33  50  73 100 132 170 210 254 298
#     4   9  19  35  53  75 102 132 168 207 248 294
#     4  10  19  33  50  73 100 132 170 210 254 298
#     4  10  21  35  50  72 104 135 166 208 254 301
#     4  10  21  35  50  72 104 135 166 208 254 301
#     4   9  19  35  53  75 104 134 164 203 248 298
#     4  12  19  32  54  79 100 130 172 206 250 297
#
# _framework density 16.739543999999999
#
# number of rings (size 3 to 8) (size 9 to 14) (size 15 to 20)
#    0.000    2.125    1.250    3.750    0.000    3.250 
#    0.000    0.000    0.000    0.000    0.000   10.500 
#    0.000    0.000    0.000    0.000    0.000    0.000 
#
# Total GULP energy -793695.913322 kJ/mol
# GULP energy per Si atom -12401.498646 kJ/mol
# Density = 1.670144 g / cm^3
# Si number density = 16.739544 Si / 1000 Ang^3
#
#
#
# Elastic Constant Matrix: (Units=GPa)
#
#
# Indices 1 2 3 4 5 6 
#
# 1 94.6829 70.5273 61.7805 0.0000 0.0000 0.0000
# 2 70.5273 95.4848 62.2191 0.0000 0.0000 0.0000
# 3 61.7805 62.2191 103.2033 0.0000 0.0000 0.0000
# 4 0.0000 0.0000 0.0000 32.2056 0.0000 0.0000
# 5 0.0000 0.0000 0.0000 0.0000 32.2117 0.0000
# 6 0.0000 0.0000 0.0000 0.0000 0.0000 34.2901
#
#
#
# Elastic Compliance Matrix: (Units=1/GPa)
#
#
# Indices 1 2 3 4 5 6 
#
# 1 0.025911 -0.014875 -0.006543 0.000000 0.000000 0.000000
# 2 -0.014875 0.025788 -0.006643 0.000000 0.000000 0.000000
# 3 -0.006543 -0.006643 0.017611 0.000000 0.000000 0.000000
# 4 0.000000 0.000000 0.000000 0.031050 0.000000 0.000000
# 5 0.000000 0.000000 0.000000 0.000000 0.031045 0.000000
# 6 0.000000 0.000000 0.000000 0.000000 0.000000 0.029163
#
#
# Mechanical properties :
#
#
# Convention : Reuss Voigt Hill
#
# Bulk Modulus (GPa) = 75.82120 75.82499 75.82309
# Shear Modulus (GPa) = 22.61557 26.33107 24.47332
#
# Velocity S-wave (km/s) = 3.67962 3.97039 3.82777
# Velocity P-wave (km/s) = 7.96529 8.14947 8.05791
#
# Compressibility (1/GPa) = 0.01318892
#
# Stress axis : x y z
#
# Youngs Moduli (GPa) = 38.59368 38.77753 56.78118
#
# Poissons Ratio (x) = 0.57680 0.37154
# Poissons Ratio (y) = 0.57407 0.37718
# Poissons Ratio (z) = 0.25254 0.25759
#
# Static dielectric constant tensor:
#      x y z
#    x 3.114590 0.000000 0.000000 
#    y 0.000000 3.114450 0.000000 
#    z 0.000000 0.000000 3.203500 
# 
# 
# High freq. dielectric constant tensor:
#      x y z
#    x 1.645450 0.000000 0.000000 
#    y 0.000000 1.645460 0.000000 
#    z 0.000000 0.000000 1.655270 
# 
# From -- ./inp_files/27093.got.cif
#   From: 2010.03.12/outbox.cif.g09.slc.cpg/sg59_14_cif.got.tgz:27093.got - 2010.04.16 16:29:54.
