data_PCOD8241696
_publ_section_title
;
Structure prediction by ZEFSAII (Michael W. Deem and Ramdas Pophale) SiO2 
 PCOD8241696
Probable space group: P M M N
;
_chemical_formula_sum "Si O2"
_cell_formula_units_Z 64
_cell_length_a 17.583803
_cell_length_b 9.081451
_cell_length_c 22.254063
_cell_angle_alpha 90.000000
_cell_angle_beta 90.000000
_cell_angle_gamma 90.000000
_cell_volume 3553.672215
_symmetry_space_group_name_H-M "P M M N"
_symmetry_group_IT_number 59
_space_group.IT_coordinate_system_code '2'
_symmetry_cell_setting 'orthorhombic'
loop_
_space_group_symop_operation_xyz
x,y,z
1/2-x,1/2-y,z
1/2+x,-y,-z
-x,1/2+y,-z
-x,-y,-z
1/2+x,1/2+y,-z
1/2-x,y,z
x,1/2-y,z
loop_
_atom_site_type_symbol
_atom_site_label
_atom_site_fract_x
_atom_site_fract_y
_atom_site_fract_z
Si Si1 0.664365 0.420690 0.298221
Si Si2 0.566437 0.419506 0.034348
Si Si3 0.461402 0.576911 0.385541
Si Si4 0.466688 0.418800 0.141826
Si Si5 0.606285 0.076781 0.429403
Si Si6 0.478006 0.420938 0.745080
Si Si7 0.662780 0.918534 0.544973
Si Si8 0.836245 0.578461 0.949572
O O1 0.750000 0.468216 0.281217
O O2 0.650522 0.250000 0.285009
O O3 0.651620 0.455363 0.368251
O O4 0.606006 0.509121 0.256514
O O5 0.568393 0.250000 0.015459
O O6 0.546319 0.436599 0.104950
O O7 0.500000 0.500000 0.000000
O O8 0.645033 0.494821 0.012570
O O9 0.460209 0.750000 0.399437
O O10 0.524281 0.500216 0.427363
O O11 0.477198 0.543700 0.315951
O O12 0.381716 0.502796 0.402220
O O13 0.454498 0.250000 0.160594
O O14 0.471274 0.514941 0.201465
O O15 0.393647 0.473392 0.103152
O O16 0.596153 0.250000 0.441388
O O17 0.653876 0.003663 0.482352
O O18 0.466908 0.250000 0.755849
O O19 0.750000 0.923208 0.564492
O O20 0.634442 0.750000 0.538478
O O21 0.750000 0.541615 0.930299
O O22 0.848043 0.750000 0.962288
#
# Coordination Sequence:
#
# PCOD8241696 Si02
#       8
#     8   8   8   8   8   8   8   8
#     4   9  18  33  53  76 101 130 164 203 251 307
#     4   9  17  30  50  76 103 132 165 200 244 294
#     4  10  21  37  54  73 100 133 169 210 256 304
#     4   9  18  33  53  75 102 138 174 207 246 297
#     4  10  19  33  55  79 102 129 163 203 252 312
#     4  10  21  35  53  76 100 132 174 215 253 295
#     4  11  23  36  51  74 102 131 166 209 257 308
#     4   9  18  33  53  79 109 138 170 210 255 299
#
# _framework density 18.009540000000001
#
# number of rings (size 3 to 8) (size 9 to 14) (size 15 to 20)
#    0.000    2.375    0.000    3.375    0.000    6.500 
#    0.000    1.250    0.000    3.000    0.000    0.000 
#    0.000    0.000    0.000    0.000    0.000    0.000 
#
# Total GULP energy -793547.906155 kJ/mol
# GULP energy per Si atom -12399.186034 kJ/mol
# Density = 1.796855 g / cm^3
# Si number density = 18.009540 Si / 1000 Ang^3
#
#
#
# Elastic Constant Matrix: (Units=GPa)
#
#
# Indices 1 2 3 4 5 6 
#
# 1 109.2977 49.1404 44.3778 0.0000 0.0000 0.0000
# 2 49.1404 96.9662 41.8191 0.0000 0.0000 0.0000
# 3 44.3778 41.8191 70.6518 0.0000 0.0000 0.0000
# 4 0.0000 0.0000 0.0000 32.2528 0.0000 0.0000
# 5 0.0000 0.0000 0.0000 0.0000 22.1776 0.0000
# 6 0.0000 0.0000 0.0000 0.0000 0.0000 29.0705
#
#
#
# Elastic Compliance Matrix: (Units=1/GPa)
#
#
# Indices 1 2 3 4 5 6 
#
# 1 0.013481 -0.004270 -0.005940 0.000000 0.000000 0.000000
# 2 -0.004270 0.015200 -0.006315 0.000000 0.000000 0.000000
# 3 -0.005940 -0.006315 0.021623 0.000000 0.000000 0.000000
# 4 0.000000 0.000000 0.000000 0.031005 0.000000 0.000000
# 5 0.000000 0.000000 0.000000 0.000000 0.045091 0.000000
# 6 0.000000 0.000000 0.000000 0.000000 0.000000 0.034399
#
#
# Mechanical properties :
#
#
# Convention : Reuss Voigt Hill
#
# Bulk Modulus (GPa) = 57.95852 60.84337 59.40094
# Shear Modulus (GPa) = 25.04995 26.13873 25.59434
#
# Velocity S-wave (km/s) = 3.73356 3.81383 3.77391
# Velocity P-wave (km/s) = 7.13007 7.29733 7.21419
#
# Compressibility (1/GPa) = 0.01725372
#
# Stress axis : x y z
#
# Youngs Moduli (GPa) = 74.17826 65.78793 46.24698
#
# Poissons Ratio (x) = 0.28092 0.27472
# Poissons Ratio (y) = 0.31674 0.29205
# Poissons Ratio (z) = 0.44064 0.41546
#
# Static dielectric constant tensor:
#      x y z
#    x 3.307470 0.000000 0.000000 
#    y 0.000000 3.482130 0.000000 
#    z 0.000000 0.000000 3.215650 
# 
# 
# High freq. dielectric constant tensor:
#      x y z
#    x 1.690200 0.000000 0.000000 
#    y 0.000000 1.708010 0.000000 
#    z 0.000000 0.000000 1.681430 
# 
# From -- ./inp_files/29480.got.cif
#   From: 2010.03.12/outbox.cif.g09.slc.cpg/sg59_15_cif.got.tgz:29480.got - 2010.04.16 16:29:54.
