data_PCOD8241772
_publ_section_title
;
Structure prediction by ZEFSAII (Michael W. Deem and Ramdas Pophale) SiO2 
 PCOD8241772
Probable space group: P M M N
;
_chemical_formula_sum "Si O2"
_cell_formula_units_Z 48
_cell_length_a 28.180562
_cell_length_b 9.246833
_cell_length_c 10.072813
_cell_angle_alpha 90.000000
_cell_angle_beta 90.000000
_cell_angle_gamma 90.000000
_cell_volume 2624.783187
_symmetry_space_group_name_H-M "P M M N"
_symmetry_group_IT_number 59
_space_group.IT_coordinate_system_code '2'
_symmetry_cell_setting 'orthorhombic'
loop_
_space_group_symop_operation_xyz
x,y,z
1/2-x,1/2-y,z
1/2+x,-y,-z
-x,1/2+y,-z
-x,-y,-z
1/2+x,1/2+y,-z
1/2-x,y,z
x,1/2-y,z
loop_
_atom_site_type_symbol
_atom_site_label
_atom_site_fract_x
_atom_site_fract_y
_atom_site_fract_z
Si Si1 0.395948 0.918437 0.970084
Si Si2 0.555998 0.918281 0.265085
Si Si3 0.892351 0.580472 0.535819
Si Si4 0.696485 0.418516 0.595392
Si Si5 0.448286 0.918357 0.239088
Si Si6 0.801631 0.421713 0.897597
O O1 0.392891 0.750000 0.936123
O O2 0.344111 0.981110 0.011068
O O3 0.411510 0.000051 0.839270
O O4 0.433095 0.947273 0.087985
O O5 0.559192 0.750000 0.231494
O O6 0.574285 0.954560 0.411465
O O7 0.502033 0.973019 0.255256
O O8 0.886773 0.750000 0.559250
O O9 0.840513 0.511311 0.508587
O O10 0.914920 0.509692 0.665535
O O11 0.750000 0.446311 0.543291
O O12 0.683491 0.250000 0.583205
O O13 0.691633 0.473892 0.746680
O O14 0.442698 0.750000 0.276757
O O15 0.750000 0.474487 0.951554
O O16 0.803520 0.250000 0.895442
#
# Coordination Sequence:
#
# PCOD8241772 Si02
#       6
#     8   8   8   8   8   8
#     4  10  19  33  56  82 104 135 178 224 270 315
#     4  10  23  38  51  74 112 149 177 217 271 323
#     4  11  22  35  53  80 112 145 178 217 269 319
#     4   9  17  33  58  82 105 137 177 222 268 313
#     4  10  20  37  58  78 103 139 187 230 265 313
#     4   8  14  28  52  80 105 128 164 217 267 308
#
# _framework density 18.287223999999998
#
# number of rings (size 3 to 8) (size 9 to 14) (size 15 to 20)
#    0.000    2.333    1.667    2.500    0.000    3.000 
#    0.000    0.833    0.000    3.500    0.000    0.000 
#    0.000    0.000    0.000    0.000    0.000    0.000 
#
# Total GULP energy -595185.402987 kJ/mol
# GULP energy per Si atom -12399.695896 kJ/mol
# Density = 1.824560 g / cm^3
# Si number density = 18.287224 Si / 1000 Ang^3
#
#
#
# Elastic Constant Matrix: (Units=GPa)
#
#
# Indices 1 2 3 4 5 6 
#
# 1 122.7478 28.9579 12.5878 0.0000 0.0000 0.0000
# 2 28.9579 45.6170 22.9189 0.0000 0.0000 0.0000
# 3 12.5878 22.9189 36.9018 0.0000 0.0000 0.0000
# 4 0.0000 0.0000 0.0000 30.1551 0.0000 0.0000
# 5 0.0000 0.0000 0.0000 0.0000 12.7550 0.0000
# 6 0.0000 0.0000 0.0000 0.0000 0.0000 27.4759
#
#
#
# Elastic Compliance Matrix: (Units=1/GPa)
#
#
# Indices 1 2 3 4 5 6 
#
# 1 0.009596 -0.006464 0.000741 0.000000 0.000000 0.000000
# 2 -0.006464 0.036219 -0.020290 0.000000 0.000000 0.000000
# 3 0.000741 -0.020290 0.039448 0.000000 0.000000 0.000000
# 4 0.000000 0.000000 0.000000 0.033162 0.000000 0.000000
# 5 0.000000 0.000000 0.000000 0.000000 0.078401 0.000000
# 6 0.000000 0.000000 0.000000 0.000000 0.000000 0.036395
#
#
# Mechanical properties :
#
#
# Convention : Reuss Voigt Hill
#
# Bulk Modulus (GPa) = 30.08653 37.13289 33.60971
# Shear Modulus (GPa) = 16.87338 23.46401 20.16869
#
# Velocity S-wave (km/s) = 3.04087 3.58590 3.32457
# Velocity P-wave (km/s) = 5.36816 6.12326 5.75810
#
# Compressibility (1/GPa) = 0.03323746
#
# Stress axis : x y z
#
# Youngs Moduli (GPa) = 104.21369 27.60980 25.35002
#
# Poissons Ratio (x) = 0.17847 -0.01879
# Poissons Ratio (y) = 0.67362 0.51435
# Poissons Ratio (z) = -0.07726 0.56020
#
# Static dielectric constant tensor:
#      x y z
#    x 3.870700 0.000000 0.000000 
#    y 0.000000 3.131050 0.000000 
#    z 0.000000 0.000000 3.134600 
# 
# 
# High freq. dielectric constant tensor:
#      x y z
#    x 1.731250 0.000000 0.000000 
#    y 0.000000 1.684970 0.000000 
#    z 0.000000 0.000000 1.688810 
# 
# From -- ./inp_files/6327.got.cif
#   From: 2010.03.12/outbox.cif.g09.slc.cpg/sg59_4_cif.got.tgz:6327.got - 2010.04.16 16:29:54.
