data_PCOD8241825
_publ_section_title
;
Structure prediction by ZEFSAII (Michael W. Deem and Ramdas Pophale) SiO2 
 PCOD8241825
Probable space group: P M M N
;
_chemical_formula_sum "Si O2"
_cell_formula_units_Z 48
_cell_length_a 9.215798
_cell_length_b 16.113125
_cell_length_c 17.189001
_cell_angle_alpha 90.000000
_cell_angle_beta 90.000000
_cell_angle_gamma 90.000000
_cell_volume 2552.485949
_symmetry_space_group_name_H-M "P M M N"
_symmetry_group_IT_number 59
_space_group.IT_coordinate_system_code '2'
_symmetry_cell_setting 'orthorhombic'
loop_
_space_group_symop_operation_xyz
x,y,z
1/2-x,1/2-y,z
1/2+x,-y,-z
-x,1/2+y,-z
-x,-y,-z
1/2+x,1/2+y,-z
1/2-x,y,z
x,1/2-y,z
loop_
_atom_site_type_symbol
_atom_site_label
_atom_site_fract_x
_atom_site_fract_y
_atom_site_fract_z
Si Si1 0.582420 0.845334 0.017394
Si Si2 0.918555 0.885206 0.848104
Si Si3 0.921280 0.083532 0.527082
Si Si4 0.579007 0.250000 0.434034
Si Si5 0.577485 0.342401 0.687060
Si Si6 0.422642 0.250000 0.270407
Si Si7 0.080749 0.574628 0.157187
O O1 0.750000 0.872421 0.019635
O O2 0.562006 0.750000 0.040409
O O3 0.498150 0.900823 0.078637
O O4 0.513505 0.862169 0.932126
O O5 0.750000 0.864206 0.855680
O O6 0.979876 0.829488 0.778081
O O7 0.950520 0.979047 0.825495
O O8 0.750000 0.068780 0.520309
O O9 0.967332 0.166057 0.479416
O O10 0.970933 0.098860 0.616138
O O11 0.000000 0.000000 0.500000
O O12 0.750000 0.250000 0.420431
O O13 0.497891 0.250000 0.352926
O O14 0.750000 0.339947 0.689897
O O15 0.515384 0.250000 0.674092
O O16 0.516387 0.376505 0.768753
O O17 0.250000 0.250000 0.283436
O O18 0.250000 0.592921 0.145634
#
# Coordination Sequence:
#
# PCOD8241825 Si02
#       7
#     8   8   8   4   8   4   8
#     4  10  19  34  53  73 105 146 178 210 268 327
#     4   9  18  34  54  78 106 139 178 223 267 315
#     4  10  21  38  60  84 112 149 188 228 280 339
#     4  10  22  40  58  83 120 152 180 229 294 342
#     4   9  17  33  55  77 105 142 178 213 262 324
#     4  10  20  36  60  83 104 140 190 229 262 324
#     4  10  20  32  53  82 106 132 178 229 264 306
#
# _framework density 18.805195999999999
#
# number of rings (size 3 to 8) (size 9 to 14) (size 15 to 20)
#    0.000    2.333    1.667    1.000    2.333    1.667 
#    0.000    2.500    0.000    1.000    0.000    0.000 
#    0.000    0.000    0.000    0.000    0.000    0.000 
#
# Total GULP energy -595101.663666 kJ/mol
# GULP energy per Si atom -12397.951326 kJ/mol
# Density = 1.876239 g / cm^3
# Si number density = 18.805196 Si / 1000 Ang^3
#
#
#
# Elastic Constant Matrix: (Units=GPa)
#
#
# Indices 1 2 3 4 5 6 
#
# 1 29.0470 32.9083 32.0300 0.0000 0.0000 0.0000
# 2 32.9083 111.9322 55.5296 0.0000 0.0000 0.0000
# 3 32.0300 55.5296 144.2078 0.0000 0.0000 0.0000
# 4 0.0000 0.0000 0.0000 37.1418 0.0000 0.0000
# 5 0.0000 0.0000 0.0000 0.0000 29.5291 0.0000
# 6 0.0000 0.0000 0.0000 0.0000 0.0000 23.5543
#
#
#
# Elastic Compliance Matrix: (Units=1/GPa)
#
#
# Indices 1 2 3 4 5 6 
#
# 1 0.057945 -0.013166 -0.007800 0.000000 0.000000 0.000000
# 2 -0.013166 0.014035 -0.002480 0.000000 0.000000 0.000000
# 3 -0.007800 -0.002480 0.009622 0.000000 0.000000 0.000000
# 4 0.000000 0.000000 0.000000 0.026924 0.000000 0.000000
# 5 0.000000 0.000000 0.000000 0.000000 0.033865 0.000000
# 6 0.000000 0.000000 0.000000 0.000000 0.000000 0.042455
#
#
# Mechanical properties :
#
#
# Convention : Reuss Voigt Hill
#
# Bulk Modulus (GPa) = 28.81122 58.45809 43.63466
# Shear Modulus (GPa) = 20.55007 29.02631 24.78819
#
# Velocity S-wave (km/s) = 3.30932 3.93304 3.63458
# Velocity P-wave (km/s) = 5.47323 7.19574 6.39277
#
# Compressibility (1/GPa) = 0.03470870
#
# Stress axis : x y z
#
# Youngs Moduli (GPa) = 17.25789 71.24910 103.92860
#
# Poissons Ratio (x) = 0.93807 0.81067
# Poissons Ratio (y) = 0.22722 0.25776
# Poissons Ratio (z) = 0.13462 0.17671
#
# Static dielectric constant tensor:
#      x y z
#    x 3.015890 0.000000 0.000000 
#    y 0.000000 3.602300 0.000000 
#    z 0.000000 0.000000 3.648520 
# 
# 
# High freq. dielectric constant tensor:
#      x y z
#    x 1.680290 0.000000 0.000000 
#    y 0.000000 1.746120 0.000000 
#    z 0.000000 0.000000 1.747370 
# 
# From -- ./inp_files/25604.got.cif
#   From: 2010.03.12/outbox.cif.g09.slc.cpg/sg59_13_cif.got.tgz:25604.got - 2010.04.16 16:29:54.
