data_PCOD8241770
_publ_section_title
;
Structure prediction by ZEFSAII (Michael W. Deem and Ramdas Pophale) SiO2 
 PCOD8241770
Probable space group: P M M N
;
_chemical_formula_sum "Si O2"
_cell_formula_units_Z 48
_cell_length_a 18.667068
_cell_length_b 9.189222
_cell_length_c 14.678971
_cell_angle_alpha 90.000000
_cell_angle_beta 90.000000
_cell_angle_gamma 90.000000
_cell_volume 2517.969503
_symmetry_space_group_name_H-M "P M M N"
_symmetry_group_IT_number 59
_space_group.IT_coordinate_system_code '2'
_symmetry_cell_setting 'orthorhombic'
loop_
_space_group_symop_operation_xyz
x,y,z
1/2-x,1/2-y,z
1/2+x,-y,-z
-x,1/2+y,-z
-x,-y,-z
1/2+x,1/2+y,-z
1/2-x,y,z
x,1/2-y,z
loop_
_atom_site_type_symbol
_atom_site_label
_atom_site_fract_x
_atom_site_fract_y
_atom_site_fract_z
Si Si1 0.904385 0.915241 0.956586
Si Si2 0.941791 0.080902 0.125651
Si Si3 0.329805 0.082176 0.222100
Si Si4 0.422430 0.078827 0.685745
Si Si5 0.666716 0.420013 0.458331
Si Si6 0.419547 0.919288 0.366397
O O1 0.905916 0.750000 0.993305
O O2 0.839933 0.942007 0.886067
O O3 0.976301 0.949311 0.900125
O O4 0.893469 0.022065 0.042048
O O5 0.925272 0.250000 0.141947
O O6 0.922489 0.992695 0.215480
O O7 0.250000 0.031207 0.247977
O O8 0.342223 0.250000 0.246900
O O9 0.387226 0.991716 0.277319
O O10 0.410095 0.250000 0.697006
O O11 0.496034 0.044984 0.631245
O O12 0.356940 0.010086 0.629900
O O13 0.750000 0.450688 0.478637
O O14 0.652424 0.250000 0.440255
O O15 0.619732 0.478386 0.543295
O O16 0.404603 0.750000 0.356564
#
# Coordination Sequence:
#
# PCOD8241770 Si02
#       6
#     8   8   8   8   8   8
#     4   9  18  33  52  78 111 145 183 229 277 328
#     4  10  19  33  56  81 107 144 186 230 278 326
#     4  10  20  34  54  82 116 151 185 227 283 340
#     4  11  22  36  58  87 114 145 188 235 280 332
#     4  10  22  40  59  80 111 150 188 230 283 337
#     4  10  21  37  58  84 113 147 187 231 279 334
#
# _framework density 19.062978999999999
#
# number of rings (size 3 to 8) (size 9 to 14) (size 15 to 20)
#    0.000    2.000    1.667    2.000    0.000    4.000 
#    0.000    0.833    0.000    3.000    0.000    0.000 
#    0.000    0.000    0.000    0.000    0.000    0.000 
#
# Total GULP energy -595312.530822 kJ/mol
# GULP energy per Si atom -12402.344392 kJ/mol
# Density = 1.901959 g / cm^3
# Si number density = 19.062979 Si / 1000 Ang^3
#
#
#
# Elastic Constant Matrix: (Units=GPa)
#
#
# Indices 1 2 3 4 5 6 
#
# 1 54.3454 29.2405 28.9183 0.0000 0.0000 0.0000
# 2 29.2405 67.0802 49.2278 0.0000 0.0000 0.0000
# 3 28.9183 49.2278 112.4959 0.0000 0.0000 0.0000
# 4 0.0000 0.0000 0.0000 37.2901 0.0000 0.0000
# 5 0.0000 0.0000 0.0000 0.0000 18.2320 0.0000
# 6 0.0000 0.0000 0.0000 0.0000 0.0000 20.2729
#
#
#
# Elastic Compliance Matrix: (Units=1/GPa)
#
#
# Indices 1 2 3 4 5 6 
#
# 1 0.024467 -0.008912 -0.002390 0.000000 0.000000 0.000000
# 2 -0.008912 0.025205 -0.008739 0.000000 0.000000 0.000000
# 3 -0.002390 -0.008739 0.013328 0.000000 0.000000 0.000000
# 4 0.000000 0.000000 0.000000 0.026817 0.000000 0.000000
# 5 0.000000 0.000000 0.000000 0.000000 0.054849 0.000000
# 6 0.000000 0.000000 0.000000 0.000000 0.000000 0.049327
#
#
# Mechanical properties :
#
#
# Convention : Reuss Voigt Hill
#
# Bulk Modulus (GPa) = 43.63088 49.85498 46.74293
# Shear Modulus (GPa) = 20.68565 23.59466 22.14015
#
# Velocity S-wave (km/s) = 3.29769 3.52194 3.41166
# Velocity P-wave (km/s) = 6.11859 6.53822 6.33188
#
# Compressibility (1/GPa) = 0.02291955
#
# Stress axis : x y z
#
# Youngs Moduli (GPa) = 40.87074 39.67416 75.03166
#
# Poissons Ratio (x) = 0.35356 0.17932
# Poissons Ratio (y) = 0.36422 0.65570
# Poissons Ratio (z) = 0.09768 0.34671
#
# Static dielectric constant tensor:
#      x y z
#    x 3.404200 0.000000 0.000000 
#    y 0.000000 3.476020 0.000000 
#    z 0.000000 0.000000 3.480630 
# 
# 
# High freq. dielectric constant tensor:
#      x y z
#    x 1.726050 0.000000 0.000000 
#    y 0.000000 1.740230 0.000000 
#    z 0.000000 0.000000 1.746720 
# 
# From -- ./inp_files/20765.got.cif
#   From: 2010.03.12/outbox.cif.g09.slc.cpg/sg59_11_cif.got.tgz:20765.got - 2010.04.16 16:29:54.
