data_PCOD8241109
_publ_section_title
;
Structure prediction by ZEFSAII (Michael W. Deem and Ramdas Pophale) SiO2 
 PCOD8241109
Probable space group: P M M N
;
_chemical_formula_sum "Si O2"
_cell_formula_units_Z 40
_cell_length_a 9.447539
_cell_length_b 19.998624
_cell_length_c 12.510820
_cell_angle_alpha 90.000000
_cell_angle_beta 90.000000
_cell_angle_gamma 90.000000
_cell_volume 2363.766559
_symmetry_space_group_name_H-M "P M M N"
_symmetry_group_IT_number 59
_space_group.IT_coordinate_system_code '2'
_symmetry_cell_setting 'orthorhombic'
loop_
_space_group_symop_operation_xyz
x,y,z
1/2-x,1/2-y,z
1/2+x,-y,-z
-x,1/2+y,-z
-x,-y,-z
1/2+x,1/2+y,-z
1/2-x,y,z
x,1/2-y,z
loop_
_atom_site_type_symbol
_atom_site_label
_atom_site_fract_x
_atom_site_fract_y
_atom_site_fract_z
Si Si1 0.910346 0.898376 0.195962
Si Si2 0.086288 0.064884 0.032808
Si Si3 0.914240 0.064484 0.465997
Si Si4 0.913097 0.052343 0.225523
Si Si5 0.415479 0.674363 0.366366
O O1 0.750000 0.885889 0.233540
O O2 0.009528 0.846659 0.256805
O O3 0.954764 0.974055 0.225832
O O4 0.924925 0.884763 0.068124
O O5 0.250000 0.047292 0.056076
O O6 0.011948 0.092722 0.140842
O O7 0.000000 0.000000 0.000000
O O8 0.750000 0.048028 0.484607
O O9 0.942585 0.082609 0.342318
O O10 0.964715 0.127759 0.535481
O O11 0.000000 0.000000 0.500000
O O12 0.750000 0.060995 0.190748
O O13 0.250000 0.667364 0.345577
O O14 0.457917 0.750000 0.395670
#
# Coordination Sequence:
#
# PCOD8241109 Si02
#       5
#     8   8   8   8   8
#     4   9  17  30  47  69  97 126 161 201 243 293
#     4   9  17  28  44  69  99 126 156 194 240 290
#     4  10  19  32  50  72 100 131 166 209 249 293
#     4   9  17  29  46  71  99 126 161 202 246 291
#     4  10  21  34  49  72 100 131 166 204 251 303
#
# _framework density 16.922145
#
# number of rings (size 3 to 8) (size 9 to 14) (size 15 to 20)
#    0.000    2.600    2.000    1.800    0.000    5.200 
#    0.000    0.000    0.000    1.200    0.000    2.800 
#    0.000    0.000    0.000    0.000    0.000    0.000 
#
# Total GULP energy -495838.703695 kJ/mol
# GULP energy per Si atom -12395.967592 kJ/mol
# Density = 1.688363 g / cm^3
# Si number density = 16.922145 Si / 1000 Ang^3
#
#
#
# Elastic Constant Matrix: (Units=GPa)
#
#
# Indices 1 2 3 4 5 6 
#
# 1 74.6477 40.2045 62.9797 0.0000 0.0000 0.0000
# 2 40.2045 80.9535 54.2774 0.0000 0.0000 0.0000
# 3 62.9797 54.2774 131.6346 0.0000 0.0000 0.0000
# 4 0.0000 0.0000 0.0000 18.4060 0.0000 0.0000
# 5 0.0000 0.0000 0.0000 0.0000 33.2738 0.0000
# 6 0.0000 0.0000 0.0000 0.0000 0.0000 18.1852
#
#
#
# Elastic Compliance Matrix: (Units=1/GPa)
#
#
# Indices 1 2 3 4 5 6 
#
# 1 0.024357 -0.005920 -0.009213 0.000000 0.000000 0.000000
# 2 -0.005920 0.018511 -0.004801 0.000000 0.000000 0.000000
# 3 -0.009213 -0.004801 0.013984 0.000000 0.000000 0.000000
# 4 0.000000 0.000000 0.000000 0.054330 0.000000 0.000000
# 5 0.000000 0.000000 0.000000 0.000000 0.030054 0.000000
# 6 0.000000 0.000000 0.000000 0.000000 0.000000 0.054990
#
#
# Mechanical properties :
#
#
# Convention : Reuss Voigt Hill
#
# Bulk Modulus (GPa) = 58.87013 66.90657 62.88835
# Shear Modulus (GPa) = 20.68213 22.62461 21.65337
#
# Velocity S-wave (km/s) = 3.49978 3.66044 3.58101
# Velocity P-wave (km/s) = 7.15511 7.58214 7.37172
#
# Compressibility (1/GPa) = 0.01698654
#
# Stress axis : x y z
#
# Youngs Moduli (GPa) = 41.05550 54.02053 71.51060
#
# Poissons Ratio (x) = 0.31980 0.65880
# Poissons Ratio (y) = 0.24304 0.34329
# Poissons Ratio (z) = 0.37823 0.25933
#
# Static dielectric constant tensor:
#      x y z
#    x 3.281820 0.000000 0.000000 
#    y 0.000000 2.816850 0.000000 
#    z 0.000000 0.000000 3.735170 
# 
# 
# High freq. dielectric constant tensor:
#      x y z
#    x 1.657530 0.000000 0.000000 
#    y 0.000000 1.596150 0.000000 
#    z 0.000000 0.000000 1.668770 
# 
# From -- ./inp_files/14055.got.cif
#   From: 2010.03.12/outbox.cif.g09.slc.cpg/sg59_8_cif.got.tgz:14055.got - 2010.04.16 16:29:54.
