data_PCOD8241722
_publ_section_title
;
Structure prediction by ZEFSAII (Michael W. Deem and Ramdas Pophale) SiO2 
 PCOD8241722
Probable space group: P M M N
;
_chemical_formula_sum "Si O2"
_cell_formula_units_Z 64
_cell_length_a 8.748033
_cell_length_b 15.990279
_cell_length_c 23.255543
_cell_angle_alpha 90.000000
_cell_angle_beta 90.000000
_cell_angle_gamma 90.000000
_cell_volume 3253.066479
_symmetry_space_group_name_H-M "P M M N"
_symmetry_group_IT_number 59
_space_group.IT_coordinate_system_code '2'
_symmetry_cell_setting 'orthorhombic'
loop_
_space_group_symop_operation_xyz
x,y,z
1/2-x,1/2-y,z
1/2+x,-y,-z
-x,1/2+y,-z
-x,-y,-z
1/2+x,1/2+y,-z
1/2-x,y,z
x,1/2-y,z
loop_
_atom_site_type_symbol
_atom_site_label
_atom_site_fract_x
_atom_site_fract_y
_atom_site_fract_z
Si Si1 0.069353 0.343282 0.073559
Si Si2 0.068302 0.491165 0.741508
Si Si3 0.931053 0.010084 0.863851
Si Si4 0.921993 0.843942 0.467535
Si Si5 0.072130 0.655497 0.049081
Si Si6 0.926477 0.423334 0.425616
Si Si7 0.572629 0.160554 0.310909
Si Si8 0.070801 0.579570 0.367482
O O1 0.250000 0.344430 0.074039
O O2 0.010635 0.250000 0.093426
O O3 0.009202 0.419054 0.113925
O O4 0.016951 0.362393 0.009302
O O5 0.250000 0.488850 0.737891
O O6 0.001106 0.583121 0.724529
O O7 0.011828 0.467942 0.804381
O O8 0.002810 0.424390 0.696025
O O9 0.750000 0.009271 0.855341
O O10 0.981987 0.085357 0.905808
O O11 0.750000 0.880338 0.465566
O O12 0.920365 0.750000 0.490105
O O13 0.023939 0.897234 0.511111
O O14 0.996834 0.844810 0.403836
O O15 0.250000 0.645275 0.035535
O O16 0.036924 0.750000 0.071928
O O17 0.750000 0.451844 0.426462
O O18 0.950706 0.349483 0.379388
O O19 0.032288 0.498751 0.405405
O O20 0.750000 0.163316 0.295632
O O21 0.497040 0.250000 0.293054
O O22 0.250000 0.592466 0.360457
#
# Coordination Sequence:
#
# PCOD8241722 Si02
#       8
#     8   8   8   8   8   8   8   8
#     4   9  18  32  51  78 112 144 171 204 253 313
#     4  10  21  36  54  76 102 135 178 222 262 311
#     4  10  20  34  52  75 105 140 175 215 263 311
#     4  11  23  37  54  79 109 136 168 215 267 318
#     4   9  18  33  53  77 104 135 175 220 261 303
#     4  10  19  33  55  81 108 137 172 212 258 317
#     4   8  15  29  49  73 101 132 166 208 256 305
#     4  11  22  38  58  76 101 138 177 216 263 317
#
# _framework density 19.673743999999999
#
# number of rings (size 3 to 8) (size 9 to 14) (size 15 to 20)
#    0.000    2.250    0.000    4.125    0.000    3.000 
#    0.000    0.625    0.000    9.375    0.000    0.000 
#    0.000    0.000    0.000    0.000    0.000    0.000 
#
# Total GULP energy -793283.191088 kJ/mol
# GULP energy per Si atom -12395.049861 kJ/mol
# Density = 1.962897 g / cm^3
# Si number density = 19.673744 Si / 1000 Ang^3
#
#
#
# Elastic Constant Matrix: (Units=GPa)
#
#
# Indices 1 2 3 4 5 6 
#
# 1 48.2498 11.2888 19.1620 0.0000 0.0000 0.0000
# 2 11.2888 69.1467 29.2837 0.0000 0.0000 0.0000
# 3 19.1620 29.2837 106.4498 0.0000 0.0000 0.0000
# 4 0.0000 0.0000 0.0000 19.4904 0.0000 0.0000
# 5 0.0000 0.0000 0.0000 0.0000 32.1035 0.0000
# 6 0.0000 0.0000 0.0000 0.0000 0.0000 17.5740
#
#
#
# Elastic Compliance Matrix: (Units=1/GPa)
#
#
# Indices 1 2 3 4 5 6 
#
# 1 0.022620 -0.002228 -0.003459 0.000000 0.000000 0.000000
# 2 -0.002228 0.016589 -0.004162 0.000000 0.000000 0.000000
# 3 -0.003459 -0.004162 0.011162 0.000000 0.000000 0.000000
# 4 0.000000 0.000000 0.000000 0.051307 0.000000 0.000000
# 5 0.000000 0.000000 0.000000 0.000000 0.031149 0.000000
# 6 0.000000 0.000000 0.000000 0.000000 0.000000 0.056902
#
#
# Mechanical properties :
#
#
# Convention : Reuss Voigt Hill
#
# Bulk Modulus (GPa) = 32.60308 38.14616 35.37462
# Shear Modulus (GPa) = 22.76325 24.77437 23.76881
#
# Velocity S-wave (km/s) = 3.40522 3.55246 3.47961
# Velocity P-wave (km/s) = 5.66291 6.02147 5.84494
#
# Compressibility (1/GPa) = 0.03067195
#
# Stress axis : x y z
#
# Youngs Moduli (GPa) = 44.20779 60.28271 89.59150
#
# Poissons Ratio (x) = 0.13432 0.30989
# Poissons Ratio (y) = 0.09850 0.37291
# Poissons Ratio (z) = 0.15291 0.25092
#
# Static dielectric constant tensor:
#      x y z
#    x 3.400050 0.000000 0.000000 
#    y 0.000000 3.941300 0.000000 
#    z 0.000000 0.000000 3.544940 
# 
# 
# High freq. dielectric constant tensor:
#      x y z
#    x 1.753340 0.000000 0.000000 
#    y 0.000000 1.767710 0.000000 
#    z 0.000000 0.000000 1.758410 
# 
# From -- ./inp_files/29563.got.cif
#   From: 2010.03.12/outbox.cif.g09.slc.cpg/sg59_15_cif.got.tgz:29563.got - 2010.04.16 16:29:54.
