data_PCOD8241467
_publ_section_title
;
Structure prediction by ZEFSAII (Michael W. Deem and Ramdas Pophale) SiO2 
 PCOD8241467
Probable space group: P M M N
;
_chemical_formula_sum "Si O2"
_cell_formula_units_Z 64
_cell_length_a 9.068974
_cell_length_b 15.251245
_cell_length_c 23.762799
_cell_angle_alpha 90.000000
_cell_angle_beta 90.000000
_cell_angle_gamma 90.000000
_cell_volume 3286.707449
_symmetry_space_group_name_H-M "P M M N"
_symmetry_group_IT_number 59
_space_group.IT_coordinate_system_code '2'
_symmetry_cell_setting 'orthorhombic'
loop_
_space_group_symop_operation_xyz
x,y,z
1/2-x,1/2-y,z
1/2+x,-y,-z
-x,1/2+y,-z
-x,-y,-z
1/2+x,1/2+y,-z
1/2-x,y,z
x,1/2-y,z
loop_
_atom_site_type_symbol
_atom_site_label
_atom_site_fract_x
_atom_site_fract_y
_atom_site_fract_z
Si Si1 0.074934 0.153137 0.556457
Si Si2 0.920130 0.851566 0.570505
Si Si3 0.581933 0.652641 0.832499
Si Si4 0.578397 0.397764 0.057850
Si Si5 0.580646 0.599984 0.052046
Si Si6 0.574576 0.499382 0.362986
Si Si7 0.081762 0.348516 0.825179
Si Si8 0.923961 0.006733 0.756014
O O1 0.250000 0.155283 0.557399
O O2 0.015436 0.250000 0.574146
O O3 0.023636 0.130985 0.493037
O O4 0.013810 0.079376 0.598552
O O5 0.750000 0.879623 0.577494
O O6 0.940290 0.750000 0.586481
O O7 0.019685 0.907467 0.612497
O O8 0.750000 0.629968 0.848143
O O9 0.567979 0.750000 0.805782
O O10 0.489466 0.652226 0.889489
O O11 0.524020 0.582163 0.787238
O O12 0.750000 0.378977 0.057919
O O13 0.537492 0.499583 0.063954
O O14 0.513672 0.360600 0.999295
O O15 0.750000 0.608572 0.034232
O O16 0.545040 0.653255 0.108501
O O17 0.750000 0.499153 0.360322
O O18 0.510942 0.513839 0.301628
O O19 0.250000 0.382218 0.815952
O O20 0.063830 0.250000 0.801782
O O21 0.966977 0.409973 0.793461
O O22 0.750000 0.007107 0.744488
#
# Coordination Sequence:
#
# PCOD8241467 Si02
#       8
#     8   8   8   8   8   8   8   8
#     4   8  16  33  57  85 116 151 189 228 275 334
#     4   9  18  35  59  85 116 153 190 229 277 333
#     4  10  22  40  60  79 103 142 189 234 285 342
#     4  10  19  32  55  85 115 143 177 224 278 335
#     4   9  18  33  54  82 116 148 179 217 272 341
#     4  11  22  35  57  86 116 150 191 236 283 335
#     4  10  21  39  62  84 109 146 189 233 284 339
#     4  11  24  41  59  80 111 149 193 241 286 333
#
# _framework density 19.472375
#
# number of rings (size 3 to 8) (size 9 to 14) (size 15 to 20)
#    0.000    2.250    1.250    2.250    0.000    3.750 
#    0.000    4.375    0.000    2.625    0.000    0.000 
#    0.000    0.000    0.000    0.000    0.000    0.000 
#
# Total GULP energy -793683.262556 kJ/mol
# GULP energy per Si atom -12401.300977 kJ/mol
# Density = 1.942806 g / cm^3
# Si number density = 19.472375 Si / 1000 Ang^3
#
#
#
# Elastic Constant Matrix: (Units=GPa)
#
#
# Indices 1 2 3 4 5 6 
#
# 1 61.6272 30.6577 30.8725 0.0000 0.0000 0.0000
# 2 30.6577 91.5199 33.1030 0.0000 0.0000 0.0000
# 3 30.8725 33.1030 74.5644 0.0000 0.0000 0.0000
# 4 0.0000 0.0000 0.0000 7.2388 0.0000 0.0000
# 5 0.0000 0.0000 0.0000 0.0000 34.8412 0.0000
# 6 0.0000 0.0000 0.0000 0.0000 0.0000 25.0410
#
#
#
# Elastic Compliance Matrix: (Units=1/GPa)
#
#
# Indices 1 2 3 4 5 6 
#
# 1 0.022171 -0.004892 -0.007008 0.000000 0.000000 0.000000
# 2 -0.004892 0.014096 -0.004233 0.000000 0.000000 0.000000
# 3 -0.007008 -0.004233 0.018192 0.000000 0.000000 0.000000
# 4 0.000000 0.000000 0.000000 0.138144 0.000000 0.000000
# 5 0.000000 0.000000 0.000000 0.000000 0.028702 0.000000
# 6 0.000000 0.000000 0.000000 0.000000 0.000000 0.039935
#
#
# Mechanical properties :
#
#
# Convention : Reuss Voigt Hill
#
# Bulk Modulus (GPa) = 45.05707 46.33089 45.69398
# Shear Modulus (GPa) = 16.61671 22.29609 19.45640
#
# Velocity S-wave (km/s) = 2.92438 3.38747 3.16441
# Velocity P-wave (km/s) = 5.88149 6.25658 6.07193
#
# Compressibility (1/GPa) = 0.02219407
#
# Stress axis : x y z
#
# Youngs Moduli (GPa) = 45.10418 70.94056 54.97003
#
# Poissons Ratio (x) = 0.34705 0.38521
# Poissons Ratio (y) = 0.22066 0.23266
# Poissons Ratio (z) = 0.31608 0.30026
#
# Static dielectric constant tensor:
#      x y z
#    x 3.380150 0.000000 0.000000 
#    y 0.000000 3.673480 0.000000 
#    z 0.000000 0.000000 3.530410 
# 
# 
# High freq. dielectric constant tensor:
#      x y z
#    x 1.742850 0.000000 0.000000 
#    y 0.000000 1.763990 0.000000 
#    z 0.000000 0.000000 1.755140 
# 
# From -- ./inp_files/31516.got.cif
#   From: 2010.03.12/outbox.cif.g09.slc.cpg/sg59_16_cif.got.tgz:31516.got - 2010.04.16 16:29:54.
