data_PCOD8241108
_publ_section_title
;
Structure prediction by ZEFSAII (Michael W. Deem and Ramdas Pophale) SiO2 
 PCOD8241108
Probable space group: P M M N
;
_chemical_formula_sum "Si O2"
_cell_formula_units_Z 48
_cell_length_a 8.923074
_cell_length_b 18.885119
_cell_length_c 15.676240
_cell_angle_alpha 90.000000
_cell_angle_beta 90.000000
_cell_angle_gamma 90.000000
_cell_volume 2641.655159
_symmetry_space_group_name_H-M "P M M N"
_symmetry_group_IT_number 59
_space_group.IT_coordinate_system_code '2'
_symmetry_cell_setting 'orthorhombic'
loop_
_space_group_symop_operation_xyz
x,y,z
1/2-x,1/2-y,z
1/2+x,-y,-z
-x,1/2+y,-z
-x,-y,-z
1/2+x,1/2+y,-z
1/2-x,y,z
x,1/2-y,z
loop_
_atom_site_type_symbol
_atom_site_label
_atom_site_fract_x
_atom_site_fract_y
_atom_site_fract_z
Si Si1 0.927395 0.668711 0.834058
Si Si2 0.574267 0.575852 0.494942
Si Si3 0.927611 0.413488 0.672151
Si Si4 0.574854 0.925919 0.681404
Si Si5 0.420898 0.165954 0.824502
Si Si6 0.080925 0.834206 0.005817
O O1 0.750000 0.661115 0.844030
O O2 0.972992 0.750000 0.817942
O O3 0.994533 0.623352 0.755251
O O4 0.002550 0.638210 0.919750
O O5 0.500000 0.500000 0.500000
O O6 0.750000 0.569106 0.476948
O O7 0.497080 0.617628 0.416522
O O8 0.544058 0.610336 0.588516
O O9 0.750000 0.410375 0.664831
O O10 0.988083 0.493766 0.686456
O O11 0.981341 0.364584 0.748284
O O12 0.750000 0.930780 0.697891
O O13 0.250000 0.139966 0.817234
O O14 0.431728 0.250000 0.820218
O O15 0.488871 0.136926 0.913127
O O16 0.250000 0.863642 0.010317
O O17 0.079201 0.750000 0.006534
#
# Coordination Sequence:
#
# PCOD8241108 Si02
#       6
#     8   8   8   8   8   8
#     4   9  16  29  50  72  94 123 159 196 233 275
#     4   9  16  29  48  69  95 128 166 203 239 284
#     4  10  19  32  50  71  97 128 161 199 243 290
#     4   8  16  30  48  71  97 126 161 199 236 277
#     4  10  20  34  52  73  95 121 157 199 240 286
#     4   9  17  30  48  70  96 125 156 190 232 284
#
# _framework density 18.170425000000002
#
# number of rings (size 3 to 8) (size 9 to 14) (size 15 to 20)
#    0.000    2.833    0.000    3.000    0.000    3.000 
#    0.000    6.667    0.000    3.000    0.000    0.000 
#    0.000    0.000    0.000    0.000    0.000    0.000 
#
# Total GULP energy -594914.213498 kJ/mol
# GULP energy per Si atom -12394.046115 kJ/mol
# Density = 1.812907 g / cm^3
# Si number density = 18.170425 Si / 1000 Ang^3
#
#
#
# Elastic Constant Matrix: (Units=GPa)
#
#
# Indices 1 2 3 4 5 6 
#
# 1 91.6783 20.4501 59.6995 0.0000 0.0000 0.0000
# 2 20.4501 24.9461 32.8954 0.0000 0.0000 0.0000
# 3 59.6995 32.8954 174.3015 0.0000 0.0000 0.0000
# 4 0.0000 0.0000 0.0000 29.0253 0.0000 0.0000
# 5 0.0000 0.0000 0.0000 0.0000 32.1392 0.0000
# 6 0.0000 0.0000 0.0000 0.0000 0.0000 17.2731
#
#
#
# Elastic Compliance Matrix: (Units=1/GPa)
#
#
# Indices 1 2 3 4 5 6 
#
# 1 0.014986 -0.007344 -0.003747 0.000000 0.000000 0.000000
# 2 -0.007344 0.056967 -0.008236 0.000000 0.000000 0.000000
# 3 -0.003747 -0.008236 0.008575 0.000000 0.000000 0.000000
# 4 0.000000 0.000000 0.000000 0.034453 0.000000 0.000000
# 5 0.000000 0.000000 0.000000 0.000000 0.031115 0.000000
# 6 0.000000 0.000000 0.000000 0.000000 0.000000 0.057894
#
#
# Mechanical properties :
#
#
# Convention : Reuss Voigt Hill
#
# Bulk Modulus (GPa) = 23.88106 57.44621 40.66363
# Shear Modulus (GPa) = 19.48558 27.54626 23.51592
#
# Velocity S-wave (km/s) = 3.27827 3.89780 3.60138
# Velocity P-wave (km/s) = 5.24412 7.20701 6.30245
#
# Compressibility (1/GPa) = 0.04187419
#
# Stress axis : x y z
#
# Youngs Moduli (GPa) = 66.73020 17.55396 116.62157
#
# Poissons Ratio (x) = 0.12892 0.43694
# Poissons Ratio (y) = 0.49009 0.96047
# Poissons Ratio (z) = 0.25001 0.14457
#
# Static dielectric constant tensor:
#      x y z
#    x 3.419930 0.000000 0.000000 
#    y 0.000000 3.043270 0.000000 
#    z 0.000000 0.000000 3.916950 
# 
# 
# High freq. dielectric constant tensor:
#      x y z
#    x 1.700530 0.000000 0.000000 
#    y 0.000000 1.653100 0.000000 
#    z 0.000000 0.000000 1.727620 
# 
# From -- ./inp_files/20354.got.cif
#   From: 2010.03.12/outbox.cif.g09.slc.cpg/sg59_11_cif.got.tgz:20354.got - 2010.04.16 16:29:54.
