data_PCOD8241426
_publ_section_title
;
Structure prediction by ZEFSAII (Michael W. Deem and Ramdas Pophale) SiO2 
 PCOD8241426
Probable space group: P M M N
;
_chemical_formula_sum "Si O2"
_cell_formula_units_Z 64
_cell_length_a 9.215932
_cell_length_b 19.829966
_cell_length_c 19.948631
_cell_angle_alpha 90.000000
_cell_angle_beta 90.000000
_cell_angle_gamma 90.000000
_cell_volume 3645.644596
_symmetry_space_group_name_H-M "P M M N"
_symmetry_group_IT_number 59
_space_group.IT_coordinate_system_code '2'
_symmetry_cell_setting 'orthorhombic'
loop_
_space_group_symop_operation_xyz
x,y,z
1/2-x,1/2-y,z
1/2+x,-y,-z
-x,1/2+y,-z
-x,-y,-z
1/2+x,1/2+y,-z
1/2-x,y,z
x,1/2-y,z
loop_
_atom_site_type_symbol
_atom_site_label
_atom_site_fract_x
_atom_site_fract_y
_atom_site_fract_z
Si Si1 0.081500 0.075636 0.266569
Si Si2 0.077931 0.925896 0.222487
Si Si3 0.917003 0.582930 0.443192
Si Si4 0.582990 0.410883 0.042265
Si Si5 0.081761 0.450351 0.412653
Si Si6 0.920027 0.173665 0.168456
Si Si7 0.918586 0.672360 0.322602
Si Si8 0.919017 0.939083 0.086951
O O1 0.250000 0.085653 0.250825
O O2 0.043625 0.089779 0.344720
O O3 0.995046 0.130169 0.225136
O O4 0.032844 0.000014 0.247771
O O5 0.250000 0.917814 0.216497
O O6 0.018002 0.870387 0.273227
O O7 0.005514 0.912004 0.150806
O O8 0.750000 0.562266 0.439343
O O9 0.961769 0.593696 0.521552
O O10 0.948205 0.649703 0.399666
O O11 0.002601 0.521511 0.411032
O O12 0.750000 0.406745 0.018862
O O13 0.541023 0.352612 0.094373
O O14 0.552497 0.481443 0.079278
O O15 0.480411 0.400837 0.978263
O O16 0.250000 0.468841 0.412467
O O17 0.750000 0.167766 0.180886
O O18 0.975840 0.250000 0.174005
O O19 0.750000 0.661378 0.303857
O O20 0.963911 0.750000 0.316637
O O21 0.750000 0.921950 0.095074
#
# Coordination Sequence:
#
# PCOD8241426 Si02
#       8
#     8   8   8   8   8   8   8   8
#     4  10  20  33  52  79 110 141 178 223 266 314
#     4  11  21  34  54  80 109 142 180 222 268 320
#     4   9  17  30  51  76 103 135 173 218 267 316
#     4   9  18  33  52  77 106 136 172 217 266 315
#     4   9  17  31  50  77 107 134 172 220 266 311
#     4  10  21  37  56  78 107 143 180 218 265 322
#     4  10  21  36  53  76 107 142 181 224 272 326
#     4  10  19  32  54  81 106 135 174 220 267 311
#
# _framework density 17.555194
#
# number of rings (size 3 to 8) (size 9 to 14) (size 15 to 20)
#    0.000    2.250    2.500    0.750    0.000    2.500 
#    0.000    1.250    0.000    4.500    0.000    0.000 
#    0.000    0.000    0.000    0.000    0.000    0.000 
#
# Total GULP energy -793567.264682 kJ/mol
# GULP energy per Si atom -12399.488511 kJ/mol
# Density = 1.751524 g / cm^3
# Si number density = 17.555194 Si / 1000 Ang^3
#
#
#
# Elastic Constant Matrix: (Units=GPa)
#
#
# Indices 1 2 3 4 5 6 
#
# 1 66.1400 49.0694 62.4786 0.0000 0.0000 0.0000
# 2 49.0694 115.0077 75.1902 0.0000 0.0000 0.0000
# 3 62.4786 75.1902 141.3139 0.0000 0.0000 0.0000
# 4 0.0000 0.0000 0.0000 24.4775 0.0000 0.0000
# 5 0.0000 0.0000 0.0000 0.0000 30.0731 0.0000
# 6 0.0000 0.0000 0.0000 0.0000 0.0000 20.9194
#
#
#
# Elastic Compliance Matrix: (Units=1/GPa)
#
#
# Indices 1 2 3 4 5 6 
#
# 1 0.028428 -0.005998 -0.009377 0.000000 0.000000 0.000000
# 2 -0.005998 0.014599 -0.005116 0.000000 0.000000 0.000000
# 3 -0.009377 -0.005116 0.013944 0.000000 0.000000 0.000000
# 4 0.000000 0.000000 0.000000 0.040854 0.000000 0.000000
# 5 0.000000 0.000000 0.000000 0.000000 0.033252 0.000000
# 6 0.000000 0.000000 0.000000 0.000000 0.000000 0.047803
#
#
# Mechanical properties :
#
#
# Convention : Reuss Voigt Hill
#
# Bulk Modulus (GPa) = 62.54496 77.32643 69.93570
# Shear Modulus (GPa) = 22.20337 24.14222 23.17280
#
# Velocity S-wave (km/s) = 3.56023 3.71242 3.63712
# Velocity P-wave (km/s) = 7.25295 7.90691 7.58698
#
# Compressibility (1/GPa) = 0.01598850
#
# Stress axis : x y z
#
# Youngs Moduli (GPa) = 35.17720 68.49792 71.71443
#
# Poissons Ratio (x) = 0.41088 0.67246
# Poissons Ratio (y) = 0.21101 0.36687
# Poissons Ratio (z) = 0.32985 0.35042
#
# Static dielectric constant tensor:
#      x y z
#    x 3.265440 0.000000 0.000000 
#    y 0.000000 3.100000 0.000000 
#    z 0.000000 0.000000 3.520780 
# 
# 
# High freq. dielectric constant tensor:
#      x y z
#    x 1.679760 0.000000 0.000000 
#    y 0.000000 1.648120 0.000000 
#    z 0.000000 0.000000 1.694650 
# 
# From -- ./inp_files/29561.got.cif
#   From: 2010.03.12/outbox.cif.g09.slc.cpg/sg59_15_cif.got.tgz:29561.got - 2010.04.16 16:29:54.
