data_PCOD8241932
_publ_section_title
;
Structure prediction by ZEFSAII (Michael W. Deem and Ramdas Pophale) SiO2 
 PCOD8241932
Probable space group: P M M N
;
_chemical_formula_sum "Si O2"
_cell_formula_units_Z 48
_cell_length_a 8.860496
_cell_length_b 16.187289
_cell_length_c 17.200899
_cell_angle_alpha 90.000000
_cell_angle_beta 90.000000
_cell_angle_gamma 90.000000
_cell_volume 2467.080384
_symmetry_space_group_name_H-M "P M M N"
_symmetry_group_IT_number 59
_space_group.IT_coordinate_system_code '2'
_symmetry_cell_setting 'orthorhombic'
loop_
_space_group_symop_operation_xyz
x,y,z
1/2-x,1/2-y,z
1/2+x,-y,-z
-x,1/2+y,-z
-x,-y,-z
1/2+x,1/2+y,-z
1/2-x,y,z
x,1/2-y,z
loop_
_atom_site_type_symbol
_atom_site_label
_atom_site_fract_x
_atom_site_fract_y
_atom_site_fract_z
Si Si1 0.420336 0.844123 0.005784
Si Si2 0.927218 0.882290 0.846524
Si Si3 0.928772 0.086116 0.526714
Si Si4 0.571136 0.250000 0.438099
Si Si5 0.570625 0.342507 0.688626
Si Si6 0.571594 0.250000 0.260718
Si Si7 0.071189 0.569784 0.158814
O O1 0.250000 0.873776 0.985163
O O2 0.417504 0.750000 0.033452
O O3 0.491875 0.895793 0.077081
O O4 0.526493 0.853435 0.931841
O O5 0.750000 0.869158 0.837313
O O6 0.010271 0.831262 0.780434
O O7 0.978379 0.975641 0.832961
O O8 0.750000 0.078506 0.517540
O O9 0.989809 0.165545 0.478009
O O10 0.978173 0.101104 0.615908
O O11 0.000000 0.000000 0.500000
O O12 0.750000 0.250000 0.445943
O O13 0.515784 0.250000 0.349359
O O14 0.750000 0.339365 0.693182
O O15 0.506241 0.250000 0.678213
O O16 0.502640 0.381127 0.767738
O O17 0.750000 0.250000 0.254367
O O18 0.250000 0.580350 0.157523
#
# Coordination Sequence:
#
# PCOD8241932 Si02
#       7
#     8   8   8   4   8   4   8
#     4  10  19  34  56  79 108 145 184 215 256 323
#     4  11  22  36  54  79 112 140 175 229 282 322
#     4  10  20  36  59  86 114 148 188 232 282 336
#     4   9  20  39  59  82 113 150 192 233 277 337
#     4   9  16  31  56  82 110 143 182 225 268 319
#     4  11  23  39  57  74 103 146 190 227 269 327
#     4   9  19  32  51  82 112 140 178 225 268 318
#
# _framework density 19.456195999999998
#
# number of rings (size 3 to 8) (size 9 to 14) (size 15 to 20)
#    0.000    2.167    1.667    1.750    2.333    2.000 
#    0.000    2.083    0.000    1.000    0.000    0.000 
#    0.000    0.000    0.000    0.000    0.000    0.000 
#
# Total GULP energy -595170.633725 kJ/mol
# GULP energy per Si atom -12399.388203 kJ/mol
# Density = 1.941191 g / cm^3
# Si number density = 19.456196 Si / 1000 Ang^3
#
#
#
# Elastic Constant Matrix: (Units=GPa)
#
#
# Indices 1 2 3 4 5 6 
#
# 1 34.9585 23.9386 22.5777 0.0000 0.0000 0.0000
# 2 23.9386 144.3032 62.6552 0.0000 0.0000 0.0000
# 3 22.5777 62.6552 142.6424 0.0000 0.0000 0.0000
# 4 0.0000 0.0000 0.0000 51.4665 0.0000 0.0000
# 5 0.0000 0.0000 0.0000 0.0000 10.0531 0.0000
# 6 0.0000 0.0000 0.0000 0.0000 0.0000 22.3336
#
#
#
# Elastic Compliance Matrix: (Units=1/GPa)
#
#
# Indices 1 2 3 4 5 6 
#
# 1 0.033668 -0.004042 -0.003553 0.000000 0.000000 0.000000
# 2 -0.004042 0.009048 -0.003335 0.000000 0.000000 0.000000
# 3 -0.003553 -0.003335 0.009038 0.000000 0.000000 0.000000
# 4 0.000000 0.000000 0.000000 0.019430 0.000000 0.000000
# 5 0.000000 0.000000 0.000000 0.000000 0.099472 0.000000
# 6 0.000000 0.000000 0.000000 0.000000 0.000000 0.044776
#
#
# Mechanical properties :
#
#
# Convention : Reuss Voigt Hill
#
# Bulk Modulus (GPa) = 33.45213 60.02744 46.73979
# Shear Modulus (GPa) = 20.22181 30.95281 25.58731
#
# Velocity S-wave (km/s) = 3.22739 3.99293 3.63040
# Velocity P-wave (km/s) = 5.57844 7.22341 6.45355
#
# Compressibility (1/GPa) = 0.02989346
#
# Stress axis : x y z
#
# Youngs Moduli (GPa) = 29.70145 110.51802 110.64761
#
# Poissons Ratio (x) = 0.44676 0.39318
# Poissons Ratio (y) = 0.12006 0.36897
# Poissons Ratio (z) = 0.10554 0.36853
#
# Static dielectric constant tensor:
#      x y z
#    x 3.128330 0.000000 0.000000 
#    y 0.000000 3.786380 0.000000 
#    z 0.000000 0.000000 3.768180 
# 
# 
# High freq. dielectric constant tensor:
#      x y z
#    x 1.708790 0.000000 0.000000 
#    y 0.000000 1.774000 0.000000 
#    z 0.000000 0.000000 1.772360 
# 
# From -- ./inp_files/25605.got.cif
#   From: 2010.03.12/outbox.cif.g09.slc.cpg/sg59_13_cif.got.tgz:25605.got - 2010.04.16 16:29:54.
