data_PCOD8241605
_publ_section_title
;
Structure prediction by ZEFSAII (Michael W. Deem and Ramdas Pophale) SiO2 
 PCOD8241605
Probable space group: P M M N
;
_chemical_formula_sum "Si O2"
_cell_formula_units_Z 56
_cell_length_a 8.860763
_cell_length_b 18.775566
_cell_length_c 18.305651
_cell_angle_alpha 90.000000
_cell_angle_beta 90.000000
_cell_angle_gamma 90.000000
_cell_volume 3045.435015
_symmetry_space_group_name_H-M "P M M N"
_symmetry_group_IT_number 59
_space_group.IT_coordinate_system_code '2'
_symmetry_cell_setting 'orthorhombic'
loop_
_space_group_symop_operation_xyz
x,y,z
1/2-x,1/2-y,z
1/2+x,-y,-z
-x,1/2+y,-z
-x,-y,-z
1/2+x,1/2+y,-z
1/2-x,y,z
x,1/2-y,z
loop_
_atom_site_type_symbol
_atom_site_label
_atom_site_fract_x
_atom_site_fract_y
_atom_site_fract_z
Si Si1 0.573404 0.964912 0.429448
Si Si2 0.424617 0.039167 0.301397
Si Si3 0.426092 0.938345 0.048372
Si Si4 0.422650 0.828697 0.926243
Si Si5 0.571173 0.928711 0.203772
Si Si6 0.423852 0.171526 0.214614
Si Si7 0.927925 0.830750 0.338134
O O1 0.750000 0.960266 0.443452
O O2 0.513521 0.886219 0.401822
O O3 0.500000 0.000000 0.500000
O O4 0.536508 0.020886 0.366576
O O5 0.250000 0.022246 0.320684
O O6 0.449592 0.122558 0.285320
O O7 0.475993 0.996237 0.230243
O O8 0.250000 0.955646 0.064159
O O9 0.516416 0.917828 0.121380
O O10 0.447541 0.867799 0.001718
O O11 0.500000 0.000000 0.000000
O O12 0.250000 0.826852 0.903949
O O13 0.490307 0.750000 0.937122
O O14 0.504187 0.865270 0.857132
O O15 0.750000 0.943983 0.205654
O O16 0.531573 0.861848 0.257520
O O17 0.250000 0.177951 0.196701
O O18 0.493666 0.250000 0.230511
O O19 0.750000 0.825931 0.346038
O O20 0.996296 0.750000 0.347165
#
# Coordination Sequence:
#
# PCOD8241605 Si02
#       7
#     8   8   8   8   8   8   8
#     4  10  20  35  57  82 109 139 170 206 248 298
#     4  10  19  33  54  76 101 132 166 204 246 296
#     4  11  22  34  49  70  99 133 172 218 264 312
#     4   9  19  34  49  66  92 128 166 206 256 306
#     4  10  20  33  51  75 102 132 169 214 261 309
#     4   9  18  32  50  72  96 125 165 209 249 293
#     4   8  16  33  56  80 104 134 174 215 255 303
#
# _framework density 18.388178
#
# number of rings (size 3 to 8) (size 9 to 14) (size 15 to 20)
#    0.000    2.429    0.000    3.429    0.000    5.143 
#    0.000    0.714    0.000   19.286    0.000    0.000 
#    0.000    0.000    0.000    0.000    0.000    0.000 
#
# Total GULP energy -693835.142159 kJ/mol
# GULP energy per Si atom -12389.913253 kJ/mol
# Density = 1.834633 g / cm^3
# Si number density = 18.388178 Si / 1000 Ang^3
#
#
#
# Elastic Constant Matrix: (Units=GPa)
#
#
# Indices 1 2 3 4 5 6 
#
# 1 44.1165 34.7182 25.9038 0.0000 0.0000 0.0000
# 2 34.7182 104.7668 63.5031 0.0000 0.0000 0.0000
# 3 25.9038 63.5031 106.3130 0.0000 0.0000 0.0000
# 4 0.0000 0.0000 0.0000 18.4893 0.0000 0.0000
# 5 0.0000 0.0000 0.0000 0.0000 36.2445 0.0000
# 6 0.0000 0.0000 0.0000 0.0000 0.0000 22.8080
#
#
#
# Elastic Compliance Matrix: (Units=1/GPa)
#
#
# Indices 1 2 3 4 5 6 
#
# 1 0.030995 -0.008925 -0.002221 0.000000 0.000000 0.000000
# 2 -0.008925 0.017532 -0.008298 0.000000 0.000000 0.000000
# 3 -0.002221 -0.008298 0.014904 0.000000 0.000000 0.000000
# 4 0.000000 0.000000 0.000000 0.054085 0.000000 0.000000
# 5 0.000000 0.000000 0.000000 0.000000 0.027590 0.000000
# 6 0.000000 0.000000 0.000000 0.000000 0.000000 0.043844
#
#
# Mechanical properties :
#
#
# Convention : Reuss Voigt Hill
#
# Bulk Modulus (GPa) = 40.74409 55.93849 48.34129
# Shear Modulus (GPa) = 21.18467 24.24645 22.71556
#
# Velocity S-wave (km/s) = 3.39791 3.63518 3.51855
# Velocity P-wave (km/s) = 6.13191 6.93587 6.54624
#
# Compressibility (1/GPa) = 0.02454344
#
# Stress axis : x y z
#
# Youngs Moduli (GPa) = 32.26322 57.03792 67.09717
#
# Poissons Ratio (x) = 0.50907 0.14902
# Poissons Ratio (y) = 0.28795 0.55675
# Poissons Ratio (z) = 0.07166 0.47328
#
# Static dielectric constant tensor:
#      x y z
#    x 3.346510 0.000000 0.000000 
#    y 0.000000 4.050340 0.000000 
#    z 0.000000 0.000000 3.493400 
# 
# 
# High freq. dielectric constant tensor:
#      x y z
#    x 1.706670 0.000000 0.000000 
#    y 0.000000 1.715080 0.000000 
#    z 0.000000 0.000000 1.705760 
# 
# From -- ./inp_files/29275.got.cif
#   From: 2010.03.12/outbox.cif.g09.slc.cpg/sg59_15_cif.got.tgz:29275.got - 2010.04.16 16:29:54.
