data_PCOD8241922
_publ_section_title
;
Structure prediction by ZEFSAII (Michael W. Deem and Ramdas Pophale) SiO2 
 PCOD8241922
Probable space group: P M M N
;
_chemical_formula_sum "Si O2"
_cell_formula_units_Z 56
_cell_length_a 9.381232
_cell_length_b 19.210997
_cell_length_c 16.547722
_cell_angle_alpha 90.000000
_cell_angle_beta 90.000000
_cell_angle_gamma 90.000000
_cell_volume 2982.277120
_symmetry_space_group_name_H-M "P M M N"
_symmetry_group_IT_number 59
_space_group.IT_coordinate_system_code '2'
_symmetry_cell_setting 'orthorhombic'
loop_
_space_group_symop_operation_xyz
x,y,z
1/2-x,1/2-y,z
1/2+x,-y,-z
-x,1/2+y,-z
-x,-y,-z
1/2+x,1/2+y,-z
1/2-x,y,z
x,1/2-y,z
loop_
_atom_site_type_symbol
_atom_site_label
_atom_site_fract_x
_atom_site_fract_y
_atom_site_fract_z
Si Si1 0.581748 0.831036 0.649034
Si Si2 0.418171 0.329279 0.815409
Si Si3 0.418993 0.935356 0.752439
Si Si4 0.915485 0.928502 0.501824
Si Si5 0.412081 0.957222 0.934112
Si Si6 0.915483 0.575270 0.323350
Si Si7 0.089125 0.672300 0.033230
O O1 0.750000 0.838068 0.662859
O O2 0.537564 0.750000 0.640773
O O3 0.500739 0.865221 0.725395
O O4 0.533081 0.872117 0.567694
O O5 0.250000 0.337740 0.824069
O O6 0.464368 0.250000 0.802059
O O7 0.484776 0.371561 0.740304
O O8 0.488185 0.358777 0.896935
O O9 0.250000 0.920275 0.750329
O O10 0.466781 0.961805 0.841700
O O11 0.469968 0.996068 0.690411
O O12 0.750000 0.946712 0.514524
O O13 0.943789 0.895830 0.413125
O O14 0.000000 0.000000 0.500000
O O15 0.250000 0.984123 0.939593
O O16 0.424460 0.875513 0.954708
O O17 0.500000 0.000000 0.000000
O O18 0.750000 0.573057 0.302961
O O19 0.250000 0.672165 0.066818
O O20 0.040818 0.750000 0.008123
#
# Coordination Sequence:
#
# PCOD8241922 Si02
#       7
#     8   8   8   8   8   8   8
#     4  10  22  38  55  80 112 143 179 225 275 323
#     4   9  17  30  50  76 103 132 169 212 257 305
#     4  10  20  35  55  78 105 141 183 223 265 318
#     4  10  19  34  56  78 105 140 176 215 263 321
#     4  10  21  35  54  80 108 138 177 223 268 317
#     4   9  17  30  51  77 104 132 168 213 258 308
#     4   9  18  33  50  69  99 137 172 208 256 311
#
# _framework density 18.777598000000001
#
# number of rings (size 3 to 8) (size 9 to 14) (size 15 to 20)
#    0.000    2.429    1.429    0.857    0.000    3.714 
#    0.000    5.714    0.000    1.714    0.000    2.000 
#    0.000    0.000    0.000    0.000    0.000    0.000 
#
# Total GULP energy -694130.073689 kJ/mol
# GULP energy per Si atom -12395.179887 kJ/mol
# Density = 1.873486 g / cm^3
# Si number density = 18.777598 Si / 1000 Ang^3
#
#
#
# Elastic Constant Matrix: (Units=GPa)
#
#
# Indices 1 2 3 4 5 6 
#
# 1 36.6642 29.5884 33.7011 0.0000 0.0000 0.0000
# 2 29.5884 87.5484 50.5424 0.0000 0.0000 0.0000
# 3 33.7011 50.5424 112.2122 0.0000 0.0000 0.0000
# 4 0.0000 0.0000 0.0000 35.0680 0.0000 0.0000
# 5 0.0000 0.0000 0.0000 0.0000 25.9179 0.0000
# 6 0.0000 0.0000 0.0000 0.0000 0.0000 26.6357
#
#
#
# Elastic Compliance Matrix: (Units=1/GPa)
#
#
# Indices 1 2 3 4 5 6 
#
# 1 0.042849 -0.009530 -0.008576 0.000000 0.000000 0.000000
# 2 -0.009530 0.017556 -0.005045 0.000000 0.000000 0.000000
# 3 -0.008576 -0.005045 0.013760 0.000000 0.000000 0.000000
# 4 0.000000 0.000000 0.000000 0.028516 0.000000 0.000000
# 5 0.000000 0.000000 0.000000 0.000000 0.038583 0.000000
# 6 0.000000 0.000000 0.000000 0.000000 0.000000 0.037544
#
#
# Mechanical properties :
#
#
# Convention : Reuss Voigt Hill
#
# Bulk Modulus (GPa) = 35.89259 51.56541 43.72900
# Shear Modulus (GPa) = 21.33125 25.69719 23.51422
#
# Velocity S-wave (km/s) = 3.37411 3.70334 3.54255
# Velocity P-wave (km/s) = 5.85965 6.76809 6.33019
#
# Compressibility (1/GPa) = 0.02786090
#
# Stress axis : x y z
#
# Youngs Moduli (GPa) = 23.33787 56.96134 72.67494
#
# Poissons Ratio (x) = 0.54286 0.62329
# Poissons Ratio (y) = 0.22242 0.36666
# Poissons Ratio (z) = 0.20015 0.28738
#
# Static dielectric constant tensor:
#      x y z
#    x 3.228090 0.000000 0.000000 
#    y 0.000000 3.595080 0.000000 
#    z 0.000000 0.000000 3.685260 
# 
# 
# High freq. dielectric constant tensor:
#      x y z
#    x 1.702930 0.000000 0.000000 
#    y 0.000000 1.732330 0.000000 
#    z 0.000000 0.000000 1.734700 
# 
# From -- ./inp_files/21059.got.cif
#   From: 2010.03.12/outbox.cif.g09.slc.cpg/sg59_11_cif.got.tgz:21059.got - 2010.04.16 16:29:54.
