data_PCOD8241582
_publ_section_title
;
Structure prediction by ZEFSAII (Michael W. Deem and Ramdas Pophale) SiO2 
 PCOD8241582
Probable space group: P M M N
;
_chemical_formula_sum "Si O2"
_cell_formula_units_Z 56
_cell_length_a 9.604654
_cell_length_b 21.739570
_cell_length_c 14.540353
_cell_angle_alpha 90.000000
_cell_angle_beta 90.000000
_cell_angle_gamma 90.000000
_cell_volume 3036.040944
_symmetry_space_group_name_H-M "P M M N"
_symmetry_group_IT_number 59
_space_group.IT_coordinate_system_code '2'
_symmetry_cell_setting 'orthorhombic'
loop_
_space_group_symop_operation_xyz
x,y,z
1/2-x,1/2-y,z
1/2+x,-y,-z
-x,1/2+y,-z
-x,-y,-z
1/2+x,1/2+y,-z
1/2-x,y,z
x,1/2-y,z
loop_
_atom_site_type_symbol
_atom_site_label
_atom_site_fract_x
_atom_site_fract_y
_atom_site_fract_z
Si Si1 0.592777 0.554215 0.963287
Si Si2 0.910516 0.880515 0.147754
Si Si3 0.407803 0.860441 0.444774
Si Si4 0.589490 0.455467 0.708534
Si Si5 0.599266 0.750000 0.390256
Si Si6 0.588140 0.590154 0.761276
Si Si7 0.599662 0.750000 0.179067
Si Si8 0.908875 0.178486 0.354909
O O1 0.750000 0.529604 0.950175
O O2 0.538114 0.580102 0.866246
O O3 0.500000 0.500000 0.000000
O O4 0.584204 0.606482 0.039840
O O5 0.750000 0.880794 0.183481
O O6 0.981240 0.812801 0.154531
O O7 0.996501 0.927677 0.209966
O O8 0.250000 0.839291 0.422170
O O9 0.441416 0.924370 0.391191
O O10 0.514701 0.810629 0.410826
O O11 0.426795 0.864276 0.554568
O O12 0.750000 0.445521 0.736955
O O13 0.556527 0.528221 0.702431
O O14 0.750000 0.750000 0.442467
O O15 0.631213 0.750000 0.285015
O O16 0.750000 0.607621 0.756632
O O17 0.504243 0.648442 0.722982
O O18 0.750000 0.750000 0.126996
O O19 0.750000 0.176617 0.320754
O O20 0.952671 0.250000 0.374249
#
# Coordination Sequence:
#
# PCOD8241582 Si02
#       8
#     8   8   8   8   4   8   4   8
#     4  10  20  35  58  83 109 146 186 227 279 334
#     4  10  19  33  53  79 111 148 184 224 277 334
#     4  10  20  36  57  81 111 149 185 224 277 336
#     4  10  20  34  56  84 116 146 177 226 281 331
#     4  11  19  29  51  82 111 144 184 229 269 319
#     4  10  22  39  56  84 116 143 184 236 282 329
#     4   9  18  31  47  76 115 142 176 229 273 325
#     4  10  22  41  61  80 106 147 194 232 272 331
#
# _framework density 18.445074000000002
#
# number of rings (size 3 to 8) (size 9 to 14) (size 15 to 20)
#    0.000    2.000    3.571    0.214    0.000    2.571 
#    1.286    0.357    0.000    0.000    0.000    0.000 
#    0.000    0.000    0.000    0.000    0.000    0.000 
#
# Total GULP energy -694030.064112 kJ/mol
# GULP energy per Si atom -12393.394002 kJ/mol
# Density = 1.840309 g / cm^3
# Si number density = 18.445074 Si / 1000 Ang^3
#
#
#
# Elastic Constant Matrix: (Units=GPa)
#
#
# Indices 1 2 3 4 5 6 
#
# 1 66.6121 39.3161 42.0291 0.0000 0.0000 0.0000
# 2 39.3161 85.2015 43.1529 0.0000 0.0000 0.0000
# 3 42.0291 43.1529 107.3531 0.0000 0.0000 0.0000
# 4 0.0000 0.0000 0.0000 31.6024 0.0000 0.0000
# 5 0.0000 0.0000 0.0000 0.0000 25.7638 0.0000
# 6 0.0000 0.0000 0.0000 0.0000 0.0000 23.4754
#
#
#
# Elastic Compliance Matrix: (Units=1/GPa)
#
#
# Indices 1 2 3 4 5 6 
#
# 1 0.023392 -0.007730 -0.006051 0.000000 0.000000 0.000000
# 2 -0.007730 0.017291 -0.003924 0.000000 0.000000 0.000000
# 3 -0.006051 -0.003924 0.013262 0.000000 0.000000 0.000000
# 4 0.000000 0.000000 0.000000 0.031643 0.000000 0.000000
# 5 0.000000 0.000000 0.000000 0.000000 0.038814 0.000000
# 6 0.000000 0.000000 0.000000 0.000000 0.000000 0.042598
#
#
# Mechanical properties :
#
#
# Convention : Reuss Voigt Hill
#
# Bulk Modulus (GPa) = 53.95199 56.46253 55.20726
# Shear Modulus (GPa) = 23.97053 25.14621 24.55837
#
# Velocity S-wave (km/s) = 3.60886 3.69630 3.65284
# Velocity P-wave (km/s) = 6.83218 6.99246 6.91278
#
# Compressibility (1/GPa) = 0.01853500
#
# Stress axis : x y z
#
# Youngs Moduli (GPa) = 42.74880 57.83230 75.40557
#
# Poissons Ratio (x) = 0.44702 0.45629
# Poissons Ratio (y) = 0.33043 0.29593
# Poissons Ratio (z) = 0.25868 0.22696
#
# Static dielectric constant tensor:
#      x y z
#    x 3.442170 0.000000 0.000000 
#    y 0.000000 3.486610 0.000000 
#    z 0.000000 0.000000 3.498070 
# 
# 
# High freq. dielectric constant tensor:
#      x y z
#    x 1.709190 0.000000 0.000000 
#    y 0.000000 1.711190 0.000000 
#    z 0.000000 0.000000 1.710870 
# 
# From -- ./inp_files/21214.got.cif
#   From: 2010.03.12/outbox.cif.g09.slc.cpg/sg59_11_cif.got.tgz:21214.got - 2010.04.16 16:29:54.
