data_PCOD8241290
_publ_section_title
;
Structure prediction by ZEFSAII (Michael W. Deem and Ramdas Pophale) SiO2 
 PCOD8241290
Probable space group: P M M N
;
_chemical_formula_sum "Si O2"
_cell_formula_units_Z 64
_cell_length_a 8.863711
_cell_length_b 19.028434
_cell_length_c 21.351796
_cell_angle_alpha 90.000000
_cell_angle_beta 90.000000
_cell_angle_gamma 90.000000
_cell_volume 3601.248142
_symmetry_space_group_name_H-M "P M M N"
_symmetry_group_IT_number 59
_space_group.IT_coordinate_system_code '2'
_symmetry_cell_setting 'orthorhombic'
loop_
_space_group_symop_operation_xyz
x,y,z
1/2-x,1/2-y,z
1/2+x,-y,-z
-x,1/2+y,-z
-x,-y,-z
1/2+x,1/2+y,-z
1/2-x,y,z
x,1/2-y,z
loop_
_atom_site_type_symbol
_atom_site_label
_atom_site_fract_x
_atom_site_fract_y
_atom_site_fract_z
Si Si1 0.425493 0.330576 0.475518
Si Si2 0.923828 0.332160 0.604690
Si Si3 0.584732 0.863992 0.772214
Si Si4 0.070087 0.973999 0.936108
Si Si5 0.428158 0.058686 0.691968
Si Si6 0.418255 0.977299 0.184277
Si Si7 0.928151 0.581623 0.644542
Si Si8 0.926763 0.325371 0.109372
O O1 0.250000 0.341103 0.491374
O O2 0.457888 0.250000 0.456182
O O3 0.522499 0.353051 0.535335
O O4 0.477533 0.381711 0.419732
O O5 0.750000 0.354416 0.612074
O O6 0.948234 0.250000 0.616417
O O7 0.024949 0.371552 0.655396
O O8 0.750000 0.828819 0.777929
O O9 0.528281 0.863636 0.700272
O O10 0.471760 0.823255 0.817495
O O11 0.594429 0.944245 0.792099
O O12 0.250000 0.977357 0.938753
O O13 0.012225 0.024586 0.880492
O O14 0.007839 0.893726 0.926167
O O15 0.000000 0.000000 0.000000
O O16 0.250000 0.053472 0.698395
O O17 0.496866 0.066171 0.761749
O O18 0.485873 0.991662 0.652752
O O19 0.250000 0.946072 0.172985
O O20 0.750000 0.565961 0.647081
O O21 0.750000 0.331672 0.106766
O O22 0.979073 0.250000 0.079407
#
# Coordination Sequence:
#
# PCOD8241290 Si02
#       8
#     8   8   8   8   8   8   8   8
#     4   9  18  33  51  70  95 129 169 213 259 306
#     4  10  21  37  55  73  95 126 165 209 260 316
#     4   8  15  27  44  67  94 125 159 195 236 283
#     4  10  19  32  52  77 105 137 172 207 246 295
#     4  11  21  33  53  78 102 129 163 207 254 299
#     4   9  17  32  52  74 101 128 158 198 242 290
#     4   9  18  32  49  71 101 134 167 204 248 299
#     4   9  18  31  46  67  97 132 168 205 243 285
#
# _framework density 17.771618
#
# number of rings (size 3 to 8) (size 9 to 14) (size 15 to 20)
#    0.000    2.625    0.000    3.000    0.000    6.000 
#    0.000    1.250    0.000    2.250    0.000    1.750 
#    0.000    0.000    0.000    0.000    0.000    0.000 
#
# Total GULP energy -793281.818018 kJ/mol
# GULP energy per Si atom -12395.028407 kJ/mol
# Density = 1.773117 g / cm^3
# Si number density = 17.771618 Si / 1000 Ang^3
#
#
#
# Elastic Constant Matrix: (Units=GPa)
#
#
# Indices 1 2 3 4 5 6 
#
# 1 76.0477 32.4971 48.1219 0.0000 0.0000 0.0000
# 2 32.4971 67.1870 56.5487 0.0000 0.0000 0.0000
# 3 48.1219 56.5487 132.6063 0.0000 0.0000 0.0000
# 4 0.0000 0.0000 0.0000 15.3248 0.0000 0.0000
# 5 0.0000 0.0000 0.0000 0.0000 32.7791 0.0000
# 6 0.0000 0.0000 0.0000 0.0000 0.0000 20.4813
#
#
#
# Elastic Compliance Matrix: (Units=1/GPa)
#
#
# Indices 1 2 3 4 5 6 
#
# 1 0.018098 -0.005032 -0.004422 0.000000 0.000000 0.000000
# 2 -0.005032 0.024616 -0.008671 0.000000 0.000000 0.000000
# 3 -0.004422 -0.008671 0.012843 0.000000 0.000000 0.000000
# 4 0.000000 0.000000 0.000000 0.065253 0.000000 0.000000
# 5 0.000000 0.000000 0.000000 0.000000 0.030507 0.000000
# 6 0.000000 0.000000 0.000000 0.000000 0.000000 0.048825
#
#
# Mechanical properties :
#
#
# Convention : Reuss Voigt Hill
#
# Bulk Modulus (GPa) = 51.79333 61.13069 56.46201
# Shear Modulus (GPa) = 20.59064 22.96194 21.77629
#
# Velocity S-wave (km/s) = 3.40755 3.59842 3.50428
# Velocity P-wave (km/s) = 6.68498 7.19287 6.94357
#
# Compressibility (1/GPa) = 0.01930750
#
# Stress axis : x y z
#
# Youngs Moduli (GPa) = 55.25473 40.62417 77.86064
#
# Poissons Ratio (x) = 0.20442 0.34428
# Poissons Ratio (y) = 0.27804 0.67514
# Poissons Ratio (z) = 0.24432 0.35226
#
# Static dielectric constant tensor:
#      x y z
#    x 3.369950 0.000000 0.000000 
#    y 0.000000 3.272040 0.000000 
#    z 0.000000 0.000000 3.447070 
# 
# 
# High freq. dielectric constant tensor:
#      x y z
#    x 1.689470 0.000000 0.000000 
#    y 0.000000 1.666750 0.000000 
#    z 0.000000 0.000000 1.681770 
# 
# From -- ./inp_files/29508.got.cif
#   From: 2010.03.12/outbox.cif.g09.slc.cpg/sg59_15_cif.got.tgz:29508.got - 2010.04.16 16:29:54.
