data_PCOD8241729
_publ_section_title
;
Structure prediction by ZEFSAII (Michael W. Deem and Ramdas Pophale) SiO2 
 PCOD8241729
Probable space group: P M M N
;
_chemical_formula_sum "Si O2"
_cell_formula_units_Z 56
_cell_length_a 19.398295
_cell_length_b 9.071648
_cell_length_c 15.948245
_cell_angle_alpha 90.000000
_cell_angle_beta 90.000000
_cell_angle_gamma 90.000000
_cell_volume 2806.484504
_symmetry_space_group_name_H-M "P M M N"
_symmetry_group_IT_number 59
_space_group.IT_coordinate_system_code '2'
_symmetry_cell_setting 'orthorhombic'
loop_
_space_group_symop_operation_xyz
x,y,z
1/2-x,1/2-y,z
1/2+x,-y,-z
-x,1/2+y,-z
-x,-y,-z
1/2+x,1/2+y,-z
1/2-x,y,z
x,1/2-y,z
loop_
_atom_site_type_symbol
_atom_site_label
_atom_site_fract_x
_atom_site_fract_y
_atom_site_fract_z
Si Si1 0.586010 0.077439 0.338556
Si Si2 0.452921 0.079357 0.068133
Si Si3 0.829762 0.421088 0.998322
Si Si4 0.674166 0.424910 0.185509
Si Si5 0.671527 0.079077 0.654136
Si Si6 0.828425 0.576442 0.479612
Si Si7 0.445595 0.419358 0.256928
O O1 0.601636 0.250000 0.351026
O O2 0.622953 0.013525 0.255546
O O3 0.504779 0.048045 0.326009
O O4 0.615114 0.990547 0.417596
O O5 0.455370 0.250000 0.045928
O O6 0.476745 0.050363 0.164017
O O7 0.374820 0.019756 0.063654
O O8 0.500000 0.000000 0.000000
O O9 0.750000 0.451721 0.979440
O O10 0.847531 0.250000 0.984479
O O11 0.849811 0.471396 0.092687
O O12 0.750000 0.489914 0.204233
O O13 0.677098 0.250000 0.188147
O O14 0.750000 0.053433 0.684836
O O15 0.657658 0.250000 0.635878
O O16 0.656089 0.988702 0.570397
O O17 0.620022 0.022706 0.726057
O O18 0.750000 0.536431 0.451480
O O19 0.839343 0.750000 0.483846
O O20 0.421427 0.250000 0.262833
#
# Coordination Sequence:
#
# PCOD8241729 Si02
#       7
#     8   8   8   8   8   8   8
#     4  10  19  33  55  81 110 145 188 230 267 322
#     4  11  23  39  59  82 112 150 192 236 283 338
#     4   9  18  34  56  81 110 145 186 233 286 342
#     4   8  14  27  50  78 108 145 185 224 268 320
#     4  10  22  41  64  87 110 142 188 235 277 328
#     4  10  21  37  58  85 117 150 181 219 273 330
#     4  10  23  40  58  83 113 148 187 229 283 338
#
# _framework density 19.953789
#
# number of rings (size 3 to 8) (size 9 to 14) (size 15 to 20)
#    0.000    2.286    0.000    3.429    0.000    7.714 
#    0.000    5.000    0.000    0.857    0.000    0.000 
#    0.000    0.000    0.000    0.000    0.000    0.000 
#
# Total GULP energy -694364.803316 kJ/mol
# GULP energy per Si atom -12399.371488 kJ/mol
# Density = 1.990837 g / cm^3
# Si number density = 19.953789 Si / 1000 Ang^3
#
#
#
# Elastic Constant Matrix: (Units=GPa)
#
#
# Indices 1 2 3 4 5 6 
#
# 1 94.3611 54.8955 47.6465 0.0000 0.0000 0.0000
# 2 54.8955 90.5925 48.0169 0.0000 0.0000 0.0000
# 3 47.6465 48.0169 77.6924 0.0000 0.0000 0.0000
# 4 0.0000 0.0000 0.0000 31.1903 0.0000 0.0000
# 5 0.0000 0.0000 0.0000 0.0000 38.0709 0.0000
# 6 0.0000 0.0000 0.0000 0.0000 0.0000 32.9273
#
#
#
# Elastic Compliance Matrix: (Units=1/GPa)
#
#
# Indices 1 2 3 4 5 6 
#
# 1 0.018345 -0.007664 -0.006514 0.000000 0.000000 0.000000
# 2 -0.007664 0.019618 -0.007424 0.000000 0.000000 0.000000
# 3 -0.006514 -0.007424 0.021455 0.000000 0.000000 0.000000
# 4 0.000000 0.000000 0.000000 0.032061 0.000000 0.000000
# 5 0.000000 0.000000 0.000000 0.000000 0.026267 0.000000
# 6 0.000000 0.000000 0.000000 0.000000 0.000000 0.030370
#
#
# Mechanical properties :
#
#
# Convention : Reuss Voigt Hill
#
# Bulk Modulus (GPa) = 61.67911 62.64042 62.15976
# Shear Modulus (GPa) = 25.41623 27.91019 26.66321
#
# Velocity S-wave (km/s) = 3.57284 3.74403 3.65944
# Velocity P-wave (km/s) = 6.92808 7.08176 7.00534
#
# Compressibility (1/GPa) = 0.01621295
#
# Stress axis : x y z
#
# Youngs Moduli (GPa) = 54.50984 50.97452 46.60971
#
# Poissons Ratio (x) = 0.39066 0.30362
# Poissons Ratio (y) = 0.41776 0.34605
# Poissons Ratio (z) = 0.35508 0.37846
#
# Static dielectric constant tensor:
#      x y z
#    x 3.730480 0.000000 0.000000 
#    y 0.000000 3.422570 0.000000 
#    z 0.000000 0.000000 3.628880 
# 
# 
# High freq. dielectric constant tensor:
#      x y z
#    x 1.785390 0.000000 0.000000 
#    y 0.000000 1.759170 0.000000 
#    z 0.000000 0.000000 1.776140 
# 
# From -- ./inp_files/24309.got.cif
#   From: 2010.03.12/outbox.cif.g09.slc.cpg/sg59_13_cif.got.tgz:24309.got - 2010.04.16 16:29:54.
