data_PCOD8241498
_publ_section_title
;
Structure prediction by ZEFSAII (Michael W. Deem and Ramdas Pophale) SiO2 
 PCOD8241498
Probable space group: P M M N
;
_chemical_formula_sum "Si O2"
_cell_formula_units_Z 56
_cell_length_a 8.786693
_cell_length_b 24.754244
_cell_length_c 15.292119
_cell_angle_alpha 90.000000
_cell_angle_beta 90.000000
_cell_angle_gamma 90.000000
_cell_volume 3326.157340
_symmetry_space_group_name_H-M "P M M N"
_symmetry_group_IT_number 59
_space_group.IT_coordinate_system_code '2'
_symmetry_cell_setting 'orthorhombic'
loop_
_space_group_symop_operation_xyz
x,y,z
1/2-x,1/2-y,z
1/2+x,-y,-z
-x,1/2+y,-z
-x,-y,-z
1/2+x,1/2+y,-z
1/2-x,y,z
x,1/2-y,z
loop_
_atom_site_type_symbol
_atom_site_label
_atom_site_fract_x
_atom_site_fract_y
_atom_site_fract_z
Si Si1 0.416056 0.750000 0.603746
Si Si2 0.078766 0.563646 0.911660
Si Si3 0.424942 0.566129 0.263512
Si Si4 0.081440 0.750000 0.396596
Si Si5 0.429239 0.139745 0.595708
Si Si6 0.421341 0.064888 0.913992
Si Si7 0.424755 0.438628 0.265936
Si Si8 0.931801 0.365483 0.408491
O O1 0.250000 0.750000 0.647994
O O2 0.402150 0.750000 0.499814
O O3 0.496609 0.692886 0.628206
O O4 0.250000 0.586425 0.906960
O O5 0.080137 0.499425 0.916864
O O6 0.987811 0.583153 0.826274
O O7 0.996992 0.587803 0.997453
O O8 0.250000 0.583415 0.275532
O O9 0.529500 0.593264 0.336099
O O10 0.480611 0.585375 0.168122
O O11 0.446195 0.502362 0.273745
O O12 0.250000 0.750000 0.353682
O O13 0.991635 0.803498 0.366910
O O14 0.250000 0.143976 0.584085
O O15 0.501393 0.122409 0.503611
O O16 0.250000 0.087469 0.906463
O O17 0.250000 0.421317 0.273935
O O18 0.519975 0.412626 0.343974
O O19 0.750000 0.362696 0.416779
#
# Coordination Sequence:
#
# PCOD8241498 Si02
#       8
#     4   8   8   4   8   8   8   8
#     4   7  14  29  49  69  86 111 150 193 233 275
#     4   9  16  27  44  65  90 122 156 190 233 281
#     4  10  20  33  47  66  96 131 162 193 234 285
#     4   9  17  33  53  71  92 119 154 195 239 281
#     4  11  21  33  50  72  96 123 159 200 238 277
#     4   9  16  27  44  66  91 119 154 196 235 273
#     4  10  20  32  46  68  97 127 161 198 235 280
#     4  10  19  33  51  69  93 125 159 196 240 286
#
# _framework density 16.836245999999999
#
# number of rings (size 3 to 8) (size 9 to 14) (size 15 to 20)
#    0.000    2.429    0.000    4.500    0.000    5.714 
#    0.000    1.071    0.000    0.000    0.000    1.000 
#    0.000    1.143    0.000    0.000    0.000    0.000 
#
# Total GULP energy -694216.545052 kJ/mol
# GULP energy per Si atom -12396.724019 kJ/mol
# Density = 1.679793 g / cm^3
# Si number density = 16.836246 Si / 1000 Ang^3
#
#
#
# Elastic Constant Matrix: (Units=GPa)
#
#
# Indices 1 2 3 4 5 6 
#
# 1 116.7625 31.6400 44.3931 0.0000 0.0000 0.0000
# 2 31.6400 40.2133 37.0549 0.0000 0.0000 0.0000
# 3 44.3931 37.0549 108.0381 0.0000 0.0000 0.0000
# 4 0.0000 0.0000 0.0000 0.1266 0.0000 0.0000
# 5 0.0000 0.0000 0.0000 0.0000 32.4681 0.0000
# 6 0.0000 0.0000 0.0000 0.0000 0.0000 20.9109
#
#
#
# Elastic Compliance Matrix: (Units=1/GPa)
#
#
# Indices 1 2 3 4 5 6 
#
# 1 0.011271 -0.006726 -0.002324 0.000000 0.000000 0.000000
# 2 -0.006726 0.040372 -0.011083 0.000000 0.000000 0.000000
# 3 -0.002324 -0.011083 0.014012 0.000000 0.000000 0.000000
# 4 0.000000 0.000000 0.000000 7.899615 0.000000 0.000000
# 5 0.000000 0.000000 0.000000 0.000000 0.030799 0.000000
# 6 0.000000 0.000000 0.000000 0.000000 0.000000 0.047822
#
#
# Mechanical properties :
#
#
# Convention : Reuss Voigt Hill
#
# Bulk Modulus (GPa) = 39.38825 54.57664 46.98245
# Shear Modulus (GPa) = 0.61785 20.82951 10.72368
#
# Velocity S-wave (km/s) = 0.60644 3.52118 2.52650
# Velocity P-wave (km/s) = 4.89245 7.00129 6.03963
#
# Compressibility (1/GPa) = 0.02538828
#
# Stress axis : x y z
#
# Youngs Moduli (GPa) = 88.72569 24.76956 71.36591
#
# Poissons Ratio (x) = 0.16660 0.16587
# Poissons Ratio (y) = 0.59678 0.79095
# Poissons Ratio (z) = 0.20622 0.27452
#
# Static dielectric constant tensor:
#      x y z
#    x 3.308330 0.000000 0.000000 
#    y 0.000000 3.035290 0.000000 
#    z 0.000000 0.000000 3.108730 
# 
# 
# High freq. dielectric constant tensor:
#      x y z
#    x 1.663380 0.000000 0.000000 
#    y 0.000000 1.611010 0.000000 
#    z 0.000000 0.000000 1.640110 
# 
# From -- ./inp_files/21204.got.cif
#   From: 2010.03.12/outbox.cif.g09.slc.cpg/sg59_11_cif.got.tgz:21204.got - 2010.04.16 16:29:54.
