data_PCOD8241001
_publ_section_title
;
Structure prediction by ZEFSAII (Michael W. Deem and Ramdas Pophale) SiO2 
 PCOD8241001
Probable space group: P M M N
;
_chemical_formula_sum "Si O2"
_cell_formula_units_Z 48
_cell_length_a 9.396925
_cell_length_b 18.851432
_cell_length_c 14.784314
_cell_angle_alpha 90.000000
_cell_angle_beta 90.000000
_cell_angle_gamma 90.000000
_cell_volume 2618.974587
_symmetry_space_group_name_H-M "P M M N"
_symmetry_group_IT_number 59
_space_group.IT_coordinate_system_code '2'
_symmetry_cell_setting 'orthorhombic'
loop_
_space_group_symop_operation_xyz
x,y,z
1/2-x,1/2-y,z
1/2+x,-y,-z
-x,1/2+y,-z
-x,-y,-z
1/2+x,1/2+y,-z
1/2-x,y,z
x,1/2-y,z
loop_
_atom_site_type_symbol
_atom_site_label
_atom_site_fract_x
_atom_site_fract_y
_atom_site_fract_z
Si Si1 0.918544 0.080489 0.869658
Si Si2 0.082301 0.667825 0.958587
Si Si3 0.586077 0.593546 0.432181
Si Si4 0.412557 0.830132 0.298010
Si Si5 0.415644 0.423087 0.175134
Si Si6 0.587671 0.958622 0.623713
O O1 0.750000 0.087259 0.868467
O O2 0.976746 0.119737 0.780327
O O3 0.966938 0.998554 0.866729
O O4 0.977558 0.120582 0.958215
O O5 0.250000 0.657788 0.945892
O O6 0.043745 0.750000 0.975332
O O7 0.005085 0.640352 0.868537
O O8 0.750000 0.595766 0.404228
O O9 0.505038 0.660449 0.389063
O O10 0.518625 0.523314 0.389088
O O11 0.567185 0.596212 0.540809
O O12 0.250000 0.849880 0.320592
O O13 0.425155 0.750000 0.263395
O O14 0.250000 0.411081 0.154370
O O15 0.446464 0.419626 0.282341
O O16 0.750000 0.987967 0.625354
#
# Coordination Sequence:
#
# PCOD8241001 Si02
#       6
#     8   8   8   8   8   8
#     4   9  17  33  56  79 102 135 177 218 261 314
#     4  10  21  36  53  76 107 139 173 216 265 315
#     4  10  19  31  51  78 107 136 168 216 267 308
#     4  10  19  33  54  77 106 145 182 215 258 319
#     4  10  19  34  57  80 103 134 176 222 258 307
#     4   9  18  34  54  76 103 136 174 212 256 312
#
# _framework density 18.327783
#
# number of rings (size 3 to 8) (size 9 to 14) (size 15 to 20)
#    0.000    2.333    1.667    1.500    0.000    4.000 
#    0.000    1.667    0.000    7.000    0.000    0.000 
#    0.000    0.000    0.000    0.000    0.000    0.000 
#
# Total GULP energy -595168.545200 kJ/mol
# GULP energy per Si atom -12399.344692 kJ/mol
# Density = 1.828607 g / cm^3
# Si number density = 18.327783 Si / 1000 Ang^3
#
#
#
# Elastic Constant Matrix: (Units=GPa)
#
#
# Indices 1 2 3 4 5 6 
#
# 1 61.6759 28.5180 44.1058 0.0000 0.0000 0.0000
# 2 28.5180 68.4316 41.0939 0.0000 0.0000 0.0000
# 3 44.1058 41.0939 121.7408 0.0000 0.0000 0.0000
# 4 0.0000 0.0000 0.0000 25.2876 0.0000 0.0000
# 5 0.0000 0.0000 0.0000 0.0000 28.5668 0.0000
# 6 0.0000 0.0000 0.0000 0.0000 0.0000 28.0363
#
#
#
# Elastic Compliance Matrix: (Units=1/GPa)
#
#
# Indices 1 2 3 4 5 6 
#
# 1 0.023645 -0.005907 -0.006573 0.000000 0.000000 0.000000
# 2 -0.005907 0.019804 -0.004545 0.000000 0.000000 0.000000
# 3 -0.006573 -0.004545 0.012130 0.000000 0.000000 0.000000
# 4 0.000000 0.000000 0.000000 0.039545 0.000000 0.000000
# 5 0.000000 0.000000 0.000000 0.000000 0.035006 0.000000
# 6 0.000000 0.000000 0.000000 0.000000 0.000000 0.035668
#
#
# Mechanical properties :
#
#
# Convention : Reuss Voigt Hill
#
# Bulk Modulus (GPa) = 46.44685 53.25376 49.85030
# Shear Modulus (GPa) = 24.15188 25.58683 24.86936
#
# Velocity S-wave (km/s) = 3.63405 3.74045 3.68764
# Velocity P-wave (km/s) = 6.55788 6.91188 6.73720
#
# Compressibility (1/GPa) = 0.02152999
#
# Stress axis : x y z
#
# Youngs Moduli (GPa) = 42.29165 50.49477 82.44359
#
# Poissons Ratio (x) = 0.29827 0.54187
# Poissons Ratio (y) = 0.24982 0.37469
# Poissons Ratio (z) = 0.27797 0.22949
#
# Static dielectric constant tensor:
#      x y z
#    x 3.208130 0.000000 0.000000 
#    y 0.000000 3.232490 0.000000 
#    z 0.000000 0.000000 3.588300 
# 
# 
# High freq. dielectric constant tensor:
#      x y z
#    x 1.690410 0.000000 0.000000 
#    y 0.000000 1.694370 0.000000 
#    z 0.000000 0.000000 1.719940 
# 
# From -- ./inp_files/20449.got.cif
#   From: 2010.03.12/outbox.cif.g09.slc.cpg/sg59_11_cif.got.tgz:20449.got - 2010.04.16 16:29:54.
