data_PCOD8241408
_publ_section_title
;
Structure prediction by ZEFSAII (Michael W. Deem and Ramdas Pophale) SiO2 
 PCOD8241408
Probable space group: P M M N
;
_chemical_formula_sum "Si O2"
_cell_formula_units_Z 64
_cell_length_a 24.009820
_cell_length_b 8.820166
_cell_length_c 14.981821
_cell_angle_alpha 90.000000
_cell_angle_beta 90.000000
_cell_angle_gamma 90.000000
_cell_volume 3172.709193
_symmetry_space_group_name_H-M "P M M N"
_symmetry_group_IT_number 59
_space_group.IT_coordinate_system_code '2'
_symmetry_cell_setting 'orthorhombic'
loop_
_space_group_symop_operation_xyz
x,y,z
1/2-x,1/2-y,z
1/2+x,-y,-z
-x,1/2+y,-z
-x,-y,-z
1/2+x,1/2+y,-z
1/2-x,y,z
x,1/2-y,z
loop_
_atom_site_type_symbol
_atom_site_label
_atom_site_fract_x
_atom_site_fract_y
_atom_site_fract_z
Si Si1 0.313821 0.430119 0.016611
Si Si2 0.853486 0.424473 0.458407
Si Si3 0.811977 0.430101 0.643387
Si Si4 0.188637 0.578457 0.724777
Si Si5 0.625184 0.072586 0.818907
Si Si6 0.998247 0.071233 0.774489
Si Si7 0.611597 0.926504 0.143839
Si Si8 0.474103 0.929963 0.587923
O O1 0.250000 0.490977 0.005687
O O2 0.313024 0.250000 0.011355
O O3 0.339317 0.480278 0.109998
O O4 0.355039 0.499667 0.940095
O O5 0.862589 0.250000 0.482341
O O6 0.834793 0.503912 0.550826
O O7 0.807455 0.449031 0.381712
O O8 0.910482 0.486640 0.416122
O O9 0.750000 0.493718 0.661850
O O10 0.809382 0.250000 0.635358
O O11 0.852923 0.479944 0.722316
O O12 0.250000 0.553147 0.764942
O O13 0.167469 0.750000 0.743948
O O14 0.146819 0.459737 0.767860
O O15 0.635708 0.250000 0.835040
O O16 0.559618 0.032334 0.824454
O O17 0.003755 0.250000 0.757506
O O18 0.048663 0.011434 0.838799
O O19 0.998275 0.992681 0.678083
O O20 0.607761 0.750000 0.126861
O O21 0.481120 0.750000 0.587802
O O22 0.500000 0.000000 0.500000
#
# Coordination Sequence:
#
# PCOD8241408 Si02
#       8
#     8   8   8   8   8   8   8   8
#     4  10  22  40  60  83 112 148 190 235 290 356
#     4   9  17  30  48  75 109 143 180 225 277 330
#     4   9  16  28  49  76 106 141 180 225 280 336
#     4  10  19  32  53  82 113 143 182 232 280 330
#     4  10  21  37  58  84 113 145 189 245 295 340
#     4  10  21  38  58  83 115 150 192 241 290 344
#     4  10  21  38  59  81 113 153 190 230 284 347
#     4  11  21  34  54  79 113 155 197 240 285 336
#
# _framework density 20.172034
#
# number of rings (size 3 to 8) (size 9 to 14) (size 15 to 20)
#    0.000    2.125    1.250    2.250    0.000    6.500 
#    0.000    0.000    0.000    0.750    0.000    0.000 
#    0.000    0.000    0.000    0.000    0.000    0.000 
#
# Total GULP energy -793258.827568 kJ/mol
# GULP energy per Si atom -12394.669181 kJ/mol
# Density = 2.012612 g / cm^3
# Si number density = 20.172034 Si / 1000 Ang^3
#
#
#
# Elastic Constant Matrix: (Units=GPa)
#
#
# Indices 1 2 3 4 5 6 
#
# 1 133.8919 18.6637 49.8591 0.0000 0.0000 0.0000
# 2 18.6637 17.8484 13.5269 0.0000 0.0000 0.0000
# 3 49.8591 13.5269 107.9757 0.0000 0.0000 0.0000
# 4 0.0000 0.0000 0.0000 27.9355 0.0000 0.0000
# 5 0.0000 0.0000 0.0000 0.0000 39.0565 0.0000
# 6 0.0000 0.0000 0.0000 0.0000 0.0000 19.0255
#
#
#
# Elastic Compliance Matrix: (Units=1/GPa)
#
#
# Indices 1 2 3 4 5 6 
#
# 1 0.009869 -0.007587 -0.003607 0.000000 0.000000 0.000000
# 2 -0.007587 0.067737 -0.004983 0.000000 0.000000 0.000000
# 3 -0.003607 -0.004983 0.011551 0.000000 0.000000 0.000000
# 4 0.000000 0.000000 0.000000 0.035797 0.000000 0.000000
# 5 0.000000 0.000000 0.000000 0.000000 0.025604 0.000000
# 6 0.000000 0.000000 0.000000 0.000000 0.000000 0.052561
#
#
# Mechanical properties :
#
#
# Convention : Reuss Voigt Hill
#
# Bulk Modulus (GPa) = 17.60405 47.09059 32.34732
# Shear Modulus (GPa) = 19.65356 29.04792 24.35074
#
# Velocity S-wave (km/s) = 3.12476 3.79886 3.47818
# Velocity P-wave (km/s) = 4.66527 6.52970 5.67458
#
# Compressibility (1/GPa) = 0.05680510
#
# Stress axis : x y z
#
# Youngs Moduli (GPa) = 101.32346 14.76296 86.57199
#
# Poissons Ratio (x) = 0.11200 0.31225
# Poissons Ratio (y) = 0.76871 0.43136
# Poissons Ratio (z) = 0.36546 0.07356
#
# Static dielectric constant tensor:
#      x y z
#    x 4.206500 0.000000 0.000000 
#    y 0.000000 3.244340 0.000000 
#    z 0.000000 0.000000 3.693850 
# 
# 
# High freq. dielectric constant tensor:
#      x y z
#    x 1.805370 0.000000 0.000000 
#    y 0.000000 1.742030 0.000000 
#    z 0.000000 0.000000 1.791530 
# 
# From -- ./inp_files/24645.got.cif
#   From: 2010.03.12/outbox.cif.g09.slc.cpg/sg59_13_cif.got.tgz:24645.got - 2010.04.16 16:29:54.
