data_PCOD8241689
_publ_section_title
;
Structure prediction by ZEFSAII (Michael W. Deem and Ramdas Pophale) SiO2 
 PCOD8241689
Probable space group: P M M N
;
_chemical_formula_sum "Si O2"
_cell_formula_units_Z 56
_cell_length_a 8.732897
_cell_length_b 20.562256
_cell_length_c 16.019363
_cell_angle_alpha 90.000000
_cell_angle_beta 90.000000
_cell_angle_gamma 90.000000
_cell_volume 2876.565996
_symmetry_space_group_name_H-M "P M M N"
_symmetry_group_IT_number 59
_space_group.IT_coordinate_system_code '2'
_symmetry_cell_setting 'orthorhombic'
loop_
_space_group_symop_operation_xyz
x,y,z
1/2-x,1/2-y,z
1/2+x,-y,-z
-x,1/2+y,-z
-x,-y,-z
1/2+x,1/2+y,-z
1/2-x,y,z
x,1/2-y,z
loop_
_atom_site_type_symbol
_atom_site_label
_atom_site_fract_x
_atom_site_fract_y
_atom_site_fract_z
Si Si1 0.068299 0.496085 0.908589
Si Si2 0.426792 0.076825 0.436736
Si Si3 0.071241 0.048898 0.623368
Si Si4 0.578150 0.325514 0.329721
Si Si5 0.931219 0.109670 0.786069
Si Si6 0.068601 0.750000 0.154616
Si Si7 0.067022 0.750000 0.967045
Si Si8 0.931328 0.136258 0.149988
O O1 0.250000 0.490446 0.913455
O O2 0.015181 0.562524 0.864043
O O3 0.004423 0.434976 0.857708
O O4 0.000000 0.500000 0.000000
O O5 0.250000 0.058430 0.428181
O O6 0.474615 0.078676 0.533731
O O7 0.465983 0.146994 0.400469
O O8 0.523414 0.026443 0.380429
O O9 0.250000 0.054341 0.643903
O O10 0.980484 0.087267 0.694319
O O11 0.750000 0.354587 0.338113
O O12 0.582864 0.250000 0.344652
O O13 0.505937 0.341676 0.239670
O O14 0.750000 0.104168 0.795085
O O15 0.987317 0.184413 0.798410
O O16 0.250000 0.750000 0.150320
O O17 0.001079 0.750000 0.060757
O O18 0.250000 0.750000 0.967810
O O19 0.003895 0.685264 0.920632
O O20 0.750000 0.142484 0.149043
#
# Coordination Sequence:
#
# PCOD8241689 Si02
#       8
#     8   8   8   8   8   4   4   8
#     4  11  22  36  56  85 119 155 197 246 297 349
#     4  10  21  37  59  85 114 150 190 236 290 346
#     4  10  21  39  61  85 112 147 192 237 290 353
#     4  10  19  33  54  84 117 151 193 236 283 343
#     4  11  22  39  61  87 116 150 196 246 299 353
#     4   9  20  36  57  82 109 146 194 243 289 349
#     4   9  14  28  52  76 105 144 190 231 273 327
#     4   9  17  30  52  80 110 145 188 234 280 337
#
# _framework density 19.467658
#
# number of rings (size 3 to 8) (size 9 to 14) (size 15 to 20)
#    0.000    2.000    0.714    3.429    0.000    5.429 
#    1.286    2.143    0.000    0.000    0.000    0.000 
#    0.000    0.000    0.000    0.000    0.000    0.000 
#
# Total GULP energy -694400.757589 kJ/mol
# GULP energy per Si atom -12400.013528 kJ/mol
# Density = 1.942335 g / cm^3
# Si number density = 19.467658 Si / 1000 Ang^3
#
#
#
# Elastic Constant Matrix: (Units=GPa)
#
#
# Indices 1 2 3 4 5 6 
#
# 1 50.2650 38.4882 34.4849 0.0000 0.0000 0.0000
# 2 38.4882 139.5631 71.7397 0.0000 0.0000 0.0000
# 3 34.4849 71.7397 131.6158 0.0000 0.0000 0.0000
# 4 0.0000 0.0000 0.0000 36.8122 0.0000 0.0000
# 5 0.0000 0.0000 0.0000 0.0000 30.3892 0.0000
# 6 0.0000 0.0000 0.0000 0.0000 0.0000 26.9161
#
#
#
# Elastic Compliance Matrix: (Units=1/GPa)
#
#
# Indices 1 2 3 4 5 6 
#
# 1 0.026760 -0.005245 -0.004152 0.000000 0.000000 0.000000
# 2 -0.005245 0.010982 -0.004612 0.000000 0.000000 0.000000
# 3 -0.004152 -0.004612 0.011200 0.000000 0.000000 0.000000
# 4 0.000000 0.000000 0.000000 0.027165 0.000000 0.000000
# 5 0.000000 0.000000 0.000000 0.000000 0.032906 0.000000
# 6 0.000000 0.000000 0.000000 0.000000 0.000000 0.037152
#
#
# Mechanical properties :
#
#
# Convention : Reuss Voigt Hill
#
# Bulk Modulus (GPa) = 47.79474 67.87438 57.83456
# Shear Modulus (GPa) = 27.60014 30.60557 29.10286
#
# Velocity S-wave (km/s) = 3.76938 3.96930 3.87063
# Velocity P-wave (km/s) = 6.59912 7.47984 7.05324
#
# Compressibility (1/GPa) = 0.02092280
#
# Stress axis : x y z
#
# Youngs Moduli (GPa) = 37.36968 91.05513 89.28897
#
# Poissons Ratio (x) = 0.47761 0.37076
# Poissons Ratio (y) = 0.19601 0.41178
# Poissons Ratio (z) = 0.15517 0.41993
#
# Static dielectric constant tensor:
#      x y z
#    x 3.329420 0.000000 0.000000 
#    y 0.000000 3.686740 0.000000 
#    z 0.000000 0.000000 3.471230 
# 
# 
# High freq. dielectric constant tensor:
#      x y z
#    x 1.732960 0.000000 0.000000 
#    y 0.000000 1.764340 0.000000 
#    z 0.000000 0.000000 1.767700 
# 
# From -- ./inp_files/21153.got.cif
#   From: 2010.03.12/outbox.cif.g09.slc.cpg/sg59_11_cif.got.tgz:21153.got - 2010.04.16 16:29:54.
