data_PCOD8241832
_publ_section_title
;
Structure prediction by ZEFSAII (Michael W. Deem and Ramdas Pophale) SiO2 
 PCOD8241832
Probable space group: P M M N
;
_chemical_formula_sum "Si O2"
_cell_formula_units_Z 48
_cell_length_a 13.843521
_cell_length_b 20.448879
_cell_length_c 8.496989
_cell_angle_alpha 90.000000
_cell_angle_beta 90.000000
_cell_angle_gamma 90.000000
_cell_volume 2405.365762
_symmetry_space_group_name_H-M "P M M N"
_symmetry_group_IT_number 59
_space_group.IT_coordinate_system_code '2'
_symmetry_cell_setting 'orthorhombic'
loop_
_space_group_symop_operation_xyz
x,y,z
1/2-x,1/2-y,z
1/2+x,-y,-z
-x,1/2+y,-z
-x,-y,-z
1/2+x,1/2+y,-z
1/2-x,y,z
x,1/2-y,z
loop_
_atom_site_type_symbol
_atom_site_label
_atom_site_fract_x
_atom_site_fract_y
_atom_site_fract_z
Si Si1 0.643764 0.827041 0.029882
Si Si2 0.050016 0.673156 0.199484
Si Si3 0.522071 0.601568 0.470733
Si Si4 0.362768 0.549333 0.061094
Si Si5 0.470155 0.514652 0.749622
Si Si6 0.137775 0.320578 0.307898
O O1 0.750000 0.854910 0.080818
O O2 0.652900 0.750000 0.006790
O O3 0.609801 0.855870 0.859039
O O4 0.561447 0.843802 0.155039
O O5 0.077038 0.750000 0.178075
O O6 0.119241 0.627017 0.094369
O O7 0.054080 0.650098 0.381844
O O8 0.471010 0.574606 0.628153
O O9 0.563767 0.547226 0.353043
O O10 0.613843 0.640255 0.535031
O O11 0.250000 0.533816 0.085370
O O12 0.424147 0.503566 0.179516
O O13 0.392697 0.531196 0.883625
O O14 0.250000 0.309524 0.304231
O O15 0.085104 0.250000 0.319026
#
# Coordination Sequence:
#
# PCOD8241832 Si02
#       6
#     8   8   8   8   8   8
#     4   8  15  29  48  72 106 145 181 217 261 320
#     4  10  20  34  56  84 113 147 184 226 278 333
#     4  10  19  34  53  77 113 141 171 224 280 334
#     4  10  21  40  62  80 106 143 189 238 272 320
#     4   9  21  39  57  81 106 140 187 228 278 326
#     4   9  17  28  45  73 107 142 177 215 268 331
#
# _framework density 19.955386000000001
#
# number of rings (size 3 to 8) (size 9 to 14) (size 15 to 20)
#    0.000    2.667    0.000    2.500    0.000    2.333 
#    0.000   19.167    0.000    0.000    0.000    0.000 
#    0.000    0.000    0.000    0.000    0.000    0.000 
#
# Total GULP energy -594655.472143 kJ/mol
# GULP energy per Si atom -12388.655670 kJ/mol
# Density = 1.990997 g / cm^3
# Si number density = 19.955386 Si / 1000 Ang^3
#
#
#
# Elastic Constant Matrix: (Units=GPa)
#
#
# Indices 1 2 3 4 5 6 
#
# 1 85.5401 25.7484 35.4844 0.0000 0.0000 0.0000
# 2 25.7484 72.7177 38.5701 0.0000 0.0000 0.0000
# 3 35.4844 38.5701 109.5964 0.0000 0.0000 0.0000
# 4 0.0000 0.0000 0.0000 34.2981 0.0000 0.0000
# 5 0.0000 0.0000 0.0000 0.0000 20.5876 0.0000
# 6 0.0000 0.0000 0.0000 0.0000 0.0000 21.9611
#
#
#
# Elastic Compliance Matrix: (Units=1/GPa)
#
#
# Indices 1 2 3 4 5 6 
#
# 1 0.014069 -0.003154 -0.003445 0.000000 0.000000 0.000000
# 2 -0.003154 0.017615 -0.005178 0.000000 0.000000 0.000000
# 3 -0.003445 -0.005178 0.012062 0.000000 0.000000 0.000000
# 4 0.000000 0.000000 0.000000 0.029156 0.000000 0.000000
# 5 0.000000 0.000000 0.000000 0.000000 0.048573 0.000000
# 6 0.000000 0.000000 0.000000 0.000000 0.000000 0.045535
#
#
# Mechanical properties :
#
#
# Convention : Reuss Voigt Hill
#
# Bulk Modulus (GPa) = 49.52586 51.93998 50.73292
# Shear Modulus (GPa) = 25.34266 26.57278 25.95772
#
# Velocity S-wave (km/s) = 3.56752 3.65308 3.61056
# Velocity P-wave (km/s) = 6.46852 6.62404 6.54674
#
# Compressibility (1/GPa) = 0.02019147
#
# Stress axis : x y z
#
# Youngs Moduli (GPa) = 71.07813 56.76921 82.90438
#
# Poissons Ratio (x) = 0.17907 0.28561
# Poissons Ratio (y) = 0.22421 0.42928
# Poissons Ratio (z) = 0.24487 0.29395
#
# Static dielectric constant tensor:
#      x y z
#    x 3.277250 0.000000 0.000000 
#    y 0.000000 3.778990 0.000000 
#    z 0.000000 0.000000 3.943380 
# 
# 
# High freq. dielectric constant tensor:
#      x y z
#    x 1.730420 0.000000 0.000000 
#    y 0.000000 1.785020 0.000000 
#    z 0.000000 0.000000 1.791950 
# 
# From -- ./inp_files/9223.got.cif
#   From: 2010.03.12/outbox.cif.g09.slc.cpg/sg59_5_cif.got.tgz:9223.got - 2010.04.16 16:29:54.
