data_PCOD8241479
_publ_section_title
;
Structure prediction by ZEFSAII (Michael W. Deem and Ramdas Pophale) SiO2 
 PCOD8241479
Probable space group: P M M N
;
_chemical_formula_sum "Si O2"
_cell_formula_units_Z 46
_cell_length_a 11.556605
_cell_length_b 21.504836
_cell_length_c 9.367116
_cell_angle_alpha 90.000000
_cell_angle_beta 90.000000
_cell_angle_gamma 90.000000
_cell_volume 2327.942788
_symmetry_space_group_name_H-M "P M M N"
_symmetry_group_IT_number 59
_space_group.IT_coordinate_system_code '2'
_symmetry_cell_setting 'orthorhombic'
loop_
_space_group_symop_operation_xyz
x,y,z
1/2-x,1/2-y,z
1/2+x,-y,-z
-x,1/2+y,-z
-x,-y,-z
1/2+x,1/2+y,-z
1/2-x,y,z
x,1/2-y,z
loop_
_atom_site_type_symbol
_atom_site_label
_atom_site_fract_x
_atom_site_fract_y
_atom_site_fract_z
Si Si1 0.383459 0.867188 0.183321
Si Si2 0.995709 0.250000 0.308349
Si Si3 0.621500 0.056289 0.377197
Si Si4 0.881690 0.250000 0.612883
Si Si5 0.549776 0.918043 0.382216
Si Si6 0.250000 0.250000 0.348500
Si Si7 0.618517 0.356921 0.134693
Si Si8 0.750000 0.678883 0.386294
O O1 0.250000 0.887619 0.174295
O O2 0.403420 0.808481 0.285574
O O3 0.458040 0.922698 0.252161
O O4 0.434214 0.855941 0.024442
O O5 0.130830 0.250000 0.262066
O O6 0.971855 0.250000 0.480206
O O7 0.943988 0.189312 0.240044
O O8 0.750000 0.077762 0.429616
O O9 0.524028 0.090598 0.472024
O O10 0.605892 0.075854 0.211068
O O11 0.618652 0.982130 0.389552
O O12 0.750000 0.250000 0.553020
O O13 0.635393 0.860506 0.348940
O O14 0.250000 0.312913 0.443399
O O15 0.750000 0.334714 0.120912
O O16 0.750000 0.750000 0.316476
#
# Coordination Sequence:
#
# PCOD8241479 Si02
#       8
#     8   4   8   4   8   2   8   4
#     4  10  21  36  56  86 115 150 193 245 302 360
#     4  12  21  37  58  86 116 154 194 239 303 354
#     4  10  21  38  60  89 117 152 204 253 300 358
#     4  10  19  32  57  85 111 139 189 244 293 352
#     4  11  21  37  62  85 118 157 201 249 298 354
#     4  10  22  32  54  78 118 148 188 234 280 358
#     4  10  21  37  59  83 117 151 191 248 306 354
#     4  10  22  38  57  90 121 159 196 244 301 358
#
# _framework density 19.759936
#
# number of rings (size 3 to 8) (size 9 to 14) (size 15 to 20)
#    0.261    1.391    0.870    4.957    1.217    4.870 
#    0.000    0.870    0.000    0.000    0.000    0.000 
#    0.000    0.000    0.000    0.000    0.000    0.000 
#
# Total GULP energy -570096.806538 kJ/mol
# GULP energy per Si atom -12393.408838 kJ/mol
# Density = 1.971496 g / cm^3
# Si number density = 19.759936 Si / 1000 Ang^3
#
#
#
# Elastic Constant Matrix: (Units=GPa)
#
#
# Indices 1 2 3 4 5 6 
#
# 1 97.7323 35.6782 44.5083 0.0000 0.0000 0.0000
# 2 35.6782 65.9485 30.9181 0.0000 0.0000 0.0000
# 3 44.5083 30.9181 129.4126 0.0000 0.0000 0.0000
# 4 0.0000 0.0000 0.0000 21.3235 0.0000 0.0000
# 5 0.0000 0.0000 0.0000 0.0000 17.2329 0.0000
# 6 0.0000 0.0000 0.0000 0.0000 0.0000 18.1147
#
#
#
# Elastic Compliance Matrix: (Units=1/GPa)
#
#
# Indices 1 2 3 4 5 6 
#
# 1 0.013944 -0.005963 -0.003371 0.000000 0.000000 0.000000
# 2 -0.005963 0.019626 -0.002638 0.000000 0.000000 0.000000
# 3 -0.003371 -0.002638 0.009517 0.000000 0.000000 0.000000
# 4 0.000000 0.000000 0.000000 0.046897 0.000000 0.000000
# 5 0.000000 0.000000 0.000000 0.000000 0.058028 0.000000
# 6 0.000000 0.000000 0.000000 0.000000 0.000000 0.055204
#
#
# Mechanical properties :
#
#
# Convention : Reuss Voigt Hill
#
# Bulk Modulus (GPa) = 52.23975 57.25585 54.74780
# Shear Modulus (GPa) = 21.40942 23.46681 22.43812
#
# Velocity S-wave (km/s) = 3.29519 3.44989 3.37343
# Velocity P-wave (km/s) = 6.40096 6.70131 6.55286
#
# Compressibility (1/GPa) = 0.01914251
#
# Stress axis : x y z
#
# Youngs Moduli (GPa) = 71.71409 50.95204 105.07678
#
# Poissons Ratio (x) = 0.30385 0.35422
# Poissons Ratio (y) = 0.42766 0.27719
# Poissons Ratio (z) = 0.24175 0.13441
#
# Static dielectric constant tensor:
#      x y z
#    x 3.666760 0.000000 0.000000 
#    y 0.000000 3.537770 0.000000 
#    z 0.000000 0.000000 3.561350 
# 
# 
# High freq. dielectric constant tensor:
#      x y z
#    x 1.774730 0.000000 0.000000 
#    y 0.000000 1.764490 0.000000 
#    z 0.000000 0.000000 1.755090 
# 
# From -- ./inp_files/7631.got.cif
#   From: 2010.03.12/outbox.cif.g09.slc.cpg/sg59_4_cif.got.tgz:7631.got - 2010.04.16 16:29:54.
