data_PCOD8241212
_publ_section_title
;
Structure prediction by ZEFSAII (Michael W. Deem and Ramdas Pophale) SiO2 
 PCOD8241212
Probable space group: P M M N
;
_chemical_formula_sum "Si O2"
_cell_formula_units_Z 56
_cell_length_a 22.805301
_cell_length_b 15.900704
_cell_length_c 8.437508
_cell_angle_alpha 90.000000
_cell_angle_beta 90.000000
_cell_angle_gamma 90.000000
_cell_volume 3059.612027
_symmetry_space_group_name_H-M "P M M N"
_symmetry_group_IT_number 59
_space_group.IT_coordinate_system_code '2'
_symmetry_cell_setting 'orthorhombic'
loop_
_space_group_symop_operation_xyz
x,y,z
1/2-x,1/2-y,z
1/2+x,-y,-z
-x,1/2+y,-z
-x,-y,-z
1/2+x,1/2+y,-z
1/2-x,y,z
x,1/2-y,z
loop_
_atom_site_type_symbol
_atom_site_label
_atom_site_fract_x
_atom_site_fract_y
_atom_site_fract_z
Si Si1 0.610622 0.036286 0.461406
Si Si2 0.615664 0.409678 0.968935
Si Si3 0.580870 0.559037 0.764702
Si Si4 0.182915 0.347000 0.084005
Si Si5 0.183299 0.472935 0.814652
Si Si6 0.037136 0.653482 0.760589
Si Si7 0.816941 0.155083 0.676520
O O1 0.640750 0.973364 0.336515
O O2 0.563515 0.096498 0.378533
O O3 0.660681 0.093007 0.540902
O O4 0.577405 0.978319 0.588065
O O5 0.576489 0.483599 0.891520
O O6 0.644481 0.352298 0.834629
O O7 0.668235 0.448275 0.072863
O O8 0.573936 0.353025 0.077537
O O9 0.642511 0.607690 0.785745
O O10 0.528613 0.623497 0.795645
O O11 0.250000 0.360273 0.139282
O O12 0.165842 0.250000 0.071509
O O13 0.172967 0.386340 0.909752
O O14 0.250000 0.481850 0.757700
O O15 0.036327 0.750000 0.704289
O O16 0.750000 0.131440 0.716024
O O17 0.822104 0.250000 0.612441
#
# Coordination Sequence:
#
# PCOD8241212 Si02
#       7
#     8   8   8   8   8   8   8
#     4  10  21  34  50  74 104 137 172 206 245 303
#     4   9  19  33  52  76 100 130 172 214 251 298
#     4  10  20  35  55  75 101 136 173 209 253 307
#     4   9  18  34  55  79 104 129 165 214 261 301
#     4   9  17  31  52  75 101 134 165 199 247 302
#     4  11  21  35  53  73 101 134 171 214 259 302
#     4  10  19  32  51  76 106 137 170 210 253 294
#
# _framework density 18.302973999999999
#
# number of rings (size 3 to 8) (size 9 to 14) (size 15 to 20)
#    0.000    2.286    0.000    3.000    0.000    4.000 
#    0.000    1.429    0.000    8.571    0.000    0.000 
#    0.000    0.000    0.000    0.000    0.000    0.000 
#
# Total GULP energy -694529.866992 kJ/mol
# GULP energy per Si atom -12402.319053 kJ/mol
# Density = 1.826132 g / cm^3
# Si number density = 18.302974 Si / 1000 Ang^3
#
#
#
# Elastic Constant Matrix: (Units=GPa)
#
#
# Indices 1 2 3 4 5 6 
#
# 1 95.4175 39.5177 31.0700 0.0000 0.0000 0.0000
# 2 39.5177 89.8746 26.0993 0.0000 0.0000 0.0000
# 3 31.0700 26.0993 78.9187 0.0000 0.0000 0.0000
# 4 0.0000 0.0000 0.0000 17.8454 0.0000 0.0000
# 5 0.0000 0.0000 0.0000 0.0000 20.3751 0.0000
# 6 0.0000 0.0000 0.0000 0.0000 0.0000 29.9445
#
#
#
# Elastic Compliance Matrix: (Units=1/GPa)
#
#
# Indices 1 2 3 4 5 6 
#
# 1 0.013763 -0.004954 -0.003780 0.000000 0.000000 0.000000
# 2 -0.004954 0.014092 -0.002710 0.000000 0.000000 0.000000
# 3 -0.003780 -0.002710 0.015056 0.000000 0.000000 0.000000
# 4 0.000000 0.000000 0.000000 0.056037 0.000000 0.000000
# 5 0.000000 0.000000 0.000000 0.000000 0.049080 0.000000
# 6 0.000000 0.000000 0.000000 0.000000 0.000000 0.033395
#
#
# Mechanical properties :
#
#
# Convention : Reuss Voigt Hill
#
# Bulk Modulus (GPa) = 49.94380 50.84275 50.39327
# Shear Modulus (GPa) = 23.69853 24.80126 24.24989
#
# Velocity S-wave (km/s) = 3.60222 3.68508 3.64389
# Velocity P-wave (km/s) = 6.68191 6.77828 6.73027
#
# Compressibility (1/GPa) = 0.02002251
#
# Stress axis : x y z
#
# Youngs Moduli (GPa) = 72.65994 70.96355 66.41999
#
# Poissons Ratio (x) = 0.35153 0.25107
# Poissons Ratio (y) = 0.35994 0.18000
# Poissons Ratio (z) = 0.27466 0.19231
#
# Static dielectric constant tensor:
#      x y z
#    x 3.334370 0.000000 0.000000 
#    y 0.000000 3.306690 0.000000 
#    z 0.000000 0.000000 3.334840 
# 
# 
# High freq. dielectric constant tensor:
#      x y z
#    x 1.713260 0.000000 0.000000 
#    y 0.000000 1.707000 0.000000 
#    z 0.000000 0.000000 1.704550 
# 
# From -- ./inp_files/11545.got.cif
#   From: 2010.03.12/outbox.cif.g09.slc.cpg/sg59_6_cif.got.tgz:11545.got - 2010.04.16 16:29:54.
