data_PCOD8241668
_publ_section_title
;
Structure prediction by ZEFSAII (Michael W. Deem and Ramdas Pophale) SiO2 
 PCOD8241668
Probable space group: P M M N
;
_chemical_formula_sum "Si O2"
_cell_formula_units_Z 48
_cell_length_a 14.469400
_cell_length_b 10.196543
_cell_length_c 16.766004
_cell_angle_alpha 90.000000
_cell_angle_beta 90.000000
_cell_angle_gamma 90.000000
_cell_volume 2473.620339
_symmetry_space_group_name_H-M "P M M N"
_symmetry_group_IT_number 59
_space_group.IT_coordinate_system_code '2'
_symmetry_cell_setting 'orthorhombic'
loop_
_space_group_symop_operation_xyz
x,y,z
1/2-x,1/2-y,z
1/2+x,-y,-z
-x,1/2+y,-z
-x,-y,-z
1/2+x,1/2+y,-z
1/2-x,y,z
x,1/2-y,z
loop_
_atom_site_type_symbol
_atom_site_label
_atom_site_fract_x
_atom_site_fract_y
_atom_site_fract_z
Si Si1 0.506457 0.902118 0.426641
Si Si2 0.144828 0.601417 0.985696
Si Si3 0.651229 0.401456 0.688480
Si Si4 0.050435 0.894877 0.826262
Si Si5 0.857427 0.900523 0.292125
Si Si6 0.353505 0.034355 0.151651
O O1 0.488925 0.750000 0.452640
O O2 0.431230 0.959845 0.364104
O O3 0.605550 0.913531 0.382789
O O4 0.500000 0.000000 0.500000
O O5 0.250000 0.586963 0.956940
O O6 0.120498 0.750000 0.008264
O O7 0.081687 0.552007 0.912891
O O8 0.126297 0.516588 0.063553
O O9 0.750000 0.463955 0.661477
O O10 0.651760 0.250000 0.670307
O O11 0.639669 0.418702 0.783372
O O12 0.093578 0.750000 0.809091
O O13 0.939127 0.872139 0.825840
O O14 0.085148 0.000606 0.762862
O O15 0.750000 0.938796 0.291104
O O16 0.872924 0.750000 0.262665
O O17 0.250000 0.100239 0.155262
#
# Coordination Sequence:
#
# PCOD8241668 Si02
#       6
#     8   8   8   8   8   8
#     4  10  21  38  59  86 116 145 182 231 283 344
#     4   9  18  32  52  81 114 150 195 243 288 337
#     4   9  17  32  56  83 109 142 186 233 276 326
#     4  11  22  36  56  84 120 157 194 239 289 338
#     4  10  22  41  63  86 115 153 196 238 282 338
#     4  10  19  33  54  80 113 153 196 238 284 337
#
# _framework density 19.404757
#
# number of rings (size 3 to 8) (size 9 to 14) (size 15 to 20)
#    0.000    2.167    1.667    1.500    0.000    5.333 
#    0.000    0.833    0.000    1.000    0.000    0.000 
#    0.000    0.000    0.000    0.000    0.000    0.000 
#
# Total GULP energy -594642.905682 kJ/mol
# GULP energy per Si atom -12388.393868 kJ/mol
# Density = 1.936059 g / cm^3
# Si number density = 19.404757 Si / 1000 Ang^3
#
#
#
# Elastic Constant Matrix: (Units=GPa)
#
#
# Indices 1 2 3 4 5 6 
#
# 1 124.6618 36.2980 48.2018 0.0000 0.0000 0.0000
# 2 36.2980 79.3912 51.7910 0.0000 0.0000 0.0000
# 3 48.2018 51.7910 114.2732 0.0000 0.0000 0.0000
# 4 0.0000 0.0000 0.0000 24.0948 0.0000 0.0000
# 5 0.0000 0.0000 0.0000 0.0000 28.4590 0.0000
# 6 0.0000 0.0000 0.0000 0.0000 0.0000 13.2973
#
#
#
# Elastic Compliance Matrix: (Units=1/GPa)
#
#
# Indices 1 2 3 4 5 6 
#
# 1 0.009941 -0.002569 -0.003029 0.000000 0.000000 0.000000
# 2 -0.002569 0.018547 -0.007322 0.000000 0.000000 0.000000
# 3 -0.003029 -0.007322 0.013347 0.000000 0.000000 0.000000
# 4 0.000000 0.000000 0.000000 0.041503 0.000000 0.000000
# 5 0.000000 0.000000 0.000000 0.000000 0.035138 0.000000
# 6 0.000000 0.000000 0.000000 0.000000 0.000000 0.075203
#
#
# Mechanical properties :
#
#
# Convention : Reuss Voigt Hill
#
# Bulk Modulus (GPa) = 62.52047 65.65643 64.08845
# Shear Modulus (GPa) = 22.23688 25.30590 23.77139
#
# Velocity S-wave (km/s) = 3.38886 3.61516 3.50384
# Velocity P-wave (km/s) = 6.89939 7.16481 7.03335
#
# Compressibility (1/GPa) = 0.01599476
#
# Stress axis : x y z
#
# Youngs Moduli (GPa) = 100.59466 53.91656 74.92247
#
# Poissons Ratio (x) = 0.13852 0.22692
# Poissons Ratio (y) = 0.25845 0.54860
# Poissons Ratio (z) = 0.30468 0.39479
#
# Static dielectric constant tensor:
#      x y z
#    x 4.125370 0.000000 0.000000 
#    y 0.000000 3.229020 0.000000 
#    z 0.000000 0.000000 3.418970 
# 
# 
# High freq. dielectric constant tensor:
#      x y z
#    x 1.775550 0.000000 0.000000 
#    y 0.000000 1.727880 0.000000 
#    z 0.000000 0.000000 1.743980 
# 
# From -- ./inp_files/22378.got.cif
#   From: 2010.03.12/outbox.cif.g09.slc.cpg/sg59_12_cif.got.tgz:22378.got - 2010.04.16 16:29:54.
