data_PCOD8241225
_publ_section_title
;
Structure prediction by ZEFSAII (Michael W. Deem and Ramdas Pophale) SiO2 
 PCOD8241225
Probable space group: P M M N
;
_chemical_formula_sum "Si O2"
_cell_formula_units_Z 64
_cell_length_a 17.625173
_cell_length_b 17.421376
_cell_length_c 11.569386
_cell_angle_alpha 90.000000
_cell_angle_beta 90.000000
_cell_angle_gamma 90.000000
_cell_volume 3552.435110
_symmetry_space_group_name_H-M "P M M N"
_symmetry_group_IT_number 59
_space_group.IT_coordinate_system_code '2'
_symmetry_cell_setting 'orthorhombic'
loop_
_space_group_symop_operation_xyz
x,y,z
1/2-x,1/2-y,z
1/2+x,-y,-z
-x,1/2+y,-z
-x,-y,-z
1/2+x,1/2+y,-z
1/2-x,y,z
x,1/2-y,z
loop_
_atom_site_type_symbol
_atom_site_label
_atom_site_fract_x
_atom_site_fract_y
_atom_site_fract_z
Si Si1 0.833626 0.521187 0.785687
Si Si2 0.450223 0.959783 0.363384
Si Si3 0.971743 0.160400 0.997635
Si Si4 0.957937 0.880564 0.528258
Si Si5 0.663554 0.054656 0.027398
Si Si6 0.335222 0.162806 0.648761
Si Si7 0.073091 0.061773 0.820169
Si Si8 0.560847 0.834779 0.772471
O O1 0.750000 0.528954 0.734726
O O2 0.874129 0.452606 0.713132
O O3 0.872789 0.603353 0.769468
O O4 0.832977 0.501848 0.919370
O O5 0.470134 0.883072 0.438054
O O6 0.517737 0.977567 0.272781
O O7 0.437601 0.030778 0.449314
O O8 0.973254 0.250000 0.961040
O O9 0.884848 0.130628 0.995477
O O10 0.000541 0.147433 0.128081
O O11 0.024539 0.110536 0.912814
O O12 0.885349 0.843141 0.467146
O O13 0.979808 0.836435 0.645955
O O14 0.750000 0.077607 0.063859
O O15 0.620397 0.007630 0.125909
O O16 0.250000 0.134011 0.620586
O O17 0.334188 0.250000 0.690288
O O18 0.367693 0.116548 0.756903
O O19 0.595808 0.750000 0.792432
#
# Coordination Sequence:
#
# PCOD8241225 Si02
#       8
#     8   8   8   8   8   8   8   8
#     4  10  19  32  51  78 109 142 176 217 271 325
#     4   9  18  32  53  76 101 136 180 234 261 311
#     4  11  22  36  57  82 110 145 182 228 279 328
#     4   9  18  32  51  73 101 141 183 218 268 308
#     4  11  21  34  55  81 111 144 177 222 274 328
#     4  10  21  35  52  77 111 146 179 219 266 321
#     4  11  19  36  58  80 108 142 182 225 274 322
#     4  10  20  34  53  80 110 144 183 221 267 330
#
# _framework density 18.015809999999998
#
# number of rings (size 3 to 8) (size 9 to 14) (size 15 to 20)
#    0.000    1.875    2.500    3.000    0.000    2.500 
#    0.000    0.000    0.000    0.750    0.000    0.000 
#    0.000    0.000    0.000    0.000    0.000    0.000 
#
# Total GULP energy -793173.612837 kJ/mol
# GULP energy per Si atom -12393.337701 kJ/mol
# Density = 1.797481 g / cm^3
# Si number density = 18.015810 Si / 1000 Ang^3
#
#
#
# Elastic Constant Matrix: (Units=GPa)
#
#
# Indices 1 2 3 4 5 6 
#
# 1 115.5428 42.0157 30.9436 0.0000 0.0000 0.0000
# 2 42.0157 58.5461 18.1276 0.0000 0.0000 0.0000
# 3 30.9436 18.1276 81.3735 0.0000 0.0000 0.0000
# 4 0.0000 0.0000 0.0000 26.4446 0.0000 0.0000
# 5 0.0000 0.0000 0.0000 0.0000 16.8780 0.0000
# 6 0.0000 0.0000 0.0000 0.0000 0.0000 25.1331
#
#
#
# Elastic Compliance Matrix: (Units=1/GPa)
#
#
# Indices 1 2 3 4 5 6 
#
# 1 0.012324 -0.007941 -0.002917 0.000000 0.000000 0.000000
# 2 -0.007941 0.023463 -0.002207 0.000000 0.000000 0.000000
# 3 -0.002917 -0.002207 0.013890 0.000000 0.000000 0.000000
# 4 0.000000 0.000000 0.000000 0.037815 0.000000 0.000000
# 5 0.000000 0.000000 0.000000 0.000000 0.059249 0.000000
# 6 0.000000 0.000000 0.000000 0.000000 0.000000 0.039788
#
#
# Mechanical properties :
#
#
# Convention : Reuss Voigt Hill
#
# Bulk Modulus (GPa) = 42.47030 48.62623 45.54827
# Shear Modulus (GPa) = 22.67495 24.64949 23.66222
#
# Velocity S-wave (km/s) = 3.55154 3.70295 3.62804
# Velocity P-wave (km/s) = 6.35948 6.73290 6.54885
#
# Compressibility (1/GPa) = 0.02354587
#
# Stress axis : x y z
#
# Youngs Moduli (GPa) = 81.14466 42.62082 71.99392
#
# Poissons Ratio (x) = 0.33844 0.21003
# Poissons Ratio (y) = 0.64436 0.15890
# Poissons Ratio (z) = 0.23672 0.09407
#
# Static dielectric constant tensor:
#      x y z
#    x 3.481480 0.000000 0.000000 
#    y 0.000000 3.296370 0.000000 
#    z 0.000000 0.000000 3.651900 
# 
# 
# High freq. dielectric constant tensor:
#      x y z
#    x 1.684830 0.000000 0.000000 
#    y 0.000000 1.683640 0.000000 
#    z 0.000000 0.000000 1.713770 
# 
# From -- ./inp_files/17185.got.cif
#   From: 2010.03.12/outbox.cif.g09.slc.cpg/sg59_9_cif.got.tgz:17185.got - 2010.04.16 16:29:54.
