data_PCOD8241072
_publ_section_title
;
Structure prediction by ZEFSAII (Michael W. Deem and Ramdas Pophale) SiO2 
 PCOD8241072
Probable space group: P M M N
;
_chemical_formula_sum "Si O2"
_cell_formula_units_Z 56
_cell_length_a 12.919021
_cell_length_b 18.109642
_cell_length_c 14.315285
_cell_angle_alpha 90.000000
_cell_angle_beta 90.000000
_cell_angle_gamma 90.000000
_cell_volume 3349.187549
_symmetry_space_group_name_H-M "P M M N"
_symmetry_group_IT_number 59
_space_group.IT_coordinate_system_code '2'
_symmetry_cell_setting 'orthorhombic'
loop_
_space_group_symop_operation_xyz
x,y,z
1/2-x,1/2-y,z
1/2+x,-y,-z
-x,1/2+y,-z
-x,-y,-z
1/2+x,1/2+y,-z
1/2-x,y,z
x,1/2-y,z
loop_
_atom_site_type_symbol
_atom_site_label
_atom_site_fract_x
_atom_site_fract_y
_atom_site_fract_z
Si Si1 0.055305 0.451476 0.621034
Si Si2 0.370382 0.331934 0.069416
Si Si3 0.366260 0.066501 0.912962
Si Si4 0.133214 0.167768 0.740499
Si Si5 0.544024 0.663954 0.732771
Si Si6 0.631081 0.055706 0.224842
Si Si7 0.370511 0.050800 0.412918
O O1 0.053910 0.372892 0.671618
O O2 0.126085 0.507941 0.680160
O O3 0.106313 0.437437 0.521170
O O4 0.937116 0.480021 0.619282
O O5 0.250000 0.329695 0.043860
O O6 0.418652 0.250000 0.048291
O O7 0.381931 0.349259 0.178770
O O8 0.420908 0.398798 0.006408
O O9 0.250000 0.042361 0.937611
O O10 0.368804 0.134775 0.843055
O O11 0.415569 0.993857 0.862161
O O12 0.250000 0.163314 0.699755
O O13 0.091695 0.250000 0.748094
O O14 0.530619 0.750000 0.707441
O O15 0.432734 0.630709 0.761809
O O16 0.594113 0.623378 0.643905
O O17 0.750000 0.077199 0.206716
O O18 0.250000 0.034578 0.395219
#
# Coordination Sequence:
#
# PCOD8241072 Si02
#       7
#     8   8   8   8   8   8   8
#     4   9  18  31  48  69  89 112 145 181 221 268
#     4   9  16  27  42  61  90 122 147 180 227 273
#     4   8  14  25  43  66  88 113 147 184 225 268
#     4   9  15  24  42  69  95 113 136 178 227 268
#     4  10  21  32  43  65  93 122 156 186 220 271
#     4   9  17  31  49  67  89 116 149 191 231 269
#     4  10  19  32  49  65  86 118 150 181 217 259
#
# _framework density 16.720472999999998
#
# number of rings (size 3 to 8) (size 9 to 14) (size 15 to 20)
#    0.000    2.857    0.000    3.000    0.000    4.000 
#    0.000    0.000    0.000    0.429    0.000    0.000 
#    0.000    4.571    0.000    0.000    0.000    1.429 
#
# Total GULP energy -693789.029222 kJ/mol
# GULP energy per Si atom -12389.089808 kJ/mol
# Density = 1.668242 g / cm^3
# Si number density = 16.720473 Si / 1000 Ang^3
#
#
#
# Elastic Constant Matrix: (Units=GPa)
#
#
# Indices 1 2 3 4 5 6 
#
# 1 62.0868 33.1425 12.5583 0.0000 0.0000 0.0000
# 2 33.1425 86.3513 34.3572 0.0000 0.0000 0.0000
# 3 12.5583 34.3572 81.0615 0.0000 0.0000 0.0000
# 4 0.0000 0.0000 0.0000 20.6918 0.0000 0.0000
# 5 0.0000 0.0000 0.0000 0.0000 18.6173 0.0000
# 6 0.0000 0.0000 0.0000 0.0000 0.0000 17.6742
#
#
#
# Elastic Compliance Matrix: (Units=1/GPa)
#
#
# Indices 1 2 3 4 5 6 
#
# 1 0.020259 -0.007851 0.000189 0.000000 0.000000 0.000000
# 2 -0.007851 0.016972 -0.005977 0.000000 0.000000 0.000000
# 3 0.000189 -0.005977 0.014840 0.000000 0.000000 0.000000
# 4 0.000000 0.000000 0.000000 0.048328 0.000000 0.000000
# 5 0.000000 0.000000 0.000000 0.000000 0.053713 0.000000
# 6 0.000000 0.000000 0.000000 0.000000 0.000000 0.056579
#
#
# Mechanical properties :
#
#
# Convention : Reuss Voigt Hill
#
# Bulk Modulus (GPa) = 40.33336 43.29062 41.81199
# Shear Modulus (GPa) = 20.30576 21.35944 20.83260
#
# Velocity S-wave (km/s) = 3.48864 3.57801 3.53361
# Velocity P-wave (km/s) = 6.35626 6.55870 6.45827
#
# Compressibility (1/GPa) = 0.02479337
#
# Stress axis : x y z
#
# Youngs Moduli (GPa) = 49.36047 58.92051 67.38357
#
# Poissons Ratio (x) = 0.46258 -0.01273
# Poissons Ratio (y) = 0.38752 0.40276
# Poissons Ratio (z) = -0.00932 0.35218
#
# Static dielectric constant tensor:
#      x y z
#    x 2.898210 0.000000 0.000000 
#    y 0.000000 3.190580 0.000000 
#    z 0.000000 0.000000 3.257680 
# 
# 
# High freq. dielectric constant tensor:
#      x y z
#    x 1.608960 0.000000 0.000000 
#    y 0.000000 1.639860 0.000000 
#    z 0.000000 0.000000 1.652840 
# 
# From -- ./inp_files/23422.got.cif
#   From: 2010.03.12/outbox.cif.g09.slc.cpg/sg59_12_cif.got.tgz:23422.got - 2010.04.16 16:29:54.
