data_PCOD8241954
_publ_section_title
;
Structure prediction by ZEFSAII (Michael W. Deem and Ramdas Pophale) SiO2 
 PCOD8241954
Probable space group: P M M N
;
_chemical_formula_sum "Si O2"
_cell_formula_units_Z 64
_cell_length_a 22.721692
_cell_length_b 8.453957
_cell_length_c 17.672822
_cell_angle_alpha 90.000000
_cell_angle_beta 90.000000
_cell_angle_gamma 90.000000
_cell_volume 3394.740693
_symmetry_space_group_name_H-M "P M M N"
_symmetry_group_IT_number 59
_space_group.IT_coordinate_system_code '2'
_symmetry_cell_setting 'orthorhombic'
loop_
_space_group_symop_operation_xyz
x,y,z
1/2-x,1/2-y,z
1/2+x,-y,-z
-x,1/2+y,-z
-x,-y,-z
1/2+x,1/2+y,-z
1/2-x,y,z
x,1/2-y,z
loop_
_atom_site_type_symbol
_atom_site_label
_atom_site_fract_x
_atom_site_fract_y
_atom_site_fract_z
Si Si1 0.868203 0.064719 0.907909
Si Si2 0.008226 0.065457 0.083039
Si Si3 0.454905 0.063924 0.666649
Si Si4 0.588421 0.064428 0.648280
Si Si5 0.183807 0.432888 0.237064
Si Si6 0.685011 0.435901 0.065327
Si Si7 0.565074 0.564532 0.496403
Si Si8 0.593894 0.566069 0.178660
O O1 0.883125 0.250000 0.913334
O O2 0.926132 0.964707 0.887980
O O3 0.822956 0.033111 0.840094
O O4 0.843648 0.998892 0.987826
O O5 0.991571 0.250000 0.087047
O O6 0.966170 0.962824 0.134962
O O7 0.000000 0.000000 0.000000
O O8 0.462956 0.250000 0.676081
O O9 0.522359 0.997023 0.665601
O O10 0.416844 0.025906 0.590696
O O11 0.416787 0.997245 0.736727
O O12 0.592974 0.250000 0.662268
O O13 0.636404 0.980955 0.700303
O O14 0.603867 0.024306 0.560111
O O15 0.250000 0.465285 0.267760
O O16 0.174925 0.250000 0.217197
O O17 0.750000 0.510278 0.074367
O O18 0.689682 0.250000 0.057714
O O19 0.647720 0.477257 0.139315
O O20 0.500000 0.500000 0.500000
O O21 0.567373 0.750000 0.513171
O O22 0.609370 0.750000 0.179541
#
# Coordination Sequence:
#
# PCOD8241954 Si02
#       8
#     8   8   8   8   8   8   8   8
#     4  11  22  38  59  80 106 142 183 228 278 330
#     4  12  23  36  54  80 111 144 180 224 276 329
#     4   8  17  32  52  81 112 141 174 216 270 328
#     4  10  19  34  56  81 111 145 181 222 274 334
#     4  11  24  39  55  79 111 147 190 235 277 329
#     4  10  22  39  56  74 101 140 183 226 274 324
#     4   9  16  30  52  79 112 143 174 214 263 324
#     4  11  21  35  56  81 109 143 182 225 271 324
#
# _framework density 18.852692000000001
#
# number of rings (size 3 to 8) (size 9 to 14) (size 15 to 20)
#    0.000    1.750    1.250    4.875    0.000    3.250 
#    0.000    6.875    0.000    0.750    0.000    1.750 
#    0.000    0.000    0.000    0.000    0.000    0.000 
#
# Total GULP energy -793376.724656 kJ/mol
# GULP energy per Si atom -12396.511323 kJ/mol
# Density = 1.880978 g / cm^3
# Si number density = 18.852692 Si / 1000 Ang^3
#
#
#
# Elastic Constant Matrix: (Units=GPa)
#
#
# Indices 1 2 3 4 5 6 
#
# 1 98.6577 9.1043 45.4881 0.0000 0.0000 0.0000
# 2 9.1043 34.3698 9.4958 0.0000 0.0000 0.0000
# 3 45.4881 9.4958 142.2986 0.0000 0.0000 0.0000
# 4 0.0000 0.0000 0.0000 29.0864 0.0000 0.0000
# 5 0.0000 0.0000 0.0000 0.0000 20.9114 0.0000
# 6 0.0000 0.0000 0.0000 0.0000 0.0000 24.5203
#
#
#
# Elastic Compliance Matrix: (Units=1/GPa)
#
#
# Indices 1 2 3 4 5 6 
#
# 1 0.012045 -0.002167 -0.003706 0.000000 0.000000 0.000000
# 2 -0.002167 0.030032 -0.001311 0.000000 0.000000 0.000000
# 3 -0.003706 -0.001311 0.008300 0.000000 0.000000 0.000000
# 4 0.000000 0.000000 0.000000 0.034380 0.000000 0.000000
# 5 0.000000 0.000000 0.000000 0.000000 0.047821 0.000000
# 6 0.000000 0.000000 0.000000 0.000000 0.000000 0.040783
#
#
# Mechanical properties :
#
#
# Convention : Reuss Voigt Hill
#
# Bulk Modulus (GPa) = 27.77152 44.83360 36.30256
# Shear Modulus (GPa) = 25.03384 28.98615 27.00999
#
# Velocity S-wave (km/s) = 3.64794 3.92536 3.78919
# Velocity P-wave (km/s) = 5.70141 6.66162 6.20013
#
# Compressibility (1/GPa) = 0.03600812
#
# Stress axis : x y z
#
# Youngs Moduli (GPa) = 83.02500 33.29832 120.48830
#
# Poissons Ratio (x) = 0.07215 0.44649
# Poissons Ratio (y) = 0.17989 0.15801
# Poissons Ratio (z) = 0.30766 0.04367
#
# Static dielectric constant tensor:
#      x y z
#    x 3.136760 0.000000 0.000000 
#    y 0.000000 3.421590 0.000000 
#    z 0.000000 0.000000 3.915470 
# 
# 
# High freq. dielectric constant tensor:
#      x y z
#    x 1.706570 0.000000 0.000000 
#    y 0.000000 1.728260 0.000000 
#    z 0.000000 0.000000 1.742790 
# 
# From -- ./inp_files/26274.got.cif
#   From: 2010.03.12/outbox.cif.g09.slc.cpg/sg59_14_cif.got.tgz:26274.got - 2010.04.16 16:29:54.
