data_PCOD8241111
_publ_section_title
;
Structure prediction by ZEFSAII (Michael W. Deem and Ramdas Pophale) SiO2 
 PCOD8241111
Probable space group: P M M N
;
_chemical_formula_sum "Si O2"
_cell_formula_units_Z 56
_cell_length_a 21.357118
_cell_length_b 9.440398
_cell_length_c 16.612527
_cell_angle_alpha 90.000000
_cell_angle_beta 90.000000
_cell_angle_gamma 90.000000
_cell_volume 3349.412611
_symmetry_space_group_name_H-M "P M M N"
_symmetry_group_IT_number 59
_space_group.IT_coordinate_system_code '2'
_symmetry_cell_setting 'orthorhombic'
loop_
_space_group_symop_operation_xyz
x,y,z
1/2-x,1/2-y,z
1/2+x,-y,-z
-x,1/2+y,-z
-x,-y,-z
1/2+x,1/2+y,-z
1/2-x,y,z
x,1/2-y,z
loop_
_atom_site_type_symbol
_atom_site_label
_atom_site_fract_x
_atom_site_fract_y
_atom_site_fract_z
Si Si1 0.587518 0.910465 0.484626
Si Si2 0.818824 0.415130 0.044327
Si Si3 0.443086 0.913891 0.038489
Si Si4 0.495399 0.587541 0.206564
Si Si5 0.533821 0.413905 0.616042
Si Si6 0.882582 0.415399 0.208524
Si Si7 0.821780 0.912494 0.348497
O O1 0.578233 0.750000 0.512891
O O2 0.533614 0.953362 0.420950
O O3 0.653027 0.933650 0.439108
O O4 0.586702 0.004100 0.565316
O O5 0.750000 0.482983 0.024293
O O6 0.815020 0.250000 0.025911
O O7 0.832394 0.442605 0.138293
O O8 0.875963 0.477812 0.990617
O O9 0.449708 0.750000 0.010536
O O10 0.444540 0.925962 0.135411
O O11 0.500000 0.000000 0.000000
O O12 0.519128 0.750000 0.215441
O O13 0.464709 0.537579 0.290772
O O14 0.552858 0.487902 0.182338
O O15 0.549662 0.250000 0.608222
O O16 0.894525 0.250000 0.223039
O O17 0.858184 0.483916 0.289879
O O18 0.750000 0.955962 0.348993
O O19 0.832415 0.750000 0.320764
#
# Coordination Sequence:
#
# PCOD8241111 Si02
#       7
#     8   8   8   8   8   8   8
#     4   9  17  30  47  68  92 122 159 193 232 282
#     4   9  18  32  48  70 101 133 165 202 244 293
#     4  10  19  32  52  74  98 131 167 207 250 296
#     4  10  19  32  50  72 101 131 162 203 250 298
#     4   9  17  30  47  67  93 122 153 196 243 283
#     4  11  20  30  48  73 102 133 165 201 245 293
#     4  10  20  34  50  69  99 135 165 195 237 293
#
# _framework density 16.719349999999999
#
# number of rings (size 3 to 8) (size 9 to 14) (size 15 to 20)
#    0.000    2.286    2.857    0.857    0.000    2.000 
#    0.000    0.000    0.000    2.143    0.000    2.000 
#    0.000    0.000    0.000    0.000    0.000    0.000 
#
# Total GULP energy -694257.022995 kJ/mol
# GULP energy per Si atom -12397.446839 kJ/mol
# Density = 1.668130 g / cm^3
# Si number density = 16.719350 Si / 1000 Ang^3
#
#
#
# Elastic Constant Matrix: (Units=GPa)
#
#
# Indices 1 2 3 4 5 6 
#
# 1 95.2476 33.3544 42.2390 0.0000 0.0000 0.0000
# 2 33.3544 51.9913 32.6645 0.0000 0.0000 0.0000
# 3 42.2390 32.6645 95.2384 0.0000 0.0000 0.0000
# 4 0.0000 0.0000 0.0000 22.1344 0.0000 0.0000
# 5 0.0000 0.0000 0.0000 0.0000 20.8713 0.0000
# 6 0.0000 0.0000 0.0000 0.0000 0.0000 18.2046
#
#
#
# Elastic Compliance Matrix: (Units=1/GPa)
#
#
# Indices 1 2 3 4 5 6 
#
# 1 0.014752 -0.006824 -0.004202 0.000000 0.000000 0.000000
# 2 -0.006824 0.027673 -0.006465 0.000000 0.000000 0.000000
# 3 -0.004202 -0.006465 0.014581 0.000000 0.000000 0.000000
# 4 0.000000 0.000000 0.000000 0.045179 0.000000 0.000000
# 5 0.000000 0.000000 0.000000 0.000000 0.047913 0.000000
# 6 0.000000 0.000000 0.000000 0.000000 0.000000 0.054931
#
#
# Mechanical properties :
#
#
# Convention : Reuss Voigt Hill
#
# Bulk Modulus (GPa) = 45.40397 50.99924 48.20160
# Shear Modulus (GPa) = 20.21406 21.19002 20.70204
#
# Velocity S-wave (km/s) = 3.48087 3.56391 3.52264
# Velocity P-wave (km/s) = 6.58565 6.89236 6.74075
#
# Compressibility (1/GPa) = 0.02202451
#
# Stress axis : x y z
#
# Youngs Moduli (GPa) = 67.78677 36.13574 68.58235
#
# Poissons Ratio (x) = 0.24659 0.28820
# Poissons Ratio (y) = 0.46257 0.44338
# Poissons Ratio (z) = 0.28486 0.23361
#
# Static dielectric constant tensor:
#      x y z
#    x 3.222640 0.000000 0.000000 
#    y 0.000000 3.083040 0.000000 
#    z 0.000000 0.000000 3.223390 
# 
# 
# High freq. dielectric constant tensor:
#      x y z
#    x 1.624300 0.000000 0.000000 
#    y 0.000000 1.631980 0.000000 
#    z 0.000000 0.000000 1.643460 
# 
# From -- ./inp_files/26095.got.cif
#   From: 2010.03.12/outbox.cif.g09.slc.cpg/sg59_14_cif.got.tgz:26095.got - 2010.04.16 16:29:54.
