data_PCOD8241222
_publ_section_title
;
Structure prediction by ZEFSAII (Michael W. Deem and Ramdas Pophale) SiO2 
 PCOD8241222
Probable space group: P M M N
;
_chemical_formula_sum "Si O2"
_cell_formula_units_Z 64
_cell_length_a 23.717688
_cell_length_b 8.764439
_cell_length_c 15.137654
_cell_angle_alpha 90.000000
_cell_angle_beta 90.000000
_cell_angle_gamma 90.000000
_cell_volume 3146.697889
_symmetry_space_group_name_H-M "P M M N"
_symmetry_group_IT_number 59
_space_group.IT_coordinate_system_code '2'
_symmetry_cell_setting 'orthorhombic'
loop_
_space_group_symop_operation_xyz
x,y,z
1/2-x,1/2-y,z
1/2+x,-y,-z
-x,1/2+y,-z
-x,-y,-z
1/2+x,1/2+y,-z
1/2-x,y,z
x,1/2-y,z
loop_
_atom_site_type_symbol
_atom_site_label
_atom_site_fract_x
_atom_site_fract_y
_atom_site_fract_z
Si Si1 0.021719 0.578232 0.087902
Si Si2 0.650114 0.423039 0.956467
Si Si3 0.374779 0.931361 0.684494
Si Si4 0.313576 0.568413 0.858388
Si Si5 0.609029 0.430959 0.630442
Si Si6 0.684965 0.569423 0.479537
Si Si7 0.810940 0.429493 0.779014
Si Si8 0.007113 0.068729 0.716563
O O1 0.999496 0.750000 0.084846
O O2 0.088156 0.568300 0.082324
O O3 0.002466 0.505992 0.182521
O O4 0.000000 0.500000 0.000000
O O5 0.669941 0.250000 0.971992
O O6 0.686680 0.500222 0.878052
O O7 0.660015 0.503138 0.051188
O O8 0.375613 0.750000 0.675370
O O9 0.352328 0.990463 0.778917
O O10 0.331259 0.999055 0.614327
O O11 0.438034 0.993752 0.672952
O O12 0.250000 0.507445 0.847413
O O13 0.314673 0.750000 0.857699
O O14 0.616379 0.250000 0.619253
O O15 0.636952 0.509339 0.545974
O O16 0.642776 0.498326 0.714227
O O17 0.544118 0.475565 0.649888
O O18 0.750000 0.520862 0.503129
O O19 0.680472 0.750000 0.474923
O O20 0.750000 0.464620 0.737356
O O21 0.822634 0.250000 0.788608
O O22 0.012978 0.250000 0.719966
#
# Coordination Sequence:
#
# PCOD8241222 Si02
#       8
#     8   8   8   8   8   8   8   8
#     4  10  19  32  51  77 114 157 200 243 288 346
#     4   9  15  26  45  74 111 147 182 226 283 342
#     4  11  23  39  61  87 115 153 203 254 299 350
#     4   9  17  29  48  78 114 148 187 241 297 342
#     4  10  20  37  61  89 118 152 195 243 290 344
#     4  11  25  44  65  90 119 153 191 235 297 366
#     4   9  15  25  47  79 111 143 181 225 276 333
#     4  10  21  38  58  84 122 160 197 245 303 360
#
# _framework density 20.338781999999998
#
# number of rings (size 3 to 8) (size 9 to 14) (size 15 to 20)
#    0.000    2.125    1.250    2.625    0.000    6.000 
#    0.000    0.000    0.000    0.000    0.000    0.000 
#    0.000    5.000    0.000    0.000    0.000    0.000 
#
# Total GULP energy -793056.728364 kJ/mol
# GULP energy per Si atom -12391.511381 kJ/mol
# Density = 2.029249 g / cm^3
# Si number density = 20.338782 Si / 1000 Ang^3
#
#
#
# Elastic Constant Matrix: (Units=GPa)
#
#
# Indices 1 2 3 4 5 6 
#
# 1 101.9960 26.1831 41.4187 0.0000 0.0000 0.0000
# 2 26.1831 38.0052 20.4277 0.0000 0.0000 0.0000
# 3 41.4187 20.4277 107.4324 0.0000 0.0000 0.0000
# 4 0.0000 0.0000 0.0000 19.9103 0.0000 0.0000
# 5 0.0000 0.0000 0.0000 0.0000 40.5716 0.0000
# 6 0.0000 0.0000 0.0000 0.0000 0.0000 21.5384
#
#
#
# Elastic Compliance Matrix: (Units=1/GPa)
#
#
# Indices 1 2 3 4 5 6 
#
# 1 0.013123 -0.007041 -0.003720 0.000000 0.000000 0.000000
# 2 -0.007041 0.033085 -0.003577 0.000000 0.000000 0.000000
# 3 -0.003720 -0.003577 0.011423 0.000000 0.000000 0.000000
# 4 0.000000 0.000000 0.000000 0.050225 0.000000 0.000000
# 5 0.000000 0.000000 0.000000 0.000000 0.024648 0.000000
# 6 0.000000 0.000000 0.000000 0.000000 0.000000 0.046429
#
#
# Mechanical properties :
#
#
# Convention : Reuss Voigt Hill
#
# Bulk Modulus (GPa) = 34.53653 47.05473 40.79563
# Shear Modulus (GPa) = 23.01400 27.03101 25.02250
#
# Velocity S-wave (km/s) = 3.36748 3.64955 3.51135
# Velocity P-wave (km/s) = 5.66898 6.39880 6.04492
#
# Compressibility (1/GPa) = 0.02895485
#
# Stress axis : x y z
#
# Youngs Moduli (GPa) = 76.20486 30.22493 87.54607
#
# Poissons Ratio (x) = 0.21281 0.32570
# Poissons Ratio (y) = 0.53655 0.31311
# Poissons Ratio (z) = 0.28351 0.10810
#
# Static dielectric constant tensor:
#      x y z
#    x 3.621600 0.000000 0.000000 
#    y 0.000000 2.966520 0.000000 
#    z 0.000000 0.000000 3.959460 
# 
# 
# High freq. dielectric constant tensor:
#      x y z
#    x 1.808430 0.000000 0.000000 
#    y 0.000000 1.739160 0.000000 
#    z 0.000000 0.000000 1.810690 
# 
# From -- ./inp_files/24753.got.cif
#   From: 2010.03.12/outbox.cif.g09.slc.cpg/sg59_13_cif.got.tgz:24753.got - 2010.04.16 16:29:54.
