data_PCOD8241207
_publ_section_title
;
Structure prediction by ZEFSAII (Michael W. Deem and Ramdas Pophale) SiO2 
 PCOD8241207
Probable space group: P M M N
;
_chemical_formula_sum "Si O2"
_cell_formula_units_Z 64
_cell_length_a 9.501409
_cell_length_b 18.150991
_cell_length_c 19.977340
_cell_angle_alpha 90.000000
_cell_angle_beta 90.000000
_cell_angle_gamma 90.000000
_cell_volume 3445.291842
_symmetry_space_group_name_H-M "P M M N"
_symmetry_group_IT_number 59
_space_group.IT_coordinate_system_code '2'
_symmetry_cell_setting 'orthorhombic'
loop_
_space_group_symop_operation_xyz
x,y,z
1/2-x,1/2-y,z
1/2+x,-y,-z
-x,1/2+y,-z
-x,-y,-z
1/2+x,1/2+y,-z
1/2-x,y,z
x,1/2-y,z
loop_
_atom_site_type_symbol
_atom_site_label
_atom_site_fract_x
_atom_site_fract_y
_atom_site_fract_z
Si Si1 0.407824 0.583897 0.547840
Si Si2 0.583607 0.668240 0.894563
Si Si3 0.413837 0.165469 0.851530
Si Si4 0.087337 0.589849 0.258500
Si Si5 0.910438 0.331293 0.327865
Si Si6 0.413298 0.948981 0.404303
Si Si7 0.087311 0.423135 0.230286
Si Si8 0.416128 0.426560 0.981064
O O1 0.250000 0.550668 0.552102
O O2 0.419928 0.657891 0.591713
O O3 0.511569 0.525421 0.580679
O O4 0.440667 0.602598 0.469669
O O5 0.750000 0.673026 0.889223
O O6 0.517624 0.750000 0.887198
O O7 0.525277 0.615215 0.836215
O O8 0.539463 0.635108 0.965470
O O9 0.250000 0.154949 0.836123
O O10 0.444772 0.250000 0.873330
O O11 0.498016 0.148340 0.783606
O O12 0.460500 0.108423 0.909812
O O13 0.250000 0.613767 0.255018
O O14 0.032315 0.589297 0.335819
O O15 0.064028 0.510120 0.225004
O O16 0.750000 0.340123 0.303380
O O17 0.967638 0.250000 0.310678
O O18 0.004080 0.392850 0.293475
O O19 0.250000 0.967687 0.392582
O O20 0.250000 0.403634 0.240979
O O21 0.250000 0.444133 0.983966
O O22 0.500000 0.500000 0.000000
#
# Coordination Sequence:
#
# PCOD8241207 Si02
#       8
#     8   8   8   8   8   8   8   8
#     4   9  17  30  49  72  99 134 174 216 266 319
#     4   9  17  30  50  74  99 131 169 205 245 296
#     4  10  22  39  58  81 110 145 183 222 268 324
#     4  10  20  34  54  81 109 137 175 223 269 315
#     4  10  20  32  46  69 104 141 175 213 261 317
#     4   9  17  31  51  75 101 129 171 223 267 312
#     4  10  19  32  51  76 104 134 172 215 255 307
#     4  10  20  36  58  81 105 134 172 218 262 310
#
# _framework density 18.576074999999999
#
# number of rings (size 3 to 8) (size 9 to 14) (size 15 to 20)
#    0.000    2.375    1.250    1.500    0.000    5.000 
#    0.000    1.250    0.000    4.125    0.000    0.000 
#    0.000    0.000    0.000    0.000    0.000    0.000 
#
# Total GULP energy -793294.673480 kJ/mol
# GULP energy per Si atom -12395.229273 kJ/mol
# Density = 1.853379 g / cm^3
# Si number density = 18.576075 Si / 1000 Ang^3
#
#
#
# Elastic Constant Matrix: (Units=GPa)
#
#
# Indices 1 2 3 4 5 6 
#
# 1 44.4400 29.9552 35.1586 0.0000 0.0000 0.0000
# 2 29.9552 73.4481 36.5193 0.0000 0.0000 0.0000
# 3 35.1586 36.5193 132.7170 0.0000 0.0000 0.0000
# 4 0.0000 0.0000 0.0000 25.1785 0.0000 0.0000
# 5 0.0000 0.0000 0.0000 0.0000 26.7893 0.0000
# 6 0.0000 0.0000 0.0000 0.0000 0.0000 21.5442
#
#
#
# Elastic Compliance Matrix: (Units=1/GPa)
#
#
# Indices 1 2 3 4 5 6 
#
# 1 0.034918 -0.011170 -0.006177 0.000000 0.000000 0.000000
# 2 -0.011170 0.019346 -0.002364 0.000000 0.000000 0.000000
# 3 -0.006177 -0.002364 0.009822 0.000000 0.000000 0.000000
# 4 0.000000 0.000000 0.000000 0.039716 0.000000 0.000000
# 5 0.000000 0.000000 0.000000 0.000000 0.037328 0.000000
# 6 0.000000 0.000000 0.000000 0.000000 0.000000 0.046416
#
#
# Mechanical properties :
#
#
# Convention : Reuss Voigt Hill
#
# Bulk Modulus (GPa) = 40.54483 50.43013 45.48748
# Shear Modulus (GPa) = 21.25939 24.63387 22.94663
#
# Velocity S-wave (km/s) = 3.38664 3.64553 3.51847
# Velocity P-wave (km/s) = 6.09641 6.70273 6.40675
#
# Compressibility (1/GPa) = 0.02466405
#
# Stress axis : x y z
#
# Youngs Moduli (GPa) = 28.63849 51.68975 101.81520
#
# Poissons Ratio (x) = 0.57737 0.62888
# Poissons Ratio (y) = 0.31989 0.24073
# Poissons Ratio (z) = 0.17689 0.12221
#
# Static dielectric constant tensor:
#      x y z
#    x 3.224890 0.000000 0.000000 
#    y 0.000000 3.333530 0.000000 
#    z 0.000000 0.000000 3.673480 
# 
# 
# High freq. dielectric constant tensor:
#      x y z
#    x 1.699910 0.000000 0.000000 
#    y 0.000000 1.704440 0.000000 
#    z 0.000000 0.000000 1.737060 
# 
# From -- ./inp_files/29523.got.cif
#   From: 2010.03.12/outbox.cif.g09.slc.cpg/sg59_15_cif.got.tgz:29523.got - 2010.04.16 16:29:54.
