data_PCOD8241474
_publ_section_title
;
Structure prediction by ZEFSAII (Michael W. Deem and Ramdas Pophale) SiO2 
 PCOD8241474
Probable space group: P M M N
;
_chemical_formula_sum "Si O2"
_cell_formula_units_Z 56
_cell_length_a 15.767254
_cell_length_b 19.310373
_cell_length_c 9.367687
_cell_angle_alpha 90.000000
_cell_angle_beta 90.000000
_cell_angle_gamma 90.000000
_cell_volume 2852.194236
_symmetry_space_group_name_H-M "P M M N"
_symmetry_group_IT_number 59
_space_group.IT_coordinate_system_code '2'
_symmetry_cell_setting 'orthorhombic'
loop_
_space_group_symop_operation_xyz
x,y,z
1/2-x,1/2-y,z
1/2+x,-y,-z
-x,1/2+y,-z
-x,-y,-z
1/2+x,1/2+y,-z
1/2-x,y,z
x,1/2-y,z
loop_
_atom_site_type_symbol
_atom_site_label
_atom_site_fract_x
_atom_site_fract_y
_atom_site_fract_z
Si Si1 0.019671 0.575872 0.258365
Si Si2 0.598310 0.671612 0.779117
Si Si3 0.156327 0.026854 0.166235
Si Si4 0.979011 0.326324 0.476184
Si Si5 0.154193 0.017780 0.833791
Si Si6 0.344282 0.637782 0.752275
Si Si7 0.049437 0.826369 0.001667
O O1 0.079946 0.507377 0.259392
O O2 0.028686 0.613609 0.408524
O O3 0.919274 0.564227 0.236124
O O4 0.056545 0.622187 0.132557
O O5 0.635745 0.750000 0.802266
O O6 0.664481 0.609475 0.802472
O O7 0.563443 0.665036 0.618441
O O8 0.526792 0.654871 0.895705
O O9 0.250000 0.996242 0.204569
O O10 0.135731 0.011753 0.001457
O O11 0.980025 0.250000 0.548785
O O12 0.899584 0.329472 0.371673
O O13 0.250000 0.048202 0.808351
O O14 0.145102 0.944560 0.757470
O O15 0.250000 0.660042 0.714715
O O16 0.365776 0.669028 0.907492
O O17 0.038286 0.750000 0.065891
#
# Coordination Sequence:
#
# PCOD8241474 Si02
#       7
#     8   8   8   8   8   8   8
#     4  12  21  37  61  86 121 158 190 249 309 344
#     4   9  19  38  59  81 111 153 198 238 287 355
#     4  11  22  36  59  92 122 151 196 252 301 351
#     4  10  23  39  57  84 119 160 202 242 296 358
#     4  10  21  37  61  91 117 148 197 253 306 355
#     4  10  20  37  58  82 115 156 202 247 290 352
#     4  10  19  32  56  83 107 149 202 240 287 349
#
# _framework density 19.634005999999999
#
# number of rings (size 3 to 8) (size 9 to 14) (size 15 to 20)
#    0.000    1.714    2.857    3.857    0.000    4.286 
#    0.000    2.143    0.000    5.143    0.000    0.000 
#    0.000    0.000    0.000    0.000    0.000    0.000 
#
# Total GULP energy -694124.355140 kJ/mol
# GULP energy per Si atom -12395.077770 kJ/mol
# Density = 1.958932 g / cm^3
# Si number density = 19.634006 Si / 1000 Ang^3
#
#
#
# Elastic Constant Matrix: (Units=GPa)
#
#
# Indices 1 2 3 4 5 6 
#
# 1 88.5423 20.5173 12.6578 0.0000 0.0000 0.0000
# 2 20.5173 82.8615 23.1070 0.0000 0.0000 0.0000
# 3 12.6578 23.1070 63.5619 0.0000 0.0000 0.0000
# 4 0.0000 0.0000 0.0000 26.9653 0.0000 0.0000
# 5 0.0000 0.0000 0.0000 0.0000 10.7751 0.0000
# 6 0.0000 0.0000 0.0000 0.0000 0.0000 18.1046
#
#
#
# Elastic Compliance Matrix: (Units=1/GPa)
#
#
# Indices 1 2 3 4 5 6 
#
# 1 0.012104 -0.002587 -0.001470 0.000000 0.000000 0.000000
# 2 -0.002587 0.013983 -0.004568 0.000000 0.000000 0.000000
# 3 -0.001470 -0.004568 0.017686 0.000000 0.000000 0.000000
# 4 0.000000 0.000000 0.000000 0.037085 0.000000 0.000000
# 5 0.000000 0.000000 0.000000 0.000000 0.092806 0.000000
# 6 0.000000 0.000000 0.000000 0.000000 0.000000 0.055235
#
#
# Mechanical properties :
#
#
# Convention : Reuss Voigt Hill
#
# Bulk Modulus (GPa) = 37.70377 38.61442 38.15910
# Shear Modulus (GPa) = 19.60871 23.08125 21.34498
#
# Velocity S-wave (km/s) = 3.16367 3.43239 3.30076
# Velocity P-wave (km/s) = 5.70877 5.95132 5.83130
#
# Compressibility (1/GPa) = 0.02652255
#
# Stress axis : x y z
#
# Youngs Moduli (GPa) = 82.61976 71.51653 56.54171
#
# Poissons Ratio (x) = 0.18502 0.08311
# Poissons Ratio (y) = 0.21375 0.25829
# Poissons Ratio (z) = 0.12144 0.32669
#
# Static dielectric constant tensor:
#      x y z
#    x 3.554370 0.000000 0.000000 
#    y 0.000000 3.678830 0.000000 
#    z 0.000000 0.000000 3.359700 
# 
# 
# High freq. dielectric constant tensor:
#      x y z
#    x 1.756700 0.000000 0.000000 
#    y 0.000000 1.773470 0.000000 
#    z 0.000000 0.000000 1.744870 
# 
# From -- ./inp_files/9346.got.cif
#   From: 2010.03.12/outbox.cif.g09.slc.cpg/sg59_5_cif.got.tgz:9346.got - 2010.04.16 16:29:54.
