data_PCOD8241367
_publ_section_title
;
Structure prediction by ZEFSAII (Michael W. Deem and Ramdas Pophale) SiO2 
 PCOD8241367
Probable space group: P M M N
;
_chemical_formula_sum "Si O2"
_cell_formula_units_Z 64
_cell_length_a 9.131757
_cell_length_b 14.602334
_cell_length_c 25.025381
_cell_angle_alpha 90.000000
_cell_angle_beta 90.000000
_cell_angle_gamma 90.000000
_cell_volume 3337.008572
_symmetry_space_group_name_H-M "P M M N"
_symmetry_group_IT_number 59
_space_group.IT_coordinate_system_code '2'
_symmetry_cell_setting 'orthorhombic'
loop_
_space_group_symop_operation_xyz
x,y,z
1/2-x,1/2-y,z
1/2+x,-y,-z
-x,1/2+y,-z
-x,-y,-z
1/2+x,1/2+y,-z
1/2-x,y,z
x,1/2-y,z
loop_
_atom_site_type_symbol
_atom_site_label
_atom_site_fract_x
_atom_site_fract_y
_atom_site_fract_z
Si Si1 0.923862 0.149023 0.027627
Si Si2 0.413288 0.150929 0.419007
Si Si3 0.422505 0.854119 0.093097
Si Si4 0.576360 0.406378 0.515173
Si Si5 0.076414 0.649530 0.367867
Si Si6 0.922904 0.472110 0.123870
Si Si7 0.077107 0.855195 0.773792
Si Si8 0.077607 0.034570 0.319217
O O1 0.750000 0.150842 0.030006
O O2 0.982571 0.250000 0.043736
O O3 0.983942 0.074344 0.069385
O O4 0.975203 0.126027 0.967579
O O5 0.250000 0.122856 0.438821
O O6 0.409258 0.250000 0.390476
O O7 0.522912 0.161700 0.468883
O O8 0.467872 0.077659 0.375949
O O9 0.250000 0.867422 0.099139
O O10 0.465715 0.750000 0.109638
O O11 0.502769 0.928077 0.130869
O O12 0.500000 0.500000 0.500000
O O13 0.750000 0.415445 0.514679
O O14 0.518128 0.372407 0.572644
O O15 0.250000 0.650427 0.370995
O O16 0.017396 0.750000 0.349916
O O17 0.029102 0.572402 0.324418
O O18 0.750000 0.486793 0.122526
O O19 0.969469 0.404490 0.171432
O O20 0.250000 0.855808 0.766380
O O21 0.019392 0.750000 0.773797
O O22 0.008625 0.914531 0.726803
O O23 0.250000 0.045693 0.308244
#
# Coordination Sequence:
#
# PCOD8241367 Si02
#       8
#     8   8   8   8   8   8   8   8
#     4   8  14  27  49  76 106 141 178 214 259 317
#     4  10  20  34  52  77 108 139 173 214 262 314
#     4   9  18  32  50  75 108 143 178 216 257 307
#     4  11  20  33  53  78 110 143 176 212 258 314
#     4   9  18  34  56  79 104 136 175 215 254 304
#     4  10  19  32  53  78 104 138 177 219 267 314
#     4  10  22  39  57  79 106 134 170 217 266 317
#     4  10  20  37  58  78 103 137 177 219 264 311
#
# _framework density 19.178854999999999
#
# number of rings (size 3 to 8) (size 9 to 14) (size 15 to 20)
#    0.000    2.375    1.250    2.625    0.000    4.250 
#    0.000    0.625    0.000    6.000    0.000    0.000 
#    0.000    0.000    0.000    0.000    0.000    0.000 
#
# Total GULP energy -793187.215466 kJ/mol
# GULP energy per Si atom -12393.550242 kJ/mol
# Density = 1.913520 g / cm^3
# Si number density = 19.178855 Si / 1000 Ang^3
#
#
#
# Elastic Constant Matrix: (Units=GPa)
#
#
# Indices 1 2 3 4 5 6 
#
# 1 31.8703 33.3862 27.9103 0.0000 0.0000 0.0000
# 2 33.3862 176.3851 67.2348 0.0000 0.0000 0.0000
# 3 27.9103 67.2348 82.0098 0.0000 0.0000 0.0000
# 4 0.0000 0.0000 0.0000 31.8504 0.0000 0.0000
# 5 0.0000 0.0000 0.0000 0.0000 25.3077 0.0000
# 6 0.0000 0.0000 0.0000 0.0000 0.0000 26.0474
#
#
#
# Elastic Compliance Matrix: (Units=1/GPa)
#
#
# Indices 1 2 3 4 5 6 
#
# 1 0.046595 -0.004036 -0.012548 0.000000 0.000000 0.000000
# 2 -0.004036 0.008596 -0.005674 0.000000 0.000000 0.000000
# 3 -0.012548 -0.005674 0.021116 0.000000 0.000000 0.000000
# 4 0.000000 0.000000 0.000000 0.031397 0.000000 0.000000
# 5 0.000000 0.000000 0.000000 0.000000 0.039514 0.000000
# 6 0.000000 0.000000 0.000000 0.000000 0.000000 0.038392
#
#
# Mechanical properties :
#
#
# Convention : Reuss Voigt Hill
#
# Bulk Modulus (GPa) = 31.45676 60.81420 46.13548
# Shear Modulus (GPa) = 20.77085 27.42335 24.09710
#
# Velocity S-wave (km/s) = 3.29448 3.78547 3.54848
# Velocity P-wave (km/s) = 5.55957 7.13332 6.39504
#
# Compressibility (1/GPa) = 0.03178966
#
# Stress axis : x y z
#
# Youngs Moduli (GPa) = 21.46174 116.33130 47.35777
#
# Poissons Ratio (x) = 0.46953 0.59427
# Poissons Ratio (y) = 0.08662 0.26870
# Poissons Ratio (z) = 0.26931 0.66004
#
# Static dielectric constant tensor:
#      x y z
#    x 3.263510 0.000000 0.000000 
#    y 0.000000 4.060170 0.000000 
#    z 0.000000 0.000000 3.537180 
# 
# 
# High freq. dielectric constant tensor:
#      x y z
#    x 1.708880 0.000000 0.000000 
#    y 0.000000 1.769710 0.000000 
#    z 0.000000 0.000000 1.726560 
# 
# From -- ./inp_files/31574.got.cif
#   From: 2010.03.12/outbox.cif.g09.slc.cpg/sg59_16_cif.got.tgz:31574.got - 2010.04.16 16:29:54.
