data_PCOD8241774
_publ_section_title
;
Structure prediction by ZEFSAII (Michael W. Deem and Ramdas Pophale) SiO2 
 PCOD8241774
Probable space group: P M M N
;
_chemical_formula_sum "Si O2"
_cell_formula_units_Z 56
_cell_length_a 9.129927
_cell_length_b 16.611003
_cell_length_c 19.650575
_cell_angle_alpha 90.000000
_cell_angle_beta 90.000000
_cell_angle_gamma 90.000000
_cell_volume 2980.152063
_symmetry_space_group_name_H-M "P M M N"
_symmetry_group_IT_number 59
_space_group.IT_coordinate_system_code '2'
_symmetry_cell_setting 'orthorhombic'
loop_
_space_group_symop_operation_xyz
x,y,z
1/2-x,1/2-y,z
1/2+x,-y,-z
-x,1/2+y,-z
-x,-y,-z
1/2+x,1/2+y,-z
1/2-x,y,z
x,1/2-y,z
loop_
_atom_site_type_symbol
_atom_site_label
_atom_site_fract_x
_atom_site_fract_y
_atom_site_fract_z
Si Si1 0.076107 0.159653 0.018087
Si Si2 0.576469 0.904729 0.125643
Si Si3 0.421868 0.432210 0.150858
Si Si4 0.579760 0.656575 0.710224
Si Si5 0.575770 0.750000 0.207696
Si Si6 0.078884 0.104742 0.548804
Si Si7 0.423857 0.250000 0.640634
Si Si8 0.078626 0.575715 0.585755
O O1 0.250000 0.165917 0.019978
O O2 0.010466 0.250000 0.015174
O O3 0.016708 0.114939 0.085036
O O4 0.025646 0.109123 0.952191
O O5 0.750000 0.914583 0.131094
O O6 0.519386 0.829117 0.169179
O O7 0.502389 0.983041 0.157168
O O8 0.250000 0.448233 0.144100
O O9 0.459577 0.378648 0.216171
O O10 0.750000 0.644421 0.693143
O O11 0.536366 0.750000 0.709764
O O12 0.485443 0.609554 0.655152
O O13 0.750000 0.750000 0.208338
O O14 0.509536 0.750000 0.283698
O O15 0.250000 0.114529 0.532998
O O16 0.020753 0.170840 0.601664
O O17 0.994754 0.119634 0.478361
O O18 0.042660 0.018916 0.582068
O O19 0.250000 0.250000 0.644981
O O20 0.250000 0.593154 0.583715
#
# Coordination Sequence:
#
# PCOD8241774 Si02
#       8
#     8   8   8   8   4   8   4   8
#     4   9  16  31  55  81 107 141 186 227 261 311
#     4  10  19  33  56  82 108 141 181 223 269 320
#     4  10  21  35  54  79 109 142 181 227 273 317
#     4  10  22  39  57  77 104 145 188 224 266 323
#     4   9  18  32  53  81 108 139 180 222 261 315
#     4   9  19  36  57  81 108 145 182 215 261 324
#     4   9  18  32  55  81 106 139 184 220 253 313
#     4  10  21  36  57  84 113 140 174 226 278 319
#
# _framework density 18.790989
#
# number of rings (size 3 to 8) (size 9 to 14) (size 15 to 20)
#    0.000    2.429    0.714    1.286    3.000    3.143 
#    0.000    0.357    0.000    3.000    0.000    0.000 
#    0.000    0.000    0.000    0.000    0.000    0.000 
#
# Total GULP energy -694520.675122 kJ/mol
# GULP energy per Si atom -12402.154913 kJ/mol
# Density = 1.874822 g / cm^3
# Si number density = 18.790989 Si / 1000 Ang^3
#
#
#
# Elastic Constant Matrix: (Units=GPa)
#
#
# Indices 1 2 3 4 5 6 
#
# 1 39.4238 33.4952 42.4049 0.0000 0.0000 0.0000
# 2 33.4952 109.0062 60.2057 0.0000 0.0000 0.0000
# 3 42.4049 60.2057 156.1884 0.0000 0.0000 0.0000
# 4 0.0000 0.0000 0.0000 36.2869 0.0000 0.0000
# 5 0.0000 0.0000 0.0000 0.0000 18.7264 0.0000
# 6 0.0000 0.0000 0.0000 0.0000 0.0000 25.3337
#
#
#
# Elastic Compliance Matrix: (Units=1/GPa)
#
#
# Indices 1 2 3 4 5 6 
#
# 1 0.040845 -0.008164 -0.007942 0.000000 0.000000 0.000000
# 2 -0.008164 0.013287 -0.002905 0.000000 0.000000 0.000000
# 3 -0.007942 -0.002905 0.009679 0.000000 0.000000 0.000000
# 4 0.000000 0.000000 0.000000 0.027558 0.000000 0.000000
# 5 0.000000 0.000000 0.000000 0.000000 0.053401 0.000000
# 6 0.000000 0.000000 0.000000 0.000000 0.000000 0.039473
#
#
# Mechanical properties :
#
#
# Convention : Reuss Voigt Hill
#
# Bulk Modulus (GPa) = 38.77880 64.09223 51.43551
# Shear Modulus (GPa) = 21.65807 27.30355 24.48081
#
# Velocity S-wave (km/s) = 3.39865 3.81598 3.61334
# Velocity P-wave (km/s) = 6.00689 7.32104 6.69628
#
# Compressibility (1/GPa) = 0.02578729
#
# Stress axis : x y z
#
# Youngs Moduli (GPa) = 24.48309 75.26159 103.31957
#
# Poissons Ratio (x) = 0.61443 0.82059
# Poissons Ratio (y) = 0.19988 0.30016
# Poissons Ratio (z) = 0.19445 0.21865
#
# Static dielectric constant tensor:
#      x y z
#    x 3.077750 0.000000 0.000000 
#    y 0.000000 3.555300 0.000000 
#    z 0.000000 0.000000 3.656990 
# 
# 
# High freq. dielectric constant tensor:
#      x y z
#    x 1.691420 0.000000 0.000000 
#    y 0.000000 1.741730 0.000000 
#    z 0.000000 0.000000 1.743930 
# 
# From -- ./inp_files/29206.got.cif
#   From: 2010.03.12/outbox.cif.g09.slc.cpg/sg59_15_cif.got.tgz:29206.got - 2010.04.16 16:29:54.
