data_PCOD8241719
_publ_section_title
;
Structure prediction by ZEFSAII (Michael W. Deem and Ramdas Pophale) SiO2 
 PCOD8241719
Probable space group: P M M N
;
_chemical_formula_sum "Si O2"
_cell_formula_units_Z 64
_cell_length_a 19.129688
_cell_length_b 8.906315
_cell_length_c 20.012590
_cell_angle_alpha 90.000000
_cell_angle_beta 90.000000
_cell_angle_gamma 90.000000
_cell_volume 3409.645565
_symmetry_space_group_name_H-M "P M M N"
_symmetry_group_IT_number 59
_space_group.IT_coordinate_system_code '2'
_symmetry_cell_setting 'orthorhombic'
loop_
_space_group_symop_operation_xyz
x,y,z
1/2-x,1/2-y,z
1/2+x,-y,-z
-x,1/2+y,-z
-x,-y,-z
1/2+x,1/2+y,-z
1/2-x,y,z
x,1/2-y,z
loop_
_atom_site_type_symbol
_atom_site_label
_atom_site_fract_x
_atom_site_fract_y
_atom_site_fract_z
Si Si1 0.667900 0.074726 0.893121
Si Si2 0.418007 0.071430 0.224664
Si Si3 0.599473 0.074485 0.534940
Si Si4 0.332920 0.080714 0.971527
Si Si5 0.670905 0.577679 0.649915
Si Si6 0.561353 0.928312 0.258088
Si Si7 0.332367 0.924381 0.836766
Si Si8 0.050651 0.074220 0.589862
O O1 0.750000 0.044700 0.883017
O O2 0.650146 0.250000 0.889600
O O3 0.626457 0.985895 0.837199
O O4 0.641461 0.011255 0.964070
O O5 0.422824 0.250000 0.221276
O O6 0.379665 0.015984 0.292102
O O7 0.494688 0.000675 0.221901
O O8 0.607271 0.250000 0.527679
O O9 0.527503 0.024929 0.570391
O O10 0.661281 0.013745 0.581503
O O11 0.604716 0.005105 0.460715
O O12 0.250000 0.085306 0.970214
O O13 0.363420 0.250000 0.973084
O O14 0.360328 0.995148 0.905895
O O15 0.750000 0.555965 0.674976
O O16 0.653882 0.750000 0.634415
O O17 0.556332 0.750000 0.251691
O O18 0.565256 0.980180 0.335106
O O19 0.631255 0.989152 0.223937
O O20 0.250000 0.948273 0.828203
O O21 0.352724 0.750000 0.835860
O O22 0.061360 0.250000 0.582300
#
# Coordination Sequence:
#
# PCOD8241719 Si02
#       8
#     8   8   8   8   8   8   8   8
#     4  10  20  34  54  81 114 152 192 235 280 325
#     4  11  22  36  55  80 113 151 192 233 278 332
#     4  10  19  33  55  81 106 137 183 230 272 321
#     4   9  17  32  56  83 110 144 187 230 275 332
#     4  10  21  36  54  78 112 152 190 230 278 330
#     4  11  22  38  59  84 114 146 185 229 279 337
#     4  10  21  38  60  86 114 143 180 227 280 337
#     4   9  19  35  55  79 108 141 179 223 273 329
#
# _framework density 18.770278000000001
#
# number of rings (size 3 to 8) (size 9 to 14) (size 15 to 20)
#    0.000    2.000    1.250    2.625    0.000    5.750 
#    0.000    1.250    0.000    0.750    0.000    0.000 
#    0.000    0.000    0.000    0.000    0.000    0.000 
#
# Total GULP energy -793815.453546 kJ/mol
# GULP energy per Si atom -12403.366462 kJ/mol
# Density = 1.872756 g / cm^3
# Si number density = 18.770278 Si / 1000 Ang^3
#
#
#
# Elastic Constant Matrix: (Units=GPa)
#
#
# Indices 1 2 3 4 5 6 
#
# 1 51.5156 32.2828 40.1011 0.0000 0.0000 0.0000
# 2 32.2828 90.0009 55.9622 0.0000 0.0000 0.0000
# 3 40.1011 55.9622 137.6599 0.0000 0.0000 0.0000
# 4 0.0000 0.0000 0.0000 35.3045 0.0000 0.0000
# 5 0.0000 0.0000 0.0000 0.0000 24.1837 0.0000
# 6 0.0000 0.0000 0.0000 0.0000 0.0000 28.0424
#
#
#
# Elastic Compliance Matrix: (Units=1/GPa)
#
#
# Indices 1 2 3 4 5 6 
#
# 1 0.027750 -0.006594 -0.005403 0.000000 0.000000 0.000000
# 2 -0.006594 0.016437 -0.004761 0.000000 0.000000 0.000000
# 3 -0.005403 -0.004761 0.010774 0.000000 0.000000 0.000000
# 4 0.000000 0.000000 0.000000 0.028325 0.000000 0.000000
# 5 0.000000 0.000000 0.000000 0.000000 0.041350 0.000000
# 6 0.000000 0.000000 0.000000 0.000000 0.000000 0.035660
#
#
# Mechanical properties :
#
#
# Convention : Reuss Voigt Hill
#
# Bulk Modulus (GPa) = 46.63350 59.54097 53.08723
# Shear Modulus (GPa) = 24.88065 27.56150 26.22107
#
# Velocity S-wave (km/s) = 3.64474 3.83607 3.74163
# Velocity P-wave (km/s) = 6.52767 7.17010 6.85641
#
# Compressibility (1/GPa) = 0.02144381
#
# Stress axis : x y z
#
# Youngs Moduli (GPa) = 36.03648 60.83968 92.81900
#
# Poissons Ratio (x) = 0.40118 0.50150
# Poissons Ratio (y) = 0.23763 0.44191
# Poissons Ratio (z) = 0.19470 0.28966
#
# Static dielectric constant tensor:
#      x y z
#    x 3.183780 0.000000 0.000000 
#    y 0.000000 3.501120 0.000000 
#    z 0.000000 0.000000 3.615860 
# 
# 
# High freq. dielectric constant tensor:
#      x y z
#    x 1.700140 0.000000 0.000000 
#    y 0.000000 1.740270 0.000000 
#    z 0.000000 0.000000 1.739480 
# 
# From -- ./inp_files/28194.got.cif
#   From: 2010.03.12/outbox.cif.g09.slc.cpg/sg59_15_cif.got.tgz:28194.got - 2010.04.16 16:29:54.
