data_PCOD8241008
_publ_section_title
;
Structure prediction by ZEFSAII (Michael W. Deem and Ramdas Pophale) SiO2 
 PCOD8241008
Probable space group: P M M N
;
_chemical_formula_sum "Si O2"
_cell_formula_units_Z 48
_cell_length_a 23.743821
_cell_length_b 9.050697
_cell_length_c 11.574744
_cell_angle_alpha 90.000000
_cell_angle_beta 90.000000
_cell_angle_gamma 90.000000
_cell_volume 2487.390835
_symmetry_space_group_name_H-M "P M M N"
_symmetry_group_IT_number 59
_space_group.IT_coordinate_system_code '2'
_symmetry_cell_setting 'orthorhombic'
loop_
_space_group_symop_operation_xyz
x,y,z
1/2-x,1/2-y,z
1/2+x,-y,-z
-x,1/2+y,-z
-x,-y,-z
1/2+x,1/2+y,-z
1/2-x,y,z
x,1/2-y,z
loop_
_atom_site_type_symbol
_atom_site_label
_atom_site_fract_x
_atom_site_fract_y
_atom_site_fract_z
Si Si1 0.366797 0.917547 0.398043
Si Si2 0.686286 0.415600 0.841911
Si Si3 0.410818 0.423670 0.045931
Si Si4 0.814215 0.574284 0.386404
Si Si5 0.470172 0.577104 0.249040
Si Si6 0.406932 0.076578 0.787163
O O1 0.371783 0.750000 0.445094
O O2 0.321913 0.927584 0.295256
O O3 0.427889 0.975294 0.350911
O O4 0.344136 0.023028 0.497061
O O5 0.750000 0.449749 0.873527
O O6 0.668720 0.250000 0.881729
O O7 0.650982 0.539340 0.907214
O O8 0.421698 0.250000 0.049365
O O9 0.457266 0.500810 0.126315
O O10 0.413077 0.488707 0.915911
O O11 0.750000 0.513410 0.374949
O O12 0.813628 0.750000 0.387375
O O13 0.852705 0.511729 0.280847
O O14 0.460156 0.750000 0.228221
O O15 0.534951 0.541135 0.282444
O O16 0.397993 0.250000 0.798146
#
# Coordination Sequence:
#
# PCOD8241008 Si02
#       6
#     8   8   8   8   8   8
#     4   9  18  33  53  75  98 127 165 209 255 299
#     4   9  18  33  52  73 101 138 174 209 254 306
#     4  10  19  31  51  79 106 131 165 212 258 299
#     4  10  21  36  53  73 100 135 171 206 247 298
#     4   9  18  35  56  75 100 134 168 205 253 307
#     4   9  19  35  53  73 101 138 172 202 246 303
#
# _framework density 19.297329999999999
#
# number of rings (size 3 to 8) (size 9 to 14) (size 15 to 20)
#    0.000    2.667    0.000    2.500    0.000    5.333 
#    0.000    5.000    0.000    0.000    0.000    0.000 
#    0.000    0.000    0.000    0.000    0.000    0.000 
#
# Total GULP energy -594933.318237 kJ/mol
# GULP energy per Si atom -12394.444130 kJ/mol
# Density = 1.925341 g / cm^3
# Si number density = 19.297330 Si / 1000 Ang^3
#
#
#
# Elastic Constant Matrix: (Units=GPa)
#
#
# Indices 1 2 3 4 5 6 
#
# 1 144.9272 21.5578 65.0559 0.0000 0.0000 0.0000
# 2 21.5578 28.8011 21.5310 0.0000 0.0000 0.0000
# 3 65.0559 21.5310 86.4318 0.0000 0.0000 0.0000
# 4 0.0000 0.0000 0.0000 20.4968 0.0000 0.0000
# 5 0.0000 0.0000 0.0000 0.0000 17.4427 0.0000
# 6 0.0000 0.0000 0.0000 0.0000 0.0000 22.1133
#
#
#
# Elastic Compliance Matrix: (Units=1/GPa)
#
#
# Indices 1 2 3 4 5 6 
#
# 1 0.010555 -0.002410 -0.007344 0.000000 0.000000 0.000000
# 2 -0.002410 0.043217 -0.008952 0.000000 0.000000 0.000000
# 3 -0.007344 -0.008952 0.019328 0.000000 0.000000 0.000000
# 4 0.000000 0.000000 0.000000 0.048788 0.000000 0.000000
# 5 0.000000 0.000000 0.000000 0.000000 0.057331 0.000000
# 6 0.000000 0.000000 0.000000 0.000000 0.000000 0.045222
#
#
# Mechanical properties :
#
#
# Convention : Reuss Voigt Hill
#
# Bulk Modulus (GPa) = 28.02096 52.93881 40.47989
# Shear Modulus (GPa) = 18.26492 22.14493 20.20492
#
# Velocity S-wave (km/s) = 3.07986 3.39125 3.23930
# Velocity P-wave (km/s) = 5.21532 6.54422 5.91720
#
# Compressibility (1/GPa) = 0.03568757
#
# Stress axis : x y z
#
# Youngs Moduli (GPa) = 94.73858 23.13907 51.73895
#
# Poissons Ratio (x) = 0.05577 0.37999
# Poissons Ratio (y) = 0.22834 0.46315
# Poissons Ratio (z) = 0.69580 0.20713
#
# Static dielectric constant tensor:
#      x y z
#    x 3.879110 0.000000 0.000000 
#    y 0.000000 3.250300 0.000000 
#    z 0.000000 0.000000 3.479460 
# 
# 
# High freq. dielectric constant tensor:
#      x y z
#    x 1.766270 0.000000 0.000000 
#    y 0.000000 1.723230 0.000000 
#    z 0.000000 0.000000 1.738480 
# 
# From -- ./inp_files/18589.got.cif
#   From: 2010.03.12/outbox.cif.g09.slc.cpg/sg59_10_cif.got.tgz:18589.got - 2010.04.16 16:29:54.
