data_PCOD8241217
_publ_section_title
;
Structure prediction by ZEFSAII (Michael W. Deem and Ramdas Pophale) SiO2 
 PCOD8241217
Probable space group: P M M N
;
_chemical_formula_sum "Si O2"
_cell_formula_units_Z 64
_cell_length_a 17.180527
_cell_length_b 14.606579
_cell_length_c 13.194275
_cell_angle_alpha 90.000000
_cell_angle_beta 90.000000
_cell_angle_gamma 90.000000
_cell_volume 3311.086487
_symmetry_space_group_name_H-M "P M M N"
_symmetry_group_IT_number 59
_space_group.IT_coordinate_system_code '2'
_symmetry_cell_setting 'orthorhombic'
loop_
_space_group_symop_operation_xyz
x,y,z
1/2-x,1/2-y,z
1/2+x,-y,-z
-x,1/2+y,-z
-x,-y,-z
1/2+x,1/2+y,-z
1/2-x,y,z
x,1/2-y,z
loop_
_atom_site_type_symbol
_atom_site_label
_atom_site_fract_x
_atom_site_fract_y
_atom_site_fract_z
Si Si1 0.518926 0.848546 0.184743
Si Si2 0.658298 0.144618 0.555693
Si Si3 0.834793 0.966352 0.861034
Si Si4 0.126856 0.650997 0.058426
Si Si5 0.945194 0.005432 0.685588
Si Si6 0.836365 0.596322 0.079651
Si Si7 0.437923 0.646101 0.642615
Si Si8 0.162413 0.895451 0.837651
O O1 0.499879 0.750000 0.235413
O O2 0.510848 0.927631 0.268249
O O3 0.604848 0.838818 0.138552
O O4 0.462020 0.869476 0.090534
O O5 0.750000 0.122377 0.558384
O O6 0.643222 0.250000 0.592299
O O7 0.614070 0.068971 0.623019
O O8 0.627455 0.131251 0.442199
O O9 0.750000 0.929432 0.826097
O O10 0.897054 0.952162 0.772506
O O11 0.863251 0.915038 0.962711
O O12 0.821156 0.073251 0.889589
O O13 0.154108 0.750000 0.100894
O O14 0.133064 0.655523 0.937787
O O15 0.990738 0.925873 0.624009
O O16 0.750000 0.639158 0.082969
O O17 0.838088 0.502217 0.140573
O O18 0.471107 0.750000 0.637610
O O19 0.397376 0.629592 0.749803
O O20 0.250000 0.862784 0.809485
#
# Coordination Sequence:
#
# PCOD8241217 Si02
#       8
#     8   8   8   8   8   8   8   8
#     4  10  20  33  52  78 109 147 190 232 276 330
#     4  10  22  41  64  88 112 139 178 229 288 347
#     4   9  19  32  51  75 105 146 188 222 265 321
#     4   9  18  28  45  75 108 141 180 230 282 327
#     4  11  21  37  59  83 116 144 181 228 286 329
#     4   9  18  33  50  72 106 150 190 229 271 317
#     4  11  23  37  57  85 113 148 185 225 279 340
#     4  10  19  32  51  76 107 144 183 228 281 332
#
# _framework density 19.329004000000001
#
# number of rings (size 3 to 8) (size 9 to 14) (size 15 to 20)
#    0.000    2.125    1.250    3.000    1.750    4.500 
#    0.000    0.000    0.000    2.250    0.000    0.000 
#    0.000    0.000    0.000    0.000    0.000    0.000 
#
# Total GULP energy -793105.023833 kJ/mol
# GULP energy per Si atom -12392.265997 kJ/mol
# Density = 1.928501 g / cm^3
# Si number density = 19.329004 Si / 1000 Ang^3
#
#
#
# Elastic Constant Matrix: (Units=GPa)
#
#
# Indices 1 2 3 4 5 6 
#
# 1 105.9994 45.8537 35.7848 0.0000 0.0000 0.0000
# 2 45.8537 82.4344 25.2798 0.0000 0.0000 0.0000
# 3 35.7848 25.2798 63.2647 0.0000 0.0000 0.0000
# 4 0.0000 0.0000 0.0000 17.7176 0.0000 0.0000
# 5 0.0000 0.0000 0.0000 0.0000 27.2525 0.0000
# 6 0.0000 0.0000 0.0000 0.0000 0.0000 64.3721
#
#
#
# Elastic Compliance Matrix: (Units=1/GPa)
#
#
# Indices 1 2 3 4 5 6 
#
# 1 0.013890 -0.006059 -0.005436 0.000000 0.000000 0.000000
# 2 -0.006059 0.016468 -0.003153 0.000000 0.000000 0.000000
# 3 -0.005436 -0.003153 0.020141 0.000000 0.000000 0.000000
# 4 0.000000 0.000000 0.000000 0.056441 0.000000 0.000000
# 5 0.000000 0.000000 0.000000 0.000000 0.036694 0.000000
# 6 0.000000 0.000000 0.000000 0.000000 0.000000 0.015535
#
#
# Mechanical properties :
#
#
# Convention : Reuss Voigt Hill
#
# Bulk Modulus (GPa) = 47.16208 51.72611 49.44410
# Shear Modulus (GPa) = 25.57107 31.52045 28.54576
#
# Velocity S-wave (km/s) = 3.64117 4.04261 3.84713
# Velocity P-wave (km/s) = 6.49077 6.97204 6.73570
#
# Compressibility (1/GPa) = 0.02120348
#
# Stress axis : x y z
#
# Youngs Moduli (GPa) = 71.99289 60.72252 49.64979
#
# Poissons Ratio (x) = 0.36795 0.26987
# Poissons Ratio (y) = 0.43624 0.15655
# Poissons Ratio (z) = 0.39132 0.19146
#
# Static dielectric constant tensor:
#      x y z
#    x 3.645040 0.000000 0.000000 
#    y 0.000000 3.475540 0.000000 
#    z 0.000000 0.000000 3.393690 
# 
# 
# High freq. dielectric constant tensor:
#      x y z
#    x 1.754290 0.000000 0.000000 
#    y 0.000000 1.744700 0.000000 
#    z 0.000000 0.000000 1.732710 
# 
# From -- ./inp_files/17881.got.cif
#   From: 2010.03.12/outbox.cif.g09.slc.cpg/sg59_9_cif.got.tgz:17881.got - 2010.04.16 16:29:54.
