data_PCOD8241273
_publ_section_title
;
Structure prediction by ZEFSAII (Michael W. Deem and Ramdas Pophale) SiO2 
 PCOD8241273
Probable space group: P M M N
;
_chemical_formula_sum "Si O2"
_cell_formula_units_Z 64
_cell_length_a 8.731145
_cell_length_b 28.159785
_cell_length_c 14.214354
_cell_angle_alpha 90.000000
_cell_angle_beta 90.000000
_cell_angle_gamma 90.000000
_cell_volume 3494.842935
_symmetry_space_group_name_H-M "P M M N"
_symmetry_group_IT_number 59
_space_group.IT_coordinate_system_code '2'
_symmetry_cell_setting 'orthorhombic'
loop_
_space_group_symop_operation_xyz
x,y,z
1/2-x,1/2-y,z
1/2+x,-y,-z
-x,1/2+y,-z
-x,-y,-z
1/2+x,1/2+y,-z
1/2-x,y,z
x,1/2-y,z
loop_
_atom_site_type_symbol
_atom_site_label
_atom_site_fract_x
_atom_site_fract_y
_atom_site_fract_z
Si Si1 0.429939 0.633628 0.355868
Si Si2 0.075103 0.865613 0.078772
Si Si3 0.430448 0.435603 0.774553
Si Si4 0.576001 0.697462 0.204005
Si Si5 0.930523 0.696840 0.730021
Si Si6 0.573251 0.987643 0.898125
Si Si7 0.426003 0.122471 0.114344
Si Si8 0.571819 0.303781 0.468220
O O1 0.250000 0.638851 0.334109
O O2 0.486288 0.580501 0.324497
O O3 0.534178 0.666054 0.291899
O O4 0.467862 0.652988 0.460046
O O5 0.250000 0.880019 0.096239
O O6 0.966008 0.899954 0.139395
O O7 0.036503 0.812927 0.116122
O O8 0.038151 0.866104 0.970267
O O9 0.250000 0.438715 0.756621
O O10 0.492931 0.485921 0.810805
O O11 0.750000 0.688098 0.172538
O O12 0.547951 0.750000 0.238918
O O13 0.750000 0.697417 0.728613
O O14 0.991221 0.750000 0.758062
O O15 0.987124 0.655643 0.800877
O O16 0.985678 0.682713 0.626712
O O17 0.750000 0.002967 0.905885
O O18 0.556393 0.933259 0.866138
O O19 0.500000 0.000000 0.000000
O O20 0.250000 0.134897 0.089582
O O21 0.750000 0.303994 0.446320
O O22 0.524907 0.250000 0.503235
#
# Coordination Sequence:
#
# PCOD8241273 Si02
#       8
#     8   8   8   8   8   8   8   8
#     4  10  19  32  52  76 104 137 173 214 264 321
#     4  11  21  32  49  71  99 135 175 216 261 316
#     4  11  21  34  51  75 108 139 173 219 266 316
#     4  10  20  32  46  67  99 137 174 213 258 311
#     4   9  19  36  57  80 106 138 176 216 261 316
#     4  11  21  34  55  79 106 141 182 225 268 314
#     4  10  21  36  54  77 106 139 176 220 266 313
#     4   9  18  33  54  80 108 138 173 218 269 317
#
# _framework density 18.312697
#
# number of rings (size 3 to 8) (size 9 to 14) (size 15 to 20)
#    0.000    1.875    1.250    5.250    0.000    4.000 
#    0.000    2.500    0.000    0.750    0.000    0.000 
#    0.000    0.000    0.000    0.000    0.000    0.000 
#
# Total GULP energy -792983.108179 kJ/mol
# GULP energy per Si atom -12390.361065 kJ/mol
# Density = 1.827102 g / cm^3
# Si number density = 18.312697 Si / 1000 Ang^3
#
#
#
# Elastic Constant Matrix: (Units=GPa)
#
#
# Indices 1 2 3 4 5 6 
#
# 1 31.9687 27.3837 9.1270 0.0000 0.0000 0.0000
# 2 27.3837 87.0896 47.2933 0.0000 0.0000 0.0000
# 3 9.1270 47.2933 79.1802 0.0000 0.0000 0.0000
# 4 0.0000 0.0000 0.0000 27.7804 0.0000 0.0000
# 5 0.0000 0.0000 0.0000 0.0000 29.2375 0.0000
# 6 0.0000 0.0000 0.0000 0.0000 0.0000 23.4232
#
#
#
# Elastic Compliance Matrix: (Units=1/GPa)
#
#
# Indices 1 2 3 4 5 6 
#
# 1 0.043972 -0.016390 0.004721 0.000000 0.000000 0.000000
# 2 -0.016390 0.023104 -0.011910 0.000000 0.000000 0.000000
# 3 0.004721 -0.011910 0.019199 0.000000 0.000000 0.000000
# 4 0.000000 0.000000 0.000000 0.035997 0.000000 0.000000
# 5 0.000000 0.000000 0.000000 0.000000 0.034203 0.000000
# 6 0.000000 0.000000 0.000000 0.000000 0.000000 0.042693
#
#
# Mechanical properties :
#
#
# Convention : Reuss Voigt Hill
#
# Bulk Modulus (GPa) = 25.56488 40.64961 33.10724
# Shear Modulus (GPa) = 19.27796 23.71720 21.49758
#
# Velocity S-wave (km/s) = 3.24807 3.60269 3.42996
# Velocity P-wave (km/s) = 5.29690 6.28900 5.81415
#
# Compressibility (1/GPa) = 0.03911616
#
# Stress axis : x y z
#
# Youngs Moduli (GPa) = 22.74184 43.28326 52.08574
#
# Poissons Ratio (x) = 0.70940 -0.24588
# Poissons Ratio (y) = 0.37273 0.62035
# Poissons Ratio (z) = -0.10736 0.51552
#
# Static dielectric constant tensor:
#      x y z
#    x 3.397370 0.000000 0.000000 
#    y 0.000000 4.036350 0.000000 
#    z 0.000000 0.000000 3.468270 
# 
# 
# High freq. dielectric constant tensor:
#      x y z
#    x 1.717280 0.000000 0.000000 
#    y 0.000000 1.704840 0.000000 
#    z 0.000000 0.000000 1.689040 
# 
# From -- ./inp_files/21922.got.cif
#   From: 2010.03.12/outbox.cif.g09.slc.cpg/sg59_11_cif.got.tgz:21922.got - 2010.04.16 16:29:54.
