data_PCOD8241793
_publ_section_title
;
Structure prediction by ZEFSAII (Michael W. Deem and Ramdas Pophale) SiO2 
 PCOD8241793
Probable space group: P M M N
;
_chemical_formula_sum "Si O2"
_cell_formula_units_Z 48
_cell_length_a 9.221580
_cell_length_b 27.696459
_cell_length_c 10.133874
_cell_angle_alpha 90.000000
_cell_angle_beta 90.000000
_cell_angle_gamma 90.000000
_cell_volume 2588.243228
_symmetry_space_group_name_H-M "P M M N"
_symmetry_group_IT_number 59
_space_group.IT_coordinate_system_code '2'
_symmetry_cell_setting 'orthorhombic'
loop_
_space_group_symop_operation_xyz
x,y,z
1/2-x,1/2-y,z
1/2+x,-y,-z
-x,1/2+y,-z
-x,-y,-z
1/2+x,1/2+y,-z
1/2-x,y,z
x,1/2-y,z
loop_
_atom_site_type_symbol
_atom_site_label
_atom_site_fract_x
_atom_site_fract_y
_atom_site_fract_z
Si Si1 0.085087 0.805447 0.977408
Si Si2 0.082595 0.452064 0.145018
Si Si3 0.420265 0.349227 0.259268
Si Si4 0.419226 0.453159 0.839552
Si Si5 0.919053 0.305782 0.502104
Si Si6 0.080938 0.862352 0.234915
O O1 0.250000 0.819192 0.939798
O O2 0.073959 0.750000 0.019017
O O3 0.984130 0.814701 0.852628
O O4 0.030066 0.836081 0.101592
O O5 0.250000 0.466625 0.160436
O O6 0.042626 0.404736 0.227814
O O7 0.985782 0.495381 0.201814
O O8 0.045350 0.442090 0.992261
O O9 0.250000 0.340140 0.265120
O O10 0.489689 0.336350 0.398390
O O11 0.250000 0.454263 0.809064
O O12 0.491804 0.411848 0.750236
O O13 0.750000 0.311018 0.467930
O O14 0.966879 0.250000 0.498949
O O15 0.955749 0.326940 0.645144
O O16 0.250000 0.875179 0.230696
#
# Coordination Sequence:
#
# PCOD8241793 Si02
#       6
#     8   8   8   8   8   8
#     4  10  20  34  55  82 109 141 185 232 276 328
#     4   9  19  35  54  80 114 147 181 225 278 334
#     4  11  22  37  56  82 114 147 184 229 281 332
#     4  10  19  33  56  85 114 143 181 229 281 333
#     4  10  22  40  59  80 111 152 194 232 273 328
#     4  10  20  36  58  82 111 147 186 230 280 329
#
# _framework density 18.545397999999999
#
# number of rings (size 3 to 8) (size 9 to 14) (size 15 to 20)
#    0.000    2.000    1.667    2.000    0.000    7.333 
#    0.000    0.833    0.000    3.000    0.000    0.000 
#    0.000    0.000    0.000    0.000    0.000    0.000 
#
# Total GULP energy -595425.373257 kJ/mol
# GULP energy per Si atom -12404.695276 kJ/mol
# Density = 1.850319 g / cm^3
# Si number density = 18.545398 Si / 1000 Ang^3
#
#
#
# Elastic Constant Matrix: (Units=GPa)
#
#
# Indices 1 2 3 4 5 6 
#
# 1 73.3618 54.8443 35.6709 0.0000 0.0000 0.0000
# 2 54.8443 118.4850 33.1587 0.0000 0.0000 0.0000
# 3 35.6709 33.1587 64.8272 0.0000 0.0000 0.0000
# 4 0.0000 0.0000 0.0000 32.2142 0.0000 0.0000
# 5 0.0000 0.0000 0.0000 0.0000 22.8460 0.0000
# 6 0.0000 0.0000 0.0000 0.0000 0.0000 31.8025
#
#
#
# Elastic Compliance Matrix: (Units=1/GPa)
#
#
# Indices 1 2 3 4 5 6 
#
# 1 0.024667 -0.008892 -0.009024 0.000000 0.000000 0.000000
# 2 -0.008892 0.013055 -0.001785 0.000000 0.000000 0.000000
# 3 -0.009024 -0.001785 0.021304 0.000000 0.000000 0.000000
# 4 0.000000 0.000000 0.000000 0.031042 0.000000 0.000000
# 5 0.000000 0.000000 0.000000 0.000000 0.043771 0.000000
# 6 0.000000 0.000000 0.000000 0.000000 0.000000 0.031444
#
#
# Mechanical properties :
#
#
# Convention : Reuss Voigt Hill
#
# Bulk Modulus (GPa) = 50.95973 56.00242 53.48108
# Shear Modulus (GPa) = 23.67109 26.23921 24.95515
#
# Velocity S-wave (km/s) = 3.57653 3.76555 3.67226
# Velocity P-wave (km/s) = 6.67783 7.01205 6.84698
#
# Compressibility (1/GPa) = 0.01962334
#
# Stress axis : x y z
#
# Youngs Moduli (GPa) = 40.54044 76.59667 46.93895
#
# Poissons Ratio (x) = 0.68111 0.42360
# Poissons Ratio (y) = 0.36049 0.08378
# Poissons Ratio (z) = 0.36586 0.13672
#
# Static dielectric constant tensor:
#      x y z
#    x 3.416310 0.000000 0.000000 
#    y 0.000000 3.482560 0.000000 
#    z 0.000000 0.000000 3.239190 
# 
# 
# High freq. dielectric constant tensor:
#      x y z
#    x 1.718810 0.000000 0.000000 
#    y 0.000000 1.732230 0.000000 
#    z 0.000000 0.000000 1.702260 
# 
# From -- ./inp_files/6248.got.cif
#   From: 2010.03.12/outbox.cif.g09.slc.cpg/sg59_4_cif.got.tgz:6248.got - 2010.04.16 16:29:54.
