data_PCOD8241182
_publ_section_title
;
Structure prediction by ZEFSAII (Michael W. Deem and Ramdas Pophale) SiO2 
 PCOD8241182
Probable space group: P M M N
;
_chemical_formula_sum "Si O2"
_cell_formula_units_Z 40
_cell_length_a 9.245395
_cell_length_b 14.657961
_cell_length_c 16.918460
_cell_angle_alpha 90.000000
_cell_angle_beta 90.000000
_cell_angle_gamma 90.000000
_cell_volume 2292.766679
_symmetry_space_group_name_H-M "P M M N"
_symmetry_group_IT_number 59
_space_group.IT_coordinate_system_code '2'
_symmetry_cell_setting 'orthorhombic'
loop_
_space_group_symop_operation_xyz
x,y,z
1/2-x,1/2-y,z
1/2+x,-y,-z
-x,1/2+y,-z
-x,-y,-z
1/2+x,1/2+y,-z
1/2-x,y,z
x,1/2-y,z
loop_
_atom_site_type_symbol
_atom_site_label
_atom_site_fract_x
_atom_site_fract_y
_atom_site_fract_z
Si Si1 0.409258 0.250000 0.258056
Si Si2 0.587237 0.750000 0.555282
Si Si3 0.919837 0.145886 0.997544
Si Si4 0.084162 0.017558 0.889662
Si Si5 0.421265 0.571017 0.554544
Si Si6 0.915167 0.076719 0.264998
O O1 0.250000 0.250000 0.219664
O O2 0.398666 0.250000 0.351603
O O3 0.492155 0.340004 0.230636
O O4 0.750000 0.750000 0.517989
O O5 0.492912 0.664966 0.527300
O O6 0.750000 0.147619 0.983373
O O7 0.975519 0.250000 0.012994
O O8 0.991366 0.103726 0.918527
O O9 0.962813 0.078719 0.069699
O O10 0.250000 0.038335 0.910612
O O11 0.061165 0.007602 0.795054
O O12 0.500000 0.500000 0.500000
O O13 0.250000 0.572778 0.539014
O O14 0.457674 0.547644 0.646148
O O15 0.750000 0.110654 0.263800
#
# Coordination Sequence:
#
# PCOD8241182 Si02
#       6
#     4   4   8   8   8   8
#     4   9  17  27  43  71 101 126 153 194 251 293
#     4   9  17  31  49  71  99 128 159 200 249 299
#     4   9  18  32  50  72  99 130 160 196 246 293
#     4   9  18  32  51  73  97 128 165 202 238 286
#     4  10  19  32  51  75 101 132 168 207 250 297
#     4   9  18  31  49  71  98 130 167 201 241 292
#
# _framework density 17.446171
#
# number of rings (size 3 to 8) (size 9 to 14) (size 15 to 20)
#    0.000    2.800    0.000    1.200    1.400    4.400 
#    0.000    0.000    2.200    0.000    0.000    0.000 
#    0.000    0.000    0.000    0.000    0.000    0.000 
#
# Total GULP energy -495787.325129 kJ/mol
# GULP energy per Si atom -12394.683128 kJ/mol
# Density = 1.740646 g / cm^3
# Si number density = 17.446171 Si / 1000 Ang^3
#
#
#
# Elastic Constant Matrix: (Units=GPa)
#
#
# Indices 1 2 3 4 5 6 
#
# 1 75.6386 39.6496 35.7856 0.0000 0.0000 0.0000
# 2 39.6496 107.6982 42.6232 0.0000 0.0000 0.0000
# 3 35.7856 42.6232 73.3416 0.0000 0.0000 0.0000
# 4 0.0000 0.0000 0.0000 23.5831 0.0000 0.0000
# 5 0.0000 0.0000 0.0000 0.0000 23.9621 0.0000
# 6 0.0000 0.0000 0.0000 0.0000 0.0000 34.5277
#
#
#
# Elastic Compliance Matrix: (Units=1/GPa)
#
#
# Indices 1 2 3 4 5 6 
#
# 1 0.018556 -0.004218 -0.006602 0.000000 0.000000 0.000000
# 2 -0.004218 0.013018 -0.005507 0.000000 0.000000 0.000000
# 3 -0.006602 -0.005507 0.020057 0.000000 0.000000 0.000000
# 4 0.000000 0.000000 0.000000 0.042403 0.000000 0.000000
# 5 0.000000 0.000000 0.000000 0.000000 0.041733 0.000000
# 6 0.000000 0.000000 0.000000 0.000000 0.000000 0.028962
#
#
# Mechanical properties :
#
#
# Convention : Reuss Voigt Hill
#
# Bulk Modulus (GPa) = 52.70207 54.75505 53.72856
# Shear Modulus (GPa) = 24.54482 25.65591 25.10037
#
# Velocity S-wave (km/s) = 3.75492 3.83897 3.79718
# Velocity P-wave (km/s) = 7.00523 7.14867 7.07731
#
# Compressibility (1/GPa) = 0.01897459
#
# Stress axis : x y z
#
# Youngs Moduli (GPa) = 53.89184 76.81813 49.85829
#
# Poissons Ratio (x) = 0.32405 0.32918
# Poissons Ratio (y) = 0.22734 0.27458
# Poissons Ratio (z) = 0.35581 0.42305
#
# Static dielectric constant tensor:
#      x y z
#    x 3.416510 0.000000 0.000000 
#    y 0.000000 3.173560 0.000000 
#    z 0.000000 0.000000 3.146320 
# 
# 
# High freq. dielectric constant tensor:
#      x y z
#    x 1.680770 0.000000 0.000000 
#    y 0.000000 1.658750 0.000000 
#    z 0.000000 0.000000 1.655220 
# 
# From -- ./inp_files/19896.got.cif
#   From: 2010.03.12/outbox.cif.g09.slc.cpg/sg59_10_cif.got.tgz:19896.got - 2010.04.16 16:29:54.
