data_PCOD8241676
_publ_section_title
;
Structure prediction by ZEFSAII (Michael W. Deem and Ramdas Pophale) SiO2 
 PCOD8241676
Probable space group: P M M N
;
_chemical_formula_sum "Si O2"
_cell_formula_units_Z 48
_cell_length_a 8.521630
_cell_length_b 31.137628
_cell_length_c 9.182830
_cell_angle_alpha 90.000000
_cell_angle_beta 90.000000
_cell_angle_gamma 90.000000
_cell_volume 2436.602828
_symmetry_space_group_name_H-M "P M M N"
_symmetry_group_IT_number 59
_space_group.IT_coordinate_system_code '2'
_symmetry_cell_setting 'orthorhombic'
loop_
_space_group_symop_operation_xyz
x,y,z
1/2-x,1/2-y,z
1/2+x,-y,-z
-x,1/2+y,-z
-x,-y,-z
1/2+x,1/2+y,-z
1/2-x,y,z
x,1/2-y,z
loop_
_atom_site_type_symbol
_atom_site_label
_atom_site_fract_x
_atom_site_fract_y
_atom_site_fract_z
Si Si1 0.063758 0.297243 0.087523
Si Si2 0.936884 0.619993 0.081381
Si Si3 0.936621 0.877845 0.411526
Si Si4 0.935765 0.959995 0.587479
Si Si5 0.565379 0.039736 0.089295
Si Si6 0.563258 0.797463 0.585826
O O1 0.250000 0.297199 0.089174
O O2 0.003745 0.250000 0.036082
O O3 0.002006 0.306830 0.250689
O O4 0.003696 0.334006 0.978666
O O5 0.750000 0.614641 0.067404
O O6 0.996197 0.616405 0.246949
O O7 0.020321 0.583576 0.988964
O O8 0.750000 0.876297 0.412983
O O9 0.999183 0.917114 0.508708
O O10 0.005877 0.833527 0.477671
O O11 0.750000 0.961232 0.585863
O O12 0.993854 0.960886 0.751176
O O13 0.000000 0.000000 0.500000
O O14 0.750000 0.035058 0.101586
O O15 0.500000 0.000000 0.000000
O O16 0.750000 0.799379 0.584812
O O17 0.507091 0.750000 0.534854
#
# Coordination Sequence:
#
# PCOD8241676 Si02
#       6
#     8   8   8   8   8   8
#     4   8  14  25  45  75 110 147 185 225 271 325
#     4  10  19  33  54  81 113 146 183 227 276 331
#     4   9  18  30  48  76 108 142 177 217 267 321
#     4  11  22  38  59  83 113 147 184 226 274 329
#     4  12  25  41  60  82 108 141 184 231 285 344
#     4   8  13  23  40  66 103 143 179 216 262 315
#
# _framework density 19.699558
#
# number of rings (size 3 to 8) (size 9 to 14) (size 15 to 20)
#    0.000    2.333    0.000    5.000    0.000    4.667 
#    0.000    4.167    0.000    0.500    0.000    0.000 
#    0.000    4.667    0.000    0.000    0.000    0.000 
#
# Total GULP energy -595089.217063 kJ/mol
# GULP energy per Si atom -12397.692022 kJ/mol
# Density = 1.965472 g / cm^3
# Si number density = 19.699558 Si / 1000 Ang^3
#
#
#
# Elastic Constant Matrix: (Units=GPa)
#
#
# Indices 1 2 3 4 5 6 
#
# 1 36.4770 23.6256 17.4647 0.0000 0.0000 0.0000
# 2 23.6256 183.5645 100.1188 0.0000 0.0000 0.0000
# 3 17.4647 100.1188 168.7607 0.0000 0.0000 0.0000
# 4 0.0000 0.0000 0.0000 47.3321 0.0000 0.0000
# 5 0.0000 0.0000 0.0000 0.0000 19.9360 0.0000
# 6 0.0000 0.0000 0.0000 0.0000 0.0000 20.5591
#
#
#
# Elastic Compliance Matrix: (Units=1/GPa)
#
#
# Indices 1 2 3 4 5 6 
#
# 1 0.030073 -0.003213 -0.001206 0.000000 0.000000 0.000000
# 2 -0.003213 0.008397 -0.004649 0.000000 0.000000 0.000000
# 3 -0.001206 -0.004649 0.008808 0.000000 0.000000 0.000000
# 4 0.000000 0.000000 0.000000 0.021127 0.000000 0.000000
# 5 0.000000 0.000000 0.000000 0.000000 0.050160 0.000000
# 6 0.000000 0.000000 0.000000 0.000000 0.000000 0.048640
#
#
# Mechanical properties :
#
#
# Convention : Reuss Voigt Hill
#
# Bulk Modulus (GPa) = 34.31433 74.58002 54.44717
# Shear Modulus (GPa) = 25.63365 34.07164 29.85265
#
# Velocity S-wave (km/s) = 3.61117 4.16331 3.89703
# Velocity P-wave (km/s) = 5.90288 7.81357 6.92444
#
# Compressibility (1/GPa) = 0.02914235
#
# Stress axis : x y z
#
# Youngs Moduli (GPa) = 33.25258 119.09317 113.52740
#
# Poissons Ratio (x) = 0.38260 0.13695
# Poissons Ratio (y) = 0.10683 0.52779
# Poissons Ratio (z) = 0.04011 0.55366
#
# Static dielectric constant tensor:
#      x y z
#    x 3.250550 0.000000 0.000000 
#    y 0.000000 3.749310 0.000000 
#    z 0.000000 0.000000 4.012370 
# 
# 
# High freq. dielectric constant tensor:
#      x y z
#    x 1.715260 0.000000 0.000000 
#    y 0.000000 1.790640 0.000000 
#    z 0.000000 0.000000 1.777430 
# 
# From -- ./inp_files/6332.got.cif
#   From: 2010.03.12/outbox.cif.g09.slc.cpg/sg59_4_cif.got.tgz:6332.got - 2010.04.16 16:29:54.
