data_PCOD8241809
_publ_section_title
;
Structure prediction by ZEFSAII (Michael W. Deem and Ramdas Pophale) SiO2 
 PCOD8241809
Probable space group: P M M N
;
_chemical_formula_sum "Si O2"
_cell_formula_units_Z 64
_cell_length_a 9.014942
_cell_length_b 28.820217
_cell_length_c 12.557098
_cell_angle_alpha 90.000000
_cell_angle_beta 90.000000
_cell_angle_gamma 90.000000
_cell_volume 3262.492087
_symmetry_space_group_name_H-M "P M M N"
_symmetry_group_IT_number 59
_space_group.IT_coordinate_system_code '2'
_symmetry_cell_setting 'orthorhombic'
loop_
_space_group_symop_operation_xyz
x,y,z
1/2-x,1/2-y,z
1/2+x,-y,-z
-x,1/2+y,-z
-x,-y,-z
1/2+x,1/2+y,-z
1/2-x,y,z
x,1/2-y,z
loop_
_atom_site_type_symbol
_atom_site_label
_atom_site_fract_x
_atom_site_fract_y
_atom_site_fract_z
Si Si1 0.917940 0.821479 0.845778
Si Si2 0.078761 0.436784 0.667008
Si Si3 0.576900 0.697673 0.609977
Si Si4 0.580457 0.040630 0.281160
Si Si5 0.080582 0.425530 0.086475
Si Si6 0.921993 0.200085 0.947333
Si Si7 0.925489 0.109228 0.466706
Si Si8 0.573459 0.398640 0.876019
O O1 0.750000 0.804631 0.858760
O O2 0.979656 0.806020 0.731395
O O3 0.932841 0.876354 0.856411
O O4 0.010051 0.795975 0.935902
O O5 0.250000 0.421569 0.669210
O O6 0.062219 0.492085 0.658041
O O7 0.999091 0.414731 0.567050
O O8 0.000298 0.419401 0.772860
O O9 0.750000 0.684227 0.602898
O O10 0.549071 0.750000 0.567926
O O11 0.483022 0.662058 0.538848
O O12 0.750000 0.049506 0.247428
O O13 0.483969 0.038571 0.173015
O O14 0.526333 0.081047 0.361124
O O15 0.250000 0.438651 0.058933
O O16 0.984959 0.426876 0.978558
O O17 0.750000 0.192129 0.964784
O O18 0.954011 0.250000 0.889156
O O19 0.981445 0.155442 0.882520
O O20 0.750000 0.108923 0.482600
O O21 0.750000 0.403383 0.869418
#
# Coordination Sequence:
#
# PCOD8241809 Si02
#       8
#     8   8   8   8   8   8   8   8
#     4   9  17  30  50  80 116 151 184 224 274 331
#     4  11  24  42  62  83 111 150 198 244 291 348
#     4  10  20  35  56  84 119 156 191 230 282 341
#     4  10  22  39  61  89 117 148 188 239 295 351
#     4  10  19  33  58  88 119 153 188 229 283 342
#     4   9  18  32  52  79 110 146 187 231 281 335
#     4  11  23  40  62  87 117 150 191 241 294 345
#     4  10  21  38  58  82 117 154 192 239 290 344
#
# _framework density 19.616907000000001
#
# number of rings (size 3 to 8) (size 9 to 14) (size 15 to 20)
#    0.000    2.000    1.250    2.250    0.000    4.500 
#    0.000    0.625    0.000    2.250    0.000    0.000 
#    0.000    0.000    0.000    0.000    0.000    0.000 
#
# Total GULP energy -793587.493898 kJ/mol
# GULP energy per Si atom -12399.804592 kJ/mol
# Density = 1.957226 g / cm^3
# Si number density = 19.616907 Si / 1000 Ang^3
#
#
#
# Elastic Constant Matrix: (Units=GPa)
#
#
# Indices 1 2 3 4 5 6 
#
# 1 86.0741 43.5684 54.7623 0.0000 0.0000 0.0000
# 2 43.5684 78.5589 31.3851 0.0000 0.0000 0.0000
# 3 54.7623 31.3851 83.6349 0.0000 0.0000 0.0000
# 4 0.0000 0.0000 0.0000 17.2298 0.0000 0.0000
# 5 0.0000 0.0000 0.0000 0.0000 35.6362 0.0000
# 6 0.0000 0.0000 0.0000 0.0000 0.0000 21.3060
#
#
#
# Elastic Compliance Matrix: (Units=1/GPa)
#
#
# Indices 1 2 3 4 5 6 
#
# 1 0.023650 -0.008152 -0.012427 0.000000 0.000000 0.000000
# 2 -0.008152 0.017784 -0.001336 0.000000 0.000000 0.000000
# 3 -0.012427 -0.001336 0.020595 0.000000 0.000000 0.000000
# 4 0.000000 0.000000 0.000000 0.058039 0.000000 0.000000
# 5 0.000000 0.000000 0.000000 0.000000 0.028061 0.000000
# 6 0.000000 0.000000 0.000000 0.000000 0.000000 0.046935
#
#
# Mechanical properties :
#
#
# Convention : Reuss Voigt Hill
#
# Bulk Modulus (GPa) = 54.94468 56.41105 55.67786
# Shear Modulus (GPa) = 20.41153 22.73788 21.57470
#
# Velocity S-wave (km/s) = 3.22919 3.40824 3.31992
# Velocity P-wave (km/s) = 6.47867 6.65635 6.56811
#
# Compressibility (1/GPa) = 0.01820012
#
# Stress axis : x y z
#
# Youngs Moduli (GPa) = 42.28311 56.23039 48.55608
#
# Poissons Ratio (x) = 0.45837 0.60338
# Poissons Ratio (y) = 0.34468 0.06488
# Poissons Ratio (z) = 0.52543 0.07513
#
# Static dielectric constant tensor:
#      x y z
#    x 3.612510 0.000000 0.000000 
#    y 0.000000 3.797030 0.000000 
#    z 0.000000 0.000000 3.498240 
# 
# 
# High freq. dielectric constant tensor:
#      x y z
#    x 1.765550 0.000000 0.000000 
#    y 0.000000 1.774080 0.000000 
#    z 0.000000 0.000000 1.746310 
# 
# From -- ./inp_files/14870.got.cif
#   From: 2010.03.12/outbox.cif.g09.slc.cpg/sg59_8_cif.got.tgz:14870.got - 2010.04.16 16:29:54.
