data_PCOD8241619
_publ_section_title
;
Structure prediction by ZEFSAII (Michael W. Deem and Ramdas Pophale) SiO2 
 PCOD8241619
Probable space group: P M M N
;
_chemical_formula_sum "Si O2"
_cell_formula_units_Z 48
_cell_length_a 9.352415
_cell_length_b 30.356643
_cell_length_c 8.891232
_cell_angle_alpha 90.000000
_cell_angle_beta 90.000000
_cell_angle_gamma 90.000000
_cell_volume 2524.291213
_symmetry_space_group_name_H-M "P M M N"
_symmetry_group_IT_number 59
_space_group.IT_coordinate_system_code '2'
_symmetry_cell_setting 'orthorhombic'
loop_
_space_group_symop_operation_xyz
x,y,z
1/2-x,1/2-y,z
1/2+x,-y,-z
-x,1/2+y,-z
-x,-y,-z
1/2+x,1/2+y,-z
1/2-x,y,z
x,1/2-y,z
loop_
_atom_site_type_symbol
_atom_site_label
_atom_site_fract_x
_atom_site_fract_y
_atom_site_fract_z
Si Si1 0.906452 0.142894 0.922621
Si Si2 0.405466 0.025081 0.801704
Si Si3 0.994843 0.934672 0.897010
Si Si4 0.078192 0.905324 0.360682
Si Si5 0.588694 0.627878 0.645020
Si Si6 0.579675 0.300911 0.186305
O O1 0.750000 0.159596 0.880899
O O2 0.979524 0.130868 0.762713
O O3 0.977790 0.181802 0.022401
O O4 0.893934 0.098734 0.024349
O O5 0.250000 0.035115 0.730187
O O6 0.527807 0.046815 0.698360
O O7 0.425504 0.972453 0.802765
O O8 0.400508 0.042869 0.972976
O O9 0.898707 0.905845 0.784057
O O10 0.250000 0.905632 0.375682
O O11 0.003548 0.895081 0.516189
O O12 0.750000 0.639040 0.591828
O O13 0.506181 0.673015 0.685633
O O14 0.750000 0.309707 0.203075
O O15 0.541378 0.250000 0.202487
#
# Coordination Sequence:
#
# PCOD8241619 Si02
#       6
#     8   8   8   8   8   8
#     4   8  15  31  53  76 102 133 170 210 255 306
#     4  10  19  33  54  77 102 135 180 227 268 311
#     4   9  19  32  51  76 104 136 175 220 267 310
#     4  10  21  35  51  74 107 144 178 215 259 309
#     4  11  22  36  54  76 107 142 175 212 257 310
#     4   9  18  35  60  85 105 128 163 208 257 310
#
# _framework density 19.015241
#
# number of rings (size 3 to 8) (size 9 to 14) (size 15 to 20)
#    0.000    2.500    0.000    2.000    0.000    7.667 
#    0.000    1.667    0.000    3.000    0.000    0.000 
#    0.000    0.000    0.000    0.000    0.000    0.000 
#
# Total GULP energy -594686.782343 kJ/mol
# GULP energy per Si atom -12389.307965 kJ/mol
# Density = 1.897196 g / cm^3
# Si number density = 19.015241 Si / 1000 Ang^3
#
#
#
# Elastic Constant Matrix: (Units=GPa)
#
#
# Indices 1 2 3 4 5 6 
#
# 1 97.8932 30.8150 23.2898 0.0000 0.0000 0.0000
# 2 30.8150 116.1883 35.8188 0.0000 0.0000 0.0000
# 3 23.2898 35.8188 66.6513 0.0000 0.0000 0.0000
# 4 0.0000 0.0000 0.0000 20.8369 0.0000 0.0000
# 5 0.0000 0.0000 0.0000 0.0000 18.4647 0.0000
# 6 0.0000 0.0000 0.0000 0.0000 0.0000 20.4367
#
#
#
# Elastic Compliance Matrix: (Units=1/GPa)
#
#
# Indices 1 2 3 4 5 6 
#
# 1 0.011587 -0.002187 -0.002873 0.000000 0.000000 0.000000
# 2 -0.002187 0.010729 -0.005001 0.000000 0.000000 0.000000
# 3 -0.002873 -0.005001 0.018695 0.000000 0.000000 0.000000
# 4 0.000000 0.000000 0.000000 0.047992 0.000000 0.000000
# 5 0.000000 0.000000 0.000000 0.000000 0.054157 0.000000
# 6 0.000000 0.000000 0.000000 0.000000 0.000000 0.048932
#
#
# Mechanical properties :
#
#
# Convention : Reuss Voigt Hill
#
# Bulk Modulus (GPa) = 47.87653 51.17556 49.52604
# Shear Modulus (GPa) = 22.81244 24.66827 23.74036
#
# Velocity S-wave (km/s) = 3.46742 3.60570 3.53723
# Velocity P-wave (km/s) = 6.42365 6.65628 6.54100
#
# Compressibility (1/GPa) = 0.02088706
#
# Stress axis : x y z
#
# Youngs Moduli (GPa) = 86.30085 93.20833 53.48941
#
# Poissons Ratio (x) = 0.20388 0.15370
# Poissons Ratio (y) = 0.18877 0.26752
# Poissons Ratio (z) = 0.24798 0.46617
#
# Static dielectric constant tensor:
#      x y z
#    x 3.279620 0.000000 0.000000 
#    y 0.000000 3.419460 0.000000 
#    z 0.000000 0.000000 3.481410 
# 
# 
# High freq. dielectric constant tensor:
#      x y z
#    x 1.723250 0.000000 0.000000 
#    y 0.000000 1.725990 0.000000 
#    z 0.000000 0.000000 1.731850 
# 
# From -- ./inp_files/6329.got.cif
#   From: 2010.03.12/outbox.cif.g09.slc.cpg/sg59_4_cif.got.tgz:6329.got - 2010.04.16 16:29:54.
