data_PCOD8241812
_publ_section_title
;
Structure prediction by ZEFSAII (Michael W. Deem and Ramdas Pophale) SiO2 
 PCOD8241812
Probable space group: P M M N
;
_chemical_formula_sum "Si O2"
_cell_formula_units_Z 64
_cell_length_a 9.123937
_cell_length_b 29.760185
_cell_length_c 12.077251
_cell_angle_alpha 90.000000
_cell_angle_beta 90.000000
_cell_angle_gamma 90.000000
_cell_volume 3279.336605
_symmetry_space_group_name_H-M "P M M N"
_symmetry_group_IT_number 59
_space_group.IT_coordinate_system_code '2'
_symmetry_cell_setting 'orthorhombic'
loop_
_space_group_symop_operation_xyz
x,y,z
1/2-x,1/2-y,z
1/2+x,-y,-z
-x,1/2+y,-z
-x,-y,-z
1/2+x,1/2+y,-z
1/2-x,y,z
x,1/2-y,z
loop_
_atom_site_type_symbol
_atom_site_label
_atom_site_fract_x
_atom_site_fract_y
_atom_site_fract_z
Si Si1 0.921353 0.628088 0.362340
Si Si2 0.586171 0.848088 0.115438
Si Si3 0.576423 0.974915 0.399231
Si Si4 0.086367 0.059998 0.987154
Si Si5 0.081568 0.998881 0.179984
Si Si6 0.413463 0.303290 0.261518
Si Si7 0.089285 0.802329 0.946527
Si Si8 0.577145 0.301963 0.482418
O O1 0.750000 0.636900 0.383376
O O2 0.963409 0.632525 0.233428
O O3 0.965167 0.577992 0.401267
O O4 0.014409 0.666075 0.423014
O O5 0.750000 0.828392 0.124254
O O6 0.575737 0.886697 0.022541
O O7 0.480527 0.809524 0.068486
O O8 0.750000 0.981394 0.406455
O O9 0.500000 0.000000 0.500000
O O10 0.519701 0.998281 0.287610
O O11 0.250000 0.043885 0.949749
O O12 0.059894 0.046247 0.115371
O O13 0.965054 0.039318 0.906610
O O14 0.250000 0.991097 0.215372
O O15 0.250000 0.323774 0.270954
O O16 0.404598 0.250000 0.254904
O O17 0.489307 0.322969 0.151241
O O18 0.507196 0.318162 0.367414
O O19 0.250000 0.824955 0.942216
O O20 0.105605 0.750000 0.926205
O O21 0.750000 0.308264 0.473863
O O22 0.536632 0.250000 0.509263
#
# Coordination Sequence:
#
# PCOD8241812 Si02
#       8
#     8   8   8   8   8   8   8   8
#     4  10  22  40  61  83 114 156 199 242 287 345
#     4  10  20  37  58  80 111 152 193 235 285 340
#     4  11  23  42  63  85 117 155 197 243 295 349
#     4   9  18  35  57  83 114 146 183 230 279 333
#     4  10  19  33  59  88 112 145 186 228 282 341
#     4   9  17  33  58  82 106 143 189 232 280 341
#     4  10  21  36  54  81 117 152 188 235 289 340
#     4  10  21  37  59  88 121 154 192 243 297 346
#
# _framework density 19.516141999999999
#
# number of rings (size 3 to 8) (size 9 to 14) (size 15 to 20)
#    0.000    2.125    1.250    1.875    0.000    6.000 
#    2.250    2.500    0.000    0.000    0.000    0.000 
#    0.000    0.000    0.000    0.000    0.000    0.000 
#
# Total GULP energy -793479.756773 kJ/mol
# GULP energy per Si atom -12398.121200 kJ/mol
# Density = 1.947172 g / cm^3
# Si number density = 19.516142 Si / 1000 Ang^3
#
#
#
# Elastic Constant Matrix: (Units=GPa)
#
#
# Indices 1 2 3 4 5 6 
#
# 1 124.6198 45.1506 73.0993 0.0000 0.0000 0.0000
# 2 45.1506 55.1330 54.6075 0.0000 0.0000 0.0000
# 3 73.0993 54.6075 125.5027 0.0000 0.0000 0.0000
# 4 0.0000 0.0000 0.0000 34.1830 0.0000 0.0000
# 5 0.0000 0.0000 0.0000 0.0000 38.5266 0.0000
# 6 0.0000 0.0000 0.0000 0.0000 0.0000 27.1691
#
#
#
# Elastic Compliance Matrix: (Units=1/GPa)
#
#
# Indices 1 2 3 4 5 6 
#
# 1 0.013095 -0.005570 -0.005204 0.000000 0.000000 0.000000
# 2 -0.005570 0.034244 -0.011656 0.000000 0.000000 0.000000
# 3 -0.005204 -0.011656 0.016070 0.000000 0.000000 0.000000
# 4 0.000000 0.000000 0.000000 0.029254 0.000000 0.000000
# 5 0.000000 0.000000 0.000000 0.000000 0.025956 0.000000
# 6 0.000000 0.000000 0.000000 0.000000 0.000000 0.036807
#
#
# Mechanical properties :
#
#
# Convention : Reuss Voigt Hill
#
# Bulk Modulus (GPa) = 53.90623 72.33002 63.11812
# Shear Modulus (GPa) = 24.21689 28.80226 26.50958
#
# Velocity S-wave (km/s) = 3.52641 3.84580 3.68957
# Velocity P-wave (km/s) = 6.65298 7.54071 7.11071
#
# Compressibility (1/GPa) = 0.01855073
#
# Stress axis : x y z
#
# Youngs Moduli (GPa) = 76.36697 29.20231 62.22672
#
# Poissons Ratio (x) = 0.16265 0.32380
# Poissons Ratio (y) = 0.42535 0.72530
# Poissons Ratio (z) = 0.39738 0.34037
#
# Static dielectric constant tensor:
#      x y z
#    x 3.760030 0.000000 0.000000 
#    y 0.000000 3.342720 0.000000 
#    z 0.000000 0.000000 3.623070 
# 
# 
# High freq. dielectric constant tensor:
#      x y z
#    x 1.770540 0.000000 0.000000 
#    y 0.000000 1.736200 0.000000 
#    z 0.000000 0.000000 1.761920 
# 
# From -- ./inp_files/15073.got.cif
#   From: 2010.03.12/outbox.cif.g09.slc.cpg/sg59_8_cif.got.tgz:15073.got - 2010.04.16 16:29:54.
