data_PCOD8241745
_publ_section_title
;
Structure prediction by ZEFSAII (Michael W. Deem and Ramdas Pophale) SiO2 
 PCOD8241745
Probable space group: P M M N
;
_chemical_formula_sum "Si O2"
_cell_formula_units_Z 64
_cell_length_a 12.603024
_cell_length_b 26.884987
_cell_length_c 9.916094
_cell_angle_alpha 90.000000
_cell_angle_beta 90.000000
_cell_angle_gamma 90.000000
_cell_volume 3359.891315
_symmetry_space_group_name_H-M "P M M N"
_symmetry_group_IT_number 59
_space_group.IT_coordinate_system_code '2'
_symmetry_cell_setting 'orthorhombic'
loop_
_space_group_symop_operation_xyz
x,y,z
1/2-x,1/2-y,z
1/2+x,-y,-z
-x,1/2+y,-z
-x,-y,-z
1/2+x,1/2+y,-z
1/2-x,y,z
x,1/2-y,z
loop_
_atom_site_type_symbol
_atom_site_label
_atom_site_fract_x
_atom_site_fract_y
_atom_site_fract_z
Si Si1 0.627393 0.068643 0.297388
Si Si2 0.539386 0.632829 0.827114
Si Si3 0.498676 0.026376 0.790343
Si Si4 0.628959 0.691422 0.061564
Si Si5 0.128871 0.305855 0.404212
Si Si6 0.993777 0.806776 0.326585
Si Si7 0.127287 0.600815 0.395629
Si Si8 0.868131 0.955874 0.963629
O O1 0.750000 0.062030 0.258699
O O2 0.576268 0.106773 0.187246
O O3 0.613210 0.090804 0.446208
O O4 0.568694 0.015550 0.288687
O O5 0.561625 0.655887 0.682220
O O6 0.550444 0.674715 0.941224
O O7 0.625562 0.591044 0.864208
O O8 0.552536 0.062297 0.682529
O O9 0.424723 0.057010 0.893992
O O10 0.587659 0.003618 0.886937
O O11 0.750000 0.669299 0.051825
O O12 0.638123 0.750000 0.055561
O O13 0.570523 0.674169 0.196969
O O14 0.250000 0.322165 0.395167
O O15 0.113168 0.250000 0.348042
O O16 0.093010 0.309538 0.557045
O O17 0.036811 0.750000 0.309988
O O18 0.092416 0.842921 0.359079
O O19 0.250000 0.594149 0.352892
O O20 0.750000 0.969245 0.001740
#
# Coordination Sequence:
#
# PCOD8241745 Si02
#       8
#     8   8   8   8   8   8   8   8
#     4  10  22  40  60  82 115 153 194 247 298 346
#     4  11  20  34  56  84 115 149 193 237 289 350
#     4  10  21  37  59  82 112 151 196 240 288 352
#     4  10  20  35  57  85 120 158 193 239 297 350
#     4  10  19  33  55  82 114 150 189 235 286 341
#     4  10  21  38  58  85 119 154 193 236 285 346
#     4  11  22  39  61  84 113 152 197 245 296 347
#     4  10  20  34  54  83 116 149 186 235 292 350
#
# _framework density 19.048235999999999
#
# number of rings (size 3 to 8) (size 9 to 14) (size 15 to 20)
#    0.000    1.750    1.250    3.750    0.000    2.750 
#    0.000    6.875    0.000    2.250    0.000    0.000 
#    0.000    0.000    0.000    0.000    0.000    0.000 
#
# Total GULP energy -793409.354016 kJ/mol
# GULP energy per Si atom -12397.021157 kJ/mol
# Density = 1.900488 g / cm^3
# Si number density = 19.048236 Si / 1000 Ang^3
#
#
#
# Elastic Constant Matrix: (Units=GPa)
#
#
# Indices 1 2 3 4 5 6 
#
# 1 127.7744 51.1106 43.2512 0.0000 0.0000 0.0000
# 2 51.1106 65.0871 27.9363 0.0000 0.0000 0.0000
# 3 43.2512 27.9363 92.4742 0.0000 0.0000 0.0000
# 4 0.0000 0.0000 0.0000 22.3656 0.0000 0.0000
# 5 0.0000 0.0000 0.0000 0.0000 26.8873 0.0000
# 6 0.0000 0.0000 0.0000 0.0000 0.0000 22.6517
#
#
#
# Elastic Compliance Matrix: (Units=1/GPa)
#
#
# Indices 1 2 3 4 5 6 
#
# 1 0.012196 -0.008191 -0.003230 0.000000 0.000000 0.000000
# 2 -0.008191 0.023154 -0.003164 0.000000 0.000000 0.000000
# 3 -0.003230 -0.003164 0.013280 0.000000 0.000000 0.000000
# 4 0.000000 0.000000 0.000000 0.044712 0.000000 0.000000
# 5 0.000000 0.000000 0.000000 0.000000 0.037192 0.000000
# 6 0.000000 0.000000 0.000000 0.000000 0.000000 0.044147
#
#
# Mechanical properties :
#
#
# Convention : Reuss Voigt Hill
#
# Bulk Modulus (GPa) = 51.38400 58.88134 55.13267
# Shear Modulus (GPa) = 23.77143 25.25008 24.51075
#
# Velocity S-wave (km/s) = 3.53648 3.64481 3.59105
# Velocity P-wave (km/s) = 6.61134 6.97794 6.79711
#
# Compressibility (1/GPa) = 0.01946131
#
# Stress axis : x y z
#
# Youngs Moduli (GPa) = 81.99471 43.18927 75.30002
#
# Poissons Ratio (x) = 0.35375 0.24320
# Poissons Ratio (y) = 0.67160 0.23824
# Poissons Ratio (z) = 0.26482 0.13664
#
# Static dielectric constant tensor:
#      x y z
#    x 3.473850 0.000000 0.000000 
#    y 0.000000 3.530090 0.000000 
#    z 0.000000 0.000000 3.563080 
# 
# 
# High freq. dielectric constant tensor:
#      x y z
#    x 1.731610 0.000000 0.000000 
#    y 0.000000 1.745470 0.000000 
#    z 0.000000 0.000000 1.749780 
# 
# From -- ./inp_files/8018.got.cif
#   From: 2010.03.12/outbox.cif.g09.slc.cpg/sg59_5_cif.got.tgz:8018.got - 2010.04.16 16:29:54.
