data_PCOD8241569
_publ_section_title
;
Structure prediction by ZEFSAII (Michael W. Deem and Ramdas Pophale) SiO2 
 PCOD8241569
Probable space group: P M M N
;
_chemical_formula_sum "Si O2"
_cell_formula_units_Z 56
_cell_length_a 9.259185
_cell_length_b 16.667042
_cell_length_c 19.317838
_cell_angle_alpha 90.000000
_cell_angle_beta 90.000000
_cell_angle_gamma 90.000000
_cell_volume 2981.191066
_symmetry_space_group_name_H-M "P M M N"
_symmetry_group_IT_number 59
_space_group.IT_coordinate_system_code '2'
_symmetry_cell_setting 'orthorhombic'
loop_
_space_group_symop_operation_xyz
x,y,z
1/2-x,1/2-y,z
1/2+x,-y,-z
-x,1/2+y,-z
-x,-y,-z
1/2+x,1/2+y,-z
1/2-x,y,z
x,1/2-y,z
loop_
_atom_site_type_symbol
_atom_site_label
_atom_site_fract_x
_atom_site_fract_y
_atom_site_fract_z
Si Si1 0.085252 0.156371 0.032455
Si Si2 0.578444 0.900381 0.114545
Si Si3 0.579596 0.424219 0.153719
Si Si4 0.416492 0.657240 0.704600
Si Si5 0.922592 0.750000 0.200377
Si Si6 0.081986 0.090501 0.569327
Si Si7 0.421607 0.250000 0.643415
Si Si8 0.918062 0.567477 0.589998
O O1 0.250000 0.132091 0.048439
O O2 0.072449 0.250000 0.016366
O O3 0.989427 0.134411 0.097822
O O4 0.026275 0.109954 0.964624
O O5 0.750000 0.895951 0.116832
O O6 0.515797 0.829143 0.162338
O O7 0.521809 0.985227 0.143522
O O8 0.750000 0.418955 0.143582
O O9 0.533804 0.395035 0.229666
O O10 0.250000 0.640170 0.685959
O O11 0.441709 0.750000 0.722649
O O12 0.514495 0.634173 0.639662
O O13 0.750000 0.750000 0.199500
O O14 0.981542 0.750000 0.278619
O O15 0.250000 0.076302 0.586095
O O16 0.021346 0.171340 0.603934
O O17 0.054151 0.097517 0.487722
O O18 0.994642 0.017462 0.602983
O O19 0.250000 0.250000 0.642095
O O20 0.750000 0.557833 0.606309
#
# Coordination Sequence:
#
# PCOD8241569 Si02
#       8
#     8   8   8   8   4   8   4   8
#     4  10  19  33  53  77 108 141 174 216 264 320
#     4   9  17  31  51  79 109 137 172 216 266 321
#     4  10  21  35  55  80 106 138 180 227 271 315
#     4  10  22  38  55  78 109 144 182 228 278 326
#     4   9  16  28  50  81 108 133 172 216 263 317
#     4   9  19  36  57  84 114 143 183 228 270 321
#     4   9  18  30  55  87 110 139 180 226 269 315
#     4  10  21  36  57  81 112 148 183 226 275 327
#
# _framework density 18.784438000000002
#
# number of rings (size 3 to 8) (size 9 to 14) (size 15 to 20)
#    0.000    2.429    0.714    1.286    3.000    2.286 
#    0.000    0.357    0.000    0.000    0.000    0.000 
#    0.000    0.000    0.000    0.000    0.000    0.000 
#
# Total GULP energy -694543.814155 kJ/mol
# GULP energy per Si atom -12402.568110 kJ/mol
# Density = 1.874168 g / cm^3
# Si number density = 18.784438 Si / 1000 Ang^3
#
#
#
# Elastic Constant Matrix: (Units=GPa)
#
#
# Indices 1 2 3 4 5 6 
#
# 1 42.0807 30.1263 36.3978 0.0000 0.0000 0.0000
# 2 30.1263 94.4782 45.3067 0.0000 0.0000 0.0000
# 3 36.3978 45.3067 101.1270 0.0000 0.0000 0.0000
# 4 0.0000 0.0000 0.0000 38.7029 0.0000 0.0000
# 5 0.0000 0.0000 0.0000 0.0000 24.7073 0.0000
# 6 0.0000 0.0000 0.0000 0.0000 0.0000 24.0144
#
#
#
# Elastic Compliance Matrix: (Units=1/GPa)
#
#
# Indices 1 2 3 4 5 6 
#
# 1 0.037870 -0.007055 -0.010470 0.000000 0.000000 0.000000
# 2 -0.007055 0.014795 -0.004089 0.000000 0.000000 0.000000
# 3 -0.010470 -0.004089 0.015489 0.000000 0.000000 0.000000
# 4 0.000000 0.000000 0.000000 0.025838 0.000000 0.000000
# 5 0.000000 0.000000 0.000000 0.000000 0.040474 0.000000
# 6 0.000000 0.000000 0.000000 0.000000 0.000000 0.041642
#
#
# Mechanical properties :
#
#
# Convention : Reuss Voigt Hill
#
# Bulk Modulus (GPa) = 40.11783 51.26084 45.68933
# Shear Modulus (GPa) = 21.96410 25.87525 23.91968
#
# Velocity S-wave (km/s) = 3.42317 3.71547 3.57231
# Velocity P-wave (km/s) = 6.08502 6.76421 6.43358
#
# Compressibility (1/GPa) = 0.02492658
#
# Stress axis : x y z
#
# Youngs Moduli (GPa) = 26.40588 67.59002 64.56283
#
# Poissons Ratio (x) = 0.47686 0.67594
# Poissons Ratio (y) = 0.18630 0.26401
# Poissons Ratio (z) = 0.27646 0.27639
#
# Static dielectric constant tensor:
#      x y z
#    x 3.103810 0.000000 0.000000 
#    y 0.000000 3.613270 0.000000 
#    z 0.000000 0.000000 3.484700 
# 
# 
# High freq. dielectric constant tensor:
#      x y z
#    x 1.690420 0.000000 0.000000 
#    y 0.000000 1.742250 0.000000 
#    z 0.000000 0.000000 1.738030 
# 
# From -- ./inp_files/29208.got.cif
#   From: 2010.03.12/outbox.cif.g09.slc.cpg/sg59_15_cif.got.tgz:29208.got - 2010.04.16 16:29:54.
