data_PCOD8241183
_publ_section_title
;
Structure prediction by ZEFSAII (Michael W. Deem and Ramdas Pophale) SiO2 
 PCOD8241183
Probable space group: P M M N
;
_chemical_formula_sum "Si O2"
_cell_formula_units_Z 64
_cell_length_a 9.082840
_cell_length_b 18.035755
_cell_length_c 21.622777
_cell_angle_alpha 90.000000
_cell_angle_beta 90.000000
_cell_angle_gamma 90.000000
_cell_volume 3542.154176
_symmetry_space_group_name_H-M "P M M N"
_symmetry_group_IT_number 59
_space_group.IT_coordinate_system_code '2'
_symmetry_cell_setting 'orthorhombic'
loop_
_space_group_symop_operation_xyz
x,y,z
1/2-x,1/2-y,z
1/2+x,-y,-z
-x,1/2+y,-z
-x,-y,-z
1/2+x,1/2+y,-z
1/2-x,y,z
x,1/2-y,z
loop_
_atom_site_type_symbol
_atom_site_label
_atom_site_fract_x
_atom_site_fract_y
_atom_site_fract_z
Si Si1 0.920966 0.551723 0.175593
Si Si2 0.918250 0.399530 0.240873
Si Si3 0.074872 0.667183 0.507749
Si Si4 0.576542 0.071416 0.377196
Si Si5 0.920334 0.163308 0.740634
Si Si6 0.576557 0.414778 0.614358
Si Si7 0.922422 0.667799 0.869452
Si Si8 0.574848 0.520420 0.936203
O O1 0.750000 0.561186 0.157904
O O2 0.946629 0.485066 0.223529
O O3 0.980131 0.626373 0.206672
O O4 0.014650 0.537371 0.113951
O O5 0.750000 0.377623 0.229724
O O6 0.963997 0.389172 0.312269
O O7 0.011845 0.344677 0.198526
O O8 0.250000 0.670183 0.507080
O O9 0.009357 0.750000 0.509748
O O10 0.018230 0.623796 0.568119
O O11 0.016042 0.626957 0.446302
O O12 0.750000 0.057073 0.381346
O O13 0.497918 0.993658 0.382227
O O14 0.750000 0.144650 0.753811
O O15 0.951599 0.250000 0.742777
O O16 0.967717 0.134046 0.673437
O O17 0.750000 0.426613 0.610307
O O18 0.750000 0.661818 0.861001
O O19 0.968490 0.750000 0.893601
O O20 0.974985 0.604318 0.917432
O O21 0.750000 0.513178 0.941542
O O22 0.500000 0.500000 0.000000
#
# Coordination Sequence:
#
# PCOD8241183 Si02
#       8
#     8   8   8   8   8   8   8   8
#     4  10  19  34  54  77 107 139 174 216 261 315
#     4   9  18  31  49  75 104 135 171 213 259 312
#     4   9  18  32  49  70  98 134 176 220 267 320
#     4  10  19  32  51  75 101 132 172 219 266 318
#     4  10  20  33  51  76 104 135 175 223 273 323
#     4  10  19  32  52  74  98 133 176 221 268 322
#     4   9  19  35  55  80 109 140 175 216 260 306
#     4  10  20  36  59  84 111 146 184 220 259 309
#
# _framework density 18.068100999999999
#
# number of rings (size 3 to 8) (size 9 to 14) (size 15 to 20)
#    0.000    2.375    1.250    1.500    0.000    4.000 
#    0.000    1.875    0.000    4.500    0.000    0.000 
#    0.000    0.000    0.000    0.000    0.000    0.000 
#
# Total GULP energy -793643.063090 kJ/mol
# GULP energy per Si atom -12400.672861 kJ/mol
# Density = 1.802698 g / cm^3
# Si number density = 18.068101 Si / 1000 Ang^3
#
#
#
# Elastic Constant Matrix: (Units=GPa)
#
#
# Indices 1 2 3 4 5 6 
#
# 1 44.1323 42.0011 45.6562 0.0000 0.0000 0.0000
# 2 42.0011 113.6434 66.9747 0.0000 0.0000 0.0000
# 3 45.6562 66.9747 149.0062 0.0000 0.0000 0.0000
# 4 0.0000 0.0000 0.0000 21.3760 0.0000 0.0000
# 5 0.0000 0.0000 0.0000 0.0000 24.2955 0.0000
# 6 0.0000 0.0000 0.0000 0.0000 0.0000 23.3138
#
#
#
# Elastic Compliance Matrix: (Units=1/GPa)
#
#
# Indices 1 2 3 4 5 6 
#
# 1 0.040617 -0.010443 -0.007751 0.000000 0.000000 0.000000
# 2 -0.010443 0.014656 -0.003387 0.000000 0.000000 0.000000
# 3 -0.007751 -0.003387 0.010609 0.000000 0.000000 0.000000
# 4 0.000000 0.000000 0.000000 0.046781 0.000000 0.000000
# 5 0.000000 0.000000 0.000000 0.000000 0.041160 0.000000
# 6 0.000000 0.000000 0.000000 0.000000 0.000000 0.042893
#
#
# Mechanical properties :
#
#
# Convention : Reuss Voigt Hill
#
# Bulk Modulus (GPa) = 44.01937 68.44953 56.23445
# Shear Modulus (GPa) = 20.20593 23.94040 22.07316
#
# Velocity S-wave (km/s) = 3.34776 3.64402 3.49902
# Velocity P-wave (km/s) = 6.27369 7.46134 6.89314
#
# Compressibility (1/GPa) = 0.02271727
#
# Stress axis : x y z
#
# Youngs Moduli (GPa) = 24.62015 68.23360 94.26238
#
# Poissons Ratio (x) = 0.71259 0.73065
# Poissons Ratio (y) = 0.25712 0.31930
# Poissons Ratio (z) = 0.19084 0.23113
#
# Static dielectric constant tensor:
#      x y z
#    x 3.198630 0.000000 0.000000 
#    y 0.000000 3.528370 0.000000 
#    z 0.000000 0.000000 3.513310 
# 
# 
# High freq. dielectric constant tensor:
#      x y z
#    x 1.684940 0.000000 0.000000 
#    y 0.000000 1.699070 0.000000 
#    z 0.000000 0.000000 1.702710 
# 
# From -- ./inp_files/29605.got.cif
#   From: 2010.03.12/outbox.cif.g09.slc.cpg/sg59_15_cif.got.tgz:29605.got - 2010.04.16 16:29:54.
