data_PCOD8241718
_publ_section_title
;
Structure prediction by ZEFSAII (Michael W. Deem and Ramdas Pophale) SiO2 
 PCOD8241718
Probable space group: P M M N
;
_chemical_formula_sum "Si O2"
_cell_formula_units_Z 48
_cell_length_a 13.990526
_cell_length_b 17.561979
_cell_length_c 10.281190
_cell_angle_alpha 90.000000
_cell_angle_beta 90.000000
_cell_angle_gamma 90.000000
_cell_volume 2526.101993
_symmetry_space_group_name_H-M "P M M N"
_symmetry_group_IT_number 59
_space_group.IT_coordinate_system_code '2'
_symmetry_cell_setting 'orthorhombic'
loop_
_space_group_symop_operation_xyz
x,y,z
1/2-x,1/2-y,z
1/2+x,-y,-z
-x,1/2+y,-z
-x,-y,-z
1/2+x,1/2+y,-z
1/2-x,y,z
x,1/2-y,z
loop_
_atom_site_type_symbol
_atom_site_label
_atom_site_fract_x
_atom_site_fract_y
_atom_site_fract_z
Si Si1 0.141248 0.574158 0.049538
Si Si2 0.642562 0.659507 0.399908
Si Si3 0.550122 0.661528 0.665213
Si Si4 0.860607 0.601258 0.920868
Si Si5 0.025324 0.337724 0.845888
Si Si6 0.856382 0.163068 0.212111
O O1 0.250000 0.588618 0.094035
O O2 0.117379 0.485421 0.041355
O O3 0.073017 0.614888 0.153778
O O4 0.120717 0.608461 0.907898
O O5 0.750000 0.625886 0.403334
O O6 0.646523 0.750000 0.396823
O O7 0.584141 0.630547 0.525589
O O8 0.590074 0.629044 0.270850
O O9 0.576450 0.750000 0.681273
O O10 0.606973 0.615255 0.773959
O O11 0.435629 0.648137 0.676901
O O12 0.750000 0.621757 0.935318
O O13 0.918870 0.655006 0.018219
O O14 0.999502 0.250000 0.821911
O O15 0.750000 0.146775 0.268914
O O16 0.863425 0.250000 0.161362
#
# Coordination Sequence:
#
# PCOD8241718 Si02
#       6
#     8   8   8   8   8   8
#     4  10  21  36  54  78 112 145 175 219 275 319
#     4   9  19  35  53  76 111 145 173 216 274 325
#     4  10  19  33  55  81 105 139 180 221 271 320
#     4  11  22  34  54  81 110 140 177 224 269 320
#     4  11  21  35  56  82 107 139 183 224 266 317
#     4   9  17  31  53  79 105 137 179 222 263 314
#
# _framework density 19.001608000000001
#
# number of rings (size 3 to 8) (size 9 to 14) (size 15 to 20)
#    0.000    2.000    1.667    2.500    0.000    3.667 
#    0.000    1.667    0.000    3.000    0.000    0.000 
#    0.000    0.000    0.000    0.000    0.000    0.000 
#
# Total GULP energy -595300.735690 kJ/mol
# GULP energy per Si atom -12402.098660 kJ/mol
# Density = 1.895836 g / cm^3
# Si number density = 19.001608 Si / 1000 Ang^3
#
#
#
# Elastic Constant Matrix: (Units=GPa)
#
#
# Indices 1 2 3 4 5 6 
#
# 1 129.0395 28.3381 50.3108 0.0000 0.0000 0.0000
# 2 28.3381 40.5593 13.0665 0.0000 0.0000 0.0000
# 3 50.3108 13.0665 103.3009 0.0000 0.0000 0.0000
# 4 0.0000 0.0000 0.0000 6.6352 0.0000 0.0000
# 5 0.0000 0.0000 0.0000 0.0000 37.1814 0.0000
# 6 0.0000 0.0000 0.0000 0.0000 0.0000 26.0420
#
#
#
# Elastic Compliance Matrix: (Units=1/GPa)
#
#
# Indices 1 2 3 4 5 6 
#
# 1 0.010855 -0.006131 -0.004511 0.000000 0.000000 0.000000
# 2 -0.006131 0.029165 -0.000703 0.000000 0.000000 0.000000
# 3 -0.004511 -0.000703 0.011966 0.000000 0.000000 0.000000
# 4 0.000000 0.000000 0.000000 0.150712 0.000000 0.000000
# 5 0.000000 0.000000 0.000000 0.000000 0.026895 0.000000
# 6 0.000000 0.000000 0.000000 0.000000 0.000000 0.038399
#
#
# Mechanical properties :
#
#
# Convention : Reuss Voigt Hill
#
# Bulk Modulus (GPa) = 34.13406 50.70339 42.41873
# Shear Modulus (GPa) = 16.64175 26.05066 21.34621
#
# Velocity S-wave (km/s) = 2.96262 3.70668 3.35534
# Velocity P-wave (km/s) = 5.45028 6.71275 6.11419
#
# Compressibility (1/GPa) = 0.02929625
#
# Stress axis : x y z
#
# Youngs Moduli (GPa) = 92.12549 34.28737 83.56679
#
# Poissons Ratio (x) = 0.21021 0.37698
# Poissons Ratio (y) = 0.56480 0.05877
# Poissons Ratio (z) = 0.41559 0.02411
#
# Static dielectric constant tensor:
#      x y z
#    x 3.843080 0.000000 0.000000 
#    y 0.000000 3.301210 0.000000 
#    z 0.000000 0.000000 3.339570 
# 
# 
# High freq. dielectric constant tensor:
#      x y z
#    x 1.760190 0.000000 0.000000 
#    y 0.000000 1.719240 0.000000 
#    z 0.000000 0.000000 1.716860 
# 
# From -- ./inp_files/8985.got.cif
#   From: 2010.03.12/outbox.cif.g09.slc.cpg/sg59_5_cif.got.tgz:8985.got - 2010.04.16 16:29:54.
