data_PCOD8241781
_publ_section_title
;
Structure prediction by ZEFSAII (Michael W. Deem and Ramdas Pophale) SiO2 
 PCOD8241781
Probable space group: P M M N
;
_chemical_formula_sum "Si O2"
_cell_formula_units_Z 64
_cell_length_a 14.875066
_cell_length_b 24.741968
_cell_length_c 9.067296
_cell_angle_alpha 90.000000
_cell_angle_beta 90.000000
_cell_angle_gamma 90.000000
_cell_volume 3337.113175
_symmetry_space_group_name_H-M "P M M N"
_symmetry_group_IT_number 59
_space_group.IT_coordinate_system_code '2'
_symmetry_cell_setting 'orthorhombic'
loop_
_space_group_symop_operation_xyz
x,y,z
1/2-x,1/2-y,z
1/2+x,-y,-z
-x,1/2+y,-z
-x,-y,-z
1/2+x,1/2+y,-z
1/2-x,y,z
x,1/2-y,z
loop_
_atom_site_type_symbol
_atom_site_label
_atom_site_fract_x
_atom_site_fract_y
_atom_site_fract_z
Si Si1 0.393366 0.140027 0.159391
Si Si2 0.849101 0.690875 0.553168
Si Si3 0.963498 0.509775 0.219778
Si Si4 0.981874 0.618536 0.376743
Si Si5 0.650274 0.310054 0.140559
Si Si6 0.146428 0.023421 0.076619
Si Si7 0.930502 0.106333 0.330756
Si Si8 0.499682 0.312165 0.909529
O O1 0.338207 0.176716 0.273076
O O2 0.340889 0.085135 0.125382
O O3 0.485007 0.128907 0.243675
O O4 0.412355 0.170983 0.005377
O O5 0.750000 0.693912 0.485570
O O6 0.896050 0.750000 0.538328
O O7 0.898755 0.646071 0.458065
O O8 0.921696 0.456928 0.296170
O O9 0.952230 0.558279 0.334286
O O10 0.070876 0.505674 0.180168
O O11 0.897825 0.521649 0.083877
O O12 0.063683 0.615052 0.493404
O O13 0.011281 0.652017 0.235157
O O14 0.750000 0.308833 0.075885
O O15 0.623464 0.250000 0.202394
O O16 0.649051 0.355673 0.268955
O O17 0.588071 0.325139 0.003155
O O18 0.250000 0.998590 0.082257
O O19 0.490767 0.250000 0.862711
#
# Coordination Sequence:
#
# PCOD8241781 Si02
#       8
#     8   8   8   8   8   8   8   8
#     4   9  17  35  56  81 109 140 190 234 279 344
#     4  10  21  36  55  81 114 153 194 235 283 343
#     4  10  21  38  55  84 118 149 196 238 285 349
#     4  11  21  37  56  79 117 152 189 234 288 346
#     4   9  19  37  59  83 112 146 191 244 290 339
#     4  10  20  35  59  85 113 148 188 241 296 341
#     4   9  20  35  58  79 108 152 189 230 280 346
#     4  10  19  33  56  83 110 147 189 233 292 348
#
# _framework density 19.178252000000001
#
# number of rings (size 3 to 8) (size 9 to 14) (size 15 to 20)
#    0.000    2.250    1.250    1.500    1.750    4.500 
#    0.000    1.250    0.000    5.250    0.000    0.000 
#    0.000    0.000    0.000    0.000    0.000    0.000 
#
# Total GULP energy -793021.847588 kJ/mol
# GULP energy per Si atom -12390.966369 kJ/mol
# Density = 1.913460 g / cm^3
# Si number density = 19.178252 Si / 1000 Ang^3
#
#
#
# Elastic Constant Matrix: (Units=GPa)
#
#
# Indices 1 2 3 4 5 6 
#
# 1 85.5300 31.4170 28.1318 0.0000 0.0000 0.0000
# 2 31.4170 125.3083 67.0401 0.0000 0.0000 0.0000
# 3 28.1318 67.0401 123.5806 0.0000 0.0000 0.0000
# 4 0.0000 0.0000 0.0000 33.0539 0.0000 0.0000
# 5 0.0000 0.0000 0.0000 0.0000 13.4323 0.0000
# 6 0.0000 0.0000 0.0000 0.0000 0.0000 12.6588
#
#
#
# Elastic Compliance Matrix: (Units=1/GPa)
#
#
# Indices 1 2 3 4 5 6 
#
# 1 0.013125 -0.002384 -0.001694 0.000000 0.000000 0.000000
# 2 -0.002384 0.011677 -0.005792 0.000000 0.000000 0.000000
# 3 -0.001694 -0.005792 0.011619 0.000000 0.000000 0.000000
# 4 0.000000 0.000000 0.000000 0.030254 0.000000 0.000000
# 5 0.000000 0.000000 0.000000 0.000000 0.074447 0.000000
# 6 0.000000 0.000000 0.000000 0.000000 0.000000 0.078996
#
#
# Mechanical properties :
#
#
# Convention : Reuss Voigt Hill
#
# Bulk Modulus (GPa) = 59.94982 65.28853 62.61917
# Shear Modulus (GPa) = 20.37334 25.68434 23.02884
#
# Velocity S-wave (km/s) = 3.26285 3.66354 3.46898
# Velocity P-wave (km/s) = 6.74701 7.21195 6.98335
#
# Compressibility (1/GPa) = 0.01668062
#
# Stress axis : x y z
#
# Youngs Moduli (GPa) = 76.19141 85.64161 86.06282
#
# Poissons Ratio (x) = 0.20418 0.14582
# Poissons Ratio (y) = 0.18165 0.49844
# Poissons Ratio (z) = 0.12910 0.49600
#
# Static dielectric constant tensor:
#      x y z
#    x 3.417990 0.000000 0.000000 
#    y 0.000000 3.800570 0.000000 
#    z 0.000000 0.000000 3.588160 
# 
# 
# High freq. dielectric constant tensor:
#      x y z
#    x 1.725140 0.000000 0.000000 
#    y 0.000000 1.759360 0.000000 
#    z 0.000000 0.000000 1.739330 
# 
# From -- ./inp_files/9551.got.cif
#   From: 2010.03.12/outbox.cif.g09.slc.cpg/sg59_5_cif.got.tgz:9551.got - 2010.04.16 16:29:54.
