data_PCOD8241667
_publ_section_title
;
Structure prediction by ZEFSAII (Michael W. Deem and Ramdas Pophale) SiO2 
 PCOD8241667
Probable space group: P M M N
;
_chemical_formula_sum "Si O2"
_cell_formula_units_Z 56
_cell_length_a 16.507784
_cell_length_b 8.708822
_cell_length_c 19.211652
_cell_angle_alpha 90.000000
_cell_angle_beta 90.000000
_cell_angle_gamma 90.000000
_cell_volume 2761.931498
_symmetry_space_group_name_H-M "P M M N"
_symmetry_group_IT_number 59
_space_group.IT_coordinate_system_code '2'
_symmetry_cell_setting 'orthorhombic'
loop_
_space_group_symop_operation_xyz
x,y,z
1/2-x,1/2-y,z
1/2+x,-y,-z
-x,1/2+y,-z
-x,-y,-z
1/2+x,1/2+y,-z
1/2-x,y,z
x,1/2-y,z
loop_
_atom_site_type_symbol
_atom_site_label
_atom_site_fract_x
_atom_site_fract_y
_atom_site_fract_z
Si Si1 0.655991 0.428162 0.151800
Si Si2 0.750000 0.567287 0.937164
Si Si3 0.750000 0.567381 0.778495
Si Si4 0.663543 0.569694 0.408553
Si Si5 0.406100 0.067260 0.303695
Si Si6 0.412147 0.068944 0.982002
Si Si7 0.425894 0.071121 0.459378
Si Si8 0.929735 0.567910 0.277978
O O1 0.750000 0.453393 0.135866
O O2 0.631832 0.250000 0.147911
O O3 0.603486 0.524128 0.097364
O O4 0.636420 0.496005 0.227079
O O5 0.750000 0.750000 0.940997
O O6 0.750000 0.506039 0.857715
O O7 0.665860 0.506801 0.973002
O O8 0.750000 0.750000 0.779312
O O9 0.672246 0.504708 0.736798
O O10 0.750000 0.494659 0.389069
O O11 0.667697 0.750000 0.396364
O O12 0.649001 0.534134 0.489802
O O13 0.594504 0.509347 0.355836
O O14 0.407889 0.250000 0.302957
O O15 0.407117 0.001918 0.383071
O O16 0.482365 0.001150 0.261634
O O17 0.418821 0.250000 0.990969
O O18 0.500000 0.000000 0.000000
O O19 0.442947 0.250000 0.451411
O O20 0.500000 0.000000 0.500000
O O21 0.931507 0.750000 0.269802
#
# Coordination Sequence:
#
# PCOD8241667 Si02
#       8
#     8   4   4   8   8   8   8   8
#     4  11  24  42  64  91 124 161 200 253 307 361
#     4   9  20  40  65  91 126 163 203 253 305 365
#     4   9  20  38  59  87 118 155 197 249 303 353
#     4   9  18  32  52  79 111 150 196 243 292 349
#     4  10  21  36  58  85 116 155 202 252 305 364
#     4  11  23  41  66  97 129 168 209 251 306 370
#     4  10  19  33  54  80 111 149 196 251 301 353
#     4  11  22  37  59  85 118 158 198 246 303 368
#
# _framework density 20.275666999999999
#
# number of rings (size 3 to 8) (size 9 to 14) (size 15 to 20)
#    0.000    1.857    2.143    1.714    3.000    1.429 
#    0.000    0.357    0.000    3.000    0.000    0.000 
#    0.000    0.000    0.000    0.000    0.000    0.000 
#
# Total GULP energy -694124.066790 kJ/mol
# GULP energy per Si atom -12395.072621 kJ/mol
# Density = 2.022952 g / cm^3
# Si number density = 20.275667 Si / 1000 Ang^3
#
#
#
# Elastic Constant Matrix: (Units=GPa)
#
#
# Indices 1 2 3 4 5 6 
#
# 1 139.0711 31.8690 42.2640 0.0000 0.0000 0.0000
# 2 31.8690 38.5072 22.3867 0.0000 0.0000 0.0000
# 3 42.2640 22.3867 115.1617 0.0000 0.0000 0.0000
# 4 0.0000 0.0000 0.0000 23.5161 0.0000 0.0000
# 5 0.0000 0.0000 0.0000 0.0000 16.3861 0.0000
# 6 0.0000 0.0000 0.0000 0.0000 0.0000 28.6910
#
#
#
# Elastic Compliance Matrix: (Units=1/GPa)
#
#
# Indices 1 2 3 4 5 6 
#
# 1 0.009330 -0.006461 -0.002168 0.000000 0.000000 0.000000
# 2 -0.006461 0.033753 -0.004190 0.000000 0.000000 0.000000
# 3 -0.002168 -0.004190 0.010294 0.000000 0.000000 0.000000
# 4 0.000000 0.000000 0.000000 0.042524 0.000000 0.000000
# 5 0.000000 0.000000 0.000000 0.000000 0.061027 0.000000
# 6 0.000000 0.000000 0.000000 0.000000 0.000000 0.034854
#
#
# Mechanical properties :
#
#
# Convention : Reuss Voigt Hill
#
# Bulk Modulus (GPa) = 36.05221 53.97546 45.01384
# Shear Modulus (GPa) = 22.05885 26.79999 24.42942
#
# Velocity S-wave (km/s) = 3.30198 3.63957 3.47488
# Velocity P-wave (km/s) = 5.68833 6.65887 6.19264
#
# Compressibility (1/GPa) = 0.02773755
#
# Stress axis : x y z
#
# Youngs Moduli (GPa) = 107.18015 29.62743 97.14744
#
# Poissons Ratio (x) = 0.19143 0.21062
# Poissons Ratio (y) = 0.69252 0.40705
# Poissons Ratio (z) = 0.23238 0.12414
#
# Static dielectric constant tensor:
#      x y z
#    x 4.003270 0.000000 0.000000 
#    y 0.000000 3.351120 0.000000 
#    z 0.000000 0.000000 3.826280 
# 
# 
# High freq. dielectric constant tensor:
#      x y z
#    x 1.804550 0.000000 0.000000 
#    y 0.000000 1.758020 0.000000 
#    z 0.000000 0.000000 1.802840 
# 
# From -- ./inp_files/30520.got.cif
#   From: 2010.03.12/outbox.cif.g09.slc.cpg/sg59_16_cif.got.tgz:30520.got - 2010.04.16 16:29:54.
