data_PCOD8241578
_publ_section_title
;
Structure prediction by ZEFSAII (Michael W. Deem and Ramdas Pophale) SiO2 
 PCOD8241578
Probable space group: P M M N
;
_chemical_formula_sum "Si O2"
_cell_formula_units_Z 48
_cell_length_a 13.130531
_cell_length_b 12.829033
_cell_length_c 14.624933
_cell_angle_alpha 90.000000
_cell_angle_beta 90.000000
_cell_angle_gamma 90.000000
_cell_volume 2463.599440
_symmetry_space_group_name_H-M "P M M N"
_symmetry_group_IT_number 59
_space_group.IT_coordinate_system_code '2'
_symmetry_cell_setting 'orthorhombic'
loop_
_space_group_symop_operation_xyz
x,y,z
1/2-x,1/2-y,z
1/2+x,-y,-z
-x,1/2+y,-z
-x,-y,-z
1/2+x,1/2+y,-z
1/2-x,y,z
x,1/2-y,z
loop_
_atom_site_type_symbol
_atom_site_label
_atom_site_fract_x
_atom_site_fract_y
_atom_site_fract_z
Si Si1 0.945072 0.628638 0.602665
Si Si2 0.364181 0.135262 0.697446
Si Si3 0.367516 0.054263 0.207850
Si Si4 0.137808 0.368628 0.013518
Si Si5 0.365747 0.519612 0.543780
Si Si6 0.488060 0.867774 0.136063
O O1 0.911711 0.750000 0.591596
O O2 0.938022 0.596364 0.709622
O O3 0.872753 0.545814 0.550304
O O4 0.058216 0.617419 0.557188
O O5 0.250000 0.104528 0.723972
O O6 0.370192 0.250000 0.653253
O O7 0.425890 0.129064 0.788781
O O8 0.406310 0.057410 0.622107
O O9 0.250000 0.054935 0.239753
O O10 0.387044 0.128861 0.121275
O O11 0.395314 0.938572 0.171191
O O12 0.250000 0.421854 0.996058
O O13 0.145394 0.250000 0.980937
O O14 0.044149 0.416118 0.954151
O O15 0.250000 0.558850 0.555390
O O16 0.446220 0.750000 0.120402
#
# Coordination Sequence:
#
# PCOD8241578 Si02
#       6
#     8   8   8   8   8   8
#     4  11  23  39  60  84 113 148 186 226 273 331
#     4   9  16  29  53  81 106 134 174 224 271 316
#     4  11  22  36  53  79 113 149 188 227 272 328
#     4   9  18  33  55  81 107 138 181 232 279 325
#     4  10  21  38  59  84 112 143 182 228 275 325
#     4  10  19  33  53  78 109 143 183 228 276 327
#
# _framework density 19.483687
#
# number of rings (size 3 to 8) (size 9 to 14) (size 15 to 20)
#    0.000    2.000    1.667    2.500    0.000    5.333 
#    0.000    0.000    0.000    2.000    0.000    2.333 
#    0.000    0.000    0.000    0.000    0.000    0.000 
#
# Total GULP energy -594742.146086 kJ/mol
# GULP energy per Si atom -12390.461377 kJ/mol
# Density = 1.943934 g / cm^3
# Si number density = 19.483687 Si / 1000 Ang^3
#
#
#
# Elastic Constant Matrix: (Units=GPa)
#
#
# Indices 1 2 3 4 5 6 
#
# 1 66.3343 20.6600 20.1120 0.0000 0.0000 0.0000
# 2 20.6600 60.6621 17.0187 0.0000 0.0000 0.0000
# 3 20.1120 17.0187 87.2308 0.0000 0.0000 0.0000
# 4 0.0000 0.0000 0.0000 24.7163 0.0000 0.0000
# 5 0.0000 0.0000 0.0000 0.0000 23.5974 0.0000
# 6 0.0000 0.0000 0.0000 0.0000 0.0000 -5.8345
#
#
#
# Elastic Compliance Matrix: (Units=1/GPa)
#
#
# Indices 1 2 3 4 5 6 
#
# 1 0.017602 -0.005137 -0.003056 0.000000 0.000000 0.000000
# 2 -0.005137 0.018939 -0.002510 0.000000 0.000000 0.000000
# 3 -0.003056 -0.002510 0.012658 0.000000 0.000000 0.000000
# 4 0.000000 0.000000 0.000000 0.040459 0.000000 0.000000
# 5 0.000000 0.000000 0.000000 0.000000 0.042377 0.000000
# 6 0.000000 0.000000 0.000000 0.000000 0.000000 -0.171394
#
#
# Mechanical properties :
#
#
# Convention : Reuss Voigt Hill
#
# Bulk Modulus (GPa) = 35.98274 36.64538 36.31406
# Shear Modulus (GPa) = -575.54481 18.92496 -278.30993
#
# Velocity S-wave (km/s) = -17.20580 3.11999 -11.96464
# Velocity P-wave (km/s) = 19.39617 5.64165 13.12218
#
# Compressibility (1/GPa) = 0.02779110
#
# Stress axis : x y z
#
# Youngs Moduli (GPa) = 56.81258 52.80186 79.00007
#
# Poissons Ratio (x) = 0.27126 0.24142
# Poissons Ratio (y) = 0.29187 0.19833
# Poissons Ratio (z) = 0.17362 0.13256
#
# Static dielectric constant tensor:
#      x y z
#    x 3.574920 0.000000 0.000000 
#    y 0.000000 3.528100 0.000000 
#    z 0.000000 0.000000 3.649940 
# 
# 
# High freq. dielectric constant tensor:
#      x y z
#    x 1.749530 0.000000 0.000000 
#    y 0.000000 1.737820 0.000000 
#    z 0.000000 0.000000 1.770170 
# 
# From -- ./inp_files/22383.got.cif
#   From: 2010.03.12/outbox.cif.g09.slc.cpg/sg59_12_cif.got.tgz:22383.got - 2010.04.16 16:29:54.
