data_PCOD8241027
_publ_section_title
;
Structure prediction by ZEFSAII (Michael W. Deem and Ramdas Pophale) SiO2 
 PCOD8241027
Probable space group: P M M N
;
_chemical_formula_sum "Si O2"
_cell_formula_units_Z 64
_cell_length_a 27.071219
_cell_length_b 9.449195
_cell_length_c 12.104633
_cell_angle_alpha 90.000000
_cell_angle_beta 90.000000
_cell_angle_gamma 90.000000
_cell_volume 3096.379976
_symmetry_space_group_name_H-M "P M M N"
_symmetry_group_IT_number 59
_space_group.IT_coordinate_system_code '2'
_symmetry_cell_setting 'orthorhombic'
loop_
_space_group_symop_operation_xyz
x,y,z
1/2-x,1/2-y,z
1/2+x,-y,-z
-x,1/2+y,-z
-x,-y,-z
1/2+x,1/2+y,-z
1/2-x,y,z
x,1/2-y,z
loop_
_atom_site_type_symbol
_atom_site_label
_atom_site_fract_x
_atom_site_fract_y
_atom_site_fract_z
Si Si1 0.572773 0.910989 0.723782
Si Si2 0.836067 0.089809 0.783564
Si Si3 0.985770 0.412034 0.108858
Si Si4 0.100980 0.086073 0.518645
Si Si5 0.093495 0.588528 0.721697
Si Si6 0.305537 0.590428 0.461358
Si Si7 0.194088 0.403713 0.021483
Si Si8 0.306036 0.910524 0.823402
O O1 0.591989 0.750000 0.742095
O O2 0.521999 0.937228 0.787335
O O3 0.568285 0.938541 0.591723
O O4 0.609767 0.024315 0.774192
O O5 0.841272 0.250000 0.827429
O O6 0.805850 0.085134 0.670856
O O7 0.806311 0.994631 0.868324
O O8 0.986537 0.250000 0.069677
O O9 0.932492 0.454697 0.161344
O O10 0.000000 0.500000 0.000000
O O11 0.106679 0.250000 0.547455
O O12 0.074118 0.008564 0.621104
O O13 0.155915 0.022446 0.507054
O O14 0.078380 0.750000 0.695063
O O15 0.153415 0.572251 0.726745
O O16 0.250000 0.552704 0.501521
O O17 0.319751 0.750000 0.500923
O O18 0.250000 0.375252 0.989915
O O19 0.167168 0.250000 0.034419
O O20 0.171797 0.491796 0.920231
O O21 0.250000 0.950587 0.783498
O O22 0.305968 0.750000 0.867600
#
# Coordination Sequence:
#
# PCOD8241027 Si02
#       8
#     8   8   8   8   8   8   8   8
#     4   9  20  39  58  82 118 155 190 238 295 347
#     4  10  19  31  52  80 111 150 196 243 288 344
#     4  10  23  42  63  89 120 153 193 243 297 354
#     4  10  21  37  58  85 116 153 198 241 292 352
#     4  10  22  40  61  86 117 152 195 245 295 349
#     4   9  18  33  53  79 113 153 196 241 290 343
#     4  10  20  32  48  74 109 149 191 236 290 349
#     4   9  19  36  56  79 110 149 191 236 287 345
#
# _framework density 20.669298000000001
#
# number of rings (size 3 to 8) (size 9 to 14) (size 15 to 20)
#    0.000    2.375    0.000    1.500    1.750    5.000 
#    0.000    1.250    0.000    0.000    0.000    0.000 
#    0.000    0.000    0.000    0.000    0.000    0.000 
#
# Total GULP energy -793182.812828 kJ/mol
# GULP energy per Si atom -12393.481450 kJ/mol
# Density = 2.062225 g / cm^3
# Si number density = 20.669298 Si / 1000 Ang^3
#
#
#
# Elastic Constant Matrix: (Units=GPa)
#
#
# Indices 1 2 3 4 5 6 
#
# 1 79.3087 32.2351 35.3432 0.0000 0.0000 0.0000
# 2 32.2351 126.3225 66.2120 0.0000 0.0000 0.0000
# 3 35.3432 66.2120 114.2990 0.0000 0.0000 0.0000
# 4 0.0000 0.0000 0.0000 34.5462 0.0000 0.0000
# 5 0.0000 0.0000 0.0000 0.0000 23.8656 0.0000
# 6 0.0000 0.0000 0.0000 0.0000 0.0000 24.0020
#
#
#
# Elastic Compliance Matrix: (Units=1/GPa)
#
#
# Indices 1 2 3 4 5 6 
#
# 1 0.014968 -0.002001 -0.003469 0.000000 0.000000 0.000000
# 2 -0.002001 0.011636 -0.006121 0.000000 0.000000 0.000000
# 3 -0.003469 -0.006121 0.013368 0.000000 0.000000 0.000000
# 4 0.000000 0.000000 0.000000 0.028947 0.000000 0.000000
# 5 0.000000 0.000000 0.000000 0.000000 0.041901 0.000000
# 6 0.000000 0.000000 0.000000 0.000000 0.000000 0.041663
#
#
# Mechanical properties :
#
#
# Convention : Reuss Voigt Hill
#
# Bulk Modulus (GPa) = 59.56688 65.27896 62.42292
# Shear Modulus (GPa) = 27.58426 28.89207 28.23817
#
# Velocity S-wave (km/s) = 3.65712 3.74281 3.70021
# Velocity P-wave (km/s) = 6.83478 7.09431 6.96576
#
# Compressibility (1/GPa) = 0.01678785
#
# Stress axis : x y z
#
# Youngs Moduli (GPa) = 66.80754 85.94378 74.80664
#
# Poissons Ratio (x) = 0.17200 0.25952
# Poissons Ratio (y) = 0.13370 0.45793
# Poissons Ratio (z) = 0.23177 0.52610
#
# Static dielectric constant tensor:
#      x y z
#    x 3.615420 0.000000 0.000000 
#    y 0.000000 4.003880 0.000000 
#    z 0.000000 0.000000 3.663350 
# 
# 
# High freq. dielectric constant tensor:
#      x y z
#    x 1.794240 0.000000 0.000000 
#    y 0.000000 1.809030 0.000000 
#    z 0.000000 0.000000 1.806750 
# 
# From -- ./inp_files/19288.got.cif
#   From: 2010.03.12/outbox.cif.g09.slc.cpg/sg59_10_cif.got.tgz:19288.got - 2010.04.16 16:29:54.
