data_PCOD8241437
_publ_section_title
;
Structure prediction by ZEFSAII (Michael W. Deem and Ramdas Pophale) SiO2 
 PCOD8241437
Probable space group: P M M N
;
_chemical_formula_sum "Si O2"
_cell_formula_units_Z 64
_cell_length_a 17.811363
_cell_length_b 8.831453
_cell_length_c 21.650600
_cell_angle_alpha 90.000000
_cell_angle_beta 90.000000
_cell_angle_gamma 90.000000
_cell_volume 3405.644039
_symmetry_space_group_name_H-M "P M M N"
_symmetry_group_IT_number 59
_space_group.IT_coordinate_system_code '2'
_symmetry_cell_setting 'orthorhombic'
loop_
_space_group_symop_operation_xyz
x,y,z
1/2-x,1/2-y,z
1/2+x,-y,-z
-x,1/2+y,-z
-x,-y,-z
1/2+x,1/2+y,-z
1/2-x,y,z
x,1/2-y,z
loop_
_atom_site_type_symbol
_atom_site_label
_atom_site_fract_x
_atom_site_fract_y
_atom_site_fract_z
Si Si1 0.579976 0.572630 0.111800
Si Si2 0.164880 0.924115 0.374112
Si Si3 0.663542 0.575918 0.987579
Si Si4 0.455186 0.925732 0.685120
Si Si5 0.908535 0.427621 0.872617
Si Si6 0.165768 0.569646 0.776092
Si Si7 0.110499 0.426190 0.254121
Si Si8 0.528777 0.930390 0.562860
O O1 0.588108 0.750000 0.124843
O O2 0.493898 0.518337 0.115688
O O3 0.629729 0.484548 0.160767
O O4 0.611408 0.528915 0.044787
O O5 0.250000 0.940343 0.397842
O O6 0.138981 0.750000 0.373365
O O7 0.160550 0.989236 0.304874
O O8 0.113083 0.016152 0.421994
O O9 0.750000 0.548321 0.005853
O O10 0.649452 0.750000 0.968952
O O11 0.642216 0.469883 0.930713
O O12 0.442476 0.750000 0.675106
O O13 0.380987 0.995762 0.717139
O O14 0.523287 0.956838 0.731814
O O15 0.474026 0.993224 0.617501
O O16 0.904994 0.250000 0.861081
O O17 0.872451 0.509844 0.813510
O O18 0.250000 0.506616 0.770270
O O19 0.163886 0.750000 0.776084
O O20 0.131030 0.250000 0.256734
O O21 0.528626 0.750000 0.558965
O O22 0.500000 0.000000 0.500000
#
# Coordination Sequence:
#
# PCOD8241437 Si02
#       8
#     8   8   8   8   8   8   8   8
#     4  10  21  37  56  78 105 139 179 224 276 333
#     4  10  21  37  58  86 119 151 188 238 289 334
#     4  10  22  39  55  72 101 142 182 223 277 337
#     4   8  16  32  52  77 108 141 179 219 263 319
#     4  11  22  35  55  82 107 137 180 230 280 329
#     4  10  19  32  54  82 109 139 177 223 274 327
#     4  10  19  34  57  80 108 146 182 223 275 333
#     4  10  20  36  59  85 116 157 199 236 278 329
#
# _framework density 18.792332999999999
#
# number of rings (size 3 to 8) (size 9 to 14) (size 15 to 20)
#    0.000    2.125    1.250    3.000    0.000    3.500 
#    0.000    1.250    0.000    2.250    0.000    0.000 
#    0.000    0.000    0.000    0.000    0.000    0.000 
#
# Total GULP energy -793629.319155 kJ/mol
# GULP energy per Si atom -12400.458112 kJ/mol
# Density = 1.874956 g / cm^3
# Si number density = 18.792333 Si / 1000 Ang^3
#
#
#
# Elastic Constant Matrix: (Units=GPa)
#
#
# Indices 1 2 3 4 5 6 
#
# 1 78.9726 28.1605 38.8928 0.0000 0.0000 0.0000
# 2 28.1605 59.4642 33.9269 0.0000 0.0000 0.0000
# 3 38.8928 33.9269 124.5732 0.0000 0.0000 0.0000
# 4 0.0000 0.0000 0.0000 33.0582 0.0000 0.0000
# 5 0.0000 0.0000 0.0000 0.0000 19.6544 0.0000
# 6 0.0000 0.0000 0.0000 0.0000 0.0000 24.2719
#
#
#
# Elastic Compliance Matrix: (Units=1/GPa)
#
#
# Indices 1 2 3 4 5 6 
#
# 1 0.016479 -0.005764 -0.003575 0.000000 0.000000 0.000000
# 2 -0.005764 0.021927 -0.004172 0.000000 0.000000 0.000000
# 3 -0.003575 -0.004172 0.010280 0.000000 0.000000 0.000000
# 4 0.000000 0.000000 0.000000 0.030250 0.000000 0.000000
# 5 0.000000 0.000000 0.000000 0.000000 0.050879 0.000000
# 6 0.000000 0.000000 0.000000 0.000000 0.000000 0.041200
#
#
# Mechanical properties :
#
#
# Convention : Reuss Voigt Hill
#
# Bulk Modulus (GPa) = 46.16159 51.66337 48.91248
# Shear Modulus (GPa) = 24.35966 26.19888 25.27927
#
# Velocity S-wave (km/s) = 3.60426 3.73785 3.67166
# Velocity P-wave (km/s) = 6.47598 6.79560 6.63771
#
# Compressibility (1/GPa) = 0.02166303
#
# Stress axis : x y z
#
# Youngs Moduli (GPa) = 60.68469 45.60601 97.27835
#
# Poissons Ratio (x) = 0.26288 0.34776
# Poissons Ratio (y) = 0.34980 0.40585
# Poissons Ratio (z) = 0.21694 0.19027
#
# Static dielectric constant tensor:
#      x y z
#    x 3.693840 0.000000 0.000000 
#    y 0.000000 3.374100 0.000000 
#    z 0.000000 0.000000 3.627690 
# 
# 
# High freq. dielectric constant tensor:
#      x y z
#    x 1.729710 0.000000 0.000000 
#    y 0.000000 1.721870 0.000000 
#    z 0.000000 0.000000 1.729050 
# 
# From -- ./inp_files/29486.got.cif
#   From: 2010.03.12/outbox.cif.g09.slc.cpg/sg59_15_cif.got.tgz:29486.got - 2010.04.16 16:29:54.
