data_PCOD8241431
_publ_section_title
;
Structure prediction by ZEFSAII (Michael W. Deem and Ramdas Pophale) SiO2 
 PCOD8241431
Probable space group: P M M N
;
_chemical_formula_sum "Si O2"
_cell_formula_units_Z 56
_cell_length_a 14.636948
_cell_length_b 9.166550
_cell_length_c 21.438418
_cell_angle_alpha 90.000000
_cell_angle_beta 90.000000
_cell_angle_gamma 90.000000
_cell_volume 2876.399311
_symmetry_space_group_name_H-M "P M M N"
_symmetry_group_IT_number 59
_space_group.IT_coordinate_system_code '2'
_symmetry_cell_setting 'orthorhombic'
loop_
_space_group_symop_operation_xyz
x,y,z
1/2-x,1/2-y,z
1/2+x,-y,-z
-x,1/2+y,-z
-x,-y,-z
1/2+x,1/2+y,-z
1/2-x,y,z
x,1/2-y,z
loop_
_atom_site_type_symbol
_atom_site_label
_atom_site_fract_x
_atom_site_fract_y
_atom_site_fract_z
Si Si1 0.351075 0.585866 0.678388
Si Si2 0.143525 0.581161 0.999596
Si Si3 0.894794 0.086080 0.562109
Si Si4 0.515582 0.920180 0.093866
Si Si5 0.110984 0.086370 0.556211
Si Si6 0.499165 0.423063 0.224213
Si Si7 0.645913 0.415590 0.699309
O O1 0.250000 0.582742 0.708139
O O2 0.380296 0.750000 0.659842
O O3 0.349222 0.491262 0.616407
O O4 0.420124 0.523969 0.729906
O O5 0.250000 0.538553 0.011740
O O6 0.136047 0.750000 0.979210
O O7 0.083039 0.553336 0.061497
O O8 0.100733 0.481506 0.945663
O O9 0.857308 0.250000 0.554301
O O10 0.863552 0.022914 0.628901
O O11 0.002900 0.081026 0.558841
O O12 0.852098 0.990517 0.506579
O O13 0.532844 0.750000 0.105292
O O14 0.515741 0.004430 0.158255
O O15 0.148513 0.250000 0.555516
O O16 0.496472 0.250000 0.215993
O O17 0.404822 0.479077 0.252918
O O18 0.750000 0.417140 0.720771
O O19 0.606281 0.250000 0.702367
#
# Coordination Sequence:
#
# PCOD8241431 Si02
#       7
#     8   8   8   8   8   8   8
#     4  10  22  39  57  77 105 146 192 235 286 346
#     4   9  19  38  63  90 121 156 193 233 277 328
#     4   9  18  33  53  78 109 143 181 226 286 352
#     4  10  21  37  60  90 122 156 194 233 281 333
#     4  10  19  32  54  81 108 138 180 234 290 344
#     4  11  23  39  59  83 116 154 193 237 284 334
#     4  10  21  38  59  81 108 147 192 237 288 345
#
# _framework density 19.468785
#
# number of rings (size 3 to 8) (size 9 to 14) (size 15 to 20)
#    0.000    2.143    1.429    1.286    0.000    4.857 
#    0.000    4.286    0.000    0.000    0.000    0.000 
#    0.000    0.000    0.000    0.000    0.000    0.000 
#
# Total GULP energy -694430.164477 kJ/mol
# GULP energy per Si atom -12400.538651 kJ/mol
# Density = 1.942447 g / cm^3
# Si number density = 19.468785 Si / 1000 Ang^3
#
#
#
# Elastic Constant Matrix: (Units=GPa)
#
#
# Indices 1 2 3 4 5 6 
#
# 1 75.6849 28.0014 24.2006 0.0000 0.0000 0.0000
# 2 28.0014 88.2346 47.7878 0.0000 0.0000 0.0000
# 3 24.2006 47.7878 103.5041 0.0000 0.0000 0.0000
# 4 0.0000 0.0000 0.0000 36.5042 0.0000 0.0000
# 5 0.0000 0.0000 0.0000 0.0000 -29.3313 0.0000
# 6 0.0000 0.0000 0.0000 0.0000 0.0000 23.9983
#
#
#
# Elastic Compliance Matrix: (Units=1/GPa)
#
#
# Indices 1 2 3 4 5 6 
#
# 1 0.015210 -0.003868 -0.001770 0.000000 0.000000 0.000000
# 2 -0.003868 0.016096 -0.006527 0.000000 0.000000 0.000000
# 3 -0.001770 -0.006527 0.013089 0.000000 0.000000 0.000000
# 4 0.000000 0.000000 0.000000 0.027394 0.000000 0.000000
# 5 0.000000 0.000000 0.000000 0.000000 -0.034093 0.000000
# 6 0.000000 0.000000 0.000000 0.000000 0.000000 0.041670
#
#
# Mechanical properties :
#
#
# Convention : Reuss Voigt Hill
#
# Bulk Modulus (GPa) = 49.84118 51.93370 50.88744
# Shear Modulus (GPa) = 45.29627 17.39649 31.34638
#
# Velocity S-wave (km/s) = 4.82873 2.99249 4.01694
# Velocity P-wave (km/s) = 7.53292 6.21878 6.90718
#
# Compressibility (1/GPa) = 0.02006373
#
# Stress axis : x y z
#
# Youngs Moduli (GPa) = 65.74697 62.12709 76.40019
#
# Poissons Ratio (x) = 0.24031 0.13526
# Poissons Ratio (y) = 0.25431 0.49867
# Poissons Ratio (z) = 0.11640 0.40551
#
# Static dielectric constant tensor:
#      x y z
#    x 3.597260 0.000000 0.000000 
#    y 0.000000 3.662950 0.000000 
#    z 0.000000 0.000000 3.493580 
# 
# 
# High freq. dielectric constant tensor:
#      x y z
#    x 1.762160 0.000000 0.000000 
#    y 0.000000 1.758380 0.000000 
#    z 0.000000 0.000000 1.753270 
# 
# From -- ./inp_files/28983.got.cif
#   From: 2010.03.12/outbox.cif.g09.slc.cpg/sg59_15_cif.got.tgz:28983.got - 2010.04.16 16:29:54.
