data_PCOD8241713
_publ_section_title
;
Structure prediction by ZEFSAII (Michael W. Deem and Ramdas Pophale) SiO2 
 PCOD8241713
Probable space group: P M M N
;
_chemical_formula_sum "Si O2"
_cell_formula_units_Z 64
_cell_length_a 9.123491
_cell_length_b 17.811315
_cell_length_c 21.425407
_cell_angle_alpha 90.000000
_cell_angle_beta 90.000000
_cell_angle_gamma 90.000000
_cell_volume 3481.658035
_symmetry_space_group_name_H-M "P M M N"
_symmetry_group_IT_number 59
_space_group.IT_coordinate_system_code '2'
_symmetry_cell_setting 'orthorhombic'
loop_
_space_group_symop_operation_xyz
x,y,z
1/2-x,1/2-y,z
1/2+x,-y,-z
-x,1/2+y,-z
-x,-y,-z
1/2+x,1/2+y,-z
1/2-x,y,z
x,1/2-y,z
loop_
_atom_site_type_symbol
_atom_site_label
_atom_site_fract_x
_atom_site_fract_y
_atom_site_fract_z
Si Si1 0.420751 0.164258 0.723408
Si Si2 0.578543 0.519043 0.936301
Si Si3 0.082587 0.166551 0.133770
Si Si4 0.418524 0.837051 0.513176
Si Si5 0.419373 0.605607 0.752601
Si Si6 0.417574 0.454216 0.823163
Si Si7 0.922480 0.418857 0.612002
Si Si8 0.423580 0.410078 0.373746
O O1 0.250000 0.155847 0.708108
O O2 0.469153 0.250000 0.731817
O O3 0.458364 0.122945 0.788485
O O4 0.506809 0.128653 0.666655
O O5 0.750000 0.506545 0.944961
O O6 0.538923 0.605062 0.918232
O O7 0.522338 0.463024 0.882566
O O8 0.500000 0.500000 0.000000
O O9 0.250000 0.152380 0.154966
O O10 0.062696 0.250000 0.105001
O O11 0.980063 0.160358 0.194055
O O12 0.250000 0.855702 0.529723
O O13 0.438744 0.750000 0.496718
O O14 0.472585 0.884787 0.453913
O O15 0.520565 0.857866 0.570829
O O16 0.250000 0.624363 0.741164
O O17 0.444328 0.519891 0.773098
O O18 0.507304 0.621334 0.689645
O O19 0.250000 0.455080 0.846939
O O20 0.750000 0.412552 0.620715
O O21 0.976064 0.504716 0.614504
O O22 0.250000 0.403949 0.369146
#
# Coordination Sequence:
#
# PCOD8241713 Si02
#       8
#     8   8   8   8   8   8   8   8
#     4  10  20  34  55  83 112 143 179 222 273 325
#     4  10  20  35  58  84 110 146 186 223 265 315
#     4   9  19  36  57  82 112 144 181 226 271 317
#     4  10  22  39  55  73 102 140 180 225 278 331
#     4  10  19  33  55  80 107 141 176 217 269 321
#     4   9  18  34  54  78 109 142 177 218 260 312
#     4  10  21  37  57  79 105 139 180 225 275 330
#     4  11  22  35  55  81 106 138 180 225 273 327
#
# _framework density 18.382045000000002
#
# number of rings (size 3 to 8) (size 9 to 14) (size 15 to 20)
#    0.000    2.125    1.250    1.875    0.000    4.250 
#    0.000    0.625    0.000    3.750    0.000    0.000 
#    0.000    0.000    0.000    0.000    0.000    0.000 
#
# Total GULP energy -793829.351243 kJ/mol
# GULP energy per Si atom -12403.583613 kJ/mol
# Density = 1.834021 g / cm^3
# Si number density = 18.382045 Si / 1000 Ang^3
#
#
#
# Elastic Constant Matrix: (Units=GPa)
#
#
# Indices 1 2 3 4 5 6 
#
# 1 72.4715 28.4761 56.5589 0.0000 0.0000 0.0000
# 2 28.4761 81.2046 39.0861 0.0000 0.0000 0.0000
# 3 56.5589 39.0861 125.9152 0.0000 0.0000 0.0000
# 4 0.0000 0.0000 0.0000 22.0305 0.0000 0.0000
# 5 0.0000 0.0000 0.0000 0.0000 37.9067 0.0000
# 6 0.0000 0.0000 0.0000 0.0000 0.0000 23.6539
#
#
#
# Elastic Compliance Matrix: (Units=1/GPa)
#
#
# Indices 1 2 3 4 5 6 
#
# 1 0.022056 -0.003487 -0.008825 0.000000 0.000000 0.000000
# 2 -0.003487 0.015029 -0.003099 0.000000 0.000000 0.000000
# 3 -0.008825 -0.003099 0.012868 0.000000 0.000000 0.000000
# 4 0.000000 0.000000 0.000000 0.045392 0.000000 0.000000
# 5 0.000000 0.000000 0.000000 0.000000 0.026381 0.000000
# 6 0.000000 0.000000 0.000000 0.000000 0.000000 0.042276
#
#
# Mechanical properties :
#
#
# Convention : Reuss Voigt Hill
#
# Bulk Modulus (GPa) = 52.27002 58.64815 55.45909
# Shear Modulus (GPa) = 24.85108 27.08291 25.96700
#
# Velocity S-wave (km/s) = 3.68084 3.84257 3.76257
# Velocity P-wave (km/s) = 6.82362 7.18759 7.00797
#
# Compressibility (1/GPa) = 0.01913142
#
# Stress axis : x y z
#
# Youngs Moduli (GPa) = 45.34003 66.53836 77.71383
#
# Poissons Ratio (x) = 0.23200 0.68580
# Poissons Ratio (y) = 0.15809 0.24084
# Poissons Ratio (z) = 0.40011 0.20621
#
# Static dielectric constant tensor:
#      x y z
#    x 3.456470 0.000000 0.000000 
#    y 0.000000 3.535820 0.000000 
#    z 0.000000 0.000000 3.285770 
# 
# 
# High freq. dielectric constant tensor:
#      x y z
#    x 1.715350 0.000000 0.000000 
#    y 0.000000 1.713700 0.000000 
#    z 0.000000 0.000000 1.707270 
# 
# From -- ./inp_files/29438.got.cif
#   From: 2010.03.12/outbox.cif.g09.slc.cpg/sg59_15_cif.got.tgz:29438.got - 2010.04.16 16:29:54.
