data_PCOD8241913
_publ_section_title
;
Structure prediction by ZEFSAII (Michael W. Deem and Ramdas Pophale) SiO2 
 PCOD8241913
Probable space group: P M M N
;
_chemical_formula_sum "Si O2"
_cell_formula_units_Z 48
_cell_length_a 8.986841
_cell_length_b 23.399414
_cell_length_c 12.701335
_cell_angle_alpha 90.000000
_cell_angle_beta 90.000000
_cell_angle_gamma 90.000000
_cell_volume 2670.923259
_symmetry_space_group_name_H-M "P M M N"
_symmetry_group_IT_number 59
_space_group.IT_coordinate_system_code '2'
_symmetry_cell_setting 'orthorhombic'
loop_
_space_group_symop_operation_xyz
x,y,z
1/2-x,1/2-y,z
1/2+x,-y,-z
-x,1/2+y,-z
-x,-y,-z
1/2+x,1/2+y,-z
1/2-x,y,z
x,1/2-y,z
loop_
_atom_site_type_symbol
_atom_site_label
_atom_site_fract_x
_atom_site_fract_y
_atom_site_fract_z
Si Si1 0.073963 0.110790 0.193824
Si Si2 0.575454 0.001328 0.113938
Si Si3 0.076414 0.121806 0.796336
Si Si4 0.927058 0.686478 0.998801
Si Si5 0.422223 0.315301 0.394138
Si Si6 0.925395 0.314881 0.610213
O O1 0.250000 0.100744 0.185778
O O2 0.013738 0.148832 0.097455
O O3 0.029090 0.142673 0.300762
O O4 0.990882 0.050547 0.187964
O O5 0.750000 0.010077 0.095991
O O6 0.541978 0.943656 0.177446
O O7 0.500000 0.000000 0.000000
O O8 0.250000 0.132611 0.777908
O O9 0.990950 0.140156 0.692049
O O10 0.015383 0.159920 0.892428
O O11 0.750000 0.687442 0.996209
O O12 0.992920 0.750000 0.987920
O O13 0.250000 0.323574 0.422703
O O14 0.453072 0.250000 0.358586
O O15 0.517929 0.332389 0.495126
O O16 0.750000 0.320027 0.611417
O O17 0.977067 0.250000 0.637201
#
# Coordination Sequence:
#
# PCOD8241913 Si02
#       6
#     8   8   8   8   8   8
#     4  10  19  34  55  82 111 140 180 224 270 321
#     4  11  22  37  56  79 108 146 186 224 269 321
#     4  10  20  35  55  78 105 142 187 224 261 318
#     4   9  16  28  50  79 108 136 170 217 267 317
#     4   9  18  34  58  84 110 144 184 223 265 323
#     4  10  21  36  55  81 113 144 176 222 278 327
#
# _framework density 17.971312999999999
#
# number of rings (size 3 to 8) (size 9 to 14) (size 15 to 20)
#    0.000    2.167    1.667    2.000    0.000    5.667 
#    0.000    0.833    0.000    1.500    0.000    0.000 
#    0.000    0.000    0.000    0.000    0.000    0.000 
#
# Total GULP energy -595303.360036 kJ/mol
# GULP energy per Si atom -12402.153334 kJ/mol
# Density = 1.793041 g / cm^3
# Si number density = 17.971313 Si / 1000 Ang^3
#
#
#
# Elastic Constant Matrix: (Units=GPa)
#
#
# Indices 1 2 3 4 5 6 
#
# 1 58.2110 50.3927 52.5866 0.0000 0.0000 0.0000
# 2 50.3927 128.7121 77.4268 0.0000 0.0000 0.0000
# 3 52.5866 77.4268 135.5953 0.0000 0.0000 0.0000
# 4 0.0000 0.0000 0.0000 27.4606 0.0000 0.0000
# 5 0.0000 0.0000 0.0000 0.0000 20.6404 0.0000
# 6 0.0000 0.0000 0.0000 0.0000 0.0000 29.6216
#
#
#
# Elastic Compliance Matrix: (Units=1/GPa)
#
#
# Indices 1 2 3 4 5 6 
#
# 1 0.030387 -0.007323 -0.007603 0.000000 0.000000 0.000000
# 2 -0.007323 0.013599 -0.004925 0.000000 0.000000 0.000000
# 3 -0.007603 -0.004925 0.013136 0.000000 0.000000 0.000000
# 4 0.000000 0.000000 0.000000 0.036416 0.000000 0.000000
# 5 0.000000 0.000000 0.000000 0.000000 0.048449 0.000000
# 6 0.000000 0.000000 0.000000 0.000000 0.000000 0.033759
#
#
# Mechanical properties :
#
#
# Convention : Reuss Voigt Hill
#
# Bulk Modulus (GPa) = 57.40854 75.92561 66.66708
# Shear Modulus (GPa) = 22.59836 25.01869 23.80852
#
# Velocity S-wave (km/s) = 3.54993 3.73520 3.64374
# Velocity P-wave (km/s) = 6.98688 7.80655 7.40806
#
# Compressibility (1/GPa) = 0.01741901
#
# Stress axis : x y z
#
# Youngs Moduli (GPa) = 32.90878 73.53341 76.12780
#
# Poissons Ratio (x) = 0.53852 0.57879
# Poissons Ratio (y) = 0.24101 0.37494
# Poissons Ratio (z) = 0.25020 0.36217
#
# Static dielectric constant tensor:
#      x y z
#    x 3.120670 0.000000 0.000000 
#    y 0.000000 3.469790 0.000000 
#    z 0.000000 0.000000 3.300730 
# 
# 
# High freq. dielectric constant tensor:
#      x y z
#    x 1.677700 0.000000 0.000000 
#    y 0.000000 1.700170 0.000000 
#    z 0.000000 0.000000 1.698310 
# 
# From -- ./inp_files/14342.got.cif
#   From: 2010.03.12/outbox.cif.g09.slc.cpg/sg59_8_cif.got.tgz:14342.got - 2010.04.16 16:29:54.
