data_PCOD8241911
_publ_section_title
;
Structure prediction by ZEFSAII (Michael W. Deem and Ramdas Pophale) SiO2 
 PCOD8241911
Probable space group: P M M N
;
_chemical_formula_sum "Si O2"
_cell_formula_units_Z 56
_cell_length_a 8.746927
_cell_length_b 20.503095
_cell_length_c 16.074896
_cell_angle_alpha 90.000000
_cell_angle_beta 90.000000
_cell_angle_gamma 90.000000
_cell_volume 2882.856983
_symmetry_space_group_name_H-M "P M M N"
_symmetry_group_IT_number 59
_space_group.IT_coordinate_system_code '2'
_symmetry_cell_setting 'orthorhombic'
loop_
_space_group_symop_operation_xyz
x,y,z
1/2-x,1/2-y,z
1/2+x,-y,-z
-x,1/2+y,-z
-x,-y,-z
1/2+x,1/2+y,-z
1/2-x,y,z
x,1/2-y,z
loop_
_atom_site_type_symbol
_atom_site_label
_atom_site_fract_x
_atom_site_fract_y
_atom_site_fract_z
Si Si1 0.431088 0.114228 0.217585
Si Si2 0.571756 0.441567 0.383906
Si Si3 0.571494 0.917115 0.449480
Si Si4 0.571006 0.363182 0.858928
Si Si5 0.932367 0.250000 0.975345
Si Si6 0.579609 0.675623 0.306185
Si Si7 0.068603 0.497092 0.090956
Si Si8 0.068163 0.750000 0.835758
O O1 0.250000 0.122314 0.214195
O O2 0.476715 0.083377 0.305457
O O3 0.488818 0.065479 0.143942
O O4 0.507100 0.185089 0.208899
O O5 0.750000 0.431705 0.365221
O O6 0.523457 0.402771 0.466863
O O7 0.527179 0.516154 0.402687
O O8 0.750000 0.915972 0.472170
O O9 0.519683 0.861007 0.387146
O O10 0.750000 0.364151 0.871695
O O11 0.501628 0.314586 0.929169
O O12 0.534337 0.335521 0.769058
O O13 0.507259 0.436649 0.865727
O O14 0.750000 0.250000 0.972749
O O15 0.992577 0.250000 0.069492
O O16 0.750000 0.651104 0.281306
O O17 0.581960 0.750000 0.331989
O O18 0.250000 0.495846 0.084859
O O19 0.000000 0.500000 0.000000
O O20 0.250000 0.750000 0.830850
#
# Coordination Sequence:
#
# PCOD8241911 Si02
#       8
#     8   8   8   8   4   8   8   4
#     4  11  23  40  59  85 118 153 191 240 300 352
#     4  10  20  36  60  86 110 146 194 239 285 343
#     4   9  19  36  57  82 115 150 186 234 288 341
#     4  10  19  34  55  81 113 151 189 229 280 337
#     4   9  18  33  55  80 109 148 191 233 280 331
#     4  10  20  34  52  80 114 148 185 225 278 339
#     4  10  22  37  57  85 117 151 193 241 289 342
#     4  11  23  41  63  82 107 148 197 245 288 347
#
# _framework density 19.425173000000001
#
# number of rings (size 3 to 8) (size 9 to 14) (size 15 to 20)
#    0.000    2.000    0.714    2.786    0.000    4.000 
#    1.286    1.429    0.000    0.000    0.000    0.000 
#    0.000    0.000    0.000    0.000    0.000    0.000 
#
# Total GULP energy -694387.706306 kJ/mol
# GULP energy per Si atom -12399.780470 kJ/mol
# Density = 1.938096 g / cm^3
# Si number density = 19.425173 Si / 1000 Ang^3
#
#
#
# Elastic Constant Matrix: (Units=GPa)
#
#
# Indices 1 2 3 4 5 6 
#
# 1 36.6963 31.5565 26.4903 0.0000 0.0000 0.0000
# 2 31.5565 111.5425 65.2705 0.0000 0.0000 0.0000
# 3 26.4903 65.2705 134.9340 0.0000 0.0000 0.0000
# 4 0.0000 0.0000 0.0000 37.6121 0.0000 0.0000
# 5 0.0000 0.0000 0.0000 0.0000 35.6220 0.0000
# 6 0.0000 0.0000 0.0000 0.0000 0.0000 22.3261
#
#
#
# Elastic Compliance Matrix: (Units=1/GPa)
#
#
# Indices 1 2 3 4 5 6 
#
# 1 0.036896 -0.008647 -0.003061 0.000000 0.000000 0.000000
# 2 -0.008647 0.014531 -0.005332 0.000000 0.000000 0.000000
# 3 -0.003061 -0.005332 0.010591 0.000000 0.000000 0.000000
# 4 0.000000 0.000000 0.000000 0.026587 0.000000 0.000000
# 5 0.000000 0.000000 0.000000 0.000000 0.028073 0.000000
# 6 0.000000 0.000000 0.000000 0.000000 0.000000 0.044791
#
#
# Mechanical properties :
#
#
# Convention : Reuss Voigt Hill
#
# Bulk Modulus (GPa) = 35.79149 58.86749 47.32949
# Shear Modulus (GPa) = 24.40680 29.76907 27.08794
#
# Velocity S-wave (km/s) = 3.54849 3.91896 3.73832
# Velocity P-wave (km/s) = 5.93754 7.13079 6.56135
#
# Compressibility (1/GPa) = 0.02793960
#
# Stress axis : x y z
#
# Youngs Moduli (GPa) = 27.10305 68.81632 94.42116
#
# Poissons Ratio (x) = 0.59508 0.28898
# Poissons Ratio (y) = 0.23437 0.50341
# Poissons Ratio (z) = 0.08295 0.36690
#
# Static dielectric constant tensor:
#      x y z
#    x 3.382450 0.000000 0.000000 
#    y 0.000000 3.998740 0.000000 
#    z 0.000000 0.000000 3.729600 
# 
# 
# High freq. dielectric constant tensor:
#      x y z
#    x 1.742620 0.000000 0.000000 
#    y 0.000000 1.764510 0.000000 
#    z 0.000000 0.000000 1.761910 
# 
# From -- ./inp_files/21095.got.cif
#   From: 2010.03.12/outbox.cif.g09.slc.cpg/sg59_11_cif.got.tgz:21095.got - 2010.04.16 16:29:54.
