data_PCOD8241822
_publ_section_title
;
Structure prediction by ZEFSAII (Michael W. Deem and Ramdas Pophale) SiO2 
 PCOD8241822
Probable space group: P M M N
;
_chemical_formula_sum "Si O2"
_cell_formula_units_Z 56
_cell_length_a 20.102416
_cell_length_b 8.945461
_cell_length_c 17.282358
_cell_angle_alpha 90.000000
_cell_angle_beta 90.000000
_cell_angle_gamma 90.000000
_cell_volume 3107.806566
_symmetry_space_group_name_H-M "P M M N"
_symmetry_group_IT_number 59
_space_group.IT_coordinate_system_code '2'
_symmetry_cell_setting 'orthorhombic'
loop_
_space_group_symop_operation_xyz
x,y,z
1/2-x,1/2-y,z
1/2+x,-y,-z
-x,1/2+y,-z
-x,-y,-z
1/2+x,1/2+y,-z
1/2-x,y,z
x,1/2-y,z
loop_
_atom_site_type_symbol
_atom_site_label
_atom_site_fract_x
_atom_site_fract_y
_atom_site_fract_z
Si Si1 0.005044 0.919404 0.281676
Si Si2 0.822547 0.926699 0.481837
Si Si3 0.001101 0.425247 0.120264
Si Si4 0.047622 0.427754 0.436197
Si Si5 0.250000 0.575680 0.791324
Si Si6 0.350774 0.082034 0.687098
Si Si7 0.101688 0.422551 0.985743
Si Si8 0.750000 0.922459 0.048534
O O1 0.032753 0.750000 0.281109
O O2 0.927747 0.919527 0.297161
O O3 0.020236 0.995977 0.200139
O O4 0.038582 0.012670 0.350059
O O5 0.750000 0.980108 0.511280
O O6 0.826454 0.750000 0.473802
O O7 0.877774 0.979762 0.542235
O O8 0.836236 0.992466 0.396299
O O9 0.992707 0.250000 0.134559
O O10 0.063246 0.463068 0.064456
O O11 0.931446 0.484911 0.084694
O O12 0.037453 0.250000 0.438403
O O13 0.000000 0.500000 0.500000
O O14 0.250000 0.750000 0.783435
O O15 0.183520 0.514861 0.752520
O O16 0.250000 0.531146 0.879720
O O17 0.322093 0.250000 0.691071
O O18 0.090963 0.250000 0.963997
O O19 0.180898 0.456990 0.997738
O O20 0.750000 0.750000 0.075466
#
# Coordination Sequence:
#
# PCOD8241822 Si02
#       8
#     8   8   8   8   4   8   8   4
#     4  11  22  36  55  80 108 143 185 226 271 323
#     4   9  17  33  56  76  98 136 183 220 258 315
#     4  10  20  35  56  83 111 140 178 226 274 320
#     4  11  21  35  56  83 110 140 182 230 277 323
#     4  12  24  32  44  78 117 142 171 216 271 321
#     4  10  19  34  53  72 101 145 184 213 255 321
#     4   9  19  36  58  82 108 141 181 220 267 326
#     4  10  20  36  56  76 103 144 181 214 257 321
#
# _framework density 18.01914
#
# number of rings (size 3 to 8) (size 9 to 14) (size 15 to 20)
#    0.000    1.857    2.143    2.786    0.000    5.714 
#    0.000    0.000    1.571    0.000    0.000    0.000 
#    0.000    0.000    0.000    0.000    0.000    0.000 
#
# Total GULP energy -694274.986667 kJ/mol
# GULP energy per Si atom -12397.767619 kJ/mol
# Density = 1.797813 g / cm^3
# Si number density = 18.019140 Si / 1000 Ang^3
#
#
#
# Elastic Constant Matrix: (Units=GPa)
#
#
# Indices 1 2 3 4 5 6 
#
# 1 120.4801 43.4165 60.4435 0.0000 0.0000 0.0000
# 2 43.4165 89.5750 46.8267 0.0000 0.0000 0.0000
# 3 60.4435 46.8267 115.9030 0.0000 0.0000 0.0000
# 4 0.0000 0.0000 0.0000 28.6298 0.0000 0.0000
# 5 0.0000 0.0000 0.0000 0.0000 29.6564 0.0000
# 6 0.0000 0.0000 0.0000 0.0000 0.0000 316.6871
#
#
#
# Elastic Compliance Matrix: (Units=1/GPa)
#
#
# Indices 1 2 3 4 5 6 
#
# 1 0.011926 -0.003206 -0.004924 0.000000 0.000000 0.000000
# 2 -0.003206 0.015015 -0.004394 0.000000 0.000000 0.000000
# 3 -0.004924 -0.004394 0.012971 0.000000 0.000000 0.000000
# 4 0.000000 0.000000 0.000000 0.034929 0.000000 0.000000
# 5 0.000000 0.000000 0.000000 0.000000 0.033719 0.000000
# 6 0.000000 0.000000 0.000000 0.000000 0.000000 0.003158
#
#
# Mechanical properties :
#
#
# Convention : Reuss Voigt Hill
#
# Bulk Modulus (GPa) = 67.28110 69.70350 68.49230
# Shear Modulus (GPa) = 35.28057 86.67943 60.98000
#
# Velocity S-wave (km/s) = 4.42967 6.94324 5.82368
# Velocity P-wave (km/s) = 7.97386 10.15111 9.12764
#
# Compressibility (1/GPa) = 0.01486302
#
# Stress axis : x y z
#
# Youngs Moduli (GPa) = 83.85147 66.59976 77.09471
#
# Poissons Ratio (x) = 0.21354 0.37961
# Poissons Ratio (y) = 0.26886 0.33877
# Poissons Ratio (z) = 0.41288 0.29265
#
# Static dielectric constant tensor:
#      x y z
#    x 3.563700 0.000000 0.000000 
#    y 0.000000 3.334040 0.000000 
#    z 0.000000 0.000000 3.359130 
# 
# 
# High freq. dielectric constant tensor:
#      x y z
#    x 1.699900 0.000000 0.000000 
#    y 0.000000 1.690480 0.000000 
#    z 0.000000 0.000000 1.690430 
# 
# From -- ./inp_files/24351.got.cif
#   From: 2010.03.12/outbox.cif.g09.slc.cpg/sg59_13_cif.got.tgz:24351.got - 2010.04.16 16:29:54.
