data_PCOD8241531
_publ_section_title
;
Structure prediction by ZEFSAII (Michael W. Deem and Ramdas Pophale) SiO2 
 PCOD8241531
Probable space group: P M M N
;
_chemical_formula_sum "Si O2"
_cell_formula_units_Z 64
_cell_length_a 30.776435
_cell_length_b 8.945126
_cell_length_c 12.163877
_cell_angle_alpha 90.000000
_cell_angle_beta 90.000000
_cell_angle_gamma 90.000000
_cell_volume 3348.704256
_symmetry_space_group_name_H-M "P M M N"
_symmetry_group_IT_number 59
_space_group.IT_coordinate_system_code '2'
_symmetry_cell_setting 'orthorhombic'
loop_
_space_group_symop_operation_xyz
x,y,z
1/2-x,1/2-y,z
1/2+x,-y,-z
-x,1/2+y,-z
-x,-y,-z
1/2+x,1/2+y,-z
1/2-x,y,z
x,1/2-y,z
loop_
_atom_site_type_symbol
_atom_site_label
_atom_site_fract_x
_atom_site_fract_y
_atom_site_fract_z
Si Si1 0.983483 0.075177 0.608802
Si Si2 0.047117 0.427318 0.986926
Si Si3 0.613995 0.072943 0.637587
Si Si4 0.637727 0.572740 0.413909
Si Si5 0.801117 0.418493 0.257206
Si Si6 0.299874 0.423380 0.965327
Si Si7 0.126746 0.425448 0.137807
Si Si8 0.936701 0.925476 0.253579
O O1 0.983950 0.250000 0.587081
O O2 0.935798 0.018141 0.638512
O O3 0.014950 0.029077 0.708449
O O4 0.000000 0.000000 0.500000
O O5 0.040502 0.250000 0.985653
O O6 0.081346 0.476710 0.080707
O O7 0.068317 0.482225 0.871362
O O8 0.000000 0.500000 0.000000
O O9 0.618914 0.250000 0.631577
O O10 0.637687 0.000942 0.533608
O O11 0.634922 0.013676 0.749742
O O12 0.635565 0.750000 0.427992
O O13 0.681762 0.523188 0.354788
O O14 0.598627 0.506187 0.337845
O O15 0.750000 0.421867 0.267696
O O16 0.819237 0.250000 0.268230
O O17 0.815521 0.483381 0.139740
O O18 0.250000 0.460363 0.998688
O O19 0.305150 0.250000 0.934362
O O20 0.331717 0.467543 0.064072
O O21 0.125196 0.250000 0.162121
O O22 0.929552 0.750000 0.257908
#
# Coordination Sequence:
#
# PCOD8241531 Si02
#       8
#     8   8   8   8   8   8   8   8
#     4  10  19  33  52  75 106 143 185 231 277 327
#     4  10  20  35  53  76 109 145 183 225 276 334
#     4  11  23  37  55  80 112 150 191 236 283 337
#     4  11  21  36  59  82 108 144 186 230 275 328
#     4  10  21  37  58  86 119 147 174 220 281 338
#     4   9  18  36  63  90 112 140 185 234 280 336
#     4  10  21  37  57  81 112 150 190 237 289 341
#     4   9  18  33  54  78 105 138 176 225 277 320
#
# _framework density 19.11187
#
# number of rings (size 3 to 8) (size 9 to 14) (size 15 to 20)
#    0.000    2.000    1.250    2.625    0.000    5.250 
#    0.000    3.750    0.000    2.250    0.000    0.000 
#    0.000    0.000    0.000    0.000    0.000    0.000 
#
# Total GULP energy -793622.638087 kJ/mol
# GULP energy per Si atom -12400.353720 kJ/mol
# Density = 1.906837 g / cm^3
# Si number density = 19.111870 Si / 1000 Ang^3
#
#
#
# Elastic Constant Matrix: (Units=GPa)
#
#
# Indices 1 2 3 4 5 6 
#
# 1 75.1078 36.0923 55.6887 0.0000 0.0000 0.0000
# 2 36.0923 59.8933 51.8510 0.0000 0.0000 0.0000
# 3 55.6887 51.8510 160.5046 0.0000 0.0000 0.0000
# 4 0.0000 0.0000 0.0000 31.1408 0.0000 0.0000
# 5 0.0000 0.0000 0.0000 0.0000 32.3510 0.0000
# 6 0.0000 0.0000 0.0000 0.0000 0.0000 25.9314
#
#
#
# Elastic Compliance Matrix: (Units=1/GPa)
#
#
# Indices 1 2 3 4 5 6 
#
# 1 0.020751 -0.008707 -0.004387 0.000000 0.000000 0.000000
# 2 -0.008707 0.026832 -0.005647 0.000000 0.000000 0.000000
# 3 -0.004387 -0.005647 0.009577 0.000000 0.000000 0.000000
# 4 0.000000 0.000000 0.000000 0.032112 0.000000 0.000000
# 5 0.000000 0.000000 0.000000 0.000000 0.030911 0.000000
# 6 0.000000 0.000000 0.000000 0.000000 0.000000 0.038563
#
#
# Mechanical properties :
#
#
# Convention : Reuss Voigt Hill
#
# Bulk Modulus (GPa) = 50.81866 64.75217 57.78542
# Shear Modulus (GPa) = 24.65638 28.00957 26.33297
#
# Velocity S-wave (km/s) = 3.59570 3.83241 3.71594
# Velocity P-wave (km/s) = 6.62470 7.31692 6.97940
#
# Compressibility (1/GPa) = 0.01967781
#
# Stress axis : x y z
#
# Youngs Moduli (GPa) = 48.19071 37.26886 104.41906
#
# Poissons Ratio (x) = 0.32449 0.45809
# Poissons Ratio (y) = 0.41958 0.58968
# Poissons Ratio (z) = 0.21141 0.21046
#
# Static dielectric constant tensor:
#      x y z
#    x 3.530480 0.000000 0.000000 
#    y 0.000000 3.273660 0.000000 
#    z 0.000000 0.000000 3.531250 
# 
# 
# High freq. dielectric constant tensor:
#      x y z
#    x 1.741100 0.000000 0.000000 
#    y 0.000000 1.729740 0.000000 
#    z 0.000000 0.000000 1.749590 
# 
# From -- ./inp_files/14951.got.cif
#   From: 2010.03.12/outbox.cif.g09.slc.cpg/sg59_8_cif.got.tgz:14951.got - 2010.04.16 16:29:54.
