data_PCOD8241077
_publ_section_title
;
Structure prediction by ZEFSAII (Michael W. Deem and Ramdas Pophale) SiO2 
 PCOD8241077
Probable space group: P M M N
;
_chemical_formula_sum "Si O2"
_cell_formula_units_Z 64
_cell_length_a 31.062811
_cell_length_b 9.120681
_cell_length_c 12.208362
_cell_angle_alpha 90.000000
_cell_angle_beta 90.000000
_cell_angle_gamma 90.000000
_cell_volume 3458.799751
_symmetry_space_group_name_H-M "P M M N"
_symmetry_group_IT_number 59
_space_group.IT_coordinate_system_code '2'
_symmetry_cell_setting 'orthorhombic'
loop_
_space_group_symop_operation_xyz
x,y,z
1/2-x,1/2-y,z
1/2+x,-y,-z
-x,1/2+y,-z
-x,-y,-z
1/2+x,1/2+y,-z
1/2-x,y,z
x,1/2-y,z
loop_
_atom_site_type_symbol
_atom_site_label
_atom_site_fract_x
_atom_site_fract_y
_atom_site_fract_z
Si Si1 0.483009 0.422824 0.107155
Si Si2 0.045951 0.576252 0.511986
Si Si3 0.373643 0.578890 0.375776
Si Si4 0.199497 0.084276 0.752395
Si Si5 0.895302 0.080282 0.863895
Si Si6 0.861008 0.422127 0.098282
Si Si7 0.799066 0.076377 0.468385
Si Si8 0.938212 0.421568 0.245770
O O1 0.482219 0.250000 0.087074
O O2 0.436389 0.477634 0.139517
O O3 0.514698 0.470223 0.205171
O O4 0.500000 0.500000 0.000000
O O5 0.038130 0.750000 0.504346
O O6 0.080694 0.517663 0.422673
O O7 0.066798 0.530673 0.628573
O O8 0.000000 0.500000 0.500000
O O9 0.374745 0.750000 0.399815
O O10 0.368622 0.545074 0.246671
O O11 0.331318 0.516168 0.437296
O O12 0.250000 0.080003 0.767488
O O13 0.182413 0.250000 0.742140
O O14 0.180787 0.007351 0.860482
O O15 0.185345 0.996020 0.644442
O O16 0.910120 0.250000 0.867187
O O17 0.866634 0.042770 0.969614
O O18 0.854546 0.250000 0.117515
O O19 0.901172 0.488473 0.167791
O O20 0.750000 0.029910 0.498457
O O21 0.802279 0.250000 0.453260
O O22 0.933570 0.250000 0.232062
#
# Coordination Sequence:
#
# PCOD8241077 Si02
#       8
#     8   8   8   8   8   8   8   8
#     4  11  20  33  51  73 103 140 181 223 266 311
#     4  10  19  32  49  69 100 137 172 210 257 308
#     4   9  18  33  54  79 108 140 173 218 270 314
#     4  10  21  36  54  79 109 134 163 213 269 316
#     4  10  20  35  53  76 107 142 179 220 262 308
#     4  10  19  34  54  75 102 135 173 213 258 312
#     4   9  17  33  59  85 106 135 176 215 261 325
#     4   9  18  32  50  72  99 133 169 211 259 303
#
# _framework density 18.503530000000001
#
# number of rings (size 3 to 8) (size 9 to 14) (size 15 to 20)
#    0.000    2.250    1.250    2.250    0.000    3.250 
#    0.000    4.375    0.000    2.250    0.000    1.750 
#    0.000    0.000    0.000    0.000    0.000    0.000 
#
# Total GULP energy -793454.895410 kJ/mol
# GULP energy per Si atom -12397.732741 kJ/mol
# Density = 1.846141 g / cm^3
# Si number density = 18.503530 Si / 1000 Ang^3
#
#
#
# Elastic Constant Matrix: (Units=GPa)
#
#
# Indices 1 2 3 4 5 6 
#
# 1 87.0888 30.7008 59.5404 0.0000 0.0000 0.0000
# 2 30.7008 48.9197 35.2847 0.0000 0.0000 0.0000
# 3 59.5404 35.2847 143.5743 0.0000 0.0000 0.0000
# 4 0.0000 0.0000 0.0000 15.4584 0.0000 0.0000
# 5 0.0000 0.0000 0.0000 0.0000 35.0414 0.0000
# 6 0.0000 0.0000 0.0000 0.0000 0.0000 27.3150
#
#
#
# Elastic Compliance Matrix: (Units=1/GPa)
#
#
# Indices 1 2 3 4 5 6 
#
# 1 0.017863 -0.007131 -0.005655 0.000000 0.000000 0.000000
# 2 -0.007131 0.027693 -0.003848 0.000000 0.000000 0.000000
# 3 -0.005655 -0.003848 0.010256 0.000000 0.000000 0.000000
# 4 0.000000 0.000000 0.000000 0.064690 0.000000 0.000000
# 5 0.000000 0.000000 0.000000 0.000000 0.028538 0.000000
# 6 0.000000 0.000000 0.000000 0.000000 0.000000 0.036610
#
#
# Mechanical properties :
#
#
# Convention : Reuss Voigt Hill
#
# Bulk Modulus (GPa) = 44.36174 58.95940 51.66057
# Shear Modulus (GPa) = 22.08163 25.83342 23.95752
#
# Velocity S-wave (km/s) = 3.45827 3.74054 3.60217
# Velocity P-wave (km/s) = 6.32242 7.11257 6.72910
#
# Compressibility (1/GPa) = 0.02254195
#
# Stress axis : x y z
#
# Youngs Moduli (GPa) = 55.98248 36.11035 97.50384
#
# Poissons Ratio (x) = 0.25751 0.55140
# Poissons Ratio (y) = 0.39923 0.37524
# Poissons Ratio (z) = 0.31659 0.13897
#
# Static dielectric constant tensor:
#      x y z
#    x 3.793520 0.000000 0.000000 
#    y 0.000000 2.879970 0.000000 
#    z 0.000000 0.000000 3.960830 
# 
# 
# High freq. dielectric constant tensor:
#      x y z
#    x 1.714660 0.000000 0.000000 
#    y 0.000000 1.689520 0.000000 
#    z 0.000000 0.000000 1.725400 
# 
# From -- ./inp_files/19246.got.cif
#   From: 2010.03.12/outbox.cif.g09.slc.cpg/sg59_10_cif.got.tgz:19246.got - 2010.04.16 16:29:54.
