data_PCOD8241744
_publ_section_title
;
Structure prediction by ZEFSAII (Michael W. Deem and Ramdas Pophale) SiO2 
 PCOD8241744
Probable space group: P M M N
;
_chemical_formula_sum "Si O2"
_cell_formula_units_Z 64
_cell_length_a 15.227345
_cell_length_b 8.851856
_cell_length_c 24.084179
_cell_angle_alpha 90.000000
_cell_angle_beta 90.000000
_cell_angle_gamma 90.000000
_cell_volume 3246.312875
_symmetry_space_group_name_H-M "P M M N"
_symmetry_group_IT_number 59
_space_group.IT_coordinate_system_code '2'
_symmetry_cell_setting 'orthorhombic'
loop_
_space_group_symop_operation_xyz
x,y,z
1/2-x,1/2-y,z
1/2+x,-y,-z
-x,1/2+y,-z
-x,-y,-z
1/2+x,1/2+y,-z
1/2-x,y,z
x,1/2-y,z
loop_
_atom_site_type_symbol
_atom_site_label
_atom_site_fract_x
_atom_site_fract_y
_atom_site_fract_z
Si Si1 0.394932 0.421259 0.056984
Si Si2 0.998710 0.570710 0.630514
Si Si3 0.351409 0.573307 0.443217
Si Si4 0.653820 0.429222 0.173131
Si Si5 0.150519 0.920957 0.168282
Si Si6 0.992212 0.928676 0.757244
Si Si7 0.397421 0.922174 0.945956
Si Si8 0.149127 0.426564 0.560649
O O1 0.363047 0.250000 0.063298
O O2 0.352704 0.516553 0.106086
O O3 0.498841 0.435600 0.060562
O O4 0.361255 0.483087 0.997878
O O5 0.007566 0.750000 0.624385
O O6 0.086630 0.493032 0.607781
O O7 0.911272 0.514994 0.600126
O O8 0.989857 0.517359 0.693913
O O9 0.250000 0.541806 0.427913
O O10 0.373789 0.750000 0.441413
O O11 0.373630 0.512479 0.504073
O O12 0.750000 0.476126 0.195830
O O13 0.642929 0.250000 0.170795
O O14 0.579713 0.497188 0.213734
O O15 0.643326 0.490894 0.110403
O O16 0.250000 0.929632 0.189899
O O17 0.115624 0.750000 0.167678
O O18 0.093536 0.016121 0.211122
O O19 0.993315 0.750000 0.760927
O O20 0.368087 0.750000 0.955440
O O21 0.250000 0.455490 0.578346
O O22 0.130228 0.250000 0.551900
#
# Coordination Sequence:
#
# PCOD8241744 Si02
#       8
#     8   8   8   8   8   8   8   8
#     4  10  19  33  55  82 113 145 181 227 280 342
#     4  11  23  37  59  87 119 156 195 241 289 345
#     4  10  21  38  61  88 120 156 195 240 288 342
#     4   9  17  33  58  83 108 141 182 229 279 332
#     4  11  24  40  59  82 109 146 191 238 291 346
#     4  10  22  41  60  83 112 148 194 238 282 333
#     4   9  17  31  53  82 114 145 179 222 277 340
#     4  10  21  38  61  89 123 159 195 237 285 338
#
# _framework density 19.714673999999999
#
# number of rings (size 3 to 8) (size 9 to 14) (size 15 to 20)
#    0.000    2.000    1.250    2.250    0.000    5.500 
#    0.000    5.000    0.000    1.125    0.000    0.000 
#    0.000    0.000    0.000    0.000    0.000    0.000 
#
# Total GULP energy -793719.059716 kJ/mol
# GULP energy per Si atom -12401.860308 kJ/mol
# Density = 1.966980 g / cm^3
# Si number density = 19.714674 Si / 1000 Ang^3
#
#
#
# Elastic Constant Matrix: (Units=GPa)
#
#
# Indices 1 2 3 4 5 6 
#
# 1 96.5060 16.3733 57.4794 0.0000 0.0000 0.0000
# 2 16.3733 28.5448 16.5164 0.0000 0.0000 0.0000
# 3 57.4794 16.5164 122.0770 0.0000 0.0000 0.0000
# 4 0.0000 0.0000 0.0000 28.8014 0.0000 0.0000
# 5 0.0000 0.0000 0.0000 0.0000 7.3559 0.0000
# 6 0.0000 0.0000 0.0000 0.0000 0.0000 27.3231
#
#
#
# Elastic Compliance Matrix: (Units=1/GPa)
#
#
# Indices 1 2 3 4 5 6 
#
# 1 0.015008 -0.004904 -0.006403 0.000000 0.000000 0.000000
# 2 -0.004904 0.039610 -0.003050 0.000000 0.000000 0.000000
# 3 -0.006403 -0.003050 0.011619 0.000000 0.000000 0.000000
# 4 0.000000 0.000000 0.000000 0.034721 0.000000 0.000000
# 5 0.000000 0.000000 0.000000 0.000000 0.135946 0.000000
# 6 0.000000 0.000000 0.000000 0.000000 0.000000 0.036599
#
#
# Mechanical properties :
#
#
# Convention : Reuss Voigt Hill
#
# Bulk Modulus (GPa) = 26.64992 47.54065 37.09529
# Shear Modulus (GPa) = 15.88695 23.14664 19.51680
#
# Velocity S-wave (km/s) = 2.84182 3.43021 3.14978
# Velocity P-wave (km/s) = 4.93103 6.31309 5.66437
#
# Compressibility (1/GPa) = 0.03752356
#
# Stress axis : x y z
#
# Youngs Moduli (GPa) = 66.63321 25.24594 86.06626
#
# Poissons Ratio (x) = 0.12380 0.55106
# Poissons Ratio (y) = 0.32674 0.26252
# Poissons Ratio (z) = 0.42664 0.07701
#
# Static dielectric constant tensor:
#      x y z
#    x 3.663850 0.000000 0.000000 
#    y 0.000000 3.541060 0.000000 
#    z 0.000000 0.000000 3.652870 
# 
# 
# High freq. dielectric constant tensor:
#      x y z
#    x 1.777310 0.000000 0.000000 
#    y 0.000000 1.759070 0.000000 
#    z 0.000000 0.000000 1.767290 
# 
# From -- ./inp_files/32171.got.cif
#   From: 2010.03.12/outbox.cif.g09.slc.cpg/sg59_17_cif.got.tgz:32171.got - 2010.04.16 16:29:54.
