data_PCOD8241600
_publ_section_title
;
Structure prediction by ZEFSAII (Michael W. Deem and Ramdas Pophale) SiO2 
 PCOD8241600
Probable space group: P M M N
;
_chemical_formula_sum "Si O2"
_cell_formula_units_Z 48
_cell_length_a 9.624048
_cell_length_b 18.999044
_cell_length_c 13.659678
_cell_angle_alpha 90.000000
_cell_angle_beta 90.000000
_cell_angle_gamma 90.000000
_cell_volume 2497.640861
_symmetry_space_group_name_H-M "P M M N"
_symmetry_group_IT_number 59
_space_group.IT_coordinate_system_code '2'
_symmetry_cell_setting 'orthorhombic'
loop_
_space_group_symop_operation_xyz
x,y,z
1/2-x,1/2-y,z
1/2+x,-y,-z
-x,1/2+y,-z
-x,-y,-z
1/2+x,1/2+y,-z
1/2-x,y,z
x,1/2-y,z
loop_
_atom_site_type_symbol
_atom_site_label
_atom_site_fract_x
_atom_site_fract_y
_atom_site_fract_z
Si Si1 0.409331 0.408871 0.096955
Si Si2 0.906674 0.829131 0.702371
Si Si3 0.586467 0.045276 0.800467
Si Si4 0.909864 0.037678 0.582819
Si Si5 0.906310 0.171426 0.470225
Si Si6 0.086596 0.668834 0.065147
O O1 0.250000 0.406252 0.058664
O O2 0.423769 0.374228 0.201947
O O3 0.462092 0.489214 0.115923
O O4 0.506628 0.365969 0.024770
O O5 0.750000 0.831023 0.663517
O O6 0.955448 0.750000 0.726445
O O7 0.000281 0.861449 0.616320
O O8 0.750000 0.037489 0.788219
O O9 0.525328 0.028382 0.692208
O O10 0.547542 0.123765 0.837819
O O11 0.750000 0.010718 0.576168
O O12 0.916620 0.121653 0.564490
O O13 0.000000 0.000000 0.500000
O O14 0.750000 0.173711 0.429660
O O15 0.957074 0.250000 0.499738
O O16 0.250000 0.663924 0.042506
O O17 0.040427 0.750000 0.080465
#
# Coordination Sequence:
#
# PCOD8241600 Si02
#       6
#     8   8   8   8   8   8
#     4  10  19  33  54  76 100 132 170 211 253 300
#     4   9  17  29  47  72 101 134 169 205 251 305
#     4   9  19  35  54  76 102 134 170 207 251 303
#     4  10  20  35  55  77 103 135 171 211 252 298
#     4   9  18  31  48  73 102 131 166 209 255 299
#     4  10  21  36  54  77 104 134 169 208 251 301
#
# _framework density 19.218135
#
# number of rings (size 3 to 8) (size 9 to 14) (size 15 to 20)
#    0.000    2.500    0.000    2.000    0.000    4.333 
#    0.000    6.667    0.000    0.000    0.000    2.333 
#    0.000    0.000    0.000    0.000    0.000    0.000 
#
# Total GULP energy -594905.492754 kJ/mol
# GULP energy per Si atom -12393.864432 kJ/mol
# Density = 1.917439 g / cm^3
# Si number density = 19.218135 Si / 1000 Ang^3
#
#
#
# Elastic Constant Matrix: (Units=GPa)
#
#
# Indices 1 2 3 4 5 6 
#
# 1 48.9631 30.4736 36.6656 0.0000 0.0000 0.0000
# 2 30.4736 117.3442 53.1418 0.0000 0.0000 0.0000
# 3 36.6656 53.1418 89.6160 0.0000 0.0000 0.0000
# 4 0.0000 0.0000 0.0000 24.6986 0.0000 0.0000
# 5 0.0000 0.0000 0.0000 0.0000 27.1354 0.0000
# 6 0.0000 0.0000 0.0000 0.0000 0.0000 22.6092
#
#
#
# Elastic Compliance Matrix: (Units=1/GPa)
#
#
# Indices 1 2 3 4 5 6 
#
# 1 0.030236 -0.003076 -0.010547 0.000000 0.000000 0.000000
# 2 -0.003076 0.011964 -0.005836 0.000000 0.000000 0.000000
# 3 -0.010547 -0.005836 0.018935 0.000000 0.000000 0.000000
# 4 0.000000 0.000000 0.000000 0.040488 0.000000 0.000000
# 5 0.000000 0.000000 0.000000 0.000000 0.036852 0.000000
# 6 0.000000 0.000000 0.000000 0.000000 0.000000 0.044230
#
#
# Mechanical properties :
#
#
# Convention : Reuss Voigt Hill
#
# Bulk Modulus (GPa) = 45.01071 55.16502 50.08787
# Shear Modulus (GPa) = 21.83153 23.93145 22.88149
#
# Velocity S-wave (km/s) = 3.37410 3.53264 3.45428
# Velocity P-wave (km/s) = 6.21701 6.73843 6.48296
#
# Compressibility (1/GPa) = 0.02221693
#
# Stress axis : x y z
#
# Youngs Moduli (GPa) = 33.07354 83.58676 52.81357
#
# Poissons Ratio (x) = 0.25709 0.55701
# Poissons Ratio (y) = 0.10172 0.30822
# Poissons Ratio (z) = 0.34882 0.48781
#
# Static dielectric constant tensor:
#      x y z
#    x 3.417660 0.000000 0.000000 
#    y 0.000000 3.950600 0.000000 
#    z 0.000000 0.000000 3.450310 
# 
# 
# High freq. dielectric constant tensor:
#      x y z
#    x 1.720630 0.000000 0.000000 
#    y 0.000000 1.768290 0.000000 
#    z 0.000000 0.000000 1.737870 
# 
# From -- ./inp_files/20424.got.cif
#   From: 2010.03.12/outbox.cif.g09.slc.cpg/sg59_11_cif.got.tgz:20424.got - 2010.04.16 16:29:54.
