data_PCOD8241050
_publ_section_title
;
Structure prediction by ZEFSAII (Michael W. Deem and Ramdas Pophale) SiO2 
 PCOD8241050
Probable space group: P M M N
;
_chemical_formula_sum "Si O2"
_cell_formula_units_Z 40
_cell_length_a 13.822959
_cell_length_b 30.185499
_cell_length_c 5.202016
_cell_angle_alpha 90.000000
_cell_angle_beta 90.000000
_cell_angle_gamma 90.000000
_cell_volume 2170.556340
_symmetry_space_group_name_H-M "P M M N"
_symmetry_group_IT_number 59
_space_group.IT_coordinate_system_code '2'
_symmetry_cell_setting 'orthorhombic'
loop_
_space_group_symop_operation_xyz
x,y,z
1/2-x,1/2-y,z
1/2+x,-y,-z
-x,1/2+y,-z
-x,-y,-z
1/2+x,1/2+y,-z
1/2-x,y,z
x,1/2-y,z
loop_
_atom_site_type_symbol
_atom_site_label
_atom_site_fract_x
_atom_site_fract_y
_atom_site_fract_z
Si Si1 0.865525 0.699670 0.399441
Si Si2 0.640049 0.564261 0.157766
Si Si3 0.470104 0.950048 0.475080
Si Si4 0.862262 0.036972 0.032261
Si Si5 0.137542 0.152384 0.102591
O O1 0.750000 0.697123 0.397682
O O2 0.901709 0.750000 0.425758
O O3 0.908340 0.678508 0.139404
O O4 0.909411 0.670889 0.635550
O O5 0.750000 0.567633 0.263082
O O6 0.568916 0.575920 0.397537
O O7 0.616240 0.515932 0.042365
O O8 0.621349 0.599576 0.930367
O O9 0.420980 0.936140 0.745317
O O10 0.500000 0.000000 0.500000
O O11 0.392999 0.944341 0.243568
O O12 0.750000 0.046274 0.077408
O O13 0.250000 0.163888 0.110641
#
# Coordination Sequence:
#
# PCOD8241050 Si02
#       5
#     8   8   8   8   8
#     4   9  16  26  38  52  73 103 140 175 201 236
#     4   9  18  30  44  64  89 114 144 184 218 250
#     4  10  19  32  46  64  85 112 146 181 222 264
#     4  10  20  33  48  63  83 113 150 188 223 257
#     4   9  17  26  38  56  77 104 138 173 209 241
#
# _framework density 18.428455
#
# number of rings (size 3 to 8) (size 9 to 14) (size 15 to 20)
#    0.000    2.600    0.000    3.600    0.000    8.000 
#    0.000   13.000    0.000    0.000    0.000    0.000 
#    0.000    0.000    0.000    0.000    0.000   70.000 
#
# Total GULP energy -495689.782280 kJ/mol
# GULP energy per Si atom -12392.244557 kJ/mol
# Density = 1.838651 g / cm^3
# Si number density = 18.428455 Si / 1000 Ang^3
#
#
#
# Elastic Constant Matrix: (Units=GPa)
#
#
# Indices 1 2 3 4 5 6 
#
# 1 51.9283 10.7274 13.3525 0.0000 0.0000 0.0000
# 2 10.7274 37.8416 8.1203 0.0000 0.0000 0.0000
# 3 13.3525 8.1203 105.3922 0.0000 0.0000 0.0000
# 4 0.0000 0.0000 0.0000 21.8213 0.0000 0.0000
# 5 0.0000 0.0000 0.0000 0.0000 18.3543 0.0000
# 6 0.0000 0.0000 0.0000 0.0000 0.0000 6.8328
#
#
#
# Elastic Compliance Matrix: (Units=1/GPa)
#
#
# Indices 1 2 3 4 5 6 
#
# 1 0.020960 -0.005462 -0.002235 0.000000 0.000000 0.000000
# 2 -0.005462 0.028294 -0.001488 0.000000 0.000000 0.000000
# 3 -0.002235 -0.001488 0.009886 0.000000 0.000000 0.000000
# 4 0.000000 0.000000 0.000000 0.045827 0.000000 0.000000
# 5 0.000000 0.000000 0.000000 0.000000 0.054483 0.000000
# 6 0.000000 0.000000 0.000000 0.000000 0.000000 0.146352
#
#
# Mechanical properties :
#
#
# Convention : Reuss Voigt Hill
#
# Bulk Modulus (GPa) = 24.52767 28.84028 26.68397
# Shear Modulus (GPa) = 14.80329 20.26580 17.53455
#
# Velocity S-wave (km/s) = 2.83730 3.31977 3.08797
# Velocity P-wave (km/s) = 4.90635 5.51166 5.21779
#
# Compressibility (1/GPa) = 0.04077028
#
# Stress axis : x y z
#
# Youngs Moduli (GPa) = 47.70913 35.34349 101.15179
#
# Poissons Ratio (x) = 0.19306 0.22604
# Poissons Ratio (y) = 0.26060 0.15051
# Poissons Ratio (z) = 0.10661 0.05259
#
# Static dielectric constant tensor:
#      x y z
#    x 3.527700 0.000000 0.000000 
#    y 0.000000 3.201290 0.000000 
#    z 0.000000 0.000000 3.888190 
# 
# 
# High freq. dielectric constant tensor:
#      x y z
#    x 1.662630 0.000000 0.000000 
#    y 0.000000 1.673550 0.000000 
#    z 0.000000 0.000000 1.735390 
# 
# From -- ./inp_files/2072.got.cif
#   From: 2010.03.12/outbox.cif.g09.slc.cpg/sg59_2_cif.got.tgz:2072.got - 2010.04.16 16:29:54.
