data_PCOD8241441
_publ_section_title
;
Structure prediction by ZEFSAII (Michael W. Deem and Ramdas Pophale) SiO2 
 PCOD8241441
Probable space group: P M M N
;
_chemical_formula_sum "Si O2"
_cell_formula_units_Z 32
_cell_length_a 9.037792
_cell_length_b 15.703402
_cell_length_c 11.257620
_cell_angle_alpha 90.000000
_cell_angle_beta 90.000000
_cell_angle_gamma 90.000000
_cell_volume 1597.727372
_symmetry_space_group_name_H-M "P M M N"
_symmetry_group_IT_number 59
_space_group.IT_coordinate_system_code '2'
_symmetry_cell_setting 'orthorhombic'
loop_
_space_group_symop_operation_xyz
x,y,z
1/2-x,1/2-y,z
1/2+x,-y,-z
-x,1/2+y,-z
-x,-y,-z
1/2+x,1/2+y,-z
1/2-x,y,z
x,1/2-y,z
loop_
_atom_site_type_symbol
_atom_site_label
_atom_site_fract_x
_atom_site_fract_y
_atom_site_fract_z
Si Si1 0.409854 0.887578 0.021168
Si Si2 0.576949 0.750000 0.879909
Si Si3 0.071950 0.250000 0.390004
Si Si4 0.926280 0.073623 0.421708
Si Si5 0.590449 0.983939 0.183774
O O1 0.250000 0.842290 0.038697
O O2 0.471469 0.910041 0.153864
O O3 0.525914 0.831142 0.951949
O O4 0.385605 0.970434 0.941691
O O5 0.750000 0.750000 0.872772
O O6 0.515071 0.750000 0.746088
O O7 0.250000 0.250000 0.404011
O O8 0.003312 0.164735 0.450190
O O9 0.750000 0.080127 0.445042
O O10 0.964086 0.048593 0.285572
O O11 0.000000 0.000000 0.500000
O O12 0.750000 0.944817 0.223251
#
# Coordination Sequence:
#
# PCOD8241441 Si02
#       5
#     8   4   4   8   8
#     4  10  19  32  54  82 114 148 187 233 288 350
#     4  11  21  33  54  85 120 153 193 243 295 356
#     4  11  23  39  62  91 120 157 207 255 301 362
#     4  11  23  41  64  90 123 162 205 255 308 364
#     4   9  19  35  54  80 114 150 186 232 292 349
#
# _framework density 20.028448000000001
#
# number of rings (size 3 to 8) (size 9 to 14) (size 15 to 20)
#    0.000    1.750    2.500    2.250    0.000    4.000 
#    0.000    1.250    0.000    7.500    0.000    0.000 
#    0.000    0.000    0.000    0.000    0.000    0.000 
#
# Total GULP energy -396490.412629 kJ/mol
# GULP energy per Si atom -12390.325395 kJ/mol
# Density = 1.998286 g / cm^3
# Si number density = 20.028448 Si / 1000 Ang^3
#
#
#
# Elastic Constant Matrix: (Units=GPa)
#
#
# Indices 1 2 3 4 5 6 
#
# 1 99.0720 54.4774 37.5551 0.0000 0.0000 0.0000
# 2 54.4774 114.7628 38.9000 0.0000 0.0000 0.0000
# 3 37.5551 38.9000 54.2430 0.0000 0.0000 0.0000
# 4 0.0000 0.0000 0.0000 30.6997 0.0000 0.0000
# 5 0.0000 0.0000 0.0000 0.0000 25.1951 0.0000
# 6 0.0000 0.0000 0.0000 0.0000 0.0000 40.2604
#
#
#
# Elastic Compliance Matrix: (Units=1/GPa)
#
#
# Indices 1 2 3 4 5 6 
#
# 1 0.015543 -0.004929 -0.007227 0.000000 0.000000 0.000000
# 2 -0.004929 0.013075 -0.005964 0.000000 0.000000 0.000000
# 3 -0.007227 -0.005964 0.027716 0.000000 0.000000 0.000000
# 4 0.000000 0.000000 0.000000 0.032574 0.000000 0.000000
# 5 0.000000 0.000000 0.000000 0.000000 0.039690 0.000000
# 6 0.000000 0.000000 0.000000 0.000000 0.000000 0.024838
#
#
# Mechanical properties :
#
#
# Convention : Reuss Voigt Hill
#
# Bulk Modulus (GPa) = 49.76360 58.88253 54.32307
# Shear Modulus (GPa) = 25.46159 28.37406 26.91783
#
# Velocity S-wave (km/s) = 3.56936 3.76798 3.67001
# Velocity P-wave (km/s) = 6.47205 6.95654 6.71867
#
# Compressibility (1/GPa) = 0.02009501
#
# Stress axis : x y z
#
# Youngs Moduli (GPa) = 64.33629 76.48250 36.08003
#
# Poissons Ratio (x) = 0.37696 0.26074
# Poissons Ratio (y) = 0.31710 0.21519
# Poissons Ratio (z) = 0.46494 0.45615
#
# Static dielectric constant tensor:
#      x y z
#    x 4.196210 0.000000 0.000000 
#    y 0.000000 3.927390 0.000000 
#    z 0.000000 0.000000 3.464650 
# 
# 
# High freq. dielectric constant tensor:
#      x y z
#    x 1.800650 0.000000 0.000000 
#    y 0.000000 1.765580 0.000000 
#    z 0.000000 0.000000 1.755020 
# 
# From -- ./inp_files/13691.got.cif
#   From: 2010.03.12/outbox.cif.g09.slc.cpg/sg59_7_cif.got.tgz:13691.got - 2010.04.16 16:29:54.
