data_PCOD8241373
_publ_section_title
;
Structure prediction by ZEFSAII (Michael W. Deem and Ramdas Pophale) SiO2 
 PCOD8241373
Probable space group: P M M N
;
_chemical_formula_sum "Si O2"
_cell_formula_units_Z 64
_cell_length_a 9.073661
_cell_length_b 18.245438
_cell_length_c 19.778396
_cell_angle_alpha 90.000000
_cell_angle_beta 90.000000
_cell_angle_gamma 90.000000
_cell_volume 3274.371195
_symmetry_space_group_name_H-M "P M M N"
_symmetry_group_IT_number 59
_space_group.IT_coordinate_system_code '2'
_symmetry_cell_setting 'orthorhombic'
loop_
_space_group_symop_operation_xyz
x,y,z
1/2-x,1/2-y,z
1/2+x,-y,-z
-x,1/2+y,-z
-x,-y,-z
1/2+x,1/2+y,-z
1/2-x,y,z
x,1/2-y,z
loop_
_atom_site_type_symbol
_atom_site_label
_atom_site_fract_x
_atom_site_fract_y
_atom_site_fract_z
Si Si1 0.417188 0.592530 0.536472
Si Si2 0.575993 0.668422 0.895303
Si Si3 0.577912 0.165983 0.862801
Si Si4 0.078465 0.582499 0.268821
Si Si5 0.583798 0.332710 0.331310
Si Si6 0.577774 0.935426 0.407320
Si Si7 0.076650 0.425391 0.226982
Si Si8 0.424417 0.424747 0.976868
O O1 0.250000 0.583108 0.510731
O O2 0.435467 0.659901 0.587938
O O3 0.465267 0.519910 0.578460
O O4 0.518265 0.609831 0.471836
O O5 0.750000 0.672689 0.885511
O O6 0.507365 0.750000 0.889063
O O7 0.505796 0.615494 0.837977
O O8 0.535789 0.636489 0.968004
O O9 0.750000 0.155387 0.879676
O O10 0.527862 0.250000 0.876320
O O11 0.548483 0.148533 0.783594
O O12 0.487334 0.107478 0.907065
O O13 0.250000 0.575387 0.286833
O O14 0.019981 0.508585 0.232053
O O15 0.993884 0.595326 0.338814
O O16 0.750000 0.356242 0.310988
O O17 0.551222 0.250000 0.310050
O O18 0.467316 0.383645 0.294646
O O19 0.750000 0.923033 0.400276
O O20 0.250000 0.424532 0.219344
O O21 0.250000 0.438047 0.970218
O O22 0.500000 0.500000 0.000000
#
# Coordination Sequence:
#
# PCOD8241373 Si02
#       8
#     8   8   8   8   8   8   8   8
#     4   9  18  33  51  74 105 139 177 224 278 335
#     4   9  18  33  53  78 109 144 181 222 272 329
#     4  10  22  41  63  87 117 152 193 241 293 351
#     4  10  20  35  56  82 111 146 184 227 281 339
#     4  10  20  34  51  74 108 145 178 218 272 330
#     4  10  19  32  54  80 104 135 180 233 278 324
#     4  10  19  32  53  78 105 139 181 223 263 318
#     4  11  22  38  61  87 116 151 193 240 288 343
#
# _framework density 19.545736999999999
#
# number of rings (size 3 to 8) (size 9 to 14) (size 15 to 20)
#    0.000    2.125    1.250    2.250    0.000    5.000 
#    0.000    3.125    0.000    6.750    0.000    0.000 
#    0.000    0.000    0.000    0.000    0.000    0.000 
#
# Total GULP energy -793525.903332 kJ/mol
# GULP energy per Si atom -12398.842240 kJ/mol
# Density = 1.950125 g / cm^3
# Si number density = 19.545737 Si / 1000 Ang^3
#
#
#
# Elastic Constant Matrix: (Units=GPa)
#
#
# Indices 1 2 3 4 5 6 
#
# 1 44.6585 20.4735 38.3047 0.0000 0.0000 0.0000
# 2 20.4735 72.1467 27.0652 0.0000 0.0000 0.0000
# 3 38.3047 27.0652 111.8384 0.0000 0.0000 0.0000
# 4 0.0000 0.0000 0.0000 27.1482 0.0000 0.0000
# 5 0.0000 0.0000 0.0000 0.0000 33.6562 0.0000
# 6 0.0000 0.0000 0.0000 0.0000 0.0000 19.3598
#
#
#
# Elastic Compliance Matrix: (Units=1/GPa)
#
#
# Indices 1 2 3 4 5 6 
#
# 1 0.033755 -0.005765 -0.010166 0.000000 0.000000 0.000000
# 2 -0.005765 0.016229 -0.001953 0.000000 0.000000 0.000000
# 3 -0.010166 -0.001953 0.012896 0.000000 0.000000 0.000000
# 4 0.000000 0.000000 0.000000 0.036835 0.000000 0.000000
# 5 0.000000 0.000000 0.000000 0.000000 0.029712 0.000000
# 6 0.000000 0.000000 0.000000 0.000000 0.000000 0.051653
#
#
# Mechanical properties :
#
#
# Convention : Reuss Voigt Hill
#
# Bulk Modulus (GPa) = 36.88407 44.48117 40.68262
# Shear Modulus (GPa) = 22.13512 25.55285 23.84398
#
# Velocity S-wave (km/s) = 3.36888 3.61963 3.49651
# Velocity P-wave (km/s) = 5.83473 6.34633 6.09590
#
# Compressibility (1/GPa) = 0.02711197
#
# Stress axis : x y z
#
# Youngs Moduli (GPa) = 29.62558 61.61697 77.54408
#
# Poissons Ratio (x) = 0.35523 0.78830
# Poissons Ratio (y) = 0.17080 0.15144
# Poissons Ratio (z) = 0.30117 0.12034
#
# Static dielectric constant tensor:
#      x y z
#    x 3.361240 0.000000 0.000000 
#    y 0.000000 3.608990 0.000000 
#    z 0.000000 0.000000 3.607470 
# 
# 
# High freq. dielectric constant tensor:
#      x y z
#    x 1.741130 0.000000 0.000000 
#    y 0.000000 1.751830 0.000000 
#    z 0.000000 0.000000 1.769400 
# 
# From -- ./inp_files/29519.got.cif
#   From: 2010.03.12/outbox.cif.g09.slc.cpg/sg59_15_cif.got.tgz:29519.got - 2010.04.16 16:29:54.
