data_PCOD8241835
_publ_section_title
;
Structure prediction by ZEFSAII (Michael W. Deem and Ramdas Pophale) SiO2 
 PCOD8241835
Probable space group: P M M N
;
_chemical_formula_sum "Si O2"
_cell_formula_units_Z 64
_cell_length_a 18.161706
_cell_length_b 9.182084
_cell_length_c 21.283873
_cell_angle_alpha 90.000000
_cell_angle_beta 90.000000
_cell_angle_gamma 90.000000
_cell_volume 3549.347829
_symmetry_space_group_name_H-M "P M M N"
_symmetry_group_IT_number 59
_space_group.IT_coordinate_system_code '2'
_symmetry_cell_setting 'orthorhombic'
loop_
_space_group_symop_operation_xyz
x,y,z
1/2-x,1/2-y,z
1/2+x,-y,-z
-x,1/2+y,-z
-x,-y,-z
1/2+x,1/2+y,-z
1/2-x,y,z
x,1/2-y,z
loop_
_atom_site_type_symbol
_atom_site_label
_atom_site_fract_x
_atom_site_fract_y
_atom_site_fract_z
Si Si1 0.335021 0.419523 0.500275
Si Si2 0.083340 0.081271 0.754050
Si Si3 0.034837 0.580865 0.941433
Si Si4 0.165849 0.419756 0.877695
Si Si5 0.571826 0.578522 0.384126
Si Si6 0.452486 0.417865 0.185750
Si Si7 0.905086 0.422144 0.615175
Si Si8 0.834358 0.420530 0.746859
O O1 0.250000 0.445493 0.515188
O O2 0.352804 0.250000 0.490180
O O3 0.379754 0.487154 0.559423
O O4 0.356655 0.504378 0.438123
O O5 0.059488 0.250000 0.756848
O O6 0.147390 0.047657 0.804439
O O7 0.108799 0.038912 0.683458
O O8 0.011282 0.988853 0.767930
O O9 0.047628 0.750000 0.957063
O O10 0.113705 0.511956 0.923516
O O11 0.976657 0.558902 0.885812
O O12 0.000000 0.500000 0.000000
O O13 0.250000 0.466847 0.889620
O O14 0.153807 0.250000 0.892815
O O15 0.570154 0.750000 0.391946
O O16 0.488591 0.518412 0.388319
O O17 0.445661 0.250000 0.203297
O O18 0.374158 0.495401 0.196122
O O19 0.900993 0.250000 0.605899
O O20 0.870726 0.468578 0.681451
O O21 0.750000 0.469322 0.746497
O O22 0.843121 0.250000 0.758766
#
# Coordination Sequence:
#
# PCOD8241835 Si02
#       8
#     8   8   8   8   8   8   8   8
#     4  10  21  34  47  69 101 133 168 215 268 315
#     4   9  16  31  54  76 103 138 174 211 256 311
#     4  10  21  37  58  83 110 147 186 219 259 308
#     4   9  18  32  54  85 115 143 178 220 264 312
#     4   9  17  31  52  74  97 131 173 214 257 309
#     4  10  20  34  53  79 109 135 167 211 260 309
#     4  10  19  34  54  72  94 130 176 217 257 311
#     4  10  20  34  54  78 102 133 174 216 261 316
#
# _framework density 18.031480999999999
#
# number of rings (size 3 to 8) (size 9 to 14) (size 15 to 20)
#    0.000    2.375    1.250    1.500    0.000    3.750 
#    0.000    3.750    0.000    0.750    0.000    1.750 
#    0.000    0.000    0.000    0.000    0.000    0.000 
#
# Total GULP energy -793595.854511 kJ/mol
# GULP energy per Si atom -12399.935227 kJ/mol
# Density = 1.799044 g / cm^3
# Si number density = 18.031481 Si / 1000 Ang^3
#
#
#
# Elastic Constant Matrix: (Units=GPa)
#
#
# Indices 1 2 3 4 5 6 
#
# 1 133.4135 53.4145 58.0955 0.0000 0.0000 0.0000
# 2 53.4145 62.7550 48.6681 0.0000 0.0000 0.0000
# 3 58.0955 48.6681 93.3476 0.0000 0.0000 0.0000
# 4 0.0000 0.0000 0.0000 26.3985 0.0000 0.0000
# 5 0.0000 0.0000 0.0000 0.0000 25.7984 0.0000
# 6 0.0000 0.0000 0.0000 0.0000 0.0000 25.1041
#
#
#
# Elastic Compliance Matrix: (Units=1/GPa)
#
#
# Indices 1 2 3 4 5 6 
#
# 1 0.012055 -0.007458 -0.003614 0.000000 0.000000 0.000000
# 2 -0.007458 0.031365 -0.011711 0.000000 0.000000 0.000000
# 3 -0.003614 -0.011711 0.019068 0.000000 0.000000 0.000000
# 4 0.000000 0.000000 0.000000 0.037881 0.000000 0.000000
# 5 0.000000 0.000000 0.000000 0.000000 0.038762 0.000000
# 6 0.000000 0.000000 0.000000 0.000000 0.000000 0.039834
#
#
# Mechanical properties :
#
#
# Convention : Reuss Voigt Hill
#
# Bulk Modulus (GPa) = 59.09694 67.76355 63.43025
# Shear Modulus (GPa) = 21.72279 24.08274 22.90277
#
# Velocity S-wave (km/s) = 3.47467 3.65854 3.56779
# Velocity P-wave (km/s) = 6.99594 7.45043 7.22676
#
# Compressibility (1/GPa) = 0.01692135
#
# Stress axis : x y z
#
# Youngs Moduli (GPa) = 82.95097 31.88249 52.44416
#
# Poissons Ratio (x) = 0.23778 0.18955
# Poissons Ratio (y) = 0.61864 0.61418
# Poissons Ratio (z) = 0.29982 0.37338
#
# Static dielectric constant tensor:
#      x y z
#    x 3.442990 0.000000 0.000000 
#    y 0.000000 3.210220 0.000000 
#    z 0.000000 0.000000 3.393080 
# 
# 
# High freq. dielectric constant tensor:
#      x y z
#    x 1.697690 0.000000 0.000000 
#    y 0.000000 1.682580 0.000000 
#    z 0.000000 0.000000 1.699020 
# 
# From -- ./inp_files/30733.got.cif
#   From: 2010.03.12/outbox.cif.g09.slc.cpg/sg59_16_cif.got.tgz:30733.got - 2010.04.16 16:29:54.
