data_PCOD8241327
_publ_section_title
;
Structure prediction by ZEFSAII (Michael W. Deem and Ramdas Pophale) SiO2 
 PCOD8241327
Probable space group: P M M N
;
_chemical_formula_sum "Si O2"
_cell_formula_units_Z 40
_cell_length_a 8.784385
_cell_length_b 10.187400
_cell_length_c 24.427739
_cell_angle_alpha 90.000000
_cell_angle_beta 90.000000
_cell_angle_gamma 90.000000
_cell_volume 2186.039432
_symmetry_space_group_name_H-M "P M M N"
_symmetry_group_IT_number 59
_space_group.IT_coordinate_system_code '2'
_symmetry_cell_setting 'orthorhombic'
loop_
_space_group_symop_operation_xyz
x,y,z
1/2-x,1/2-y,z
1/2+x,-y,-z
-x,1/2+y,-z
-x,-y,-z
1/2+x,1/2+y,-z
1/2-x,y,z
x,1/2-y,z
loop_
_atom_site_type_symbol
_atom_site_label
_atom_site_fract_x
_atom_site_fract_y
_atom_site_fract_z
Si Si1 0.573635 0.404959 0.732942
Si Si2 0.570030 0.098766 0.956483
Si Si3 0.579330 0.594602 0.156328
Si Si4 0.569983 0.250000 0.433326
Si Si5 0.930709 0.250000 0.556745
Si Si6 0.069905 0.485799 0.623209
O O1 0.750000 0.441742 0.728892
O O2 0.547814 0.250000 0.726432
O O3 0.509573 0.458340 0.790587
O O4 0.481035 0.478683 0.685956
O O5 0.750000 0.086170 0.957435
O O6 0.520188 0.250000 0.968427
O O7 0.510631 0.050532 0.897628
O O8 0.500000 0.000000 0.000000
O O9 0.750000 0.535787 0.154955
O O10 0.585670 0.750000 0.159290
O O11 0.750000 0.250000 0.436519
O O12 0.504491 0.250000 0.494963
O O13 0.511992 0.376502 0.400705
O O14 0.750000 0.250000 0.558645
O O15 0.989663 0.377003 0.587209
O O16 0.250000 0.467827 0.619448
#
# Coordination Sequence:
#
# PCOD8241327 Si02
#       6
#     8   8   8   4   4   8
#     4  10  19  32  52  79 110 138 174 224 271 315
#     4  10  20  34  54  81 113 148 185 226 273 322
#     4   9  17  30  51  79 108 140 181 225 269 317
#     4   9  22  39  55  77 109 143 176 219 268 321
#     4  11  21  37  57  81 109 137 176 223 268 317
#     4  11  21  36  57  80 106 140 180 220 267 321
#
# _framework density 18.297931999999999
#
# number of rings (size 3 to 8) (size 9 to 14) (size 15 to 20)
#    0.000    2.000    1.000    3.300    0.000    4.400 
#    0.000    5.000    2.200    0.000    0.000    0.000 
#    0.000    0.000    0.000    0.000    0.000    0.000 
#
# Total GULP energy -496060.468212 kJ/mol
# GULP energy per Si atom -12401.511705 kJ/mol
# Density = 1.825628 g / cm^3
# Si number density = 18.297932 Si / 1000 Ang^3
#
#
#
# Elastic Constant Matrix: (Units=GPa)
#
#
# Indices 1 2 3 4 5 6 
#
# 1 95.5430 40.1009 54.8622 0.0000 0.0000 0.0000
# 2 40.1009 97.6243 68.1195 0.0000 0.0000 0.0000
# 3 54.8622 68.1195 177.8890 0.0000 0.0000 0.0000
# 4 0.0000 0.0000 0.0000 25.7771 0.0000 0.0000
# 5 0.0000 0.0000 0.0000 0.0000 36.5787 0.0000
# 6 0.0000 0.0000 0.0000 0.0000 0.0000 57.5874
#
#
#
# Elastic Compliance Matrix: (Units=1/GPa)
#
#
# Indices 1 2 3 4 5 6 
#
# 1 0.013600 -0.003630 -0.002805 0.000000 0.000000 0.000000
# 2 -0.003630 0.014947 -0.004604 0.000000 0.000000 0.000000
# 3 -0.002805 -0.004604 0.008250 0.000000 0.000000 0.000000
# 4 0.000000 0.000000 0.000000 0.038794 0.000000 0.000000
# 5 0.000000 0.000000 0.000000 0.000000 0.027338 0.000000
# 6 0.000000 0.000000 0.000000 0.000000 0.000000 0.017365
#
#
# Mechanical properties :
#
#
# Convention : Reuss Voigt Hill
#
# Bulk Modulus (GPa) = 67.93497 77.46906 72.70201
# Shear Modulus (GPa) = 33.94944 37.85355 35.90150
#
# Velocity S-wave (km/s) = 4.31207 4.55327 4.43431
# Velocity P-wave (km/s) = 7.87399 8.37093 8.12626
#
# Compressibility (1/GPa) = 0.01471996
#
# Stress axis : x y z
#
# Youngs Moduli (GPa) = 73.52776 66.90288 121.21881
#
# Poissons Ratio (x) = 0.24283 0.33996
# Poissons Ratio (y) = 0.26688 0.55813
# Poissons Ratio (z) = 0.20621 0.30804
#
# Static dielectric constant tensor:
#      x y z
#    x 3.474660 0.000000 0.000000 
#    y 0.000000 2.971200 0.000000 
#    z 0.000000 0.000000 3.674730 
# 
# 
# High freq. dielectric constant tensor:
#      x y z
#    x 1.719190 0.000000 0.000000 
#    y 0.000000 1.675120 0.000000 
#    z 0.000000 0.000000 1.727920 
# 
# From -- ./inp_files/32417.got.cif
#   From: 2010.03.12/outbox.cif.g09.slc.cpg/sg59_17_cif.got.tgz:32417.got - 2010.04.16 16:29:54.
