data_PCOD8241590
_publ_section_title
;
Structure prediction by ZEFSAII (Michael W. Deem and Ramdas Pophale) SiO2 
 PCOD8241590
Probable space group: P M M N
;
_chemical_formula_sum "Si O2"
_cell_formula_units_Z 32
_cell_length_a 9.003231
_cell_length_b 17.016869
_cell_length_c 11.684353
_cell_angle_alpha 90.000000
_cell_angle_beta 90.000000
_cell_angle_gamma 90.000000
_cell_volume 1790.122362
_symmetry_space_group_name_H-M "P M M N"
_symmetry_group_IT_number 59
_space_group.IT_coordinate_system_code '2'
_symmetry_cell_setting 'orthorhombic'
loop_
_space_group_symop_operation_xyz
x,y,z
1/2-x,1/2-y,z
1/2+x,-y,-z
-x,1/2+y,-z
-x,-y,-z
1/2+x,1/2+y,-z
1/2-x,y,z
x,1/2-y,z
loop_
_atom_site_type_symbol
_atom_site_label
_atom_site_fract_x
_atom_site_fract_y
_atom_site_fract_z
Si Si1 0.422821 0.750000 0.264240
Si Si2 0.922313 0.569626 0.648772
Si Si3 0.074055 0.250000 0.976385
Si Si4 0.581861 0.336489 0.160039
Si Si5 0.421106 0.895241 0.422909
O O1 0.250000 0.750000 0.228535
O O2 0.525768 0.750000 0.154203
O O3 0.464665 0.826463 0.336893
O O4 0.750000 0.588950 0.661671
O O5 0.955190 0.477143 0.639934
O O6 0.005370 0.599212 0.761067
O O7 0.981572 0.614208 0.536712
O O8 0.250000 0.250000 0.986054
O O9 0.007520 0.172090 0.039634
O O10 0.750000 0.363560 0.133884
O O11 0.580608 0.250000 0.220799
O O12 0.250000 0.890089 0.460857
#
# Coordination Sequence:
#
# PCOD8241590 Si02
#       5
#     4   8   4   8   8
#     4  10  20  37  56  73 102 143 181 209 255 318
#     4  10  19  33  53  81 111 136 174 222 265 304
#     4  10  20  35  54  79 106 131 173 225 265 304
#     4   9  19  34  55  77 102 138 175 211 259 314
#     4   9  20  35  53  77 109 146 176 212 261 319
#
# _framework density 17.875874
#
# number of rings (size 3 to 8) (size 9 to 14) (size 15 to 20)
#    0.750    1.750    0.000    2.250    1.750    2.000 
#    0.000    1.250    0.000    0.000    0.000    0.000 
#    0.000    0.000    0.000    0.000    0.000    0.000 
#
# Total GULP energy -396730.920348 kJ/mol
# GULP energy per Si atom -12397.841261 kJ/mol
# Density = 1.783519 g / cm^3
# Si number density = 17.875874 Si / 1000 Ang^3
#
#
#
# Elastic Constant Matrix: (Units=GPa)
#
#
# Indices 1 2 3 4 5 6 
#
# 1 131.3094 44.6238 71.9629 0.0000 0.0000 0.0000
# 2 44.6238 74.1012 59.0684 0.0000 0.0000 0.0000
# 3 71.9629 59.0684 116.5417 0.0000 0.0000 0.0000
# 4 0.0000 0.0000 0.0000 -1.3014 0.0000 0.0000
# 5 0.0000 0.0000 0.0000 0.0000 36.8726 0.0000
# 6 0.0000 0.0000 0.0000 0.0000 0.0000 26.2057
#
#
#
# Elastic Compliance Matrix: (Units=1/GPa)
#
#
# Indices 1 2 3 4 5 6 
#
# 1 0.011714 -0.002162 -0.006137 0.000000 0.000000 0.000000
# 2 -0.002162 0.023042 -0.010344 0.000000 0.000000 0.000000
# 3 -0.006137 -0.010344 0.017613 0.000000 0.000000 0.000000
# 4 0.000000 0.000000 0.000000 -0.768384 0.000000 0.000000
# 5 0.000000 0.000000 0.000000 0.000000 0.027120 0.000000
# 6 0.000000 0.000000 0.000000 0.000000 0.000000 0.038160
#
#
# Mechanical properties :
#
#
# Convention : Reuss Voigt Hill
#
# Bulk Modulus (GPa) = 66.29988 74.80695 70.55342
# Shear Modulus (GPa) = -8.21800 22.10852 6.94526
#
# Velocity S-wave (km/s) = -2.14645 3.52060 1.97325
# Velocity P-wave (km/s) = 5.57015 7.64624 6.68923
#
# Compressibility (1/GPa) = 0.01508298
#
# Stress axis : x y z
#
# Youngs Moduli (GPa) = 85.36928 43.39819 56.77536
#
# Poissons Ratio (x) = 0.09381 0.34846
# Poissons Ratio (y) = 0.18454 0.58729
# Poissons Ratio (z) = 0.52395 0.44892
#
# Static dielectric constant tensor:
#      x y z
#    x 3.399020 0.000000 0.000000 
#    y 0.000000 3.232090 0.000000 
#    z 0.000000 0.000000 3.101680 
# 
# 
# High freq. dielectric constant tensor:
#      x y z
#    x 1.702350 0.000000 0.000000 
#    y 0.000000 1.677630 0.000000 
#    z 0.000000 0.000000 1.681460 
# 
# From -- ./inp_files/13763.got.cif
#   From: 2010.03.12/outbox.cif.g09.slc.cpg/sg59_7_cif.got.tgz:13763.got - 2010.04.16 16:29:54.
