data_PCOD8241372
_publ_section_title
;
Structure prediction by ZEFSAII (Michael W. Deem and Ramdas Pophale) SiO2 
 PCOD8241372
Probable space group: P M M N
;
_chemical_formula_sum "Si O2"
_cell_formula_units_Z 64
_cell_length_a 18.561823
_cell_length_b 17.598708
_cell_length_c 11.203176
_cell_angle_alpha 90.000000
_cell_angle_beta 90.000000
_cell_angle_gamma 90.000000
_cell_volume 3659.675438
_symmetry_space_group_name_H-M "P M M N"
_symmetry_group_IT_number 59
_space_group.IT_coordinate_system_code '2'
_symmetry_cell_setting 'orthorhombic'
loop_
_space_group_symop_operation_xyz
x,y,z
1/2-x,1/2-y,z
1/2+x,-y,-z
-x,1/2+y,-z
-x,-y,-z
1/2+x,1/2+y,-z
1/2-x,y,z
x,1/2-y,z
loop_
_atom_site_type_symbol
_atom_site_label
_atom_site_fract_x
_atom_site_fract_y
_atom_site_fract_z
Si Si1 0.957802 0.161223 0.196750
Si Si2 0.428047 0.336273 0.802926
Si Si3 0.667330 0.063316 0.270937
Si Si4 0.081336 0.447309 0.598471
Si Si5 0.076531 0.664093 0.074970
Si Si6 0.168035 0.530071 0.170028
Si Si7 0.946603 0.954568 0.666715
Si Si8 0.670090 0.944644 0.068422
O O1 0.971660 0.250000 0.220552
O O2 0.883742 0.137432 0.264412
O O3 0.025011 0.113874 0.250200
O O4 0.952256 0.142632 0.056450
O O5 0.402636 0.250000 0.800376
O O6 0.406218 0.371744 0.675741
O O7 0.512421 0.344189 0.829926
O O8 0.385586 0.377366 0.909284
O O9 0.750000 0.089542 0.285320
O O10 0.645400 0.008681 0.381470
O O11 0.652457 0.017899 0.148896
O O12 0.078150 0.421771 0.461255
O O13 0.007906 0.483475 0.646731
O O14 0.106882 0.750000 0.073644
O O15 0.140468 0.609937 0.117654
O O16 0.250000 0.542119 0.213757
O O17 0.120889 0.498709 0.278157
O O18 0.163724 0.466592 0.068622
O O19 0.750000 0.915287 0.099778
#
# Coordination Sequence:
#
# PCOD8241372 Si02
#       8
#     8   8   8   8   8   8   8   8
#     4  10  20  32  52  80 109 141 172 213 269 320
#     4  10  19  32  53  78 105 139 173 218 270 311
#     4   9  17  31  51  75 105 137 174 218 261 310
#     4   9  19  34  53  75 100 140 179 222 265 299
#     4  10  20  33  51  80 112 139 173 214 263 324
#     4  11  21  34  55  77 104 145 178 213 265 315
#     4  10  20  35  53  76 104 136 183 225 258 308
#     4   9  18  31  49  77 105 135 175 214 259 315
#
# _framework density 17.487888999999999
#
# number of rings (size 3 to 8) (size 9 to 14) (size 15 to 20)
#    0.000    2.250    2.500    0.750    0.000    2.750 
#    0.000    1.250    0.000    1.125    0.000    3.500 
#    0.000    0.000    0.000    0.000    0.000    0.000 
#
# Total GULP energy -793583.880398 kJ/mol
# GULP energy per Si atom -12399.748131 kJ/mol
# Density = 1.744809 g / cm^3
# Si number density = 17.487889 Si / 1000 Ang^3
#
#
#
# Elastic Constant Matrix: (Units=GPa)
#
#
# Indices 1 2 3 4 5 6 
#
# 1 84.5950 44.1268 35.3186 0.0000 0.0000 0.0000
# 2 44.1268 98.2497 39.3263 0.0000 0.0000 0.0000
# 3 35.3186 39.3263 81.7307 0.0000 0.0000 0.0000
# 4 0.0000 0.0000 0.0000 17.7941 0.0000 0.0000
# 5 0.0000 0.0000 0.0000 0.0000 19.1052 0.0000
# 6 0.0000 0.0000 0.0000 0.0000 0.0000 20.0873
#
#
#
# Elastic Compliance Matrix: (Units=1/GPa)
#
#
# Indices 1 2 3 4 5 6 
#
# 1 0.016652 -0.005696 -0.004455 0.000000 0.000000 0.000000
# 2 -0.005696 0.014554 -0.004542 0.000000 0.000000 0.000000
# 3 -0.004455 -0.004542 0.016346 0.000000 0.000000 0.000000
# 4 0.000000 0.000000 0.000000 0.056198 0.000000 0.000000
# 5 0.000000 0.000000 0.000000 0.000000 0.052342 0.000000
# 6 0.000000 0.000000 0.000000 0.000000 0.000000 0.049783
#
#
# Mechanical properties :
#
#
# Convention : Reuss Voigt Hill
#
# Bulk Modulus (GPa) = 55.04561 55.79100 55.41831
# Shear Modulus (GPa) = 20.71968 21.11755 20.91862
#
# Velocity S-wave (km/s) = 3.44583 3.47876 3.46233
# Velocity P-wave (km/s) = 6.88305 6.93596 6.90956
#
# Compressibility (1/GPa) = 0.01816675
#
# Stress axis : x y z
#
# Youngs Moduli (GPa) = 60.05235 68.70907 61.17710
#
# Poissons Ratio (x) = 0.39134 0.27257
# Poissons Ratio (y) = 0.34203 0.27785
# Poissons Ratio (z) = 0.26756 0.31206
#
# Static dielectric constant tensor:
#      x y z
#    x 3.245470 0.000000 0.000000 
#    y 0.000000 3.113420 0.000000 
#    z 0.000000 0.000000 3.215820 
# 
# 
# High freq. dielectric constant tensor:
#      x y z
#    x 1.672720 0.000000 0.000000 
#    y 0.000000 1.664950 0.000000 
#    z 0.000000 0.000000 1.666920 
# 
# From -- ./inp_files/17966.got.cif
#   From: 2010.03.12/outbox.cif.g09.slc.cpg/sg59_9_cif.got.tgz:17966.got - 2010.04.16 16:29:54.
