data_PCOD8241732
_publ_section_title
;
Structure prediction by ZEFSAII (Michael W. Deem and Ramdas Pophale) SiO2 
 PCOD8241732
Probable space group: P M M N
;
_chemical_formula_sum "Si O2"
_cell_formula_units_Z 48
_cell_length_a 17.884751
_cell_length_b 8.303300
_cell_length_c 15.505647
_cell_angle_alpha 90.000000
_cell_angle_beta 90.000000
_cell_angle_gamma 90.000000
_cell_volume 2302.626615
_symmetry_space_group_name_H-M "P M M N"
_symmetry_group_IT_number 59
_space_group.IT_coordinate_system_code '2'
_symmetry_cell_setting 'orthorhombic'
loop_
_space_group_symop_operation_xyz
x,y,z
1/2-x,1/2-y,z
1/2+x,-y,-z
-x,1/2+y,-z
-x,-y,-z
1/2+x,1/2+y,-z
1/2-x,y,z
x,1/2-y,z
loop_
_atom_site_type_symbol
_atom_site_label
_atom_site_fract_x
_atom_site_fract_y
_atom_site_fract_z
Si Si1 0.416085 0.058950 0.001633
Si Si2 0.575355 0.936236 0.333711
Si Si3 0.835769 0.064573 0.489578
Si Si4 0.833933 0.941651 0.168367
Si Si5 0.087093 0.063382 0.344676
Si Si6 0.665772 0.558479 0.828779
O O1 0.414304 0.250000 0.002026
O O2 0.373199 0.991381 0.917821
O O3 0.375333 0.989312 0.086536
O O4 0.500000 0.000000 0.000000
O O5 0.553138 0.750000 0.322344
O O6 0.619914 0.002875 0.250887
O O7 0.626929 0.953641 0.417387
O O8 0.501652 0.042316 0.344344
O O9 0.750000 0.011336 0.499675
O O10 0.843035 0.250000 0.461844
O O11 0.877056 0.040744 0.579847
O O12 0.750000 0.011894 0.173380
O O13 0.831210 0.750000 0.167453
O O14 0.106769 0.250000 0.359387
O O15 0.121055 0.998378 0.255034
O O16 0.750000 0.490127 0.825635
O O17 0.666835 0.750000 0.832286
#
# Coordination Sequence:
#
# PCOD8241732 Si02
#       6
#     8   8   8   8   8   8
#     4  10  19  33  55  81 111 144 180 224 270 322
#     4  11  22  37  58  83 113 147 185 228 274 328
#     4  11  24  41  60  83 111 143 182 229 280 331
#     4   9  18  33  55  82 109 142 185 228 270 320
#     4  11  22  37  58  83 113 147 185 228 274 328
#     4   9  18  33  55  82 109 142 185 228 270 320
#
# _framework density 20.845759000000001
#
# number of rings (size 3 to 8) (size 9 to 14) (size 15 to 20)
#    0.000    1.833    0.000    4.500    0.000    4.667 
#    0.000    1.667    0.000    6.000    0.000    0.000 
#    0.000    0.000    0.000    0.000    0.000    0.000 
#
# Total GULP energy -595442.790420 kJ/mol
# GULP energy per Si atom -12405.058134 kJ/mol
# Density = 2.079831 g / cm^3
# Si number density = 20.845759 Si / 1000 Ang^3
#
#
#
# Elastic Constant Matrix: (Units=GPa)
#
#
# Indices 1 2 3 4 5 6 
#
# 1 169.5428 6.3385 75.2617 0.0000 0.0000 0.0000
# 2 6.3385 26.0253 7.0384 0.0000 0.0000 0.0000
# 3 75.2617 7.0384 178.1325 0.0000 0.0000 0.0000
# 4 0.0000 0.0000 0.0000 4.0101 0.0000 0.0000
# 5 0.0000 0.0000 0.0000 0.0000 49.6644 0.0000
# 6 0.0000 0.0000 0.0000 0.0000 0.0000 21.1515
#
#
#
# Elastic Compliance Matrix: (Units=1/GPa)
#
#
# Indices 1 2 3 4 5 6 
#
# 1 0.007283 -0.000952 -0.003040 0.000000 0.000000 0.000000
# 2 -0.000952 0.038964 -0.001137 0.000000 0.000000 0.000000
# 3 -0.003040 -0.001137 0.006943 0.000000 0.000000 0.000000
# 4 0.000000 0.000000 0.000000 0.249370 0.000000 0.000000
# 5 0.000000 0.000000 0.000000 0.000000 0.020135 0.000000
# 6 0.000000 0.000000 0.000000 0.000000 0.000000 0.047278
#
#
# Mechanical properties :
#
#
# Convention : Reuss Voigt Hill
#
# Bulk Modulus (GPa) = 23.29257 61.21975 42.25616
# Shear Modulus (GPa) = 12.67296 33.96934 23.32115
#
# Velocity S-wave (km/s) = 2.46832 4.04116 3.34840
# Velocity P-wave (km/s) = 4.39562 7.15586 5.93834
#
# Compressibility (1/GPa) = 0.04293215
#
# Stress axis : x y z
#
# Youngs Moduli (GPa) = 137.30474 25.66502 144.03102
#
# Poissons Ratio (x) = 0.02443 0.43779
# Poissons Ratio (y) = 0.13068 0.16382
# Poissons Ratio (z) = 0.41734 0.02919
#
# Static dielectric constant tensor:
#      x y z
#    x 3.851010 0.000000 0.000000 
#    y 0.000000 3.293440 0.000000 
#    z 0.000000 0.000000 4.020680 
# 
# 
# High freq. dielectric constant tensor:
#      x y z
#    x 1.832660 0.000000 0.000000 
#    y 0.000000 1.780630 0.000000 
#    z 0.000000 0.000000 1.834020 
# 
# From -- ./inp_files/23679.got.cif
#   From: 2010.03.12/outbox.cif.g09.slc.cpg/sg59_12_cif.got.tgz:23679.got - 2010.04.16 16:29:54.
