data_PCOD8241033
_publ_section_title
;
Structure prediction by ZEFSAII (Michael W. Deem and Ramdas Pophale) SiO2 
 PCOD8241033
Probable space group: P M M N
;
_chemical_formula_sum "Si O2"
_cell_formula_units_Z 64
_cell_length_a 13.366295
_cell_length_b 18.073302
_cell_length_c 15.105058
_cell_angle_alpha 90.000000
_cell_angle_beta 90.000000
_cell_angle_gamma 90.000000
_cell_volume 3648.975478
_symmetry_space_group_name_H-M "P M M N"
_symmetry_group_IT_number 59
_space_group.IT_coordinate_system_code '2'
_symmetry_cell_setting 'orthorhombic'
loop_
_space_group_symop_operation_xyz
x,y,z
1/2-x,1/2-y,z
1/2+x,-y,-z
-x,1/2+y,-z
-x,-y,-z
1/2+x,1/2+y,-z
1/2-x,y,z
x,1/2-y,z
loop_
_atom_site_type_symbol
_atom_site_label
_atom_site_fract_x
_atom_site_fract_y
_atom_site_fract_z
Si Si1 0.944404 0.334781 0.288049
Si Si2 0.519781 0.332915 0.090326
Si Si3 0.137315 0.046907 0.105005
Si Si4 0.048589 0.948732 0.396478
Si Si5 0.366470 0.546105 0.582169
Si Si6 0.865770 0.335002 0.736302
Si Si7 0.360753 0.416473 0.305150
Si Si8 0.867778 0.384694 0.926341
O O1 0.917291 0.250000 0.311394
O O2 0.926852 0.352026 0.183761
O O3 0.874669 0.390308 0.343101
O O4 0.061415 0.348783 0.310611
O O5 0.476608 0.250000 0.095600
O O6 0.428131 0.386428 0.067263
O O7 0.598692 0.338822 0.011459
O O8 0.250000 0.060557 0.071567
O O9 0.132719 0.042756 0.210941
O O10 0.093842 0.969388 0.068765
O O11 0.085860 0.920492 0.492186
O O12 0.064537 0.882997 0.327627
O O13 0.114681 0.021332 0.377036
O O14 0.931213 0.972675 0.393223
O O15 0.250000 0.524384 0.572056
O O16 0.750000 0.360431 0.726821
O O17 0.878119 0.250000 0.708821
O O18 0.905531 0.345796 0.836386
O O19 0.250000 0.384078 0.322336
O O20 0.750000 0.384367 0.924854
#
# Coordination Sequence:
#
# PCOD8241033 Si02
#       8
#     8   8   8   8   8   8   8   8
#     4   9  20  34  47  71 104 137 172 206 242 291
#     4  10  20  33  49  70 101 139 172 205 249 296
#     4   9  17  30  50  74  99 128 165 211 253 294
#     4  10  19  34  55  77 102 129 164 208 252 304
#     4  10  21  35  54  76  99 134 173 206 246 295
#     4  10  19  31  52  82 108 128 158 206 262 310
#     4   9  15  28  52  76 100 129 161 204 255 299
#     4  10  19  32  51  75 101 130 168 209 253 302
#
# _framework density 17.539169999999999
#
# number of rings (size 3 to 8) (size 9 to 14) (size 15 to 20)
#    0.000    2.375    1.250    1.875    0.000    2.500 
#    0.000    3.750    0.000    0.375    0.000    0.000 
#    0.000    0.000    0.000    0.000    0.000    0.000 
#
# Total GULP energy -793511.431810 kJ/mol
# GULP energy per Si atom -12398.616122 kJ/mol
# Density = 1.749925 g / cm^3
# Si number density = 17.539170 Si / 1000 Ang^3
#
#
#
# Elastic Constant Matrix: (Units=GPa)
#
#
# Indices 1 2 3 4 5 6 
#
# 1 79.2551 37.1057 32.1991 0.0000 0.0000 0.0000
# 2 37.1057 85.7713 44.7752 0.0000 0.0000 0.0000
# 3 32.1991 44.7752 98.1270 0.0000 0.0000 0.0000
# 4 0.0000 0.0000 0.0000 18.5411 0.0000 0.0000
# 5 0.0000 0.0000 0.0000 0.0000 22.9062 0.0000
# 6 0.0000 0.0000 0.0000 0.0000 0.0000 20.8720
#
#
#
# Elastic Compliance Matrix: (Units=1/GPa)
#
#
# Indices 1 2 3 4 5 6 
#
# 1 0.016393 -0.005623 -0.002813 0.000000 0.000000 0.000000
# 2 -0.005623 0.017233 -0.006018 0.000000 0.000000 0.000000
# 3 -0.002813 -0.006018 0.013860 0.000000 0.000000 0.000000
# 4 0.000000 0.000000 0.000000 0.053934 0.000000 0.000000
# 5 0.000000 0.000000 0.000000 0.000000 0.043656 0.000000
# 6 0.000000 0.000000 0.000000 0.000000 0.000000 0.047911
#
#
# Mechanical properties :
#
#
# Convention : Reuss Voigt Hill
#
# Bulk Modulus (GPa) = 53.83042 54.59039 54.21040
# Shear Modulus (GPa) = 21.92110 22.40206 22.16158
#
# Velocity S-wave (km/s) = 3.53914 3.57775 3.55850
# Velocity P-wave (km/s) = 6.88904 6.94691 6.91803
#
# Compressibility (1/GPa) = 0.01857686
#
# Stress axis : x y z
#
# Youngs Moduli (GPa) = 61.00103 58.02697 72.14896
#
# Poissons Ratio (x) = 0.32630 0.20298
# Poissons Ratio (y) = 0.34302 0.43422
# Poissons Ratio (z) = 0.17162 0.34923
#
# Static dielectric constant tensor:
#      x y z
#    x 3.141420 0.000000 0.000000 
#    y 0.000000 3.251180 0.000000 
#    z 0.000000 0.000000 3.319840 
# 
# 
# High freq. dielectric constant tensor:
#      x y z
#    x 1.659130 0.000000 0.000000 
#    y 0.000000 1.671900 0.000000 
#    z 0.000000 0.000000 1.678710 
# 
# From -- ./inp_files/22729.got.cif
#   From: 2010.03.12/outbox.cif.g09.slc.cpg/sg59_12_cif.got.tgz:22729.got - 2010.04.16 16:29:54.
