data_PCOD8241526
_publ_section_title
;
Structure prediction by ZEFSAII (Michael W. Deem and Ramdas Pophale) SiO2 
 PCOD8241526
Probable space group: P M M N
;
_chemical_formula_sum "Si O2"
_cell_formula_units_Z 48
_cell_length_a 8.957163
_cell_length_b 14.616831
_cell_length_c 20.256336
_cell_angle_alpha 90.000000
_cell_angle_beta 90.000000
_cell_angle_gamma 90.000000
_cell_volume 2652.067634
_symmetry_space_group_name_H-M "P M M N"
_symmetry_group_IT_number 59
_space_group.IT_coordinate_system_code '2'
_symmetry_cell_setting 'orthorhombic'
loop_
_space_group_symop_operation_xyz
x,y,z
1/2-x,1/2-y,z
1/2+x,-y,-z
-x,1/2+y,-z
-x,-y,-z
1/2+x,1/2+y,-z
1/2-x,y,z
x,1/2-y,z
loop_
_atom_site_type_symbol
_atom_site_label
_atom_site_fract_x
_atom_site_fract_y
_atom_site_fract_z
Si Si1 0.585127 0.750000 0.579619
Si Si2 0.573260 0.250000 0.017175
Si Si3 0.580799 0.948902 0.558092
Si Si4 0.927095 0.053281 0.302021
Si Si5 0.575377 0.931994 0.180274
Si Si6 0.425860 0.554497 0.941408
Si Si7 0.920286 0.250000 0.292275
Si Si8 0.927128 0.250000 0.867119
O O1 0.750000 0.750000 0.615475
O O2 0.572947 0.842038 0.536762
O O3 0.446011 0.750000 0.629218
O O4 0.750000 0.250000 0.013577
O O5 0.516941 0.159882 0.056200
O O6 0.510734 0.250000 0.942159
O O7 0.750000 0.983870 0.563016
O O8 0.505553 0.968059 0.628808
O O9 0.500000 0.000000 0.500000
O O10 0.750000 0.061178 0.314196
O O11 0.986400 0.150830 0.269653
O O12 0.965602 0.971744 0.252017
O O13 0.750000 0.909932 0.173846
O O14 0.484741 0.839313 0.170594
O O15 0.526676 0.008761 0.127303
O O16 0.250000 0.550975 0.952289
O O17 0.500000 0.500000 0.000000
O O18 0.750000 0.250000 0.271137
O O19 0.750000 0.250000 0.865369
#
# Coordination Sequence:
#
# PCOD8241526 Si02
#       8
#     4   4   8   8   8   8   4   4
#     4   8  16  30  48  72 101 133 166 199 248 305
#     4   9  18  32  51  76 104 134 171 217 265 310
#     4  10  19  33  54  79 106 139 176 215 260 311
#     4   9  18  33  52  78 108 137 171 214 262 313
#     4  10  21  35  54  78 105 138 176 219 266 317
#     4  10  19  33  52  75 102 133 172 215 260 310
#     4   8  14  27  50  74  99 130 163 200 248 304
#     4  11  21  35  55  74 100 141 182 220 263 315
#
# _framework density 18.099087000000001
#
# number of rings (size 3 to 8) (size 9 to 14) (size 15 to 20)
#    0.000    2.500    1.667    0.750    0.000    2.000 
#    0.000    4.583    0.000    2.000    0.000    3.500 
#    0.000    0.000    0.000    0.000    0.000    0.000 
#
# Total GULP energy -594720.521066 kJ/mol
# GULP energy per Si atom -12390.010856 kJ/mol
# Density = 1.805789 g / cm^3
# Si number density = 18.099087 Si / 1000 Ang^3
#
#
#
# Elastic Constant Matrix: (Units=GPa)
#
#
# Indices 1 2 3 4 5 6 
#
# 1 52.8711 45.7364 43.8157 0.0000 0.0000 0.0000
# 2 45.7364 160.8582 73.0760 0.0000 0.0000 0.0000
# 3 43.8157 73.0760 110.5489 0.0000 0.0000 0.0000
# 4 0.0000 0.0000 0.0000 30.2988 0.0000 0.0000
# 5 0.0000 0.0000 0.0000 0.0000 25.2105 0.0000
# 6 0.0000 0.0000 0.0000 0.0000 0.0000 23.1114
#
#
#
# Elastic Compliance Matrix: (Units=1/GPa)
#
#
# Indices 1 2 3 4 5 6 
#
# 1 0.030298 -0.004515 -0.009024 0.000000 0.000000 0.000000
# 2 -0.004515 0.009558 -0.004528 0.000000 0.000000 0.000000
# 3 -0.009024 -0.004528 0.015616 0.000000 0.000000 0.000000
# 4 0.000000 0.000000 0.000000 0.033005 0.000000 0.000000
# 5 0.000000 0.000000 0.000000 0.000000 0.039666 0.000000
# 6 0.000000 0.000000 0.000000 0.000000 0.000000 0.043269
#
#
# Mechanical properties :
#
#
# Convention : Reuss Voigt Hill
#
# Bulk Modulus (GPa) = 51.71507 72.17051 61.94279
# Shear Modulus (GPa) = 23.36546 26.50081 24.93314
#
# Velocity S-wave (km/s) = 3.59691 3.83065 3.71562
# Velocity P-wave (km/s) = 6.77390 7.71537 7.25991
#
# Compressibility (1/GPa) = 0.01933672
#
# Stress axis : x y z
#
# Youngs Moduli (GPa) = 33.00531 104.62903 64.03803
#
# Poissons Ratio (x) = 0.47241 0.57788
# Poissons Ratio (y) = 0.14902 0.28998
# Poissons Ratio (z) = 0.29784 0.47379
#
# Static dielectric constant tensor:
#      x y z
#    x 3.280080 0.000000 0.000000 
#    y 0.000000 3.737800 0.000000 
#    z 0.000000 0.000000 3.443770 
# 
# 
# High freq. dielectric constant tensor:
#      x y z
#    x 1.688560 0.000000 0.000000 
#    y 0.000000 1.717390 0.000000 
#    z 0.000000 0.000000 1.675990 
# 
# From -- ./inp_files/25643.got.cif
#   From: 2010.03.12/outbox.cif.g09.slc.cpg/sg59_13_cif.got.tgz:25643.got - 2010.04.16 16:29:54.
