data_PCOD8241399
_publ_section_title
;
Structure prediction by ZEFSAII (Michael W. Deem and Ramdas Pophale) SiO2 
 PCOD8241399
Probable space group: P M M N
;
_chemical_formula_sum "Si O2"
_cell_formula_units_Z 64
_cell_length_a 18.778634
_cell_length_b 19.040992
_cell_length_c 9.292036
_cell_angle_alpha 90.000000
_cell_angle_beta 90.000000
_cell_angle_gamma 90.000000
_cell_volume 3322.495886
_symmetry_space_group_name_H-M "P M M N"
_symmetry_group_IT_number 59
_space_group.IT_coordinate_system_code '2'
_symmetry_cell_setting 'orthorhombic'
loop_
_space_group_symop_operation_xyz
x,y,z
1/2-x,1/2-y,z
1/2+x,-y,-z
-x,1/2+y,-z
-x,-y,-z
1/2+x,1/2+y,-z
1/2-x,y,z
x,1/2-y,z
loop_
_atom_site_type_symbol
_atom_site_label
_atom_site_fract_x
_atom_site_fract_y
_atom_site_fract_z
Si Si1 0.829564 0.443903 0.595236
Si Si2 0.079065 0.917390 0.675147
Si Si3 0.668932 0.172637 0.126992
Si Si4 0.954761 0.669472 0.768531
Si Si5 0.134802 0.670491 0.180293
Si Si6 0.928424 0.527035 0.076528
Si Si7 0.832818 0.563814 0.823442
Si Si8 0.020787 0.173815 0.909014
O O1 0.750000 0.447148 0.526607
O O2 0.892579 0.442191 0.478889
O O3 0.832716 0.374390 0.691862
O O4 0.843217 0.513012 0.688523
O O5 0.131855 0.859941 0.736147
O O6 0.000933 0.880689 0.661841
O O7 0.083246 0.983449 0.780457
O O8 0.750000 0.174488 0.171414
O O9 0.636073 0.250000 0.106880
O O10 0.658230 0.135001 0.972065
O O11 0.946871 0.750000 0.711372
O O12 0.876500 0.635623 0.791531
O O13 0.997530 0.668048 0.920294
O O14 0.164635 0.750000 0.195483
O O15 0.049625 0.669707 0.186861
O O16 0.931027 0.607709 0.132682
O O17 0.863384 0.523165 0.963727
O O18 0.000000 0.500000 0.000000
O O19 0.750000 0.582820 0.849118
O O20 0.058666 0.250000 0.881144
#
# Coordination Sequence:
#
# PCOD8241399 Si02
#       8
#     8   8   8   8   8   8   8   8
#     4  11  25  39  52  80 123 160 195 239 290 351
#     4  12  22  35  58  82 121 153 190 239 300 348
#     4  10  19  32  53  80 110 152 199 235 279 345
#     4  10  20  37  61  88 114 145 191 250 303 349
#     4  10  19  34  56  79 113 156 195 235 281 340
#     4  11  19  36  61  91 114 151 192 241 296 350
#     4  10  22  40  61  86 116 154 199 244 290 352
#     4   9  17  33  57  84 114 142 183 239 292 340
#
# _framework density 19.262627999999999
#
# number of rings (size 3 to 8) (size 9 to 14) (size 15 to 20)
#    0.000    1.625    3.750    2.625    0.000    4.500 
#    0.000    0.000    0.000    0.000    0.000    0.000 
#    0.000    0.000    0.000    0.000    0.000    0.000 
#
# Total GULP energy -793294.532597 kJ/mol
# GULP energy per Si atom -12395.227072 kJ/mol
# Density = 1.921879 g / cm^3
# Si number density = 19.262628 Si / 1000 Ang^3
#
#
#
# Elastic Constant Matrix: (Units=GPa)
#
#
# Indices 1 2 3 4 5 6 
#
# 1 105.1836 51.2539 36.0898 0.0000 0.0000 0.0000
# 2 51.2539 106.5935 29.4878 0.0000 0.0000 0.0000
# 3 36.0898 29.4878 59.0830 0.0000 0.0000 0.0000
# 4 0.0000 0.0000 0.0000 14.4324 0.0000 0.0000
# 5 0.0000 0.0000 0.0000 0.0000 26.3779 0.0000
# 6 0.0000 0.0000 0.0000 0.0000 0.0000 26.6642
#
#
#
# Elastic Compliance Matrix: (Units=1/GPa)
#
#
# Indices 1 2 3 4 5 6 
#
# 1 0.014062 -0.005088 -0.006050 0.000000 0.000000 0.000000
# 2 -0.005088 0.012725 -0.003243 0.000000 0.000000 0.000000
# 3 -0.006050 -0.003243 0.022240 0.000000 0.000000 0.000000
# 4 0.000000 0.000000 0.000000 0.069289 0.000000 0.000000
# 5 0.000000 0.000000 0.000000 0.000000 0.037911 0.000000
# 6 0.000000 0.000000 0.000000 0.000000 0.000000 0.037504
#
#
# Mechanical properties :
#
#
# Convention : Reuss Voigt Hill
#
# Bulk Modulus (GPa) = 49.34788 56.05813 52.70300
# Shear Modulus (GPa) = 21.81050 23.76347 22.78698
#
# Velocity S-wave (km/s) = 3.36857 3.51616 3.44315
# Velocity P-wave (km/s) = 6.38778 6.75645 6.57470
#
# Compressibility (1/GPa) = 0.02026430
#
# Stress axis : x y z
#
# Youngs Moduli (GPa) = 71.11155 78.58516 44.96459
#
# Poissons Ratio (x) = 0.39984 0.27205
# Poissons Ratio (y) = 0.36181 0.14582
# Poissons Ratio (z) = 0.43026 0.25486
#
# Static dielectric constant tensor:
#      x y z
#    x 3.451150 0.000000 0.000000 
#    y 0.000000 3.834300 0.000000 
#    z 0.000000 0.000000 3.252440 
# 
# 
# High freq. dielectric constant tensor:
#      x y z
#    x 1.739890 0.000000 0.000000 
#    y 0.000000 1.760480 0.000000 
#    z 0.000000 0.000000 1.716310 
# 
# From -- ./inp_files/10675.got.cif
#   From: 2010.03.12/outbox.cif.g09.slc.cpg/sg59_6_cif.got.tgz:10675.got - 2010.04.16 16:29:54.
