data_PCOD8241616
_publ_section_title
;
Structure prediction by ZEFSAII (Michael W. Deem and Ramdas Pophale) SiO2 
 PCOD8241616
Probable space group: P M M N
;
_chemical_formula_sum "Si O2"
_cell_formula_units_Z 64
_cell_length_a 9.021941
_cell_length_b 18.194031
_cell_length_c 20.830197
_cell_angle_alpha 90.000000
_cell_angle_beta 90.000000
_cell_angle_gamma 90.000000
_cell_volume 3419.182565
_symmetry_space_group_name_H-M "P M M N"
_symmetry_group_IT_number 59
_space_group.IT_coordinate_system_code '2'
_symmetry_cell_setting 'orthorhombic'
loop_
_space_group_symop_operation_xyz
x,y,z
1/2-x,1/2-y,z
1/2+x,-y,-z
-x,1/2+y,-z
-x,-y,-z
1/2+x,1/2+y,-z
1/2-x,y,z
x,1/2-y,z
loop_
_atom_site_type_symbol
_atom_site_label
_atom_site_fract_x
_atom_site_fract_y
_atom_site_fract_z
Si Si1 0.926261 0.416366 0.876775
Si Si2 0.414976 0.662493 0.615947
Si Si3 0.073594 0.668168 0.756543
Si Si4 0.083370 0.662605 0.367691
Si Si5 0.574260 0.167793 0.003010
Si Si6 0.920710 0.836866 0.239943
Si Si7 0.916248 0.837745 0.492602
Si Si8 0.073688 0.573429 0.875853
O O1 0.750000 0.420878 0.873822
O O2 0.984393 0.375255 0.814502
O O3 0.992912 0.496705 0.881511
O O4 0.982772 0.371849 0.938837
O O5 0.250000 0.630460 0.605551
O O6 0.408484 0.750000 0.613202
O O7 0.478510 0.639433 0.686143
O O8 0.518365 0.631099 0.559428
O O9 0.250000 0.672629 0.757003
O O10 0.009996 0.750000 0.770476
O O11 0.017294 0.612485 0.810795
O O12 0.250000 0.631581 0.360948
O O13 0.085811 0.750000 0.369994
O O14 0.984495 0.635838 0.308012
O O15 0.011954 0.631541 0.433161
O O16 0.750000 0.172055 0.002946
O O17 0.507032 0.250000 0.005595
O O18 0.519576 0.123026 0.064850
O O19 0.750000 0.861398 0.235377
O O20 0.938389 0.750000 0.232093
O O21 0.750000 0.867539 0.485238
O O22 0.918882 0.750000 0.492819
O O23 0.250000 0.561789 0.876091
#
# Coordination Sequence:
#
# PCOD8241616 Si02
#       8
#     8   8   8   8   8   8   8   8
#     4  11  22  35  51  73 105 140 170 202 246 303
#     4   8  13  22  37  59  88 121 158 201 249 299
#     4   8  14  26  47  73  97 125 166 214 259 302
#     4   9  16  26  42  65  94 128 163 201 249 301
#     4   9  18  33  55  80 102 129 168 211 253 299
#     4  10  20  34  52  74  99 128 167 214 257 297
#     4   9  15  22  34  57  91 128 163 200 244 292
#     4  10  19  33  54  77 101 130 168 213 255 296
#
# _framework density 18.717924
#
# number of rings (size 3 to 8) (size 9 to 14) (size 15 to 20)
#    0.000    2.750    0.000    3.375    0.000    5.750 
#    0.000    1.250    0.000    3.750    0.000    0.875 
#    0.000    0.000    0.000    0.000    0.000    0.000 
#
# Total GULP energy -793442.931806 kJ/mol
# GULP energy per Si atom -12397.545809 kJ/mol
# Density = 1.867532 g / cm^3
# Si number density = 18.717924 Si / 1000 Ang^3
#
#
#
# Elastic Constant Matrix: (Units=GPa)
#
#
# Indices 1 2 3 4 5 6 
#
# 1 76.5242 28.9194 49.0343 0.0000 0.0000 0.0000
# 2 28.9194 59.3848 55.2323 0.0000 0.0000 0.0000
# 3 49.0343 55.2323 180.6444 0.0000 0.0000 0.0000
# 4 0.0000 0.0000 0.0000 4.1822 0.0000 0.0000
# 5 0.0000 0.0000 0.0000 0.0000 15.2281 0.0000
# 6 0.0000 0.0000 0.0000 0.0000 0.0000 20.1331
#
#
#
# Elastic Compliance Matrix: (Units=1/GPa)
#
#
# Indices 1 2 3 4 5 6 
#
# 1 0.017050 -0.005588 -0.002920 0.000000 0.000000 0.000000
# 2 -0.005588 0.025362 -0.006238 0.000000 0.000000 0.000000
# 3 -0.002920 -0.006238 0.008235 0.000000 0.000000 0.000000
# 4 0.000000 0.000000 0.000000 0.239109 0.000000 0.000000
# 5 0.000000 0.000000 0.000000 0.000000 0.065668 0.000000
# 6 0.000000 0.000000 0.000000 0.000000 0.000000 0.049669
#
#
# Mechanical properties :
#
#
# Convention : Reuss Voigt Hill
#
# Bulk Modulus (GPa) = 47.26455 64.76947 56.01701
# Shear Modulus (GPa) = 11.32153 20.13317 15.72735
#
# Velocity S-wave (km/s) = 2.46204 3.28321 2.90182
# Velocity P-wave (km/s) = 5.77823 7.00361 6.42022
#
# Compressibility (1/GPa) = 0.02115750
#
# Stress axis : x y z
#
# Youngs Moduli (GPa) = 58.65016 39.42914 121.42607
#
# Poissons Ratio (x) = 0.22032 0.35453
# Poissons Ratio (y) = 0.32772 0.75742
# Poissons Ratio (z) = 0.17124 0.24595
#
# Static dielectric constant tensor:
#      x y z
#    x 3.298300 0.000000 0.000000 
#    y 0.000000 3.167490 0.000000 
#    z 0.000000 0.000000 3.844740 
# 
# 
# High freq. dielectric constant tensor:
#      x y z
#    x 1.705650 0.000000 0.000000 
#    y 0.000000 1.682650 0.000000 
#    z 0.000000 0.000000 1.749850 
# 
# From -- ./inp_files/29530.got.cif
#   From: 2010.03.12/outbox.cif.g09.slc.cpg/sg59_15_cif.got.tgz:29530.got - 2010.04.16 16:29:54.
