data_PCOD8241601
_publ_section_title
;
Structure prediction by ZEFSAII (Michael W. Deem and Ramdas Pophale) SiO2 
 PCOD8241601
Probable space group: P M M N
;
_chemical_formula_sum "Si O2"
_cell_formula_units_Z 56
_cell_length_a 8.939514
_cell_length_b 15.234468
_cell_length_c 20.801793
_cell_angle_alpha 90.000000
_cell_angle_beta 90.000000
_cell_angle_gamma 90.000000
_cell_volume 2832.969978
_symmetry_space_group_name_H-M "P M M N"
_symmetry_group_IT_number 59
_space_group.IT_coordinate_system_code '2'
_symmetry_cell_setting 'orthorhombic'
loop_
_space_group_symop_operation_xyz
x,y,z
1/2-x,1/2-y,z
1/2+x,-y,-z
-x,1/2+y,-z
-x,-y,-z
1/2+x,1/2+y,-z
1/2-x,y,z
x,1/2-y,z
loop_
_atom_site_type_symbol
_atom_site_label
_atom_site_fract_x
_atom_site_fract_y
_atom_site_fract_z
Si Si1 0.921088 0.583952 0.576479
Si Si2 0.419532 0.347526 0.290552
Si Si3 0.925391 0.017391 0.908960
Si Si4 0.573380 0.647100 0.993816
Si Si5 0.416404 0.653688 0.457140
Si Si6 0.578502 0.501647 0.223577
Si Si7 0.921503 0.927250 0.356407
O O1 0.750000 0.585889 0.553690
O O2 0.950488 0.655365 0.632754
O O3 0.021902 0.593180 0.513863
O O4 0.962912 0.492735 0.609318
O O5 0.250000 0.381528 0.277563
O O6 0.440034 0.250000 0.262914
O O7 0.537376 0.407577 0.253297
O O8 0.750000 0.030992 0.916251
O O9 0.002271 0.100155 0.944151
O O10 0.972404 0.024838 0.835275
O O11 0.970545 0.919375 0.935053
O O12 0.750000 0.649217 0.003493
O O13 0.517859 0.750000 0.984139
O O14 0.250000 0.621808 0.438386
O O15 0.412770 0.750000 0.486916
O O16 0.524579 0.659901 0.393423
O O17 0.750000 0.499144 0.200235
O O18 0.553981 0.574995 0.279386
O O19 0.750000 0.951745 0.370989
#
# Coordination Sequence:
#
# PCOD8241601 Si02
#       7
#     8   8   8   8   8   8   8
#     4  10  19  33  54  76 100 132 170 213 265 324
#     4   9  18  32  50  74 104 138 177 221 269 322
#     4  10  20  35  58  87 117 149 185 226 270 317
#     4   9  19  37  60  86 117 151 185 222 265 314
#     4  11  23  36  51  73 100 129 166 217 272 320
#     4  10  21  36  54  77 106 143 182 219 264 315
#     4  10  21  37  55  74  99 133 174 216 259 312
#
# _framework density 19.767240999999999
#
# number of rings (size 3 to 8) (size 9 to 14) (size 15 to 20)
#    0.000    2.143    0.000    3.000    0.000    5.714 
#    0.000    2.143    0.000    0.857    0.000    0.000 
#    0.000    0.000    0.000    0.000    0.000    0.000 
#
# Total GULP energy -693846.964976 kJ/mol
# GULP energy per Si atom -12390.124375 kJ/mol
# Density = 1.972225 g / cm^3
# Si number density = 19.767241 Si / 1000 Ang^3
#
#
#
# Elastic Constant Matrix: (Units=GPa)
#
#
# Indices 1 2 3 4 5 6 
#
# 1 57.8284 21.7393 35.7328 0.0000 0.0000 0.0000
# 2 21.7393 82.2965 26.3182 0.0000 0.0000 0.0000
# 3 35.7328 26.3182 110.0648 0.0000 0.0000 0.0000
# 4 0.0000 0.0000 0.0000 16.4609 0.0000 0.0000
# 5 0.0000 0.0000 0.0000 0.0000 35.8703 0.0000
# 6 0.0000 0.0000 0.0000 0.0000 0.0000 25.9989
#
#
#
# Elastic Compliance Matrix: (Units=1/GPa)
#
#
# Indices 1 2 3 4 5 6 
#
# 1 0.022760 -0.003951 -0.006444 0.000000 0.000000 0.000000
# 2 -0.003951 0.013843 -0.002027 0.000000 0.000000 0.000000
# 3 -0.006444 -0.002027 0.011662 0.000000 0.000000 0.000000
# 4 0.000000 0.000000 0.000000 0.060750 0.000000 0.000000
# 5 0.000000 0.000000 0.000000 0.000000 0.027878 0.000000
# 6 0.000000 0.000000 0.000000 0.000000 0.000000 0.038463
#
#
# Mechanical properties :
#
#
# Convention : Reuss Voigt Hill
#
# Bulk Modulus (GPa) = 42.69884 46.41891 44.55888
# Shear Modulus (GPa) = 24.03734 26.75931 25.39832
#
# Velocity S-wave (km/s) = 3.49093 3.68329 3.58840
# Velocity P-wave (km/s) = 6.15601 6.45155 6.30551
#
# Compressibility (1/GPa) = 0.02341984
#
# Stress axis : x y z
#
# Youngs Moduli (GPa) = 43.93683 72.23710 85.74519
#
# Poissons Ratio (x) = 0.28544 0.55256
# Poissons Ratio (y) = 0.17361 0.17383
# Poissons Ratio (z) = 0.28314 0.14645
#
# Static dielectric constant tensor:
#      x y z
#    x 3.606650 0.000000 0.000000 
#    y 0.000000 3.884660 0.000000 
#    z 0.000000 0.000000 3.625060 
# 
# 
# High freq. dielectric constant tensor:
#      x y z
#    x 1.777070 0.000000 0.000000 
#    y 0.000000 1.759140 0.000000 
#    z 0.000000 0.000000 1.763140 
# 
# From -- ./inp_files/29103.got.cif
#   From: 2010.03.12/outbox.cif.g09.slc.cpg/sg59_15_cif.got.tgz:29103.got - 2010.04.16 16:29:54.
