data_PCOD8241247
_publ_section_title
;
Structure prediction by ZEFSAII (Michael W. Deem and Ramdas Pophale) SiO2 
 PCOD8241247
Probable space group: P M M N
;
_chemical_formula_sum "Si O2"
_cell_formula_units_Z 64
_cell_length_a 9.356939
_cell_length_b 26.334600
_cell_length_c 14.435164
_cell_angle_alpha 90.000000
_cell_angle_beta 90.000000
_cell_angle_gamma 90.000000
_cell_volume 3556.986744
_symmetry_space_group_name_H-M "P M M N"
_symmetry_group_IT_number 59
_space_group.IT_coordinate_system_code '2'
_symmetry_cell_setting 'orthorhombic'
loop_
_space_group_symop_operation_xyz
x,y,z
1/2-x,1/2-y,z
1/2+x,-y,-z
-x,1/2+y,-z
-x,-y,-z
1/2+x,1/2+y,-z
1/2-x,y,z
x,1/2-y,z
loop_
_atom_site_type_symbol
_atom_site_label
_atom_site_fract_x
_atom_site_fract_y
_atom_site_fract_z
Si Si1 0.416708 0.950044 0.611932
Si Si2 0.418672 0.363340 0.281714
Si Si3 0.586579 0.307933 0.917278
Si Si4 0.586498 0.050946 0.600690
Si Si5 0.413081 0.647980 0.275273
Si Si6 0.905724 0.692051 0.418251
Si Si7 0.092936 0.808596 0.578938
Si Si8 0.915665 0.807515 0.903644
O O1 0.250000 0.951394 0.638108
O O2 0.499189 0.913388 0.683654
O O3 0.440634 0.931368 0.505735
O O4 0.480428 0.005719 0.626272
O O5 0.250000 0.367657 0.303018
O O6 0.488680 0.315734 0.334513
O O7 0.447676 0.349740 0.174681
O O8 0.750000 0.310191 0.948545
O O9 0.546746 0.250000 0.887205
O O10 0.558430 0.348495 0.834658
O O11 0.495210 0.326232 0.004486
O O12 0.750000 0.032381 0.610740
O O13 0.552298 0.094018 0.677101
O O14 0.250000 0.664070 0.296721
O O15 0.521953 0.688680 0.318072
O O16 0.750000 0.664914 0.420016
O O17 0.883647 0.750000 0.446373
O O18 0.014104 0.665675 0.490939
O O19 0.250000 0.835042 0.591521
O O20 0.119059 0.750000 0.561391
O O21 0.750000 0.806657 0.927102
O O22 0.964986 0.750000 0.875218
#
# Coordination Sequence:
#
# PCOD8241247 Si02
#       8
#     8   8   8   8   8   8   8   8
#     4  10  20  34  53  77 104 134 170 210 253 304
#     4  11  21  33  52  75 100 131 168 210 255 305
#     4   9  18  32  51  76 104 134 169 210 255 302
#     4   9  19  35  53  74 102 135 169 207 254 305
#     4  10  19  32  52  75 100 132 170 211 256 307
#     4  10  20  31  44  67 100 136 171 205 243 293
#     4  10  20  32  46  67  98 134 168 203 245 295
#     4   9  19  35  53  74 102 136 171 208 253 304
#
# _framework density 17.992757999999998
#
# number of rings (size 3 to 8) (size 9 to 14) (size 15 to 20)
#    0.000    2.250    0.000    3.000    0.000    6.000 
#    0.000    2.500    0.000    0.750    0.000    0.000 
#    0.000    0.000    0.000    0.000    0.000    0.000 
#
# Total GULP energy -793123.824744 kJ/mol
# GULP energy per Si atom -12392.559762 kJ/mol
# Density = 1.795181 g / cm^3
# Si number density = 17.992758 Si / 1000 Ang^3
#
#
#
# Elastic Constant Matrix: (Units=GPa)
#
#
# Indices 1 2 3 4 5 6 
#
# 1 122.6206 47.7444 75.4664 0.0000 0.0000 0.0000
# 2 47.7444 68.4310 49.1143 0.0000 0.0000 0.0000
# 3 75.4664 49.1143 130.1356 0.0000 0.0000 0.0000
# 4 0.0000 0.0000 0.0000 28.0507 0.0000 0.0000
# 5 0.0000 0.0000 0.0000 0.0000 30.9497 0.0000
# 6 0.0000 0.0000 0.0000 0.0000 0.0000 22.9856
#
#
#
# Elastic Compliance Matrix: (Units=1/GPa)
#
#
# Indices 1 2 3 4 5 6 
#
# 1 0.014002 -0.005406 -0.006080 0.000000 0.000000 0.000000
# 2 -0.005406 0.022129 -0.005217 0.000000 0.000000 0.000000
# 3 -0.006080 -0.005217 0.013179 0.000000 0.000000 0.000000
# 4 0.000000 0.000000 0.000000 0.035650 0.000000 0.000000
# 5 0.000000 0.000000 0.000000 0.000000 0.032310 0.000000
# 6 0.000000 0.000000 0.000000 0.000000 0.000000 0.043506
#
#
# Mechanical properties :
#
#
# Convention : Reuss Voigt Hill
#
# Bulk Modulus (GPa) = 62.87199 73.98194 68.42697
# Shear Modulus (GPa) = 25.06504 26.32133 25.69318
#
# Velocity S-wave (km/s) = 3.73642 3.82892 3.78295
# Velocity P-wave (km/s) = 7.32348 7.79451 7.56266
#
# Compressibility (1/GPa) = 0.01590533
#
# Stress axis : x y z
#
# Youngs Moduli (GPa) = 71.42049 45.18948 75.87968
#
# Poissons Ratio (x) = 0.24427 0.46131
# Poissons Ratio (y) = 0.38607 0.39586
# Poissons Ratio (z) = 0.43420 0.23575
#
# Static dielectric constant tensor:
#      x y z
#    x 3.621110 0.000000 0.000000 
#    y 0.000000 3.088960 0.000000 
#    z 0.000000 0.000000 3.219380 
# 
# 
# High freq. dielectric constant tensor:
#      x y z
#    x 1.713390 0.000000 0.000000 
#    y 0.000000 1.674500 0.000000 
#    z 0.000000 0.000000 1.679290 
# 
# From -- ./inp_files/14873.got.cif
#   From: 2010.03.12/outbox.cif.g09.slc.cpg/sg59_8_cif.got.tgz:14873.got - 2010.04.16 16:29:54.
