data_PCOD8241558
_publ_section_title
;
Structure prediction by ZEFSAII (Michael W. Deem and Ramdas Pophale) SiO2 
 PCOD8241558
Probable space group: P M M N
;
_chemical_formula_sum "Si O2"
_cell_formula_units_Z 40
_cell_length_a 9.103867
_cell_length_b 15.159657
_cell_length_c 14.820747
_cell_angle_alpha 90.000000
_cell_angle_beta 90.000000
_cell_angle_gamma 90.000000
_cell_volume 2045.433541
_symmetry_space_group_name_H-M "P M M N"
_symmetry_group_IT_number 59
_space_group.IT_coordinate_system_code '2'
_symmetry_cell_setting 'orthorhombic'
loop_
_space_group_symop_operation_xyz
x,y,z
1/2-x,1/2-y,z
1/2+x,-y,-z
-x,1/2+y,-z
-x,-y,-z
1/2+x,1/2+y,-z
1/2-x,y,z
x,1/2-y,z
loop_
_atom_site_type_symbol
_atom_site_label
_atom_site_fract_x
_atom_site_fract_y
_atom_site_fract_z
Si Si1 0.088303 0.393684 0.580627
Si Si2 0.075619 0.407883 0.779455
Si Si3 0.575413 0.750000 0.095733
Si Si4 0.412932 0.897450 0.587371
Si Si5 0.576356 0.750000 0.894102
Si Si6 0.924613 0.591702 0.768122
O O1 0.250000 0.353644 0.563685
O O2 0.032806 0.368473 0.680988
O O3 0.096031 0.498603 0.574978
O O4 0.981077 0.355044 0.503792
O O5 0.250000 0.426399 0.782955
O O6 0.020895 0.337860 0.853354
O O7 0.992087 0.498806 0.798552
O O8 0.750000 0.750000 0.095658
O O9 0.508941 0.750000 0.994956
O O10 0.250000 0.857920 0.601793
O O11 0.514213 0.874043 0.672494
O O12 0.750000 0.750000 0.900836
O O13 0.524360 0.837650 0.842588
O O14 0.750000 0.583263 0.760314
#
# Coordination Sequence:
#
# PCOD8241558 Si02
#       6
#     8   8   4   8   4   8
#     4   8  14  25  43  71 104 134 166 203 246 298
#     4   9  18  33  55  80 104 135 172 209 254 306
#     4   9  18  36  58  77 102 134 171 215 258 309
#     4   9  16  27  46  73 103 136 172 206 247 300
#     4   9  20  36  54  77 102 134 175 215 260 309
#     4  10  19  33  53  76 105 138 172 213 256 301
#
# _framework density 19.555758000000001
#
# number of rings (size 3 to 8) (size 9 to 14) (size 15 to 20)
#    0.000    3.000    0.000    2.400    0.000    5.600 
#    0.000    3.500    0.000    7.200    0.000    0.000 
#    0.000    0.000    0.000    0.000    0.000    0.000 
#
# Total GULP energy -495830.438825 kJ/mol
# GULP energy per Si atom -12395.760971 kJ/mol
# Density = 1.951125 g / cm^3
# Si number density = 19.555758 Si / 1000 Ang^3
#
#
#
# Elastic Constant Matrix: (Units=GPa)
#
#
# Indices 1 2 3 4 5 6 
#
# 1 82.9823 42.4728 59.4818 0.0000 0.0000 0.0000
# 2 42.4728 92.3585 79.2178 0.0000 0.0000 0.0000
# 3 59.4818 79.2178 189.6823 0.0000 0.0000 0.0000
# 4 0.0000 0.0000 0.0000 -44.0983 0.0000 0.0000
# 5 0.0000 0.0000 0.0000 0.0000 21.2683 0.0000
# 6 0.0000 0.0000 0.0000 0.0000 0.0000 14.5496
#
#
#
# Elastic Compliance Matrix: (Units=1/GPa)
#
#
# Indices 1 2 3 4 5 6 
#
# 1 0.016925 -0.005034 -0.003205 0.000000 0.000000 0.000000
# 2 -0.005034 0.018368 -0.006092 0.000000 0.000000 0.000000
# 3 -0.003205 -0.006092 0.008821 0.000000 0.000000 0.000000
# 4 0.000000 0.000000 0.000000 -0.022677 0.000000 0.000000
# 5 0.000000 0.000000 0.000000 0.000000 0.047018 0.000000
# 6 0.000000 0.000000 0.000000 0.000000 0.000000 0.068731
#
#
# Mechanical properties :
#
#
# Convention : Reuss Voigt Hill
#
# Bulk Modulus (GPa) = 64.72072 80.81867 72.76970
# Shear Modulus (GPa) = 29.23973 10.60062 19.92018
#
# Velocity S-wave (km/s) = 3.87097 2.33077 3.19507
# Velocity P-wave (km/s) = 7.29017 6.97570 7.13467
#
# Compressibility (1/GPa) = 0.01545100
#
# Stress axis : x y z
#
# Youngs Moduli (GPa) = 59.08514 54.44213 113.36053
#
# Poissons Ratio (x) = 0.27408 0.36331
# Poissons Ratio (y) = 0.29745 0.69065
# Poissons Ratio (z) = 0.18936 0.33169
#
# Static dielectric constant tensor:
#      x y z
#    x 3.513900 0.000000 0.000000 
#    y 0.000000 3.301790 0.000000 
#    z 0.000000 0.000000 3.907890 
# 
# 
# High freq. dielectric constant tensor:
#      x y z
#    x 1.740520 0.000000 0.000000 
#    y 0.000000 1.743740 0.000000 
#    z 0.000000 0.000000 1.766400 
# 
# From -- ./inp_files/19977.got.cif
#   From: 2010.03.12/outbox.cif.g09.slc.cpg/sg59_10_cif.got.tgz:19977.got - 2010.04.16 16:29:54.
