data_PCOD8241137
_publ_section_title
;
Structure prediction by ZEFSAII (Michael W. Deem and Ramdas Pophale) SiO2 
 PCOD8241137
Probable space group: P M M N
;
_chemical_formula_sum "Si O2"
_cell_formula_units_Z 48
_cell_length_a 8.570133
_cell_length_b 16.297617
_cell_length_c 17.319349
_cell_angle_alpha 90.000000
_cell_angle_beta 90.000000
_cell_angle_gamma 90.000000
_cell_volume 2419.041021
_symmetry_space_group_name_H-M "P M M N"
_symmetry_group_IT_number 59
_space_group.IT_coordinate_system_code '2'
_symmetry_cell_setting 'orthorhombic'
loop_
_space_group_symop_operation_xyz
x,y,z
1/2-x,1/2-y,z
1/2+x,-y,-z
-x,1/2+y,-z
-x,-y,-z
1/2+x,1/2+y,-z
1/2-x,y,z
x,1/2-y,z
loop_
_atom_site_type_symbol
_atom_site_label
_atom_site_fract_x
_atom_site_fract_y
_atom_site_fract_z
Si Si1 0.567178 0.393503 0.645999
Si Si2 0.435307 0.750000 0.244886
Si Si3 0.565181 0.589970 0.981401
Si Si4 0.434005 0.076749 0.332038
Si Si5 0.435857 0.750000 0.069025
Si Si6 0.065148 0.342007 0.486515
Si Si7 0.564821 0.659010 0.820449
O O1 0.750000 0.380676 0.633336
O O2 0.501411 0.328957 0.708388
O O3 0.524602 0.481971 0.679224
O O4 0.487065 0.387192 0.563407
O O5 0.250000 0.750000 0.242671
O O6 0.498002 0.750000 0.157452
O O7 0.750000 0.590569 0.993096
O O8 0.515279 0.603824 0.892814
O O9 0.500000 0.500000 0.000000
O O10 0.496755 0.665525 0.031122
O O11 0.250000 0.090903 0.333926
O O12 0.505537 0.111730 0.411709
O O13 0.507744 0.122794 0.258322
O O14 0.250000 0.750000 0.064641
O O15 0.250000 0.342144 0.483090
O O16 0.998329 0.250000 0.486667
O O17 0.750000 0.661762 0.813945
O O18 0.497020 0.750000 0.832806
#
# Coordination Sequence:
#
# PCOD8241137 Si02
#       7
#     8   4   8   8   4   8   8
#     4  10  19  34  54  76 103 139 185 227 268 331
#     4   9  20  35  55  80 105 142 190 231 275 339
#     4  11  23  40  63  93 124 159 202 248 302 365
#     4   9  18  30  52  80 105 137 181 230 272 325
#     4  11  23  41  65  90 121 158 200 255 307 357
#     4  10  19  32  50  76 108 138 174 222 280 330
#     4   9  17  33  57  83 110 142 186 235 280 337
#
# _framework density 19.842573999999999
#
# number of rings (size 3 to 8) (size 9 to 14) (size 15 to 20)
#    0.000    2.167    1.667    1.750    2.333    2.000 
#    0.000    1.667    0.000    2.000    0.000    0.000 
#    0.000    0.000    0.000    0.000    0.000    0.000 
#
# Total GULP energy -595048.823290 kJ/mol
# GULP energy per Si atom -12396.850485 kJ/mol
# Density = 1.979741 g / cm^3
# Si number density = 19.842574 Si / 1000 Ang^3
#
#
#
# Elastic Constant Matrix: (Units=GPa)
#
#
# Indices 1 2 3 4 5 6 
#
# 1 31.9973 28.0965 25.1680 0.0000 0.0000 0.0000
# 2 28.0965 154.4307 82.1838 0.0000 0.0000 0.0000
# 3 25.1680 82.1838 184.1287 0.0000 0.0000 0.0000
# 4 0.0000 0.0000 0.0000 38.9660 0.0000 0.0000
# 5 0.0000 0.0000 0.0000 0.0000 25.1085 0.0000
# 6 0.0000 0.0000 0.0000 0.0000 0.0000 22.2264
#
#
#
# Elastic Compliance Matrix: (Units=1/GPa)
#
#
# Indices 1 2 3 4 5 6 
#
# 1 0.038252 -0.005478 -0.002783 0.000000 0.000000 0.000000
# 2 -0.005478 0.009277 -0.003392 0.000000 0.000000 0.000000
# 3 -0.002783 -0.003392 0.007325 0.000000 0.000000 0.000000
# 4 0.000000 0.000000 0.000000 0.025663 0.000000 0.000000
# 5 0.000000 0.000000 0.000000 0.000000 0.039827 0.000000
# 6 0.000000 0.000000 0.000000 0.000000 0.000000 0.044992
#
#
# Mechanical properties :
#
#
# Convention : Reuss Voigt Hill
#
# Bulk Modulus (GPa) = 31.69804 71.27262 51.48533
# Shear Modulus (GPa) = 25.10542 32.93407 29.01974
#
# Velocity S-wave (km/s) = 3.56087 4.07845 3.82841
# Velocity P-wave (km/s) = 5.73723 7.62727 6.74874
#
# Compressibility (1/GPa) = 0.03154769
#
# Stress axis : x y z
#
# Youngs Moduli (GPa) = 26.14216 107.79118 136.51098
#
# Poissons Ratio (x) = 0.59050 0.37997
# Poissons Ratio (y) = 0.14321 0.46304
# Poissons Ratio (z) = 0.07277 0.36563
#
# Static dielectric constant tensor:
#      x y z
#    x 3.293230 0.000000 0.000000 
#    y 0.000000 3.831560 0.000000 
#    z 0.000000 0.000000 3.948740 
# 
# 
# High freq. dielectric constant tensor:
#      x y z
#    x 1.726170 0.000000 0.000000 
#    y 0.000000 1.791560 0.000000 
#    z 0.000000 0.000000 1.790850 
# 
# From -- ./inp_files/23696.got.cif
#   From: 2010.03.12/outbox.cif.g09.slc.cpg/sg59_12_cif.got.tgz:23696.got - 2010.04.16 16:29:54.
