data_PCOD8241492
_publ_section_title
;
Structure prediction by ZEFSAII (Michael W. Deem and Ramdas Pophale) SiO2 
 PCOD8241492
Probable space group: P M M N
;
_chemical_formula_sum "Si O2"
_cell_formula_units_Z 64
_cell_length_a 18.905855
_cell_length_b 11.503240
_cell_length_c 16.431536
_cell_angle_alpha 90.000000
_cell_angle_beta 90.000000
_cell_angle_gamma 90.000000
_cell_volume 3573.507239
_symmetry_space_group_name_H-M "P M M N"
_symmetry_group_IT_number 59
_space_group.IT_coordinate_system_code '2'
_symmetry_cell_setting 'orthorhombic'
loop_
_space_group_symop_operation_xyz
x,y,z
1/2-x,1/2-y,z
1/2+x,-y,-z
-x,1/2+y,-z
-x,-y,-z
1/2+x,1/2+y,-z
1/2-x,y,z
x,1/2-y,z
loop_
_atom_site_type_symbol
_atom_site_label
_atom_site_fract_x
_atom_site_fract_y
_atom_site_fract_z
Si Si1 0.171218 0.384579 0.396235
Si Si2 0.896402 0.465889 0.466498
Si Si3 0.672926 0.385017 0.311050
Si Si4 0.330170 0.616043 0.118645
Si Si5 0.913920 0.001380 0.740458
Si Si6 0.551255 0.117954 0.197891
Si Si7 0.550386 0.114227 0.012154
Si Si8 0.012468 0.875897 0.397659
O O1 0.250000 0.431191 0.376932
O O2 0.171483 0.250000 0.414580
O O3 0.143840 0.440910 0.479020
O O4 0.121099 0.407429 0.319336
O O5 0.842983 0.401058 0.406648
O O6 0.934771 0.374254 0.525086
O O7 0.953830 0.526020 0.407807
O O8 0.750000 0.441484 0.292541
O O9 0.676687 0.250000 0.290855
O O10 0.612930 0.441155 0.252801
O O11 0.250000 0.577639 0.096253
O O12 0.332472 0.750000 0.143281
O O13 0.355171 0.545243 0.197225
O O14 0.380663 0.591282 0.042173
O O15 0.943635 0.105489 0.685088
O O16 0.977449 0.947448 0.792074
O O17 0.539095 0.250000 0.226504
O O18 0.575826 0.110728 0.104869
O O19 0.520514 0.250000 0.994792
O O20 0.500000 0.000000 0.000000
O O21 0.976138 0.750000 0.392556
#
# Coordination Sequence:
#
# PCOD8241492 Si02
#       8
#     8   8   8   8   8   8   8   8
#     4  10  21  34  49  72 104 143 183 224 272 326
#     4  10  19  33  50  71 100 140 174 226 271 321
#     4  10  20  34  53  78 106 137 177 227 279 328
#     4  10  21  36  57  86 117 147 181 225 276 335
#     4  11  19  34  54  76 108 141 178 225 272 325
#     4  10  20  34  55  82 109 140 180 227 276 327
#     4  10  20  37  61  87 117 150 189 230 279 335
#     4  10  20  31  48  75 100 131 178 222 270 320
#
# _framework density 17.909576000000001
#
# number of rings (size 3 to 8) (size 9 to 14) (size 15 to 20)
#    0.000    1.875    2.500    2.250    0.000    0.500 
#    0.000    2.500    0.000    7.125    0.000    0.000 
#    0.000    0.000    0.000    0.000    0.000    0.000 
#
# Total GULP energy -793203.866952 kJ/mol
# GULP energy per Si atom -12393.810421 kJ/mol
# Density = 1.786881 g / cm^3
# Si number density = 17.909576 Si / 1000 Ang^3
#
#
#
# Elastic Constant Matrix: (Units=GPa)
#
#
# Indices 1 2 3 4 5 6 
#
# 1 109.5040 30.8108 39.6516 0.0000 0.0000 0.0000
# 2 30.8108 62.8508 21.9459 0.0000 0.0000 0.0000
# 3 39.6516 21.9459 94.9885 0.0000 0.0000 0.0000
# 4 0.0000 0.0000 0.0000 -1.3831 0.0000 0.0000
# 5 0.0000 0.0000 0.0000 0.0000 29.9952 0.0000
# 6 0.0000 0.0000 0.0000 0.0000 0.0000 17.6363
#
#
#
# Elastic Compliance Matrix: (Units=1/GPa)
#
#
# Indices 1 2 3 4 5 6 
#
# 1 0.011787 -0.004416 -0.003900 0.000000 0.000000 0.000000
# 2 -0.004416 0.018962 -0.002537 0.000000 0.000000 0.000000
# 3 -0.003900 -0.002537 0.012742 0.000000 0.000000 0.000000
# 4 0.000000 0.000000 0.000000 -0.723000 0.000000 0.000000
# 5 0.000000 0.000000 0.000000 0.000000 0.033339 0.000000
# 6 0.000000 0.000000 0.000000 0.000000 0.000000 0.056701
#
#
# Mechanical properties :
#
#
# Convention : Reuss Voigt Hill
#
# Bulk Modulus (GPa) = 45.90719 50.23999 48.07359
# Shear Modulus (GPa) = -8.92058 20.91201 5.99571
#
# Velocity S-wave (km/s) = -2.23421 3.42079 1.83168
# Velocity P-wave (km/s) = 4.36266 6.61176 5.60125
#
# Compressibility (1/GPa) = 0.02178308
#
# Stress axis : x y z
#
# Youngs Moduli (GPa) = 84.84004 52.73796 78.48207
#
# Poissons Ratio (x) = 0.23291 0.30607
# Poissons Ratio (y) = 0.37469 0.19913
# Poissons Ratio (z) = 0.33087 0.13381
#
# Static dielectric constant tensor:
#      x y z
#    x 3.526140 0.000000 0.000000 
#    y 0.000000 3.223490 0.000000 
#    z 0.000000 0.000000 3.292790 
# 
# 
# High freq. dielectric constant tensor:
#      x y z
#    x 1.693990 0.000000 0.000000 
#    y 0.000000 1.678400 0.000000 
#    z 0.000000 0.000000 1.700100 
# 
# From -- ./inp_files/23936.got.cif
#   From: 2010.03.12/outbox.cif.g09.slc.cpg/sg59_12_cif.got.tgz:23936.got - 2010.04.16 16:29:54.
