data_PCOD8241407
_publ_section_title
;
Structure prediction by ZEFSAII (Michael W. Deem and Ramdas Pophale) SiO2 
 PCOD8241407
Probable space group: P M M N
;
_chemical_formula_sum "Si O2"
_cell_formula_units_Z 48
_cell_length_a 13.553598
_cell_length_b 13.537707
_cell_length_c 12.750549
_cell_angle_alpha 90.000000
_cell_angle_beta 90.000000
_cell_angle_gamma 90.000000
_cell_volume 2339.529874
_symmetry_space_group_name_H-M "P M M N"
_symmetry_group_IT_number 59
_space_group.IT_coordinate_system_code '2'
_symmetry_cell_setting 'orthorhombic'
loop_
_space_group_symop_operation_xyz
x,y,z
1/2-x,1/2-y,z
1/2+x,-y,-z
-x,1/2+y,-z
-x,-y,-z
1/2+x,1/2+y,-z
1/2-x,y,z
x,1/2-y,z
loop_
_atom_site_type_symbol
_atom_site_label
_atom_site_fract_x
_atom_site_fract_y
_atom_site_fract_z
Si Si1 0.640413 0.360575 0.895254
Si Si2 0.442989 0.136859 0.992721
Si Si3 0.866301 0.639669 0.228869
Si Si4 0.963204 0.866896 0.595688
Si Si5 0.864899 0.989781 0.422668
Si Si6 0.362520 0.446048 0.204313
O O1 0.750000 0.374411 0.944011
O O2 0.625506 0.250000 0.849901
O O3 0.561662 0.378817 0.989058
O O4 0.626950 0.434277 0.795183
O O5 0.412447 0.250000 0.007915
O O6 0.402137 0.096356 0.881914
O O7 0.393568 0.077988 0.085857
O O8 0.750000 0.644234 0.231634
O O9 0.910006 0.750000 0.246224
O O10 0.903820 0.567982 0.320425
O O11 0.964158 0.750000 0.577264
O O12 0.881892 0.918824 0.522322
O O13 0.933909 0.891103 0.715242
O O14 0.071585 0.909799 0.569107
O O15 0.750000 0.018680 0.417344
O O16 0.250000 0.412646 0.225916
#
# Coordination Sequence:
#
# PCOD8241407 Si02
#       6
#     8   8   8   8   8   8
#     4   9  19  35  53  75 107 149 195 239 284 339
#     4  10  19  32  53  81 114 150 189 236 287 339
#     4   9  17  31  55  85 113 146 193 245 290 333
#     4  11  24  41  62  89 120 153 190 235 290 350
#     4  10  22  41  63  86 114 152 198 243 287 339
#     4  11  22  36  57  85 118 153 188 232 290 353
#
# _framework density 20.516942
#
# number of rings (size 3 to 8) (size 9 to 14) (size 15 to 20)
#    0.000    2.000    0.000    3.500    0.000    4.000 
#    0.000    5.833    0.000    6.000    0.000    0.000 
#    0.000    0.000    0.000    0.000    0.000    0.000 
#
# Total GULP energy -595102.927831 kJ/mol
# GULP energy per Si atom -12397.977663 kJ/mol
# Density = 2.047024 g / cm^3
# Si number density = 20.516942 Si / 1000 Ang^3
#
#
#
# Elastic Constant Matrix: (Units=GPa)
#
#
# Indices 1 2 3 4 5 6 
#
# 1 76.3512 34.5981 16.3477 0.0000 0.0000 0.0000
# 2 34.5981 97.4557 23.9278 0.0000 0.0000 0.0000
# 3 16.3477 23.9278 87.6547 0.0000 0.0000 0.0000
# 4 0.0000 0.0000 0.0000 20.7736 0.0000 0.0000
# 5 0.0000 0.0000 0.0000 0.0000 25.6260 0.0000
# 6 0.0000 0.0000 0.0000 0.0000 0.0000 18.7931
#
#
#
# Elastic Compliance Matrix: (Units=1/GPa)
#
#
# Indices 1 2 3 4 5 6 
#
# 1 0.015794 -0.005235 -0.001517 0.000000 0.000000 0.000000
# 2 -0.005235 0.012733 -0.002500 0.000000 0.000000 0.000000
# 3 -0.001517 -0.002500 0.012374 0.000000 0.000000 0.000000
# 4 0.000000 0.000000 0.000000 0.048138 0.000000 0.000000
# 5 0.000000 0.000000 0.000000 0.000000 0.039023 0.000000
# 6 0.000000 0.000000 0.000000 0.000000 0.000000 0.053211
#
#
# Mechanical properties :
#
#
# Convention : Reuss Voigt Hill
#
# Bulk Modulus (GPa) = 44.64497 45.68988 45.16742
# Shear Modulus (GPa) = 24.12646 25.47774 24.80210
#
# Velocity S-wave (km/s) = 3.43290 3.52773 3.48064
# Velocity P-wave (km/s) = 6.12539 6.23786 6.18188
#
# Compressibility (1/GPa) = 0.02239894
#
# Stress axis : x y z
#
# Youngs Moduli (GPa) = 63.31425 78.53483 80.81729
#
# Poissons Ratio (x) = 0.41111 0.12257
# Poissons Ratio (y) = 0.33144 0.20201
# Poissons Ratio (z) = 0.09603 0.19630
#
# Static dielectric constant tensor:
#      x y z
#    x 3.827900 0.000000 0.000000 
#    y 0.000000 3.946760 0.000000 
#    z 0.000000 0.000000 3.541550 
# 
# 
# High freq. dielectric constant tensor:
#      x y z
#    x 1.812720 0.000000 0.000000 
#    y 0.000000 1.806140 0.000000 
#    z 0.000000 0.000000 1.781690 
# 
# From -- ./inp_files/16854.got.cif
#   From: 2010.03.12/outbox.cif.g09.slc.cpg/sg59_9_cif.got.tgz:16854.got - 2010.04.16 16:29:54.
