data_PCOD8241016
_publ_section_title
;
Structure prediction by ZEFSAII (Michael W. Deem and Ramdas Pophale) SiO2 
 PCOD8241016
Probable space group: P M M N
;
_chemical_formula_sum "Si O2"
_cell_formula_units_Z 56
_cell_length_a 21.291509
_cell_length_b 14.004496
_cell_length_c 10.374394
_cell_angle_alpha 90.000000
_cell_angle_beta 90.000000
_cell_angle_gamma 90.000000
_cell_volume 3093.404151
_symmetry_space_group_name_H-M "P M M N"
_symmetry_group_IT_number 59
_space_group.IT_coordinate_system_code '2'
_symmetry_cell_setting 'orthorhombic'
loop_
_space_group_symop_operation_xyz
x,y,z
1/2-x,1/2-y,z
1/2+x,-y,-z
-x,1/2+y,-z
-x,-y,-z
1/2+x,1/2+y,-z
1/2-x,y,z
x,1/2-y,z
loop_
_atom_site_type_symbol
_atom_site_label
_atom_site_fract_x
_atom_site_fract_y
_atom_site_fract_z
Si Si1 0.321630 0.142636 0.509814
Si Si2 0.623978 0.639251 0.758070
Si Si3 0.622809 0.975680 0.268067
Si Si4 0.678975 0.357541 0.134109
Si Si5 0.510961 0.521670 0.806607
Si Si6 0.056645 0.861776 0.023352
Si Si7 0.678125 0.862595 0.033074
O O1 0.250000 0.131468 0.551366
O O2 0.345280 0.250000 0.537168
O O3 0.327952 0.118976 0.358435
O O4 0.361361 0.072124 0.597299
O O5 0.606672 0.750000 0.767517
O O6 0.561446 0.580281 0.723849
O O7 0.654267 0.604040 0.892672
O O8 0.635623 0.909952 0.143050
O O9 0.663049 0.072821 0.253131
O O10 0.549216 0.997686 0.279176
O O11 0.750000 0.375741 0.083104
O O12 0.671612 0.250000 0.186448
O O13 0.629300 0.376477 0.019070
O O14 0.544224 0.422269 0.847980
O O15 0.491589 0.593328 0.921300
O O16 0.041114 0.750000 0.044984
O O17 0.750000 0.896234 0.050453
O O18 0.672595 0.750000 0.048799
#
# Coordination Sequence:
#
# PCOD8241016 Si02
#       7
#     8   8   8   8   8   8   8
#     4  10  21  37  56  78 102 129 162 202 256 315
#     4  10  20  35  54  74 102 138 170 205 247 297
#     4  11  21  32  51  76 104 133 163 206 252 294
#     4   9  17  29  46  69  95 127 169 210 246 284
#     4  10  20  31  47  73 101 135 174 203 242 301
#     4   9  17  30  48  72 104 135 164 206 251 291
#     4  10  19  31  51  80 108 133 165 206 254 304
#
# _framework density 18.103034000000001
#
# number of rings (size 3 to 8) (size 9 to 14) (size 15 to 20)
#    0.000    2.143    0.000    5.143    0.000    6.286 
#    0.000    0.714    0.000    0.857    0.000    0.000 
#    0.000    4.571    0.000    0.000    0.000    0.000 
#
# Total GULP energy -694300.498078 kJ/mol
# GULP energy per Si atom -12398.223180 kJ/mol
# Density = 1.806183 g / cm^3
# Si number density = 18.103034 Si / 1000 Ang^3
#
#
#
# Elastic Constant Matrix: (Units=GPa)
#
#
# Indices 1 2 3 4 5 6 
#
# 1 82.0739 32.1131 3.1492 0.0000 0.0000 0.0000
# 2 32.1131 86.6352 21.5894 0.0000 0.0000 0.0000
# 3 3.1492 21.5894 55.8558 0.0000 0.0000 0.0000
# 4 0.0000 0.0000 0.0000 21.8171 0.0000 0.0000
# 5 0.0000 0.0000 0.0000 0.0000 19.2388 0.0000
# 6 0.0000 0.0000 0.0000 0.0000 0.0000 32.1131
#
#
#
# Elastic Compliance Matrix: (Units=1/GPa)
#
#
# Indices 1 2 3 4 5 6 
#
# 1 0.014346 -0.005662 0.001379 0.000000 0.000000 0.000000
# 2 -0.005662 0.015007 -0.005481 0.000000 0.000000 0.000000
# 3 0.001379 -0.005481 0.019944 0.000000 0.000000 0.000000
# 4 0.000000 0.000000 0.000000 0.045836 0.000000 0.000000
# 5 0.000000 0.000000 0.000000 0.000000 0.051978 0.000000
# 6 0.000000 0.000000 0.000000 0.000000 0.000000 0.031140
#
#
# Mechanical properties :
#
#
# Convention : Reuss Voigt Hill
#
# Bulk Modulus (GPa) = 33.59000 37.58537 35.58769
# Shear Modulus (GPa) = 24.07293 25.81468 24.94381
#
# Velocity S-wave (km/s) = 3.65056 3.78032 3.71601
# Velocity P-wave (km/s) = 6.03026 6.31359 6.17355
#
# Compressibility (1/GPa) = 0.02977076
#
# Stress axis : x y z
#
# Youngs Moduli (GPa) = 69.70388 66.63477 50.14002
#
# Poissons Ratio (x) = 0.37726 -0.06917
# Poissons Ratio (y) = 0.39463 0.27484
# Poissons Ratio (z) = -0.09615 0.36525
#
# Static dielectric constant tensor:
#      x y z
#    x 3.485050 0.000000 0.000000 
#    y 0.000000 3.535750 0.000000 
#    z 0.000000 0.000000 2.990940 
# 
# 
# High freq. dielectric constant tensor:
#      x y z
#    x 1.713260 0.000000 0.000000 
#    y 0.000000 1.710990 0.000000 
#    z 0.000000 0.000000 1.659860 
# 
# From -- ./inp_files/11411.got.cif
#   From: 2010.03.12/outbox.cif.g09.slc.cpg/sg59_6_cif.got.tgz:11411.got - 2010.04.16 16:29:54.
