data_PCOD8241845
_publ_section_title
;
Structure prediction by ZEFSAII (Michael W. Deem and Ramdas Pophale) SiO2 
 PCOD8241845
Probable space group: P M M N
;
_chemical_formula_sum "Si O2"
_cell_formula_units_Z 48
_cell_length_a 30.619667
_cell_length_b 8.767040
_cell_length_c 9.508822
_cell_angle_alpha 90.000000
_cell_angle_beta 90.000000
_cell_angle_gamma 90.000000
_cell_volume 2552.584743
_symmetry_space_group_name_H-M "P M M N"
_symmetry_group_IT_number 59
_space_group.IT_coordinate_system_code '2'
_symmetry_cell_setting 'orthorhombic'
loop_
_space_group_symop_operation_xyz
x,y,z
1/2-x,1/2-y,z
1/2+x,-y,-z
-x,1/2+y,-z
-x,-y,-z
1/2+x,1/2+y,-z
1/2-x,y,z
x,1/2-y,z
loop_
_atom_site_type_symbol
_atom_site_label
_atom_site_fract_x
_atom_site_fract_y
_atom_site_fract_z
Si Si1 0.325449 0.069085 0.158494
Si Si2 0.250000 0.570339 0.340465
Si Si3 0.250000 0.432082 0.647075
Si Si4 0.925187 0.930169 0.164872
Si Si5 0.923649 0.930365 0.848134
Si Si6 0.000603 0.930322 0.653074
Si Si7 0.326804 0.070165 0.842778
O O1 0.318540 0.250000 0.173156
O O2 0.374983 0.020681 0.198719
O O3 0.293380 0.983961 0.262718
O O4 0.315858 0.011229 0.999843
O O5 0.250000 0.750000 0.349902
O O6 0.250000 0.502088 0.494669
O O7 0.250000 0.250000 0.635572
O O8 0.207588 0.494512 0.730465
O O9 0.933385 0.750000 0.182530
O O10 0.875541 0.975124 0.204230
O O11 0.955147 0.023359 0.270232
O O12 0.934714 0.986693 0.005872
O O13 0.925736 0.750000 0.851306
O O14 0.959199 0.997195 0.739904
O O15 0.997669 0.750000 0.641011
O O16 0.000000 0.000000 0.500000
O O17 0.323088 0.250000 0.850331
#
# Coordination Sequence:
#
# PCOD8241845 Si02
#       7
#     8   4   4   8   8   8   8
#     4   9  17  36  62  81  96 128 175 220 258 302
#     4  12  25  36  46  74 114 144 167 204 254 306
#     4  10  19  34  54  76 100 134 171 206 250 306
#     4   9  17  34  57  81 104 129 164 216 268 309
#     4   8  17  34  58  81 101 128 172 220 259 299
#     4  11  22  35  50  75 108 143 176 210 253 307
#     4   8  16  32  59  85 100 121 170 225 261 297
#
# _framework density 18.804468
#
# number of rings (size 3 to 8) (size 9 to 14) (size 15 to 20)
#    0.000    2.667    0.000    4.250    0.000    2.667 
#    0.000   15.000    0.000    0.000    0.000    0.000 
#    0.000    0.000    0.000    0.000    0.000    0.000 
#
# Total GULP energy -595074.609726 kJ/mol
# GULP energy per Si atom -12397.387703 kJ/mol
# Density = 1.876167 g / cm^3
# Si number density = 18.804468 Si / 1000 Ang^3
#
#
#
# Elastic Constant Matrix: (Units=GPa)
#
#
# Indices 1 2 3 4 5 6 
#
# 1 161.0879 36.0699 108.6162 0.0000 0.0000 0.0000
# 2 36.0699 41.0370 36.0435 0.0000 0.0000 0.0000
# 3 108.6162 36.0435 159.6969 0.0000 0.0000 0.0000
# 4 0.0000 0.0000 0.0000 17.8478 0.0000 0.0000
# 5 0.0000 0.0000 0.0000 0.0000 12.5841 0.0000
# 6 0.0000 0.0000 0.0000 0.0000 0.0000 25.3055
#
#
#
# Elastic Compliance Matrix: (Units=1/GPa)
#
#
# Indices 1 2 3 4 5 6 
#
# 1 0.012026 -0.004223 -0.007226 0.000000 0.000000 0.000000
# 2 -0.004223 0.031877 -0.004322 0.000000 0.000000 0.000000
# 3 -0.007226 -0.004322 0.012152 0.000000 0.000000 0.000000
# 4 0.000000 0.000000 0.000000 0.056029 0.000000 0.000000
# 5 0.000000 0.000000 0.000000 0.000000 0.079466 0.000000
# 6 0.000000 0.000000 0.000000 0.000000 0.000000 0.039517
#
#
# Mechanical properties :
#
#
# Convention : Reuss Voigt Hill
#
# Bulk Modulus (GPa) = 40.79718 80.36455 60.58086
# Shear Modulus (GPa) = 18.46522 23.22029 20.84275
#
# Velocity S-wave (km/s) = 3.13702 3.51782 3.33287
# Velocity P-wave (km/s) = 5.90456 7.70259 6.86271
#
# Compressibility (1/GPa) = 0.02451150
#
# Stress axis : x y z
#
# Youngs Moduli (GPa) = 83.15554 31.37102 82.29126
#
# Poissons Ratio (x) = 0.13249 0.59463
# Poissons Ratio (y) = 0.35120 0.35566
# Poissons Ratio (z) = 0.60087 0.13559
#
# Static dielectric constant tensor:
#      x y z
#    x 4.001120 0.000000 0.000000 
#    y 0.000000 3.047050 0.000000 
#    z 0.000000 0.000000 3.621220 
# 
# 
# High freq. dielectric constant tensor:
#      x y z
#    x 1.747350 0.000000 0.000000 
#    y 0.000000 1.690290 0.000000 
#    z 0.000000 0.000000 1.733010 
# 
# From -- ./inp_files/12992.got.cif
#   From: 2010.03.12/outbox.cif.g09.slc.cpg/sg59_7_cif.got.tgz:12992.got - 2010.04.16 16:29:54.
