data_PCOD8241904
_publ_section_title
;
Structure prediction by ZEFSAII (Michael W. Deem and Ramdas Pophale) SiO2 
 PCOD8241904
Probable space group: P M M N
;
_chemical_formula_sum "Si O2"
_cell_formula_units_Z 64
_cell_length_a 24.754565
_cell_length_b 8.945869
_cell_length_c 14.727969
_cell_angle_alpha 90.000000
_cell_angle_beta 90.000000
_cell_angle_gamma 90.000000
_cell_volume 3261.524872
_symmetry_space_group_name_H-M "P M M N"
_symmetry_group_IT_number 59
_space_group.IT_coordinate_system_code '2'
_symmetry_cell_setting 'orthorhombic'
loop_
_space_group_symop_operation_xyz
x,y,z
1/2-x,1/2-y,z
1/2+x,-y,-z
-x,1/2+y,-z
-x,-y,-z
1/2+x,1/2+y,-z
1/2-x,y,z
x,1/2-y,z
loop_
_atom_site_type_symbol
_atom_site_label
_atom_site_fract_x
_atom_site_fract_y
_atom_site_fract_z
Si Si1 0.558582 0.072139 0.978705
Si Si2 0.021894 0.920216 0.743736
Si Si3 0.688752 0.921696 0.293947
Si Si4 0.809822 0.579045 0.667213
Si Si5 0.953224 0.080392 0.450167
Si Si6 0.833855 0.422430 0.484107
Si Si7 0.103464 0.425431 0.856428
Si Si8 0.595159 0.578219 0.796059
O O1 0.552363 0.250000 0.983872
O O2 0.604945 0.014391 0.048676
O O3 0.500000 0.000000 0.000000
O O4 0.583037 0.024299 0.882266
O O5 0.038424 0.750000 0.770014
O O6 0.051275 0.976978 0.652689
O O7 0.957500 0.932058 0.731927
O O8 0.043760 0.034408 0.818910
O O9 0.750000 0.938864 0.258217
O O10 0.673890 0.750000 0.313557
O O11 0.649575 0.983496 0.213879
O O12 0.683622 0.007758 0.388713
O O13 0.750000 0.565555 0.711355
O O14 0.825343 0.750000 0.646502
O O15 0.806248 0.495794 0.570897
O O16 0.853844 0.514026 0.738440
O O17 0.971402 0.250000 0.445748
O O18 0.897321 0.055112 0.501023
O O19 0.000000 0.000000 0.500000
O O20 0.817142 0.250000 0.480008
O O21 0.108995 0.250000 0.874899
O O22 0.605771 0.750000 0.826479
#
# Coordination Sequence:
#
# PCOD8241904 Si02
#       8
#     8   8   8   8   8   8   8   8
#     4  12  24  39  62  91 122 154 190 236 291 355
#     4  10  19  34  55  80 116 153 186 236 294 350
#     4  10  22  40  61  86 117 156 202 247 291 345
#     4  10  22  41  63  86 116 158 205 248 291 341
#     4  10  21  34  50  78 116 157 197 239 292 350
#     4  11  22  36  57  87 120 157 201 247 294 347
#     4  11  22  37  60  88 117 152 193 240 289 343
#     4  10  21  38  62  89 117 154 197 244 295 347
#
# _framework density 19.622723000000001
#
# number of rings (size 3 to 8) (size 9 to 14) (size 15 to 20)
#    0.000    1.500    2.500    3.000    0.000    5.500 
#    0.000    0.625    0.000    3.750    0.000    0.000 
#    0.000    0.000    0.000    0.000    0.000    0.000 
#
# Total GULP energy -793399.629683 kJ/mol
# GULP energy per Si atom -12396.869214 kJ/mol
# Density = 1.957806 g / cm^3
# Si number density = 19.622723 Si / 1000 Ang^3
#
#
#
# Elastic Constant Matrix: (Units=GPa)
#
#
# Indices 1 2 3 4 5 6 
#
# 1 97.7040 36.0404 53.0872 0.0000 0.0000 0.0000
# 2 36.0404 84.0386 45.9317 0.0000 0.0000 0.0000
# 3 53.0872 45.9317 105.7184 0.0000 0.0000 0.0000
# 4 0.0000 0.0000 0.0000 33.7442 0.0000 0.0000
# 5 0.0000 0.0000 0.0000 0.0000 22.5652 0.0000
# 6 0.0000 0.0000 0.0000 0.0000 0.0000 22.5398
#
#
#
# Elastic Compliance Matrix: (Units=1/GPa)
#
#
# Indices 1 2 3 4 5 6 
#
# 1 0.014616 -0.002959 -0.006054 0.000000 0.000000 0.000000
# 2 -0.002959 0.016204 -0.005554 0.000000 0.000000 0.000000
# 3 -0.006054 -0.005554 0.014912 0.000000 0.000000 0.000000
# 4 0.000000 0.000000 0.000000 0.029635 0.000000 0.000000
# 5 0.000000 0.000000 0.000000 0.000000 0.044316 0.000000
# 6 0.000000 0.000000 0.000000 0.000000 0.000000 0.044366
#
#
# Mechanical properties :
#
#
# Convention : Reuss Voigt Hill
#
# Bulk Modulus (GPa) = 60.24963 61.95328 61.10145
# Shear Modulus (GPa) = 25.16157 25.92996 25.54577
#
# Velocity S-wave (km/s) = 3.58476 3.63909 3.61202
# Velocity P-wave (km/s) = 6.92132 7.02125 6.97147
#
# Compressibility (1/GPa) = 0.01659761
#
# Stress axis : x y z
#
# Youngs Moduli (GPa) = 68.41867 61.71277 67.05958
#
# Poissons Ratio (x) = 0.18263 0.40596
# Poissons Ratio (y) = 0.20248 0.37246
# Poissons Ratio (z) = 0.41418 0.34276
#
# Static dielectric constant tensor:
#      x y z
#    x 3.710340 0.000000 0.000000 
#    y 0.000000 3.544530 0.000000 
#    z 0.000000 0.000000 3.419480 
# 
# 
# High freq. dielectric constant tensor:
#      x y z
#    x 1.764840 0.000000 0.000000 
#    y 0.000000 1.758030 0.000000 
#    z 0.000000 0.000000 1.763420 
# 
# From -- ./inp_files/24748.got.cif
#   From: 2010.03.12/outbox.cif.g09.slc.cpg/sg59_13_cif.got.tgz:24748.got - 2010.04.16 16:29:54.
