data_PCOD8241509
_publ_section_title
;
Structure prediction by ZEFSAII (Michael W. Deem and Ramdas Pophale) SiO2 
 PCOD8241509
Probable space group: P M M N
;
_chemical_formula_sum "Si O2"
_cell_formula_units_Z 56
_cell_length_a 19.122632
_cell_length_b 12.555197
_cell_length_c 12.389255
_cell_angle_alpha 90.000000
_cell_angle_beta 90.000000
_cell_angle_gamma 90.000000
_cell_volume 2974.516558
_symmetry_space_group_name_H-M "P M M N"
_symmetry_group_IT_number 59
_space_group.IT_coordinate_system_code '2'
_symmetry_cell_setting 'orthorhombic'
loop_
_space_group_symop_operation_xyz
x,y,z
1/2-x,1/2-y,z
1/2+x,-y,-z
-x,1/2+y,-z
-x,-y,-z
1/2+x,1/2+y,-z
1/2-x,y,z
x,1/2-y,z
loop_
_atom_site_type_symbol
_atom_site_label
_atom_site_fract_x
_atom_site_fract_y
_atom_site_fract_z
Si Si1 0.326124 0.628018 0.817002
Si Si2 0.331505 0.865029 0.055261
Si Si3 0.080303 0.010272 0.678737
Si Si4 0.539181 0.872556 0.111744
Si Si5 0.051757 0.128574 0.326752
Si Si6 0.668591 0.626210 0.504451
Si Si7 0.418442 0.459164 0.101380
O O1 0.250000 0.570243 0.810937
O O2 0.314818 0.750000 0.791715
O O3 0.377006 0.587720 0.725055
O O4 0.361974 0.612670 0.934474
O O5 0.250000 0.853899 0.042817
O O6 0.359999 0.750000 0.099457
O O7 0.349598 0.968762 0.127126
O O8 0.006423 0.959346 0.637382
O O9 0.072740 0.097611 0.773208
O O10 0.124953 0.062126 0.584122
O O11 0.516990 0.750000 0.116825
O O12 0.473016 0.944854 0.087570
O O13 0.590582 0.891081 0.008732
O O14 0.026806 0.250000 0.351692
O O15 0.126048 0.105961 0.384715
O O16 0.064506 0.119640 0.198702
O O17 0.750000 0.587358 0.514932
O O18 0.667921 0.750000 0.472809
#
# Coordination Sequence:
#
# PCOD8241509 Si02
#       7
#     8   8   8   8   8   8   8
#     4   9  17  29  48  76 108 139 173 217 271 327
#     4   9  17  30  49  74 105 142 182 219 261 319
#     4  11  19  34  57  82 107 137 178 230 280 325
#     4  10  20  31  48  77 109 136 168 213 265 319
#     4  10  22  37  56  82 110 144 188 230 269 323
#     4  10  22  40  59  78 105 144 186 227 276 335
#     4  10  19  33  51  76 106 145 176 211 262 318
#
# _framework density 18.826588999999998
#
# number of rings (size 3 to 8) (size 9 to 14) (size 15 to 20)
#    0.000    2.143    1.429    3.429    0.000    0.571 
#    0.000    0.000    0.000    4.714    0.000    2.000 
#    0.000    0.000    0.000    0.000    0.000    0.000 
#
# Total GULP energy -693758.115275 kJ/mol
# GULP energy per Si atom -12388.537773 kJ/mol
# Density = 1.878374 g / cm^3
# Si number density = 18.826589 Si / 1000 Ang^3
#
#
#
# Elastic Constant Matrix: (Units=GPa)
#
#
# Indices 1 2 3 4 5 6 
#
# 1 90.6758 37.1017 39.4846 0.0000 0.0000 0.0000
# 2 37.1017 73.2453 40.3758 0.0000 0.0000 0.0000
# 3 39.4846 40.3758 61.7627 0.0000 0.0000 0.0000
# 4 0.0000 0.0000 0.0000 23.1545 0.0000 0.0000
# 5 0.0000 0.0000 0.0000 0.0000 26.6305 0.0000
# 6 0.0000 0.0000 0.0000 0.0000 0.0000 28.5943
#
#
#
# Elastic Compliance Matrix: (Units=1/GPa)
#
#
# Indices 1 2 3 4 5 6 
#
# 1 0.015946 -0.003842 -0.007682 0.000000 0.000000 0.000000
# 2 -0.003842 0.022270 -0.012102 0.000000 0.000000 0.000000
# 3 -0.007682 -0.012102 0.029014 0.000000 0.000000 0.000000
# 4 0.000000 0.000000 0.000000 0.043188 0.000000 0.000000
# 5 0.000000 0.000000 0.000000 0.000000 0.037551 0.000000
# 6 0.000000 0.000000 0.000000 0.000000 0.000000 0.034972
#
#
# Mechanical properties :
#
#
# Convention : Reuss Voigt Hill
#
# Bulk Modulus (GPa) = 50.05969 51.06756 50.56363
# Shear Modulus (GPa) = 21.11012 22.92395 22.01703
#
# Velocity S-wave (km/s) = 3.35220 3.49325 3.42345
# Velocity P-wave (km/s) = 6.45218 6.59200 6.52247
#
# Compressibility (1/GPa) = 0.01997615
#
# Stress axis : x y z
#
# Youngs Moduli (GPa) = 62.71300 44.90271 34.46647
#
# Poissons Ratio (x) = 0.17254 0.26477
# Poissons Ratio (y) = 0.24097 0.41712
# Poissons Ratio (z) = 0.48177 0.54342
#
# Static dielectric constant tensor:
#      x y z
#    x 3.666920 0.000000 0.000000 
#    y 0.000000 3.550420 0.000000 
#    z 0.000000 0.000000 3.345670 
# 
# 
# High freq. dielectric constant tensor:
#      x y z
#    x 1.728870 0.000000 0.000000 
#    y 0.000000 1.732470 0.000000 
#    z 0.000000 0.000000 1.710970 
# 
# From -- ./inp_files/18317.got.cif
#   From: 2010.03.12/outbox.cif.g09.slc.cpg/sg59_10_cif.got.tgz:18317.got - 2010.04.16 16:29:54.
