data_PCOD8241351
_publ_section_title
;
Structure prediction by ZEFSAII (Michael W. Deem and Ramdas Pophale) SiO2 
 PCOD8241351
Probable space group: P M M N
;
_chemical_formula_sum "Si O2"
_cell_formula_units_Z 64
_cell_length_a 9.178062
_cell_length_b 33.276828
_cell_length_c 11.162463
_cell_angle_alpha 90.000000
_cell_angle_beta 90.000000
_cell_angle_gamma 90.000000
_cell_volume 3409.203624
_symmetry_space_group_name_H-M "P M M N"
_symmetry_group_IT_number 59
_space_group.IT_coordinate_system_code '2'
_symmetry_cell_setting 'orthorhombic'
loop_
_space_group_symop_operation_xyz
x,y,z
1/2-x,1/2-y,z
1/2+x,-y,-z
-x,1/2+y,-z
-x,-y,-z
1/2+x,1/2+y,-z
1/2-x,y,z
x,1/2-y,z
loop_
_atom_site_type_symbol
_atom_site_label
_atom_site_fract_x
_atom_site_fract_y
_atom_site_fract_z
Si Si1 0.917985 0.295136 0.724359
Si Si2 0.083363 0.203521 0.482759
Si Si3 0.415423 0.068676 0.458426
Si Si4 0.418834 0.905747 0.887723
Si Si5 0.419499 0.639117 0.648272
Si Si6 0.918659 0.944447 0.270969
Si Si7 0.080495 0.477797 0.220363
Si Si8 0.918718 0.125168 0.853249
O O1 0.750000 0.296949 0.684895
O O2 0.957774 0.250000 0.770434
O O3 0.950805 0.327669 0.828209
O O4 0.012377 0.307108 0.609774
O O5 0.250000 0.189676 0.488841
O O6 0.067231 0.250000 0.451938
O O7 0.002391 0.180595 0.375584
O O8 0.250000 0.084562 0.445006
O O9 0.524222 0.105946 0.445464
O O10 0.440641 0.048783 0.587328
O O11 0.449161 0.035832 0.356728
O O12 0.250000 0.918396 0.883283
O O13 0.455686 0.874265 0.783089
O O14 0.513911 0.945890 0.872789
O O15 0.462190 0.883858 0.010235
O O16 0.250000 0.645606 0.626175
O O17 0.750000 0.945962 0.234765
O O18 0.984113 0.901564 0.234770
O O19 0.002630 0.979560 0.200279
O O20 0.250000 0.482842 0.191470
O O21 0.750000 0.114917 0.829448
#
# Coordination Sequence:
#
# PCOD8241351 Si02
#       8
#     8   8   8   8   8   8   8   8
#     4   9  18  34  57  83 108 134 167 209 256 304
#     4  10  20  33  51  77 109 140 167 202 253 311
#     4   9  19  34  52  76 105 135 168 209 259 315
#     4   9  20  38  55  73 101 137 176 216 257 302
#     4  10  19  32  53  77 101 133 171 212 258 305
#     4  11  22  34  51  77 107 137 171 214 261 308
#     4  10  20  35  55  77 102 136 175 214 260 309
#     4  10  21  37  55  76 104 138 176 215 255 303
#
# _framework density 18.772711999999999
#
# number of rings (size 3 to 8) (size 9 to 14) (size 15 to 20)
#    0.000    2.250    0.000    2.625    0.000    6.250 
#    0.000    0.625    0.000    2.250    0.000    1.750 
#    0.000    0.000    0.000    0.000    0.000    0.000 
#
# Total GULP energy -793799.486283 kJ/mol
# GULP energy per Si atom -12403.116973 kJ/mol
# Density = 1.872998 g / cm^3
# Si number density = 18.772712 Si / 1000 Ang^3
#
#
#
# Elastic Constant Matrix: (Units=GPa)
#
#
# Indices 1 2 3 4 5 6 
#
# 1 94.1582 55.0331 34.0857 0.0000 0.0000 0.0000
# 2 55.0331 113.9141 41.3716 0.0000 0.0000 0.0000
# 3 34.0857 41.3716 61.1931 0.0000 0.0000 0.0000
# 4 0.0000 0.0000 0.0000 25.0574 0.0000 0.0000
# 5 0.0000 0.0000 0.0000 0.0000 22.7463 0.0000
# 6 0.0000 0.0000 0.0000 0.0000 0.0000 34.0537
#
#
#
# Elastic Compliance Matrix: (Units=1/GPa)
#
#
# Indices 1 2 3 4 5 6 
#
# 1 0.015806 -0.005883 -0.004827 0.000000 0.000000 0.000000
# 2 -0.005883 0.013825 -0.006070 0.000000 0.000000 0.000000
# 3 -0.004827 -0.006070 0.023134 0.000000 0.000000 0.000000
# 4 0.000000 0.000000 0.000000 0.039908 0.000000 0.000000
# 5 0.000000 0.000000 0.000000 0.000000 0.043963 0.000000
# 6 0.000000 0.000000 0.000000 0.000000 0.000000 0.029365
#
#
# Mechanical properties :
#
#
# Convention : Reuss Voigt Hill
#
# Bulk Modulus (GPa) = 52.06796 58.91624 55.49210
# Shear Modulus (GPa) = 24.27600 25.62316 24.94958
#
# Velocity S-wave (km/s) = 3.59995 3.69848 3.64955
# Velocity P-wave (km/s) = 6.71384 7.04915 6.88354
#
# Compressibility (1/GPa) = 0.01920567
#
# Stress axis : x y z
#
# Youngs Moduli (GPa) = 63.26575 72.33132 43.22605
#
# Poissons Ratio (x) = 0.42554 0.20865
# Poissons Ratio (y) = 0.37220 0.26238
# Poissons Ratio (z) = 0.30538 0.43905
#
# Static dielectric constant tensor:
#      x y z
#    x 3.519060 0.000000 0.000000 
#    y 0.000000 3.450590 0.000000 
#    z 0.000000 0.000000 3.321110 
# 
# 
# High freq. dielectric constant tensor:
#      x y z
#    x 1.735930 0.000000 0.000000 
#    y 0.000000 1.730300 0.000000 
#    z 0.000000 0.000000 1.713970 
# 
# From -- ./inp_files/14913.got.cif
#   From: 2010.03.12/outbox.cif.g09.slc.cpg/sg59_8_cif.got.tgz:14913.got - 2010.04.16 16:29:54.
