data_PCOD8241677
_publ_section_title
;
Structure prediction by ZEFSAII (Michael W. Deem and Ramdas Pophale) SiO2 
 PCOD8241677
Probable space group: P M M N
;
_chemical_formula_sum "Si O2"
_cell_formula_units_Z 64
_cell_length_a 19.223180
_cell_length_b 20.630629
_cell_length_c 9.224456
_cell_angle_alpha 90.000000
_cell_angle_beta 90.000000
_cell_angle_gamma 90.000000
_cell_volume 3658.292826
_symmetry_space_group_name_H-M "P M M N"
_symmetry_group_IT_number 59
_space_group.IT_coordinate_system_code '2'
_symmetry_cell_setting 'orthorhombic'
loop_
_space_group_symop_operation_xyz
x,y,z
1/2-x,1/2-y,z
1/2+x,-y,-z
-x,1/2+y,-z
-x,-y,-z
1/2+x,1/2+y,-z
1/2-x,y,z
x,1/2-y,z
loop_
_atom_site_type_symbol
_atom_site_label
_atom_site_fract_x
_atom_site_fract_y
_atom_site_fract_z
Si Si1 0.671380 0.372541 0.072374
Si Si2 0.969643 0.569521 0.631371
Si Si3 0.540177 0.178667 0.555217
Si Si4 0.041093 0.433278 0.036351
Si Si5 0.451891 0.674500 0.113525
Si Si6 0.170752 0.640666 0.596226
Si Si7 0.670444 0.523292 0.118821
Si Si8 0.888772 0.496978 0.413364
O O1 0.750000 0.357083 0.026718
O O2 0.656047 0.346682 0.233979
O O3 0.657336 0.448946 0.075905
O O4 0.624094 0.337190 0.954465
O O5 0.952070 0.584647 0.795873
O O6 0.899704 0.540240 0.557444
O O7 0.992288 0.632894 0.542163
O O8 0.033078 0.518942 0.638984
O O9 0.506284 0.250000 0.552903
O O10 0.546840 0.152725 0.718933
O O11 0.618374 0.185226 0.492933
O O12 0.120102 0.434579 0.980609
O O13 0.000000 0.500000 0.000000
O O14 0.006028 0.370842 0.966934
O O15 0.471886 0.750000 0.095389
O O16 0.250000 0.658197 0.556576
O O17 0.156268 0.566351 0.550348
O O18 0.750000 0.544297 0.092804
O O19 0.650670 0.535993 0.286928
#
# Coordination Sequence:
#
# PCOD8241677 Si02
#       8
#     8   8   8   8   8   8   8   8
#     4   9  18  33  52  78 110 149 186 224 272 328
#     4  10  20  31  53  79 102 139 177 227 270 318
#     4  10  22  36  50  72 106 144 184 224 267 322
#     4  12  21  35  58  85 109 143 182 234 279 328
#     4  11  23  37  54  78 109 147 188 231 278 332
#     4   9  18  31  49  72 103 143 185 219 259 315
#     4  10  19  33  54  81 116 148 181 225 278 334
#     4   9  16  30  50  75 104 138 177 220 271 316
#
# _framework density 17.494499000000001
#
# number of rings (size 3 to 8) (size 9 to 14) (size 15 to 20)
#    0.000    2.000    2.500    3.375    3.500    3.000 
#    0.000    5.000    0.000    0.375    0.000    0.000 
#    0.000    3.500    0.000    0.000    0.000    0.000 
#
# Total GULP energy -793419.415160 kJ/mol
# GULP energy per Si atom -12397.178362 kJ/mol
# Density = 1.745468 g / cm^3
# Si number density = 17.494499 Si / 1000 Ang^3
#
#
#
# Elastic Constant Matrix: (Units=GPa)
#
#
# Indices 1 2 3 4 5 6 
#
# 1 78.8785 34.0518 44.2075 0.0000 0.0000 0.0000
# 2 34.0518 67.0613 53.4552 0.0000 0.0000 0.0000
# 3 44.2075 53.4552 132.3390 0.0000 0.0000 0.0000
# 4 0.0000 0.0000 0.0000 25.4011 0.0000 0.0000
# 5 0.0000 0.0000 0.0000 0.0000 32.1884 0.0000
# 6 0.0000 0.0000 0.0000 0.0000 0.0000 18.2923
#
#
#
# Elastic Compliance Matrix: (Units=1/GPa)
#
#
# Indices 1 2 3 4 5 6 
#
# 1 0.017140 -0.006105 -0.003260 0.000000 0.000000 0.000000
# 2 -0.006105 0.024167 -0.007722 0.000000 0.000000 0.000000
# 3 -0.003260 -0.007722 0.011765 0.000000 0.000000 0.000000
# 4 0.000000 0.000000 0.000000 0.039368 0.000000 0.000000
# 5 0.000000 0.000000 0.000000 0.000000 0.031067 0.000000
# 6 0.000000 0.000000 0.000000 0.000000 0.000000 0.054668
#
#
# Mechanical properties :
#
#
# Convention : Reuss Voigt Hill
#
# Bulk Modulus (GPa) = 52.91622 60.18974 56.55298
# Shear Modulus (GPa) = 22.86775 24.94733 23.90754
#
# Velocity S-wave (km/s) = 3.61936 3.78035 3.70073
# Velocity P-wave (km/s) = 6.91226 7.31672 7.11736
#
# Compressibility (1/GPa) = 0.01889780
#
# Stress axis : x y z
#
# Youngs Moduli (GPa) = 58.34272 41.37824 85.00127
#
# Poissons Ratio (x) = 0.25261 0.27707
# Poissons Ratio (y) = 0.35618 0.65642
# Poissons Ratio (z) = 0.19018 0.31954
#
# Static dielectric constant tensor:
#      x y z
#    x 3.220330 0.000000 0.000000 
#    y 0.000000 3.049290 0.000000 
#    z 0.000000 0.000000 3.386710 
# 
# 
# High freq. dielectric constant tensor:
#      x y z
#    x 1.660560 0.000000 0.000000 
#    y 0.000000 1.651990 0.000000 
#    z 0.000000 0.000000 1.684800 
# 
# From -- ./inp_files/11731.got.cif
#   From: 2010.03.12/outbox.cif.g09.slc.cpg/sg59_6_cif.got.tgz:11731.got - 2010.04.16 16:29:54.
