data_PCOD8241411
_publ_section_title
;
Structure prediction by ZEFSAII (Michael W. Deem and Ramdas Pophale) SiO2 
 PCOD8241411
Probable space group: P M M N
;
_chemical_formula_sum "Si O2"
_cell_formula_units_Z 64
_cell_length_a 29.404833
_cell_length_b 8.705426
_cell_length_c 12.408818
_cell_angle_alpha 90.000000
_cell_angle_beta 90.000000
_cell_angle_gamma 90.000000
_cell_volume 3176.429058
_symmetry_space_group_name_H-M "P M M N"
_symmetry_group_IT_number 59
_space_group.IT_coordinate_system_code '2'
_symmetry_cell_setting 'orthorhombic'
loop_
_space_group_symop_operation_xyz
x,y,z
1/2-x,1/2-y,z
1/2+x,-y,-z
-x,1/2+y,-z
-x,-y,-z
1/2+x,1/2+y,-z
1/2-x,y,z
x,1/2-y,z
loop_
_atom_site_type_symbol
_atom_site_label
_atom_site_fract_x
_atom_site_fract_y
_atom_site_fract_z
Si Si1 0.004520 0.070068 0.678667
Si Si2 0.844991 0.928824 0.498822
Si Si3 0.437618 0.572203 0.510256
Si Si4 0.799749 0.930241 0.715564
Si Si5 0.631395 0.568853 0.890691
Si Si6 0.697680 0.921331 0.276793
Si Si7 0.198015 0.928129 0.942620
Si Si8 0.972414 0.932322 0.899483
O O1 0.004216 0.250000 0.704136
O O2 0.966776 0.017639 0.592441
O O3 0.051599 0.021321 0.620577
O O4 0.997590 0.980660 0.789940
O O5 0.858961 0.750000 0.501543
O O6 0.807742 0.964674 0.589949
O O7 0.827353 0.980179 0.382851
O O8 0.887046 0.036404 0.526051
O O9 0.445808 0.750000 0.534052
O O10 0.750000 0.000190 0.746577
O O11 0.798522 0.750000 0.738007
O O12 0.840632 0.000598 0.788323
O O13 0.627288 0.750000 0.881533
O O14 0.579804 0.502960 0.897640
O O15 0.660833 0.526036 0.994526
O O16 0.750000 0.916311 0.307604
O O17 0.681363 0.750000 0.242738
O O18 0.687603 0.041574 0.182482
O O19 0.250000 0.980690 0.970081
O O20 0.191403 0.750000 0.968464
O O21 0.972820 0.750000 0.909792
O O22 0.000000 0.000000 0.000000
#
# Coordination Sequence:
#
# PCOD8241411 Si02
#       8
#     8   8   8   8   8   8   8   8
#     4  10  21  39  61  83 109 143 185 231 280 336
#     4  10  19  32  53  82 114 145 180 222 268 324
#     4  10  21  36  57  84 112 145 183 227 279 332
#     4   9  17  31  55  86 116 146 182 226 275 328
#     4  10  21  37  59  84 110 145 189 233 279 339
#     4   9  18  33  53  76 104 141 182 222 265 316
#     4  10  21  36  55  80 110 145 186 233 284 336
#     4  11  24  41  61  86 116 151 192 240 295 351
#
# _framework density 20.148410999999999
#
# number of rings (size 3 to 8) (size 9 to 14) (size 15 to 20)
#    0.000    2.125    0.000    3.000    0.000    7.750 
#    0.000    1.875    0.000    1.875    0.000    0.000 
#    0.000    0.000    0.000    0.000    0.000    0.000 
#
# Total GULP energy -793451.900002 kJ/mol
# GULP energy per Si atom -12397.685938 kJ/mol
# Density = 2.010255 g / cm^3
# Si number density = 20.148411 Si / 1000 Ang^3
#
#
#
# Elastic Constant Matrix: (Units=GPa)
#
#
# Indices 1 2 3 4 5 6 
#
# 1 106.3726 18.9244 52.0665 0.0000 0.0000 0.0000
# 2 18.9244 36.0029 23.6285 0.0000 0.0000 0.0000
# 3 52.0665 23.6285 119.9968 0.0000 0.0000 0.0000
# 4 0.0000 0.0000 0.0000 24.1509 0.0000 0.0000
# 5 0.0000 0.0000 0.0000 0.0000 26.9463 0.0000
# 6 0.0000 0.0000 0.0000 0.0000 0.0000 23.6381
#
#
#
# Elastic Compliance Matrix: (Units=1/GPa)
#
#
# Indices 1 2 3 4 5 6 
#
# 1 0.012288 -0.003399 -0.004662 0.000000 0.000000 0.000000
# 2 -0.003399 0.032838 -0.004991 0.000000 0.000000 0.000000
# 3 -0.004662 -0.004991 0.011339 0.000000 0.000000 0.000000
# 4 0.000000 0.000000 0.000000 0.041406 0.000000 0.000000
# 5 0.000000 0.000000 0.000000 0.000000 0.037111 0.000000
# 6 0.000000 0.000000 0.000000 0.000000 0.000000 0.042305
#
#
# Mechanical properties :
#
#
# Convention : Reuss Voigt Hill
#
# Bulk Modulus (GPa) = 32.93831 50.17901 41.55866
# Shear Modulus (GPa) = 23.41792 26.13060 24.77426
#
# Velocity S-wave (km/s) = 3.41291 3.60517 3.51035
# Velocity P-wave (km/s) = 5.64924 6.50295 6.09107
#
# Compressibility (1/GPa) = 0.03035978
#
# Stress axis : x y z
#
# Youngs Moduli (GPa) = 81.38216 30.45266 88.18837
#
# Poissons Ratio (x) = 0.10351 0.41116
# Poissons Ratio (y) = 0.27662 0.44017
# Poissons Ratio (z) = 0.37943 0.15200
#
# Static dielectric constant tensor:
#      x y z
#    x 3.830960 0.000000 0.000000 
#    y 0.000000 3.390390 0.000000 
#    z 0.000000 0.000000 3.668990 
# 
# 
# High freq. dielectric constant tensor:
#      x y z
#    x 1.788620 0.000000 0.000000 
#    y 0.000000 1.764100 0.000000 
#    z 0.000000 0.000000 1.794010 
# 
# From -- ./inp_files/19389.got.cif
#   From: 2010.03.12/outbox.cif.g09.slc.cpg/sg59_10_cif.got.tgz:19389.got - 2010.04.16 16:29:54.
