data_PCOD8241040
_publ_section_title
;
Structure prediction by ZEFSAII (Michael W. Deem and Ramdas Pophale) SiO2 
 PCOD8241040
Probable space group: P M M N
;
_chemical_formula_sum "Si O2"
_cell_formula_units_Z 56
_cell_length_a 21.555211
_cell_length_b 14.173579
_cell_length_c 9.691546
_cell_angle_alpha 90.000000
_cell_angle_beta 90.000000
_cell_angle_gamma 90.000000
_cell_volume 2960.907694
_symmetry_space_group_name_H-M "P M M N"
_symmetry_group_IT_number 59
_space_group.IT_coordinate_system_code '2'
_symmetry_cell_setting 'orthorhombic'
loop_
_space_group_symop_operation_xyz
x,y,z
1/2-x,1/2-y,z
1/2+x,-y,-z
-x,1/2+y,-z
-x,-y,-z
1/2+x,1/2+y,-z
1/2-x,y,z
x,1/2-y,z
loop_
_atom_site_type_symbol
_atom_site_label
_atom_site_fract_x
_atom_site_fract_y
_atom_site_fract_z
Si Si1 0.750000 0.357010 0.522664
Si Si2 0.984062 0.144404 0.595918
Si Si3 0.501098 0.593526 0.910199
Si Si4 0.874084 0.040566 0.197156
Si Si5 0.430857 0.147929 0.845450
Si Si6 0.367872 0.527568 0.474892
Si Si7 0.750000 0.356912 0.194305
Si Si8 0.076720 0.142312 0.349927
O O1 0.750000 0.250000 0.581154
O O2 0.808988 0.414218 0.578917
O O3 0.750000 0.353707 0.358472
O O4 0.960085 0.250000 0.626972
O O5 0.927558 0.073625 0.594264
O O6 0.029577 0.109314 0.716253
O O7 0.018338 0.141038 0.450960
O O8 0.432020 0.608167 0.847111
O O9 0.553110 0.596116 0.791729
O O10 0.500000 0.500000 0.000000
O O11 0.523939 0.668758 0.024032
O O12 0.871064 0.030326 0.361051
O O13 0.811203 0.088404 0.140505
O O14 0.880165 0.935122 0.130246
O O15 0.399660 0.250000 0.809834
O O16 0.367253 0.420101 0.415999
O O17 0.750000 0.250000 0.135845
O O18 0.100384 0.250000 0.328158
#
# Coordination Sequence:
#
# PCOD8241040 Si02
#       8
#     4   8   8   8   8   8   4   8
#     4   9  20  34  51  78 107 140 181 225 276 328
#     4  10  19  31  53  80 107 141 178 223 275 326
#     4  10  20  34  54  81 111 146 177 222 273 323
#     4  10  19  33  52  76 108 140 179 220 267 323
#     4  10  20  34  52  79 112 141 173 220 277 327
#     4  11  18  33  53  76 109 144 179 227 273 323
#     4   9  20  34  51  76 105 140 179 223 266 314
#     4  11  21  32  53  83 110 143 183 221 272 333
#
# _framework density 18.913118999999998
#
# number of rings (size 3 to 8) (size 9 to 14) (size 15 to 20)
#    0.000    1.857    2.857    3.000    0.000    1.714 
#    0.000    0.714    0.000   10.286    0.000   14.000 
#    0.000    0.000    0.000    0.000    0.000    0.000 
#
# Total GULP energy -693908.820172 kJ/mol
# GULP energy per Si atom -12391.228932 kJ/mol
# Density = 1.887007 g / cm^3
# Si number density = 18.913119 Si / 1000 Ang^3
#
#
#
# Elastic Constant Matrix: (Units=GPa)
#
#
# Indices 1 2 3 4 5 6 
#
# 1 93.5120 72.4305 17.7681 0.0000 0.0000 0.0000
# 2 72.4305 143.5792 24.0729 0.0000 0.0000 0.0000
# 3 17.7681 24.0729 77.9190 0.0000 0.0000 0.0000
# 4 0.0000 0.0000 0.0000 -3.0305 0.0000 0.0000
# 5 0.0000 0.0000 0.0000 0.0000 16.2284 0.0000
# 6 0.0000 0.0000 0.0000 0.0000 0.0000 13.8971
#
#
#
# Elastic Compliance Matrix: (Units=1/GPa)
#
#
# Indices 1 2 3 4 5 6 
#
# 1 0.017685 -0.008696 -0.001346 0.000000 0.000000 0.000000
# 2 -0.008696 0.011621 -0.001607 0.000000 0.000000 0.000000
# 3 -0.001346 -0.001607 0.013637 0.000000 0.000000 0.000000
# 4 0.000000 0.000000 0.000000 -0.329974 0.000000 0.000000
# 5 0.000000 0.000000 0.000000 0.000000 0.061620 0.000000
# 6 0.000000 0.000000 0.000000 0.000000 0.000000 0.071957
#
#
# Mechanical properties :
#
#
# Convention : Reuss Voigt Hill
#
# Bulk Modulus (GPa) = 50.90423 60.39481 55.64952
# Shear Modulus (GPa) = -40.45127 18.80156 -10.82486
#
# Velocity S-wave (km/s) = -4.62973 3.15636 -2.39497
# Velocity P-wave (km/s) = 1.26727 6.72945 4.67331
#
# Compressibility (1/GPa) = 0.01964473
#
# Stress axis : x y z
#
# Youngs Moduli (GPa) = 56.54524 86.05140 73.32765
#
# Poissons Ratio (x) = 0.74828 0.09872
# Poissons Ratio (y) = 0.49170 0.11786
# Poissons Ratio (z) = 0.07612 0.13832
#
# Static dielectric constant tensor:
#      x y z
#    x 3.369420 0.000000 0.000000 
#    y 0.000000 4.669950 0.000000 
#    z 0.000000 0.000000 3.543470 
# 
# 
# High freq. dielectric constant tensor:
#      x y z
#    x 1.694450 0.000000 0.000000 
#    y 0.000000 1.753160 0.000000 
#    z 0.000000 0.000000 1.724500 
# 
# From -- ./inp_files/11479.got.cif
#   From: 2010.03.12/outbox.cif.g09.slc.cpg/sg59_6_cif.got.tgz:11479.got - 2010.04.16 16:29:54.
