data_PCOD8241548
_publ_section_title
;
Structure prediction by ZEFSAII (Michael W. Deem and Ramdas Pophale) SiO2 
 PCOD8241548
Probable space group: P M M N
;
_chemical_formula_sum "Si O2"
_cell_formula_units_Z 56
_cell_length_a 20.359074
_cell_length_b 9.250495
_cell_length_c 16.279093
_cell_angle_alpha 90.000000
_cell_angle_beta 90.000000
_cell_angle_gamma 90.000000
_cell_volume 3065.866203
_symmetry_space_group_name_H-M "P M M N"
_symmetry_group_IT_number 59
_space_group.IT_coordinate_system_code '2'
_symmetry_cell_setting 'orthorhombic'
loop_
_space_group_symop_operation_xyz
x,y,z
1/2-x,1/2-y,z
1/2+x,-y,-z
-x,1/2+y,-z
-x,-y,-z
1/2+x,1/2+y,-z
1/2-x,y,z
x,1/2-y,z
loop_
_atom_site_type_symbol
_atom_site_label
_atom_site_fract_x
_atom_site_fract_y
_atom_site_fract_z
Si Si1 0.436909 0.417493 0.895093
Si Si2 0.176104 0.583857 0.189976
Si Si3 0.002684 0.416546 0.584849
Si Si4 0.415484 0.918004 0.052063
Si Si5 0.354955 0.917607 0.367500
Si Si6 0.391270 0.077640 0.717004
Si Si7 0.250000 0.419928 0.660752
Si Si8 0.250000 0.078901 0.470796
O O1 0.418390 0.250000 0.902239
O O2 0.513225 0.446006 0.910390
O O3 0.415944 0.478490 0.805833
O O4 0.399273 0.502927 0.966621
O O5 0.250000 0.565575 0.160487
O O6 0.153978 0.750000 0.197852
O O7 0.132317 0.510797 0.119742
O O8 0.165880 0.515491 0.279691
O O9 0.017465 0.250000 0.564918
O O10 0.932699 0.436438 0.627739
O O11 0.000000 0.500000 0.500000
O O12 0.059132 0.479238 0.645732
O O13 0.401731 0.750000 0.036574
O O14 0.333701 0.750000 0.377315
O O15 0.316551 0.010701 0.434881
O O16 0.393361 0.250000 0.715184
O O17 0.317105 0.018047 0.701761
O O18 0.250000 0.250000 0.673373
O O19 0.250000 0.461675 0.565927
O O20 0.250000 0.250000 0.455752
#
# Coordination Sequence:
#
# PCOD8241548 Si02
#       8
#     8   8   8   8   8   8   4   4
#     4   9  17  31  51  73  96 125 163 203 242 290
#     4   9  16  29  50  73  96 127 167 203 237 292
#     4  10  20  33  52  77 104 133 172 221 263 302
#     4   9  17  30  50  74  98 125 158 198 246 293
#     4  10  19  33  53  75 100 135 175 212 250 302
#     4   9  17  32  51  72  98 133 175 209 245 299
#     4   9  18  31  49  70  97 132 168 207 249 295
#     4  11  21  33  51  76 105 136 168 209 261 311
#
# _framework density 18.265637999999999
#
# number of rings (size 3 to 8) (size 9 to 14) (size 15 to 20)
#    0.000    2.571    0.714    1.929    0.000    5.143 
#    1.286    1.429    0.000    5.143    0.000    0.000 
#    0.000    0.000    0.000    0.000    0.000    0.000 
#
# Total GULP energy -694215.621456 kJ/mol
# GULP energy per Si atom -12396.707526 kJ/mol
# Density = 1.822406 g / cm^3
# Si number density = 18.265638 Si / 1000 Ang^3
#
#
#
# Elastic Constant Matrix: (Units=GPa)
#
#
# Indices 1 2 3 4 5 6 
#
# 1 97.7877 24.8904 65.5123 0.0000 0.0000 0.0000
# 2 24.8904 34.1731 41.9571 0.0000 0.0000 0.0000
# 3 65.5123 41.9571 166.3997 0.0000 0.0000 0.0000
# 4 0.0000 0.0000 0.0000 28.8711 0.0000 0.0000
# 5 0.0000 0.0000 0.0000 0.0000 36.8072 0.0000
# 6 0.0000 0.0000 0.0000 0.0000 0.0000 16.7109
#
#
#
# Elastic Compliance Matrix: (Units=1/GPa)
#
#
# Indices 1 2 3 4 5 6 
#
# 1 0.014488 -0.005141 -0.004408 0.000000 0.000000 0.000000
# 2 -0.005141 0.044208 -0.009123 0.000000 0.000000 0.000000
# 3 -0.004408 -0.009123 0.010045 0.000000 0.000000 0.000000
# 4 0.000000 0.000000 0.000000 0.034637 0.000000 0.000000
# 5 0.000000 0.000000 0.000000 0.000000 0.027169 0.000000
# 6 0.000000 0.000000 0.000000 0.000000 0.000000 0.059841
#
#
# Mechanical properties :
#
#
# Convention : Reuss Voigt Hill
#
# Bulk Modulus (GPa) = 31.84877 62.56445 47.20661
# Shear Modulus (GPa) = 20.99111 27.54456 24.26783
#
# Velocity S-wave (km/s) = 3.39368 3.88751 3.64896
# Velocity P-wave (km/s) = 5.72978 7.38087 6.60710
#
# Compressibility (1/GPa) = 0.03139838
#
# Stress axis : x y z
#
# Youngs Moduli (GPa) = 69.02471 22.62032 99.54925
#
# Poissons Ratio (x) = 0.11628 0.43878
# Poissons Ratio (y) = 0.35483 0.90819
# Poissons Ratio (z) = 0.30424 0.20637
#
# Static dielectric constant tensor:
#      x y z
#    x 3.553740 0.000000 0.000000 
#    y 0.000000 3.062070 0.000000 
#    z 0.000000 0.000000 3.606910 
# 
# 
# High freq. dielectric constant tensor:
#      x y z
#    x 1.715530 0.000000 0.000000 
#    y 0.000000 1.659230 0.000000 
#    z 0.000000 0.000000 1.720570 
# 
# From -- ./inp_files/24328.got.cif
#   From: 2010.03.12/outbox.cif.g09.slc.cpg/sg59_13_cif.got.tgz:24328.got - 2010.04.16 16:29:54.
