data_PCOD8241761
_publ_section_title
;
Structure prediction by ZEFSAII (Michael W. Deem and Ramdas Pophale) SiO2 
 PCOD8241761
Probable space group: P M M N
;
_chemical_formula_sum "Si O2"
_cell_formula_units_Z 48
_cell_length_a 23.710625
_cell_length_b 12.608513
_cell_length_c 7.860995
_cell_angle_alpha 90.000000
_cell_angle_beta 90.000000
_cell_angle_gamma 90.000000
_cell_volume 2350.089448
_symmetry_space_group_name_H-M "P M M N"
_symmetry_group_IT_number 59
_space_group.IT_coordinate_system_code '2'
_symmetry_cell_setting 'orthorhombic'
loop_
_space_group_symop_operation_xyz
x,y,z
1/2-x,1/2-y,z
1/2+x,-y,-z
-x,1/2+y,-z
-x,-y,-z
1/2+x,1/2+y,-z
1/2-x,y,z
x,1/2-y,z
loop_
_atom_site_type_symbol
_atom_site_label
_atom_site_fract_x
_atom_site_fract_y
_atom_site_fract_z
Si Si1 0.168909 0.630904 0.118332
Si Si2 0.186453 0.487347 0.432083
Si Si3 0.685790 0.132698 0.263843
Si Si4 0.978505 0.517303 0.251529
Si Si5 0.571843 0.624560 0.572866
Si Si6 0.949056 0.133938 0.996487
O O1 0.193643 0.750000 0.137800
O O2 0.194758 0.558218 0.263727
O O3 0.101568 0.631609 0.139053
O O4 0.182700 0.586822 0.928613
O O5 0.250000 0.440509 0.470126
O O6 0.161024 0.554467 0.591495
O O7 0.138871 0.397429 0.399177
O O8 0.750000 0.146627 0.318621
O O9 0.656099 0.250000 0.268848
O O10 0.947813 0.591100 0.385637
O O11 0.033296 0.448437 0.306247
O O12 0.995523 0.595322 0.099446
O O13 0.934353 0.434860 0.166120
O O14 0.561293 0.750000 0.601894
O O15 0.960859 0.250000 0.067126
#
# Coordination Sequence:
#
# PCOD8241761 Si02
#       6
#     8   8   8   8   8   8
#     4  10  19  33  55  86 120 150 187 237 300 363
#     4  11  22  37  57  83 117 158 204 248 291 348
#     4   9  18  32  52  80 114 152 192 239 296 353
#     4  10  21  38  60  86 118 149 194 242 304 356
#     4  11  23  40  59  83 115 157 202 247 296 349
#     4  10  19  34  58  89 118 148 184 234 300 366
#
# _framework density 20.424754
#
# number of rings (size 3 to 8) (size 9 to 14) (size 15 to 20)
#    0.000    1.833    1.667    3.000    0.000    2.000 
#    0.000    1.667    0.000    0.000    0.000    2.333 
#    0.000    0.000    0.000    0.000    0.000    0.000 
#
# Total GULP energy -594703.540673 kJ/mol
# GULP energy per Si atom -12389.657097 kJ/mol
# Density = 2.037827 g / cm^3
# Si number density = 20.424754 Si / 1000 Ang^3
#
#
#
# Elastic Constant Matrix: (Units=GPa)
#
#
# Indices 1 2 3 4 5 6 
#
# 1 74.4922 27.1764 3.6864 0.0000 0.0000 0.0000
# 2 27.1764 74.3316 13.7862 0.0000 0.0000 0.0000
# 3 3.6864 13.7862 87.2436 0.0000 0.0000 0.0000
# 4 0.0000 0.0000 0.0000 21.6101 0.0000 0.0000
# 5 0.0000 0.0000 0.0000 0.0000 24.1598 0.0000
# 6 0.0000 0.0000 0.0000 0.0000 0.0000 2.1998
#
#
#
# Elastic Compliance Matrix: (Units=1/GPa)
#
#
# Indices 1 2 3 4 5 6 
#
# 1 0.015496 -0.005711 0.000248 0.000000 0.000000 0.000000
# 2 -0.005711 0.015964 -0.002281 0.000000 0.000000 0.000000
# 3 0.000248 -0.002281 0.011812 0.000000 0.000000 0.000000
# 4 0.000000 0.000000 0.000000 0.046275 0.000000 0.000000
# 5 0.000000 0.000000 0.000000 0.000000 0.041391 0.000000
# 6 0.000000 0.000000 0.000000 0.000000 0.000000 0.454595
#
#
# Mechanical properties :
#
#
# Convention : Reuss Voigt Hill
#
# Bulk Modulus (GPa) = 35.99405 36.15173 36.07289
# Shear Modulus (GPa) = 8.19292 22.35515 15.27403
#
# Velocity S-wave (km/s) = 2.00499 3.31193 2.73760
# Velocity P-wave (km/s) = 4.79802 5.68890 5.26235
#
# Compressibility (1/GPa) = 0.02778237
#
# Stress axis : x y z
#
# Youngs Moduli (GPa) = 64.53458 62.63908 84.65827
#
# Poissons Ratio (x) = 0.35775 -0.02097
# Poissons Ratio (y) = 0.36858 0.19314
# Poissons Ratio (z) = -0.01599 0.14290
#
# Static dielectric constant tensor:
#      x y z
#    x 3.689840 0.000000 0.000000 
#    y 0.000000 3.569450 0.000000 
#    z 0.000000 0.000000 3.692340 
# 
# 
# High freq. dielectric constant tensor:
#      x y z
#    x 1.802860 0.000000 0.000000 
#    y 0.000000 1.769520 0.000000 
#    z 0.000000 0.000000 1.804470 
# 
# From -- ./inp_files/12039.got.cif
#   From: 2010.03.12/outbox.cif.g09.slc.cpg/sg59_7_cif.got.tgz:12039.got - 2010.04.16 16:29:54.
