data_PCOD8241617
_publ_section_title
;
Structure prediction by ZEFSAII (Michael W. Deem and Ramdas Pophale) SiO2 
 PCOD8241617
Probable space group: P M M N
;
_chemical_formula_sum "Si O2"
_cell_formula_units_Z 56
_cell_length_a 19.447088
_cell_length_b 9.149965
_cell_length_c 17.504311
_cell_angle_alpha 90.000000
_cell_angle_beta 90.000000
_cell_angle_gamma 90.000000
_cell_volume 3114.720155
_symmetry_space_group_name_H-M "P M M N"
_symmetry_group_IT_number 59
_space_group.IT_coordinate_system_code '2'
_symmetry_cell_setting 'orthorhombic'
loop_
_space_group_symop_operation_xyz
x,y,z
1/2-x,1/2-y,z
1/2+x,-y,-z
-x,1/2+y,-z
-x,-y,-z
1/2+x,1/2+y,-z
1/2-x,y,z
x,1/2-y,z
loop_
_atom_site_type_symbol
_atom_site_label
_atom_site_fract_x
_atom_site_fract_y
_atom_site_fract_z
Si Si1 0.053974 0.418833 0.900272
Si Si2 0.671763 0.922557 0.390354
Si Si3 0.671173 0.080292 0.543972
Si Si4 0.670268 0.582295 0.827366
Si Si5 0.590643 0.077555 0.693849
Si Si6 0.400566 0.918412 0.043769
Si Si7 0.061488 0.422979 0.729296
O O1 0.075373 0.250000 0.909884
O O2 0.070159 0.480861 0.815777
O O3 0.973139 0.438681 0.914175
O O4 0.097846 0.514629 0.959026
O O5 0.750000 0.968201 0.371019
O O6 0.664110 0.750000 0.398643
O O7 0.623154 0.984600 0.323062
O O8 0.647313 0.991900 0.469773
O O9 0.750000 0.044347 0.565344
O O10 0.661226 0.250000 0.525889
O O11 0.623434 0.029456 0.613632
O O12 0.750000 0.569017 0.807519
O O13 0.646575 0.750000 0.833358
O O14 0.628721 0.504217 0.761156
O O15 0.656360 0.504091 0.907970
O O16 0.599244 0.250000 0.708341
O O17 0.511183 0.028326 0.693291
O O18 0.379280 0.750000 0.037568
O O19 0.064468 0.250000 0.732467
#
# Coordination Sequence:
#
# PCOD8241617 Si02
#       7
#     8   8   8   8   8   8   8
#     4   9  17  32  53  76 103 133 168 216 263 304
#     4   9  18  33  53  74  99 135 174 211 258 316
#     4   9  18  32  50  72 100 134 171 213 261 314
#     4  11  23  36  51  76 110 142 173 216 265 312
#     4  10  19  34  54  76 101 136 179 217 259 312
#     4  10  19  33  54  77 101 137 177 211 254 309
#     4   9  17  32  53  77 104 134 173 219 260 304
#
# _framework density 17.979144000000002
#
# number of rings (size 3 to 8) (size 9 to 14) (size 15 to 20)
#    0.000    2.429    1.429    1.286    0.000    3.429 
#    0.000    3.571    0.000    2.571    0.000    0.000 
#    0.000    0.000    0.000    0.000    0.000    0.000 
#
# Total GULP energy -694490.223184 kJ/mol
# GULP energy per Si atom -12401.611128 kJ/mol
# Density = 1.793822 g / cm^3
# Si number density = 17.979144 Si / 1000 Ang^3
#
#
#
# Elastic Constant Matrix: (Units=GPa)
#
#
# Indices 1 2 3 4 5 6 
#
# 1 88.9214 34.2854 76.8520 0.0000 0.0000 0.0000
# 2 34.2854 57.7894 47.9832 0.0000 0.0000 0.0000
# 3 76.8520 47.9832 166.6759 0.0000 0.0000 0.0000
# 4 0.0000 0.0000 0.0000 33.7604 0.0000 0.0000
# 5 0.0000 0.0000 0.0000 0.0000 24.5655 0.0000
# 6 0.0000 0.0000 0.0000 0.0000 0.0000 16.4661
#
#
#
# Elastic Compliance Matrix: (Units=1/GPa)
#
#
# Indices 1 2 3 4 5 6 
#
# 1 0.019951 -0.005517 -0.007611 0.000000 0.000000 0.000000
# 2 -0.005517 0.024265 -0.004442 0.000000 0.000000 0.000000
# 3 -0.007611 -0.004442 0.010788 0.000000 0.000000 0.000000
# 4 0.000000 0.000000 0.000000 0.029620 0.000000 0.000000
# 5 0.000000 0.000000 0.000000 0.000000 0.040708 0.000000
# 6 0.000000 0.000000 0.000000 0.000000 0.000000 0.060731
#
#
# Mechanical properties :
#
#
# Convention : Reuss Voigt Hill
#
# Bulk Modulus (GPa) = 50.34084 70.18089 60.26087
# Shear Modulus (GPa) = 21.94680 25.24281 23.59480
#
# Velocity S-wave (km/s) = 3.49761 3.75107 3.62656
# Velocity P-wave (km/s) = 6.66119 7.60789 7.15023
#
# Compressibility (1/GPa) = 0.01986459
#
# Stress axis : x y z
#
# Youngs Moduli (GPa) = 50.12300 41.21082 92.69895
#
# Poissons Ratio (x) = 0.22737 0.70551
# Poissons Ratio (y) = 0.27654 0.41174
# Poissons Ratio (z) = 0.38148 0.18305
#
# Static dielectric constant tensor:
#      x y z
#    x 3.346290 0.000000 0.000000 
#    y 0.000000 3.217170 0.000000 
#    z 0.000000 0.000000 3.542890 
# 
# 
# High freq. dielectric constant tensor:
#      x y z
#    x 1.684090 0.000000 0.000000 
#    y 0.000000 1.681540 0.000000 
#    z 0.000000 0.000000 1.704980 
# 
# From -- ./inp_files/24240.got.cif
#   From: 2010.03.12/outbox.cif.g09.slc.cpg/sg59_13_cif.got.tgz:24240.got - 2010.04.16 16:29:54.
