data_PCOD8241340
_publ_section_title
;
Structure prediction by ZEFSAII (Michael W. Deem and Ramdas Pophale) SiO2 
 PCOD8241340
Probable space group: P M M N
;
_chemical_formula_sum "Si O2"
_cell_formula_units_Z 40
_cell_length_a 19.575209
_cell_length_b 8.838034
_cell_length_c 12.620211
_cell_angle_alpha 90.000000
_cell_angle_beta 90.000000
_cell_angle_gamma 90.000000
_cell_volume 2183.376802
_symmetry_space_group_name_H-M "P M M N"
_symmetry_group_IT_number 59
_space_group.IT_coordinate_system_code '2'
_symmetry_cell_setting 'orthorhombic'
loop_
_space_group_symop_operation_xyz
x,y,z
1/2-x,1/2-y,z
1/2+x,-y,-z
-x,1/2+y,-z
-x,-y,-z
1/2+x,1/2+y,-z
1/2-x,y,z
x,1/2-y,z
loop_
_atom_site_type_symbol
_atom_site_label
_atom_site_fract_x
_atom_site_fract_y
_atom_site_fract_z
Si Si1 0.429217 0.925708 0.970901
Si Si2 0.898288 0.077533 0.800445
Si Si3 0.829596 0.576030 0.614075
Si Si4 0.557634 0.926079 0.236816
Si Si5 0.568873 0.071633 0.456088
O O1 0.440574 0.750000 0.946138
O O2 0.401162 0.007944 0.865200
O O3 0.381186 0.947290 0.074515
O O4 0.500000 0.000000 0.000000
O O5 0.882515 0.250000 0.767827
O O6 0.977244 0.041074 0.775246
O O7 0.850467 0.966454 0.733857
O O8 0.750000 0.546719 0.598661
O O9 0.849030 0.750000 0.593440
O O10 0.868698 0.469849 0.531971
O O11 0.573865 0.750000 0.246712
O O12 0.586053 0.010131 0.339778
O O13 0.559300 0.250000 0.452924
O O14 0.500000 0.000000 0.500000
#
# Coordination Sequence:
#
# PCOD8241340 Si02
#       5
#     8   8   8   8   8
#     4   9  17  29  47  75 109 141 176 218 269 325
#     4   9  18  32  52  77 108 144 181 222 272 327
#     4  11  24  39  56  80 111 148 189 232 281 337
#     4  10  19  32  52  81 112 142 180 226 277 330
#     4  12  23  36  57  82 111 147 187 233 283 336
#
# _framework density 18.320246000000001
#
# number of rings (size 3 to 8) (size 9 to 14) (size 15 to 20)
#    0.000    1.800    2.000    4.800    0.000    5.600 
#    0.000    0.000    0.000    1.200    0.000    5.600 
#    0.000    0.000    0.000    0.000    0.000    0.000 
#
# Total GULP energy -495964.451055 kJ/mol
# GULP energy per Si atom -12399.111276 kJ/mol
# Density = 1.827855 g / cm^3
# Si number density = 18.320246 Si / 1000 Ang^3
#
#
#
# Elastic Constant Matrix: (Units=GPa)
#
#
# Indices 1 2 3 4 5 6 
#
# 1 50.2474 38.1392 33.3568 0.0000 0.0000 0.0000
# 2 38.1392 138.2928 69.7169 0.0000 0.0000 0.0000
# 3 33.3568 69.7169 157.2075 0.0000 0.0000 0.0000
# 4 0.0000 0.0000 0.0000 40.3493 0.0000 0.0000
# 5 0.0000 0.0000 0.0000 0.0000 16.5693 0.0000
# 6 0.0000 0.0000 0.0000 0.0000 0.0000 21.7395
#
#
#
# Elastic Compliance Matrix: (Units=1/GPa)
#
#
# Indices 1 2 3 4 5 6 
#
# 1 0.026251 -0.005708 -0.003039 0.000000 0.000000 0.000000
# 2 -0.005708 0.010554 -0.003469 0.000000 0.000000 0.000000
# 3 -0.003039 -0.003469 0.008544 0.000000 0.000000 0.000000
# 4 0.000000 0.000000 0.000000 0.024784 0.000000 0.000000
# 5 0.000000 0.000000 0.000000 0.000000 0.060353 0.000000
# 6 0.000000 0.000000 0.000000 0.000000 0.000000 0.045999
#
#
# Mechanical properties :
#
#
# Convention : Reuss Voigt Hill
#
# Bulk Modulus (GPa) = 47.80616 69.79708 58.80162
# Shear Modulus (GPa) = 24.05121 29.36726 26.70923
#
# Velocity S-wave (km/s) = 3.62722 4.00809 3.82240
# Velocity P-wave (km/s) = 6.61012 7.72015 7.18660
#
# Compressibility (1/GPa) = 0.02091781
#
# Stress axis : x y z
#
# Youngs Moduli (GPa) = 38.09343 94.74943 117.03605
#
# Poissons Ratio (x) = 0.54081 0.35566
# Poissons Ratio (y) = 0.21743 0.40604
# Poissons Ratio (z) = 0.11576 0.32872
#
# Static dielectric constant tensor:
#      x y z
#    x 3.018160 0.000000 0.000000 
#    y 0.000000 3.549300 0.000000 
#    z 0.000000 0.000000 4.090120 
# 
# 
# High freq. dielectric constant tensor:
#      x y z
#    x 1.649140 0.000000 0.000000 
#    y 0.000000 1.726870 0.000000 
#    z 0.000000 0.000000 1.734010 
# 
# From -- ./inp_files/13868.got.cif
#   From: 2010.03.12/outbox.cif.g09.slc.cpg/sg59_7_cif.got.tgz:13868.got - 2010.04.16 16:29:54.
