data_PCOD8241594
_publ_section_title
;
Structure prediction by ZEFSAII (Michael W. Deem and Ramdas Pophale) SiO2 
 PCOD8241594
Probable space group: P M M N
;
_chemical_formula_sum "Si O2"
_cell_formula_units_Z 64
_cell_length_a 23.826359
_cell_length_b 14.403049
_cell_length_c 9.750259
_cell_angle_alpha 90.000000
_cell_angle_beta 90.000000
_cell_angle_gamma 90.000000
_cell_volume 3346.017989
_symmetry_space_group_name_H-M "P M M N"
_symmetry_group_IT_number 59
_space_group.IT_coordinate_system_code '2'
_symmetry_cell_setting 'orthorhombic'
loop_
_space_group_symop_operation_xyz
x,y,z
1/2-x,1/2-y,z
1/2+x,-y,-z
-x,1/2+y,-z
-x,-y,-z
1/2+x,1/2+y,-z
1/2-x,y,z
x,1/2-y,z
loop_
_atom_site_type_symbol
_atom_site_label
_atom_site_fract_x
_atom_site_fract_y
_atom_site_fract_z
Si Si1 0.186042 0.145000 0.815342
Si Si2 0.073334 0.854730 0.059891
Si Si3 0.867905 0.858439 0.468637
Si Si4 0.969830 0.857772 0.869828
Si Si5 0.140065 0.472058 0.058336
Si Si6 0.912179 0.356915 0.625307
Si Si7 0.988941 0.859401 0.562654
Si Si8 0.313332 0.995611 0.347612
O O1 0.250000 0.133121 0.765802
O O2 0.175015 0.250000 0.866809
O O3 0.145092 0.121137 0.689918
O O4 0.174384 0.074851 0.937646
O O5 0.092575 0.750000 0.023313
O O6 0.062934 0.866967 0.221914
O O7 0.122069 0.924403 0.010444
O O8 0.015507 0.879755 0.985228
O O9 0.860920 0.750000 0.503671
O O10 0.930397 0.895498 0.500082
O O11 0.824353 0.912603 0.563847
O O12 0.952922 0.750000 0.867681
O O13 0.915074 0.915321 0.903183
O O14 0.993803 0.888487 0.721694
O O15 0.180334 0.477934 0.188691
O O16 0.898782 0.250000 0.590206
O O17 0.854638 0.412909 0.607394
O O18 0.958693 0.401110 0.522725
O O19 0.991516 0.750000 0.543212
O O20 0.250000 0.961406 0.373500
#
# Coordination Sequence:
#
# PCOD8241594 Si02
#       8
#     8   8   8   8   8   8   8   8
#     4  10  22  38  56  80 111 148 188 231 278 330
#     4   9  20  36  54  78 112 148 183 229 283 337
#     4  10  21  38  57  82 115 151 185 223 278 341
#     4  10  19  33  53  82 116 146 180 225 281 343
#     4  11  21  36  55  82 111 147 191 233 276 332
#     4   9  20  38  58  83 112 146 188 236 283 332
#     4   9  18  34  56  82 113 146 181 225 281 336
#     4  11  23  38  57  82 111 150 193 234 276 326
#
# _framework density 19.127213000000001
#
# number of rings (size 3 to 8) (size 9 to 14) (size 15 to 20)
#    0.000    2.125    1.250    1.500    1.750    3.000 
#    0.000    0.000    0.000    1.125    0.000    0.000 
#    0.000    5.000    0.000    0.000    0.000    0.000 
#
# Total GULP energy -793750.401582 kJ/mol
# GULP energy per Si atom -12402.350025 kJ/mol
# Density = 1.908368 g / cm^3
# Si number density = 19.127213 Si / 1000 Ang^3
#
#
#
# Elastic Constant Matrix: (Units=GPa)
#
#
# Indices 1 2 3 4 5 6 
#
# 1 125.5956 43.4422 58.9496 0.0000 0.0000 0.0000
# 2 43.4422 69.5858 36.2966 0.0000 0.0000 0.0000
# 3 58.9496 36.2966 77.2990 0.0000 0.0000 0.0000
# 4 0.0000 0.0000 0.0000 25.0949 0.0000 0.0000
# 5 0.0000 0.0000 0.0000 0.0000 -195.1707 0.0000
# 6 0.0000 0.0000 0.0000 0.0000 0.0000 24.3208
#
#
#
# Elastic Compliance Matrix: (Units=1/GPa)
#
#
# Indices 1 2 3 4 5 6 
#
# 1 0.013173 -0.003952 -0.008191 0.000000 0.000000 0.000000
# 2 -0.003952 0.020218 -0.006480 0.000000 0.000000 0.000000
# 3 -0.008191 -0.006480 0.022226 0.000000 0.000000 0.000000
# 4 0.000000 0.000000 0.000000 0.039849 0.000000 0.000000
# 5 0.000000 0.000000 0.000000 0.000000 -0.005124 0.000000
# 6 0.000000 0.000000 0.000000 0.000000 0.000000 0.041117
#
#
# Mechanical properties :
#
#
# Convention : Reuss Voigt Hill
#
# Bulk Modulus (GPa) = 54.42920 61.09522 57.76221
# Shear Modulus (GPa) = 28.59969 -20.23153 4.18408
#
# Velocity S-wave (km/s) = 3.87102 -3.25581 1.48062
# Velocity P-wave (km/s) = 6.96405 4.22813 5.76086
#
# Compressibility (1/GPa) = 0.01837249
#
# Stress axis : x y z
#
# Youngs Moduli (GPa) = 75.91126 49.46156 44.99291
#
# Poissons Ratio (x) = 0.19546 0.36852
# Poissons Ratio (y) = 0.29998 0.29154
# Poissons Ratio (z) = 0.62176 0.32050
#
# Static dielectric constant tensor:
#      x y z
#    x 3.426250 0.000000 0.000000 
#    y 0.000000 3.633250 0.000000 
#    z 0.000000 0.000000 3.571090 
# 
# 
# High freq. dielectric constant tensor:
#      x y z
#    x 1.733870 0.000000 0.000000 
#    y 0.000000 1.747180 0.000000 
#    z 0.000000 0.000000 1.745250 
# 
# From -- ./inp_files/9578.got.cif
#   From: 2010.03.12/outbox.cif.g09.slc.cpg/sg59_5_cif.got.tgz:9578.got - 2010.04.16 16:29:54.
