data_PCOD8241238
_publ_section_title
;
Structure prediction by ZEFSAII (Michael W. Deem and Ramdas Pophale) SiO2 
 PCOD8241238
Probable space group: P M M N
;
_chemical_formula_sum "Si O2"
_cell_formula_units_Z 64
_cell_length_a 8.657102
_cell_length_b 29.274672
_cell_length_c 14.800748
_cell_angle_alpha 90.000000
_cell_angle_beta 90.000000
_cell_angle_gamma 90.000000
_cell_volume 3751.010127
_symmetry_space_group_name_H-M "P M M N"
_symmetry_group_IT_number 59
_space_group.IT_coordinate_system_code '2'
_symmetry_cell_setting 'orthorhombic'
loop_
_space_group_symop_operation_xyz
x,y,z
1/2-x,1/2-y,z
1/2+x,-y,-z
-x,1/2+y,-z
-x,-y,-z
1/2+x,1/2+y,-z
1/2-x,y,z
x,1/2-y,z
loop_
_atom_site_type_symbol
_atom_site_label
_atom_site_fract_x
_atom_site_fract_y
_atom_site_fract_z
Si Si1 0.424844 0.301116 0.304163
Si Si2 0.069717 0.801564 0.506548
Si Si3 0.071825 0.620911 0.793608
Si Si4 0.430803 0.555300 0.631262
Si Si5 0.929315 0.532055 0.131556
Si Si6 0.069137 0.392840 0.537611
Si Si7 0.930731 0.039963 0.675504
Si Si8 0.071452 0.937493 0.959921
O O1 0.250000 0.310364 0.336726
O O2 0.443821 0.250000 0.266594
O O3 0.537888 0.310177 0.387797
O O4 0.468671 0.334618 0.222865
O O5 0.250000 0.807878 0.488197
O O6 0.015900 0.750000 0.479639
O O7 0.976923 0.839477 0.449550
O O8 0.250000 0.633822 0.780761
O O9 0.026644 0.580866 0.723980
O O10 0.036986 0.605520 0.895843
O O11 0.250000 0.544307 0.625540
O O12 0.478944 0.586339 0.547399
O O13 0.521495 0.507696 0.629564
O O14 0.750000 0.535352 0.157336
O O15 0.976374 0.482140 0.096583
O O16 0.029484 0.542605 0.219192
O O17 0.971277 0.567536 0.051257
O O18 0.250000 0.397280 0.520292
O O19 0.021962 0.418992 0.628056
O O20 0.750000 0.047206 0.660970
O O21 0.250000 0.940496 0.987656
#
# Coordination Sequence:
#
# PCOD8241238 Si02
#       8
#     8   8   8   8   8   8   8   8
#     4  10  20  32  48  73 104 135 171 214 256 305
#     4  10  20  35  54  75 101 133 170 213 260 308
#     4  10  19  32  52  74 103 138 173 212 254 306
#     4  11  21  36  52  73 105 140 178 216 253 301
#     4  10  19  34  52  74 102 132 168 212 254 299
#     4  12  24  37  53  75 103 138 177 217 259 308
#     4  12  24  37  53  73 102 141 180 218 259 305
#     4   9  18  33  51  74 101 131 167 208 253 301
#
# _framework density 17.062069999999999
#
# number of rings (size 3 to 8) (size 9 to 14) (size 15 to 20)
#    0.000    1.500    2.500    4.125    0.000    3.000 
#    0.000    0.000    0.000    0.000    0.000    0.875 
#    0.000    3.000    0.000    0.000    0.000    0.000 
#
# Total GULP energy -793794.875814 kJ/mol
# GULP energy per Si atom -12403.044935 kJ/mol
# Density = 1.702324 g / cm^3
# Si number density = 17.062070 Si / 1000 Ang^3
#
#
#
# Elastic Constant Matrix: (Units=GPa)
#
#
# Indices 1 2 3 4 5 6 
#
# 1 46.0894 27.9787 18.2669 0.0000 0.0000 0.0000
# 2 27.9787 100.1039 32.1448 0.0000 0.0000 0.0000
# 3 18.2669 32.1448 63.8548 0.0000 0.0000 0.0000
# 4 0.0000 0.0000 0.0000 18.9195 0.0000 0.0000
# 5 0.0000 0.0000 0.0000 0.0000 26.9680 0.0000
# 6 0.0000 0.0000 0.0000 0.0000 0.0000 29.0509
#
#
#
# Elastic Compliance Matrix: (Units=1/GPa)
#
#
# Indices 1 2 3 4 5 6 
#
# 1 0.027278 -0.006105 -0.004730 0.000000 0.000000 0.000000
# 2 -0.006105 0.013282 -0.004940 0.000000 0.000000 0.000000
# 3 -0.004730 -0.004940 0.019500 0.000000 0.000000 0.000000
# 4 0.000000 0.000000 0.000000 0.052856 0.000000 0.000000
# 5 0.000000 0.000000 0.000000 0.000000 0.037081 0.000000
# 6 0.000000 0.000000 0.000000 0.000000 0.000000 0.034422
#
#
# Mechanical properties :
#
#
# Convention : Reuss Voigt Hill
#
# Bulk Modulus (GPa) = 35.07491 40.75878 37.91685
# Shear Modulus (GPa) = 22.17561 23.76484 22.97023
#
# Velocity S-wave (km/s) = 3.60905 3.73613 3.67314
# Velocity P-wave (km/s) = 6.16189 6.52319 6.34511
#
# Compressibility (1/GPa) = 0.02851040
#
# Stress axis : x y z
#
# Youngs Moduli (GPa) = 36.65986 75.28841 51.28109
#
# Poissons Ratio (x) = 0.45965 0.24256
# Poissons Ratio (y) = 0.22382 0.25332
# Poissons Ratio (z) = 0.17340 0.37191
#
# Static dielectric constant tensor:
#      x y z
#    x 3.228860 0.000000 0.000000 
#    y 0.000000 3.239720 0.000000 
#    z 0.000000 0.000000 3.120950 
# 
# 
# High freq. dielectric constant tensor:
#      x y z
#    x 1.670370 0.000000 0.000000 
#    y 0.000000 1.645730 0.000000 
#    z 0.000000 0.000000 1.635960 
# 
# From -- ./inp_files/21951.got.cif
#   From: 2010.03.12/outbox.cif.g09.slc.cpg/sg59_11_cif.got.tgz:21951.got - 2010.04.16 16:29:54.
