data_PCOD8241378
_publ_section_title
;
Structure prediction by ZEFSAII (Michael W. Deem and Ramdas Pophale) SiO2 
 PCOD8241378
Probable space group: P M M N
;
_chemical_formula_sum "Si O2"
_cell_formula_units_Z 48
_cell_length_a 9.201149
_cell_length_b 27.958426
_cell_length_c 10.353031
_cell_angle_alpha 90.000000
_cell_angle_beta 90.000000
_cell_angle_gamma 90.000000
_cell_volume 2663.313533
_symmetry_space_group_name_H-M "P M M N"
_symmetry_group_IT_number 59
_space_group.IT_coordinate_system_code '2'
_symmetry_cell_setting 'orthorhombic'
loop_
_space_group_symop_operation_xyz
x,y,z
1/2-x,1/2-y,z
1/2+x,-y,-z
-x,1/2+y,-z
-x,-y,-z
1/2+x,1/2+y,-z
1/2-x,y,z
x,1/2-y,z
loop_
_atom_site_type_symbol
_atom_site_label
_atom_site_fract_x
_atom_site_fract_y
_atom_site_fract_z
Si Si1 0.581605 0.943150 0.381459
Si Si2 0.579477 0.357603 0.231192
Si Si3 0.084509 0.805661 0.514974
Si Si4 0.080012 0.805756 0.021225
Si Si5 0.419313 0.548761 0.642505
Si Si6 0.579646 0.656042 0.271012
O O1 0.750000 0.943523 0.418855
O O2 0.496439 0.933550 0.512894
O O3 0.547025 0.900928 0.280533
O O4 0.535137 0.994497 0.319571
O O5 0.750000 0.347841 0.226147
O O6 0.518450 0.331744 0.359049
O O7 0.541243 0.414403 0.241594
O O8 0.514052 0.335108 0.100587
O O9 0.250000 0.822533 0.485670
O O10 0.080528 0.750000 0.544869
O O11 0.983314 0.816981 0.394317
O O12 0.250000 0.815947 0.043022
O O13 0.050815 0.750000 0.997017
O O14 0.995317 0.823504 0.145244
O O15 0.250000 0.551902 0.611719
O O16 0.750000 0.666611 0.263520
#
# Coordination Sequence:
#
# PCOD8241378 Si02
#       6
#     8   8   8   8   8   8
#     4   9  18  31  49  76 107 136 165 205 254 303
#     4   9  17  32  55  80 101 127 167 217 264 303
#     4  10  19  32  53  79 102 126 167 220 264 303
#     4  10  21  37  55  74 100 136 176 216 258 304
#     4   9  16  30  54  79 102 130 167 209 256 308
#     4  11  22  35  50  73 107 141 172 207 252 306
#
# _framework density 18.022663000000001
#
# number of rings (size 3 to 8) (size 9 to 14) (size 15 to 20)
#    0.000    2.333    1.667    1.500    0.000    5.333 
#    0.000    2.500    0.000    2.000    0.000    0.000 
#    0.000    0.000    0.000    0.000    0.000    0.000 
#
# Total GULP energy -595050.362380 kJ/mol
# GULP energy per Si atom -12396.882550 kJ/mol
# Density = 1.798164 g / cm^3
# Si number density = 18.022663 Si / 1000 Ang^3
#
#
#
# Elastic Constant Matrix: (Units=GPa)
#
#
# Indices 1 2 3 4 5 6 
#
# 1 43.7622 22.6564 23.6357 0.0000 0.0000 0.0000
# 2 22.6564 61.1138 3.6787 0.0000 0.0000 0.0000
# 3 23.6357 3.6787 71.5423 0.0000 0.0000 0.0000
# 4 0.0000 0.0000 0.0000 32.4763 0.0000 0.0000
# 5 0.0000 0.0000 0.0000 0.0000 -0.3304 0.0000
# 6 0.0000 0.0000 0.0000 0.0000 0.0000 22.8173
#
#
#
# Elastic Compliance Matrix: (Units=1/GPa)
#
#
# Indices 1 2 3 4 5 6 
#
# 1 0.035201 -0.012388 -0.010993 0.000000 0.000000 0.000000
# 2 -0.012388 0.020774 0.003025 0.000000 0.000000 0.000000
# 3 -0.010993 0.003025 0.017454 0.000000 0.000000 0.000000
# 4 0.000000 0.000000 0.000000 0.030792 0.000000 0.000000
# 5 0.000000 0.000000 0.000000 0.000000 -3.026343 0.000000
# 6 0.000000 0.000000 0.000000 0.000000 0.000000 0.043826
#
#
# Mechanical properties :
#
#
# Convention : Reuss Voigt Hill
#
# Bulk Modulus (GPa) = 30.56596 30.70666 30.63631
# Shear Modulus (GPa) = -1.76886 19.42248 8.82681
#
# Velocity S-wave (km/s) = -0.99176 3.28635 2.21546
# Velocity P-wave (km/s) = 3.96044 5.61025 4.85592
#
# Compressibility (1/GPa) = 0.03271613
#
# Stress axis : x y z
#
# Youngs Moduli (GPa) = 28.40795 48.13825 57.29379
#
# Poissons Ratio (x) = 0.59635 0.62981
# Poissons Ratio (y) = 0.35193 -0.17329
# Poissons Ratio (z) = 0.31228 -0.14560
#
# Static dielectric constant tensor:
#      x y z
#    x 3.202950 0.000000 0.000000 
#    y 0.000000 3.777310 0.000000 
#    z 0.000000 0.000000 3.293560 
# 
# 
# High freq. dielectric constant tensor:
#      x y z
#    x 1.677030 0.000000 0.000000 
#    y 0.000000 1.720050 0.000000 
#    z 0.000000 0.000000 1.678090 
# 
# From -- ./inp_files/6224.got.cif
#   From: 2010.03.12/outbox.cif.g09.slc.cpg/sg59_4_cif.got.tgz:6224.got - 2010.04.16 16:29:54.
