data_PCOD8241178
_publ_section_title
;
Structure prediction by ZEFSAII (Michael W. Deem and Ramdas Pophale) SiO2 
 PCOD8241178
Probable space group: P M M N
;
_chemical_formula_sum "Si O2"
_cell_formula_units_Z 56
_cell_length_a 13.929196
_cell_length_b 10.352284
_cell_length_c 21.294615
_cell_angle_alpha 90.000000
_cell_angle_beta 90.000000
_cell_angle_gamma 90.000000
_cell_volume 3070.662037
_symmetry_space_group_name_H-M "P M M N"
_symmetry_group_IT_number 59
_space_group.IT_coordinate_system_code '2'
_symmetry_cell_setting 'orthorhombic'
loop_
_space_group_symop_operation_xyz
x,y,z
1/2-x,1/2-y,z
1/2+x,-y,-z
-x,1/2+y,-z
-x,-y,-z
1/2+x,1/2+y,-z
1/2-x,y,z
x,1/2-y,z
loop_
_atom_site_type_symbol
_atom_site_label
_atom_site_fract_x
_atom_site_fract_y
_atom_site_fract_z
Si Si1 0.025393 0.601565 0.729879
Si Si2 0.360550 0.109031 0.806520
Si Si3 0.137341 0.601789 0.475730
Si Si4 0.505434 0.601789 0.587466
Si Si5 0.645762 0.598856 0.813391
Si Si6 0.358276 0.025960 0.946149
Si Si7 0.448973 0.109713 0.065818
O O1 0.055433 0.750000 0.744165
O O2 0.092535 0.508398 0.769756
O O3 0.033675 0.570554 0.656576
O O4 0.916342 0.574243 0.751041
O O5 0.250000 0.101294 0.788803
O O6 0.401721 0.250000 0.785963
O O7 0.374475 0.101355 0.881507
O O8 0.250000 0.571264 0.483387
O O9 0.121821 0.750000 0.452145
O O10 0.090865 0.498883 0.427704
O O11 0.085982 0.581656 0.542618
O O12 0.544304 0.750000 0.583159
O O13 0.750000 0.533208 0.803602
O O14 0.660618 0.750000 0.824628
O O15 0.594631 0.530930 0.874523
O O16 0.250000 0.967083 0.948350
O O17 0.442319 0.921825 0.954119
O O18 0.375279 0.114896 0.007165
O O19 0.458775 0.250000 0.094497
#
# Coordination Sequence:
#
# PCOD8241178 Si02
#       7
#     8   8   8   8   8   8   8
#     4  10  20  35  54  80 109 140 179 221 262 307
#     4  10  21  36  53  75 106 143 180 219 267 323
#     4   9  18  34  55  79 108 142 179 217 261 314
#     4   9  19  34  54  80 111 143 177 219 264 310
#     4   9  17  30  49  73 101 132 169 216 266 315
#     4  10  20  33  51  74  99 133 176 221 269 323
#     4  10  19  32  51  74  99 130 172 223 275 323
#
# _framework density 18.237109
#
# number of rings (size 3 to 8) (size 9 to 14) (size 15 to 20)
#    0.000    2.429    1.429    0.857    0.000    4.000 
#    0.000    4.286    0.000    0.429    0.000    0.000 
#    0.000    0.000    0.000    0.000    0.000    0.000 
#
# Total GULP energy -693754.321670 kJ/mol
# GULP energy per Si atom -12388.470030 kJ/mol
# Density = 1.819560 g / cm^3
# Si number density = 18.237109 Si / 1000 Ang^3
#
#
#
# Elastic Constant Matrix: (Units=GPa)
#
#
# Indices 1 2 3 4 5 6 
#
# 1 108.4124 42.1086 35.8770 0.0000 0.0000 0.0000
# 2 42.1086 78.0093 44.0544 0.0000 0.0000 0.0000
# 3 35.8770 44.0544 94.2296 0.0000 0.0000 0.0000
# 4 0.0000 0.0000 0.0000 22.1135 0.0000 0.0000
# 5 0.0000 0.0000 0.0000 0.0000 16.9937 0.0000
# 6 0.0000 0.0000 0.0000 0.0000 0.0000 22.3856
#
#
#
# Elastic Compliance Matrix: (Units=1/GPa)
#
#
# Indices 1 2 3 4 5 6 
#
# 1 0.011966 -0.005280 -0.002087 0.000000 0.000000 0.000000
# 2 -0.005280 0.019748 -0.007222 0.000000 0.000000 0.000000
# 3 -0.002087 -0.007222 0.014784 0.000000 0.000000 0.000000
# 4 0.000000 0.000000 0.000000 0.045221 0.000000 0.000000
# 5 0.000000 0.000000 0.000000 0.000000 0.058845 0.000000
# 6 0.000000 0.000000 0.000000 0.000000 0.000000 0.044671
#
#
# Mechanical properties :
#
#
# Convention : Reuss Voigt Hill
#
# Bulk Modulus (GPa) = 57.74368 58.30346 58.02357
# Shear Modulus (GPa) = 21.72151 22.87266 22.29708
#
# Velocity S-wave (km/s) = 3.45492 3.54529 3.50039
# Velocity P-wave (km/s) = 6.90266 6.98554 6.94423
#
# Compressibility (1/GPa) = 0.01731791
#
# Stress axis : x y z
#
# Youngs Moduli (GPa) = 83.57258 50.63866 67.64283
#
# Poissons Ratio (x) = 0.26738 0.14118
# Poissons Ratio (y) = 0.44128 0.48852
# Poissons Ratio (z) = 0.17443 0.36572
#
# Static dielectric constant tensor:
#      x y z
#    x 3.470520 0.000000 0.000000 
#    y 0.000000 3.242540 0.000000 
#    z 0.000000 0.000000 3.374550 
# 
# 
# High freq. dielectric constant tensor:
#      x y z
#    x 1.709640 0.000000 0.000000 
#    y 0.000000 1.681870 0.000000 
#    z 0.000000 0.000000 1.707150 
# 
# From -- ./inp_files/30089.got.cif
#   From: 2010.03.12/outbox.cif.g09.slc.cpg/sg59_16_cif.got.tgz:30089.got - 2010.04.16 16:29:54.
