data_PCOD8241766
_publ_section_title
;
Structure prediction by ZEFSAII (Michael W. Deem and Ramdas Pophale) SiO2 
 PCOD8241766
Probable space group: P M M N
;
_chemical_formula_sum "Si O2"
_cell_formula_units_Z 64
_cell_length_a 18.485950
_cell_length_b 9.642689
_cell_length_c 19.880821
_cell_angle_alpha 90.000000
_cell_angle_beta 90.000000
_cell_angle_gamma 90.000000
_cell_volume 3543.841169
_symmetry_space_group_name_H-M "P M M N"
_symmetry_group_IT_number 59
_space_group.IT_coordinate_system_code '2'
_symmetry_cell_setting 'orthorhombic'
loop_
_space_group_symop_operation_xyz
x,y,z
1/2-x,1/2-y,z
1/2+x,-y,-z
-x,1/2+y,-z
-x,-y,-z
1/2+x,1/2+y,-z
1/2-x,y,z
x,1/2-y,z
loop_
_atom_site_type_symbol
_atom_site_label
_atom_site_fract_x
_atom_site_fract_y
_atom_site_fract_z
Si Si1 0.905516 0.596650 0.458655
Si Si2 0.074576 0.594890 0.425590
Si Si3 0.578964 0.089325 0.864037
Si Si4 0.082379 0.409318 0.903688
Si Si5 0.833378 0.909830 0.961686
Si Si6 0.460542 0.914468 0.282951
Si Si7 0.669805 0.091937 0.198453
Si Si8 0.877978 0.586847 0.311215
O O1 0.882301 0.750000 0.481183
O O2 0.882693 0.497049 0.519990
O O3 0.864358 0.555117 0.390050
O O4 0.990207 0.593565 0.442842
O O5 0.105994 0.750000 0.430676
O O6 0.084279 0.535029 0.349216
O O7 0.601488 0.250000 0.865051
O O8 0.503736 0.067784 0.903916
O O9 0.573779 0.033729 0.787060
O O10 0.642079 0.002294 0.898939
O O11 0.100863 0.250000 0.883950
O O12 0.115447 0.512175 0.849747
O O13 0.115758 0.447692 0.975555
O O14 0.750000 0.943033 0.979519
O O15 0.843049 0.750000 0.941440
O O16 0.462476 0.750000 0.285231
O O17 0.542861 0.964946 0.287819
O O18 0.750000 0.091713 0.166538
O O19 0.642799 0.250000 0.208926
O O20 0.675786 0.010012 0.269151
O O21 0.865688 0.750000 0.296078
#
# Coordination Sequence:
#
# PCOD8241766 Si02
#       8
#     8   8   8   8   8   8   8   8
#     4   8  14  23  38  61  89 122 160 200 237 282
#     4   8  13  22  38  60  91 126 154 189 241 291
#     4  10  19  33  56  81 103 131 170 213 253 299
#     4  10  20  37  59  77  97 133 173 207 250 307
#     4  10  22  38  54  76 106 136 168 206 250 305
#     4   8  14  27  46  70  98 126 161 203 245 293
#     4  11  23  34  46  71 104 133 167 215 262 304
#     4   9  16  30  48  64  91 132 171 205 245 296
#
# _framework density 18.0595
#
# number of rings (size 3 to 8) (size 9 to 14) (size 15 to 20)
#    0.000    2.750    1.250    2.625    0.000    3.250 
#    0.000    2.500    0.000    0.000    0.000    0.875 
#    0.000    1.000    0.000    0.000    0.000    0.000 
#
# Total GULP energy -793232.664717 kJ/mol
# GULP energy per Si atom -12394.260386 kJ/mol
# Density = 1.801840 g / cm^3
# Si number density = 18.059500 Si / 1000 Ang^3
#
#
#
# Elastic Constant Matrix: (Units=GPa)
#
#
# Indices 1 2 3 4 5 6 
#
# 1 34.5448 23.4112 27.6561 0.0000 0.0000 0.0000
# 2 23.4112 79.7496 55.5895 0.0000 0.0000 0.0000
# 3 27.6561 55.5895 131.2582 0.0000 0.0000 0.0000
# 4 0.0000 0.0000 0.0000 33.6958 0.0000 0.0000
# 5 0.0000 0.0000 0.0000 0.0000 9.6737 0.0000
# 6 0.0000 0.0000 0.0000 0.0000 0.0000 20.7270
#
#
#
# Elastic Compliance Matrix: (Units=1/GPa)
#
#
# Indices 1 2 3 4 5 6 
#
# 1 0.038048 -0.007919 -0.004663 0.000000 0.000000 0.000000
# 2 -0.007919 0.019440 -0.006564 0.000000 0.000000 0.000000
# 3 -0.004663 -0.006564 0.011381 0.000000 0.000000 0.000000
# 4 0.000000 0.000000 0.000000 0.029677 0.000000 0.000000
# 5 0.000000 0.000000 0.000000 0.000000 0.103374 0.000000
# 6 0.000000 0.000000 0.000000 0.000000 0.000000 0.048246
#
#
# Mechanical properties :
#
#
# Convention : Reuss Voigt Hill
#
# Bulk Modulus (GPa) = 32.70538 50.98513 41.84525
# Shear Modulus (GPa) = 16.74201 22.07901 19.41051
#
# Velocity S-wave (km/s) = 3.04805 3.50032 3.28198
# Velocity P-wave (km/s) = 5.52599 6.68052 6.13049
#
# Compressibility (1/GPa) = 0.03057601
#
# Stress axis : x y z
#
# Youngs Moduli (GPa) = 26.28280 51.44131 87.86463
#
# Poissons Ratio (x) = 0.40736 0.40970
# Poissons Ratio (y) = 0.20813 0.57678
# Poissons Ratio (z) = 0.12255 0.33768
#
# Static dielectric constant tensor:
#      x y z
#    x 2.927450 0.000000 0.000000 
#    y 0.000000 3.287550 0.000000 
#    z 0.000000 0.000000 3.688270 
# 
# 
# High freq. dielectric constant tensor:
#      x y z
#    x 1.654810 0.000000 0.000000 
#    y 0.000000 1.684720 0.000000 
#    z 0.000000 0.000000 1.709210 
# 
# From -- ./inp_files/30795.got.cif
#   From: 2010.03.12/outbox.cif.g09.slc.cpg/sg59_16_cif.got.tgz:30795.got - 2010.04.16 16:29:54.
