data_PCOD8241885
_publ_section_title
;
Structure prediction by ZEFSAII (Michael W. Deem and Ramdas Pophale) SiO2 
 PCOD8241885
Probable space group: P M M N
;
_chemical_formula_sum "Si O2"
_cell_formula_units_Z 48
_cell_length_a 8.726594
_cell_length_b 9.847903
_cell_length_c 29.210304
_cell_angle_alpha 90.000000
_cell_angle_beta 90.000000
_cell_angle_gamma 90.000000
_cell_volume 2510.294128
_symmetry_space_group_name_H-M "P M M N"
_symmetry_group_IT_number 59
_space_group.IT_coordinate_system_code '2'
_symmetry_cell_setting 'orthorhombic'
loop_
_space_group_symop_operation_xyz
x,y,z
1/2-x,1/2-y,z
1/2+x,-y,-z
-x,1/2+y,-z
-x,-y,-z
1/2+x,1/2+y,-z
1/2-x,y,z
x,1/2-y,z
loop_
_atom_site_type_symbol
_atom_site_label
_atom_site_fract_x
_atom_site_fract_y
_atom_site_fract_z
Si Si1 0.569691 0.906619 0.384359
Si Si2 0.068112 0.399525 0.719371
Si Si3 0.931846 0.250000 0.039481
Si Si4 0.068894 0.091913 0.460004
Si Si5 0.431957 0.988085 0.895768
Si Si6 0.432508 0.599225 0.795767
Si Si7 0.430332 0.750000 0.062952
O O1 0.750000 0.927443 0.392189
O O2 0.526548 0.750000 0.397323
O O3 0.520989 0.938109 0.332206
O O4 0.478738 0.018618 0.413122
O O5 0.250000 0.399154 0.722780
O O6 0.004858 0.250000 0.731502
O O7 0.997187 0.503715 0.756112
O O8 0.750000 0.250000 0.038308
O O9 0.990630 0.119338 0.066848
O O10 0.002034 0.250000 0.988345
O O11 0.250000 0.090943 0.465065
O O12 0.010661 0.250000 0.461595
O O13 0.000000 0.000000 0.500000
O O14 0.250000 0.004951 0.896902
O O15 0.490003 0.946290 0.845565
O O16 0.513628 0.125370 0.907837
O O17 0.250000 0.595531 0.794801
O O18 0.493439 0.750000 0.785870
O O19 0.250000 0.750000 0.058661
#
# Coordination Sequence:
#
# PCOD8241885 Si02
#       7
#     8   8   4   8   8   8   4
#     4   9  18  34  55  81 113 145 176 214 262 318
#     4   8  15  27  46  76 111 138 164 208 264 314
#     4   9  18  35  55  75 103 133 169 217 266 313
#     4  11  24  39  56  81 111 144 185 229 269 312
#     4  10  19  34  55  78 101 131 173 219 263 311
#     4   9  16  27  47  76 105 131 165 214 266 312
#     4  11  23  35  49  73 105 139 171 211 262 319
#
# _framework density 19.121267
#
# number of rings (size 3 to 8) (size 9 to 14) (size 15 to 20)
#    0.000    2.500    0.833    2.750    1.167    4.333 
#    0.000    2.917    0.000    1.000    0.000    0.000 
#    0.000    0.000    0.000    0.000    0.000    0.000 
#
# Total GULP energy -595008.076744 kJ/mol
# GULP energy per Si atom -12396.001599 kJ/mol
# Density = 1.907775 g / cm^3
# Si number density = 19.121267 Si / 1000 Ang^3
#
#
#
# Elastic Constant Matrix: (Units=GPa)
#
#
# Indices 1 2 3 4 5 6 
#
# 1 26.7884 29.6092 19.8058 0.0000 0.0000 0.0000
# 2 29.6092 184.7906 100.1577 0.0000 0.0000 0.0000
# 3 19.8058 100.1577 150.0533 0.0000 0.0000 0.0000
# 4 0.0000 0.0000 0.0000 45.3192 0.0000 0.0000
# 5 0.0000 0.0000 0.0000 0.0000 18.7958 0.0000
# 6 0.0000 0.0000 0.0000 0.0000 0.0000 123.4195
#
#
#
# Elastic Compliance Matrix: (Units=1/GPa)
#
#
# Indices 1 2 3 4 5 6 
#
# 1 0.045669 -0.006346 -0.001792 0.000000 0.000000 0.000000
# 2 -0.006346 0.009361 -0.005411 0.000000 0.000000 0.000000
# 3 -0.001792 -0.005411 0.010512 0.000000 0.000000 0.000000
# 4 0.000000 0.000000 0.000000 0.022066 0.000000 0.000000
# 5 0.000000 0.000000 0.000000 0.000000 0.053203 0.000000
# 6 0.000000 0.000000 0.000000 0.000000 0.000000 0.008102
#
#
# Mechanical properties :
#
#
# Convention : Reuss Voigt Hill
#
# Bulk Modulus (GPa) = 26.01142 73.41973 49.71558
# Shear Modulus (GPa) = 26.47932 51.64420 39.06176
#
# Velocity S-wave (km/s) = 3.72534 5.20263 4.52469
# Velocity P-wave (km/s) = 5.66896 8.63540 7.30436
#
# Compressibility (1/GPa) = 0.03844465
#
# Stress axis : x y z
#
# Youngs Moduli (GPa) = 21.89664 106.82593 95.12672
#
# Poissons Ratio (x) = 0.67796 0.17045
# Poissons Ratio (y) = 0.13897 0.51469
# Poissons Ratio (z) = 0.03923 0.57800
#
# Static dielectric constant tensor:
#      x y z
#    x 2.988720 0.000000 0.000000 
#    y 0.000000 3.906730 0.000000 
#    z 0.000000 0.000000 3.811700 
# 
# 
# High freq. dielectric constant tensor:
#      x y z
#    x 1.692210 0.000000 0.000000 
#    y 0.000000 1.756770 0.000000 
#    z 0.000000 0.000000 1.759170 
# 
# From -- ./inp_files/33043.got.cif
#   From: 2010.03.12/outbox.cif.g09.slc.cpg/sg59_17_cif.got.tgz:33043.got - 2010.04.16 16:29:54.
