data_PCOD8241004
_publ_section_title
;
Structure prediction by ZEFSAII (Michael W. Deem and Ramdas Pophale) SiO2 
 PCOD8241004
Probable space group: P M M N
;
_chemical_formula_sum "Si O2"
_cell_formula_units_Z 64
_cell_length_a 8.740433
_cell_length_b 18.927914
_cell_length_c 21.499104
_cell_angle_alpha 90.000000
_cell_angle_beta 90.000000
_cell_angle_gamma 90.000000
_cell_volume 3556.772297
_symmetry_space_group_name_H-M "P M M N"
_symmetry_group_IT_number 59
_space_group.IT_coordinate_system_code '2'
_symmetry_cell_setting 'orthorhombic'
loop_
_space_group_symop_operation_xyz
x,y,z
1/2-x,1/2-y,z
1/2+x,-y,-z
-x,1/2+y,-z
-x,-y,-z
1/2+x,1/2+y,-z
1/2-x,y,z
x,1/2-y,z
loop_
_atom_site_type_symbol
_atom_site_label
_atom_site_fract_x
_atom_site_fract_y
_atom_site_fract_z
Si Si1 0.929064 0.075592 0.986564
Si Si2 0.573706 0.918361 0.141662
Si Si3 0.926662 0.122930 0.740125
Si Si4 0.571882 0.012675 0.313988
Si Si5 0.927629 0.831424 0.907970
Si Si6 0.923557 0.424238 0.189148
Si Si7 0.430369 0.674412 0.388646
Si Si8 0.433188 0.976197 0.435054
O O1 0.750000 0.066198 0.989565
O O2 0.978370 0.102872 0.918922
O O3 0.977931 0.132416 0.037376
O O4 0.000000 0.000000 0.000000
O O5 0.750000 0.907098 0.126288
O O6 0.525735 0.865328 0.197485
O O7 0.537290 0.998454 0.161921
O O8 0.750000 0.128642 0.758940
O O9 0.971274 0.176907 0.685049
O O10 0.959793 0.046827 0.711393
O O11 0.750000 0.988443 0.315820
O O12 0.555426 0.077181 0.264554
O O13 0.508354 0.028916 0.383268
O O14 0.750000 0.841030 0.922447
O O15 0.975426 0.750000 0.904260
O O16 0.965203 0.867084 0.841595
O O17 0.750000 0.404573 0.171515
O O18 0.250000 0.670455 0.396491
O O19 0.491488 0.750000 0.416418
O O20 0.494590 0.604415 0.422929
O O21 0.250000 0.982257 0.433704
O O22 0.500000 0.000000 0.500000
#
# Coordination Sequence:
#
# PCOD8241004 Si02
#       8
#     8   8   8   8   8   8   8   8
#     4  12  23  36  56  79 104 137 180 228 274 327
#     4  10  19  32  51  76 104 133 171 218 262 310
#     4   9  16  27  46  73 101 131 166 207 257 306
#     4   9  17  30  49  74 104 131 164 209 254 302
#     4  11  24  39  55  77 106 139 175 222 279 334
#     4   9  18  32  53  77 100 131 169 213 263 313
#     4   8  15  29  49  73 101 135 176 216 253 303
#     4  10  19  31  51  78 108 141 177 217 262 308
#
# _framework density 17.993842000000001
#
# number of rings (size 3 to 8) (size 9 to 14) (size 15 to 20)
#    0.000    2.250    1.250    4.500    0.000    3.500 
#    0.000    0.625    0.000   16.500    0.000    1.750 
#    0.000    0.000    0.000    0.000    0.000    0.000 
#
# Total GULP energy -793105.921286 kJ/mol
# GULP energy per Si atom -12392.280020 kJ/mol
# Density = 1.795289 g / cm^3
# Si number density = 17.993842 Si / 1000 Ang^3
#
#
#
# Elastic Constant Matrix: (Units=GPa)
#
#
# Indices 1 2 3 4 5 6 
#
# 1 82.7535 38.5395 43.5910 0.0000 0.0000 0.0000
# 2 38.5395 77.0694 45.6535 0.0000 0.0000 0.0000
# 3 43.5910 45.6535 140.5178 0.0000 0.0000 0.0000
# 4 0.0000 0.0000 0.0000 17.8228 0.0000 0.0000
# 5 0.0000 0.0000 0.0000 0.0000 34.5705 0.0000
# 6 0.0000 0.0000 0.0000 0.0000 0.0000 17.1522
#
#
#
# Elastic Compliance Matrix: (Units=1/GPa)
#
#
# Indices 1 2 3 4 5 6 
#
# 1 0.016755 -0.006563 -0.003066 0.000000 0.000000 0.000000
# 2 -0.006563 0.018638 -0.004020 0.000000 0.000000 0.000000
# 3 -0.003066 -0.004020 0.009373 0.000000 0.000000 0.000000
# 4 0.000000 0.000000 0.000000 0.056108 0.000000 0.000000
# 5 0.000000 0.000000 0.000000 0.000000 0.028926 0.000000
# 6 0.000000 0.000000 0.000000 0.000000 0.000000 0.058302
#
#
# Mechanical properties :
#
#
# Convention : Reuss Voigt Hill
#
# Bulk Modulus (GPa) = 57.23722 61.76763 59.50242
# Shear Modulus (GPa) = 22.60171 25.41287 24.00729
#
# Velocity S-wave (km/s) = 3.54797 3.76215 3.65663
# Velocity P-wave (km/s) = 6.97585 7.29885 7.13918
#
# Compressibility (1/GPa) = 0.01747115
#
# Stress axis : x y z
#
# Youngs Moduli (GPa) = 59.68282 53.65344 106.68408
#
# Poissons Ratio (x) = 0.35211 0.32705
# Poissons Ratio (y) = 0.39168 0.42882
# Poissons Ratio (z) = 0.18296 0.21566
#
# Static dielectric constant tensor:
#      x y z
#    x 3.345180 0.000000 0.000000 
#    y 0.000000 3.341540 0.000000 
#    z 0.000000 0.000000 3.682470 
# 
# 
# High freq. dielectric constant tensor:
#      x y z
#    x 1.699450 0.000000 0.000000 
#    y 0.000000 1.657170 0.000000 
#    z 0.000000 0.000000 1.700860 
# 
# From -- ./inp_files/29380.got.cif
#   From: 2010.03.12/outbox.cif.g09.slc.cpg/sg59_15_cif.got.tgz:29380.got - 2010.04.16 16:29:54.
