data_PCOD8241670
_publ_section_title
;
Structure prediction by ZEFSAII (Michael W. Deem and Ramdas Pophale) SiO2 
 PCOD8241670
Probable space group: P M M N
;
_chemical_formula_sum "Si O2"
_cell_formula_units_Z 56
_cell_length_a 9.135151
_cell_length_b 19.422233
_cell_length_c 17.398756
_cell_angle_alpha 90.000000
_cell_angle_beta 90.000000
_cell_angle_gamma 90.000000
_cell_volume 3086.974826
_symmetry_space_group_name_H-M "P M M N"
_symmetry_group_IT_number 59
_space_group.IT_coordinate_system_code '2'
_symmetry_cell_setting 'orthorhombic'
loop_
_space_group_symop_operation_xyz
x,y,z
1/2-x,1/2-y,z
1/2+x,-y,-z
-x,1/2+y,-z
-x,-y,-z
1/2+x,1/2+y,-z
1/2-x,y,z
x,1/2-y,z
loop_
_atom_site_type_symbol
_atom_site_label
_atom_site_fract_x
_atom_site_fract_y
_atom_site_fract_z
Si Si1 0.424104 0.173609 0.317432
Si Si2 0.080294 0.329464 0.885121
Si Si3 0.080655 0.403670 0.462496
Si Si4 0.918760 0.053769 0.602919
Si Si5 0.577586 0.328955 0.043296
Si Si6 0.078678 0.933674 0.222224
Si Si7 0.921466 0.913035 0.826105
O O1 0.250000 0.169564 0.319287
O O2 0.481346 0.250000 0.298788
O O3 0.482044 0.151775 0.401640
O O4 0.481283 0.122585 0.251546
O O5 0.250000 0.347289 0.898186
O O6 0.058565 0.250000 0.862398
O O7 0.016060 0.374409 0.816391
O O8 0.992958 0.347656 0.962018
O O9 0.250000 0.392223 0.479404
O O10 0.049241 0.476450 0.422829
O O11 0.000651 0.394995 0.544225
O O12 0.750000 0.072410 0.598104
O O13 0.975187 0.062773 0.689664
O O14 0.750000 0.340818 0.037174
O O15 0.540478 0.250000 0.066508
O O16 0.511428 0.381769 0.103920
O O17 0.250000 0.915501 0.217457
O O18 0.047916 0.005871 0.179681
O O19 0.750000 0.897459 0.838397
#
# Coordination Sequence:
#
# PCOD8241670 Si02
#       7
#     8   8   8   8   8   8   8
#     4   9  16  28  49  76 106 140 177 218 261 305
#     4  10  22  40  60  80 102 133 177 224 269 321
#     4   9  16  29  49  73 100 134 177 216 253 303
#     4   9  17  31  50  73 102 134 171 215 260 308
#     4  10  21  37  56  79 109 144 179 215 262 319
#     4  10  20  35  56  81 110 140 175 221 269 319
#     4  10  19  33  54  81 109 140 180 220 259 312
#
# _framework density 18.140737000000001
#
# number of rings (size 3 to 8) (size 9 to 14) (size 15 to 20)
#    0.000    2.429    1.429    1.286    0.000    4.000 
#    0.000    1.429    0.000    3.857    0.000    0.000 
#    0.000    0.000    0.000    0.000    0.000    0.000 
#
# Total GULP energy -694369.561045 kJ/mol
# GULP energy per Si atom -12399.456447 kJ/mol
# Density = 1.809945 g / cm^3
# Si number density = 18.140737 Si / 1000 Ang^3
#
#
#
# Elastic Constant Matrix: (Units=GPa)
#
#
# Indices 1 2 3 4 5 6 
#
# 1 62.6843 47.6217 63.8651 0.0000 0.0000 0.0000
# 2 47.6217 68.8857 54.1677 0.0000 0.0000 0.0000
# 3 63.8651 54.1677 141.4856 0.0000 0.0000 0.0000
# 4 0.0000 0.0000 0.0000 29.4868 0.0000 0.0000
# 5 0.0000 0.0000 0.0000 0.0000 34.8885 0.0000
# 6 0.0000 0.0000 0.0000 0.0000 0.0000 24.2060
#
#
#
# Elastic Compliance Matrix: (Units=1/GPa)
#
#
# Indices 1 2 3 4 5 6 
#
# 1 0.044043 -0.021195 -0.011766 0.000000 0.000000 0.000000
# 2 -0.021195 0.030970 -0.002289 0.000000 0.000000 0.000000
# 3 -0.011766 -0.002289 0.013255 0.000000 0.000000 0.000000
# 4 0.000000 0.000000 0.000000 0.033913 0.000000 0.000000
# 5 0.000000 0.000000 0.000000 0.000000 0.028663 0.000000
# 6 0.000000 0.000000 0.000000 0.000000 0.000000 0.041312
#
#
# Mechanical properties :
#
#
# Convention : Reuss Voigt Hill
#
# Bulk Modulus (GPa) = 56.28540 67.15163 61.71851
# Shear Modulus (GPa) = 18.61649 24.87633 21.74641
#
# Velocity S-wave (km/s) = 3.20695 3.70712 3.46607
# Velocity P-wave (km/s) = 6.69381 7.44453 7.07913
#
# Compressibility (1/GPa) = 0.01776660
#
# Stress axis : x y z
#
# Youngs Moduli (GPa) = 22.70529 32.28956 75.44182
#
# Poissons Ratio (x) = 0.68439 0.88762
# Poissons Ratio (y) = 0.48125 0.17271
# Poissons Ratio (z) = 0.26714 0.07392
#
# Static dielectric constant tensor:
#      x y z
#    x 3.229710 0.000000 0.000000 
#    y 0.000000 3.307120 0.000000 
#    z 0.000000 0.000000 3.533140 
# 
# 
# High freq. dielectric constant tensor:
#      x y z
#    x 1.684620 0.000000 0.000000 
#    y 0.000000 1.691810 0.000000 
#    z 0.000000 0.000000 1.712900 
# 
# From -- ./inp_files/20994.got.cif
#   From: 2010.03.12/outbox.cif.g09.slc.cpg/sg59_11_cif.got.tgz:20994.got - 2010.04.16 16:29:54.
