data_PCOD8241968
_publ_section_title
;
Structure prediction by ZEFSAII (Michael W. Deem and Ramdas Pophale) SiO2 
 PCOD8241968
Probable space group: P M M N
;
_chemical_formula_sum "Si O2"
_cell_formula_units_Z 64
_cell_length_a 18.107118
_cell_length_b 8.888373
_cell_length_c 19.867120
_cell_angle_alpha 90.000000
_cell_angle_beta 90.000000
_cell_angle_gamma 90.000000
_cell_volume 3197.470293
_symmetry_space_group_name_H-M "P M M N"
_symmetry_group_IT_number 59
_space_group.IT_coordinate_system_code '2'
_symmetry_cell_setting 'orthorhombic'
loop_
_space_group_symop_operation_xyz
x,y,z
1/2-x,1/2-y,z
1/2+x,-y,-z
-x,1/2+y,-z
-x,-y,-z
1/2+x,1/2+y,-z
1/2-x,y,z
x,1/2-y,z
loop_
_atom_site_type_symbol
_atom_site_label
_atom_site_fract_x
_atom_site_fract_y
_atom_site_fract_z
Si Si1 0.105405 0.422943 0.960541
Si Si2 0.078848 0.576463 0.241100
Si Si3 0.559477 0.424093 0.910708
Si Si4 0.913163 0.576863 0.276665
Si Si5 0.664193 0.423682 0.398492
Si Si6 0.666617 0.572104 0.645301
Si Si7 0.166050 0.579665 0.840648
Si Si8 0.921277 0.927751 0.515454
O O1 0.129426 0.250000 0.959182
O O2 0.162620 0.521316 0.917312
O O3 0.026008 0.449590 0.926917
O O4 0.108210 0.479745 0.037376
O O5 0.101285 0.750000 0.241060
O O6 0.076200 0.516441 0.164452
O O7 0.140234 0.486894 0.282477
O O8 0.000569 0.553014 0.277285
O O9 0.580638 0.250000 0.918394
O O10 0.892502 0.750000 0.291843
O O11 0.879058 0.466475 0.331380
O O12 0.882320 0.532748 0.203975
O O13 0.750000 0.454041 0.386132
O O14 0.647932 0.250000 0.415337
O O15 0.637410 0.527074 0.459128
O O16 0.750000 0.513812 0.631494
O O17 0.665619 0.750000 0.647043
O O18 0.611785 0.513804 0.586434
O O19 0.250000 0.574836 0.815287
O O20 0.135375 0.750000 0.835827
O O21 0.931456 0.750000 0.515331
O O22 0.000000 0.000000 0.500000
#
# Coordination Sequence:
#
# PCOD8241968 Si02
#       8
#     8   8   8   8   8   8   8   8
#     4  10  19  34  56  83 112 147 194 243 293 351
#     4  10  21  38  60  88 118 150 192 241 293 350
#     4   9  18  35  56  82 115 146 186 241 295 349
#     4  11  22  38  59  86 118 154 198 245 293 352
#     4  11  24  40  58  85 121 158 198 243 292 351
#     4  10  23  42  62  87 120 156 196 242 294 352
#     4  11  23  37  54  80 117 159 199 242 297 356
#     4  11  23  41  65  91 120 156 198 248 302 356
#
# _framework density 20.015823000000001
#
# number of rings (size 3 to 8) (size 9 to 14) (size 15 to 20)
#    0.000    1.625    1.250    3.375    0.000    9.250 
#    0.000    0.625    0.000    0.750    0.000    0.000 
#    0.000    0.000    0.000    0.000    0.000    0.000 
#
# Total GULP energy -793854.432691 kJ/mol
# GULP energy per Si atom -12403.975511 kJ/mol
# Density = 1.997027 g / cm^3
# Si number density = 20.015823 Si / 1000 Ang^3
#
#
#
# Elastic Constant Matrix: (Units=GPa)
#
#
# Indices 1 2 3 4 5 6 
#
# 1 79.1249 37.0942 45.1946 0.0000 0.0000 0.0000
# 2 37.0942 60.9735 28.6312 0.0000 0.0000 0.0000
# 3 45.1946 28.6312 133.6091 0.0000 0.0000 0.0000
# 4 0.0000 0.0000 0.0000 39.9837 0.0000 0.0000
# 5 0.0000 0.0000 0.0000 0.0000 21.6805 0.0000
# 6 0.0000 0.0000 0.0000 0.0000 0.0000 28.2818
#
#
#
# Elastic Compliance Matrix: (Units=1/GPa)
#
#
# Indices 1 2 3 4 5 6 
#
# 1 0.019945 -0.009969 -0.004610 0.000000 0.000000 0.000000
# 2 -0.009969 0.023218 -0.001603 0.000000 0.000000 0.000000
# 3 -0.004610 -0.001603 0.009388 0.000000 0.000000 0.000000
# 4 0.000000 0.000000 0.000000 0.025010 0.000000 0.000000
# 5 0.000000 0.000000 0.000000 0.000000 0.046124 0.000000
# 6 0.000000 0.000000 0.000000 0.000000 0.000000 0.035358
#
#
# Mechanical properties :
#
#
# Convention : Reuss Voigt Hill
#
# Bulk Modulus (GPa) = 49.54049 55.06084 52.30067
# Shear Modulus (GPa) = 25.23494 28.84171 27.03832
#
# Velocity S-wave (km/s) = 3.55456 3.80010 3.67938
# Velocity P-wave (km/s) = 6.45375 6.84271 6.65107
#
# Compressibility (1/GPa) = 0.02018551
#
# Stress axis : x y z
#
# Youngs Moduli (GPa) = 50.13747 43.06949 106.52353
#
# Poissons Ratio (x) = 0.42936 0.49111
# Poissons Ratio (y) = 0.49982 0.17079
# Poissons Ratio (z) = 0.23115 0.06905
#
# Static dielectric constant tensor:
#      x y z
#    x 3.564680 0.000000 0.000000 
#    y 0.000000 3.615000 0.000000 
#    z 0.000000 0.000000 3.849550 
# 
# 
# High freq. dielectric constant tensor:
#      x y z
#    x 1.769500 0.000000 0.000000 
#    y 0.000000 1.782780 0.000000 
#    z 0.000000 0.000000 1.792040 
# 
# From -- ./inp_files/28138.got.cif
#   From: 2010.03.12/outbox.cif.g09.slc.cpg/sg59_15_cif.got.tgz:28138.got - 2010.04.16 16:29:54.
