data_PCOD8241153
_publ_section_title
;
Structure prediction by ZEFSAII (Michael W. Deem and Ramdas Pophale) SiO2 
 PCOD8241153
Probable space group: P M M N
;
_chemical_formula_sum "Si O2"
_cell_formula_units_Z 40
_cell_length_a 21.098243
_cell_length_b 9.281602
_cell_length_c 11.554784
_cell_angle_alpha 90.000000
_cell_angle_beta 90.000000
_cell_angle_gamma 90.000000
_cell_volume 2262.721290
_symmetry_space_group_name_H-M "P M M N"
_symmetry_group_IT_number 59
_space_group.IT_coordinate_system_code '2'
_symmetry_cell_setting 'orthorhombic'
loop_
_space_group_symop_operation_xyz
x,y,z
1/2-x,1/2-y,z
1/2+x,-y,-z
-x,1/2+y,-z
-x,-y,-z
1/2+x,1/2+y,-z
1/2-x,y,z
x,1/2-y,z
loop_
_atom_site_type_symbol
_atom_site_label
_atom_site_fract_x
_atom_site_fract_y
_atom_site_fract_z
Si Si1 0.554129 0.082510 0.929762
Si Si2 0.176053 0.089863 0.706520
Si Si3 0.822117 0.417717 0.065549
Si Si4 0.089372 0.916175 0.562196
Si Si5 0.523310 0.415481 0.670738
O O1 0.540865 0.250000 0.950270
O O2 0.551459 0.041519 0.794726
O O3 0.625879 0.042223 0.968431
O O4 0.500000 0.000000 0.000000
O O5 0.250000 0.100253 0.692674
O O6 0.146100 0.250000 0.711828
O O7 0.156772 0.006439 0.822393
O O8 0.152253 0.003676 0.594142
O O9 0.750000 0.458565 0.025142
O O10 0.824942 0.250000 0.097783
O O11 0.097806 0.750000 0.594199
O O12 0.077282 0.938713 0.426081
O O13 0.034141 0.979102 0.643002
O O14 0.499593 0.250000 0.668191
#
# Coordination Sequence:
#
# PCOD8241153 Si02
#       5
#     8   8   8   8   8
#     4  10  20  33  50  74 101 129 163 202 245 291
#     4  10  20  33  50  72  98 128 161 199 244 290
#     4   9  18  33  52  73  98 128 163 203 245 292
#     4  10  19  32  51  73  97 127 163 201 241 286
#     4   9  19  34  50  71 100 130 159 196 244 293
#
# _framework density 17.677828000000002
#
# number of rings (size 3 to 8) (size 9 to 14) (size 15 to 20)
#    0.000    2.400    0.000    2.400    0.000    6.800 
#    0.000    1.000    0.000    3.600    0.000    2.800 
#    0.000    0.000    0.000    0.000    0.000    0.000 
#
# Total GULP energy -495927.489860 kJ/mol
# GULP energy per Si atom -12398.187246 kJ/mol
# Density = 1.763759 g / cm^3
# Si number density = 17.677828 Si / 1000 Ang^3
#
#
#
# Elastic Constant Matrix: (Units=GPa)
#
#
# Indices 1 2 3 4 5 6 
#
# 1 73.3203 36.7484 63.4022 0.0000 0.0000 0.0000
# 2 36.7484 88.5127 58.3537 0.0000 0.0000 0.0000
# 3 63.4022 58.3537 134.0188 0.0000 0.0000 0.0000
# 4 0.0000 0.0000 0.0000 22.6554 0.0000 0.0000
# 5 0.0000 0.0000 0.0000 0.0000 30.7279 0.0000
# 6 0.0000 0.0000 0.0000 0.0000 0.0000 29.4005
#
#
#
# Elastic Compliance Matrix: (Units=1/GPa)
#
#
# Indices 1 2 3 4 5 6 
#
# 1 0.023809 -0.003449 -0.009762 0.000000 0.000000 0.000000
# 2 -0.003449 0.016346 -0.005486 0.000000 0.000000 0.000000
# 3 -0.009762 -0.005486 0.014468 0.000000 0.000000 0.000000
# 4 0.000000 0.000000 0.000000 0.044140 0.000000 0.000000
# 5 0.000000 0.000000 0.000000 0.000000 0.032544 0.000000
# 6 0.000000 0.000000 0.000000 0.000000 0.000000 0.034013
#
#
# Mechanical properties :
#
#
# Convention : Reuss Voigt Hill
#
# Bulk Modulus (GPa) = 58.03760 68.09561 63.06660
# Shear Modulus (GPa) = 23.98582 25.71326 24.84954
#
# Velocity S-wave (km/s) = 3.68751 3.81799 3.75332
# Velocity P-wave (km/s) = 7.14369 7.61840 7.38486
#
# Compressibility (1/GPa) = 0.01723021
#
# Stress axis : x y z
#
# Youngs Moduli (GPa) = 42.00128 61.17556 69.11667
#
# Poissons Ratio (x) = 0.21101 0.67470
# Poissons Ratio (y) = 0.14487 0.37915
# Poissons Ratio (z) = 0.41000 0.33559
#
# Static dielectric constant tensor:
#      x y z
#    x 3.338700 0.000000 0.000000 
#    y 0.000000 3.540140 0.000000 
#    z 0.000000 0.000000 3.370100 
# 
# 
# High freq. dielectric constant tensor:
#      x y z
#    x 1.680140 0.000000 0.000000 
#    y 0.000000 1.691630 0.000000 
#    z 0.000000 0.000000 1.676520 
# 
# From -- ./inp_files/14033.got.cif
#   From: 2010.03.12/outbox.cif.g09.slc.cpg/sg59_8_cif.got.tgz:14033.got - 2010.04.16 16:29:54.
