data_PCOD8241721
_publ_section_title
;
Structure prediction by ZEFSAII (Michael W. Deem and Ramdas Pophale) SiO2 
 PCOD8241721
Probable space group: P M M N
;
_chemical_formula_sum "Si O2"
_cell_formula_units_Z 56
_cell_length_a 9.190082
_cell_length_b 16.578934
_cell_length_c 19.593530
_cell_angle_alpha 90.000000
_cell_angle_beta 90.000000
_cell_angle_gamma 90.000000
_cell_volume 2985.304773
_symmetry_space_group_name_H-M "P M M N"
_symmetry_group_IT_number 59
_space_group.IT_coordinate_system_code '2'
_symmetry_cell_setting 'orthorhombic'
loop_
_space_group_symop_operation_xyz
x,y,z
1/2-x,1/2-y,z
1/2+x,-y,-z
-x,1/2+y,-z
-x,-y,-z
1/2+x,1/2+y,-z
1/2-x,y,z
x,1/2-y,z
loop_
_atom_site_type_symbol
_atom_site_label
_atom_site_fract_x
_atom_site_fract_y
_atom_site_fract_z
Si Si1 0.077857 0.157100 0.015161
Si Si2 0.420665 0.898232 0.116141
Si Si3 0.421018 0.423383 0.152621
Si Si4 0.580943 0.655161 0.709418
Si Si5 0.078711 0.750000 0.208691
Si Si6 0.081378 0.103616 0.552820
Si Si7 0.420147 0.250000 0.648595
Si Si8 0.080207 0.578664 0.582785
O O1 0.250000 0.145467 0.009413
O O2 0.031831 0.250000 0.009767
O O3 0.015854 0.122015 0.086234
O O4 0.004041 0.107183 0.954969
O O5 0.250000 0.891642 0.100596
O O6 0.472933 0.828364 0.167106
O O7 0.462234 0.982562 0.151261
O O8 0.250000 0.409488 0.152644
O O9 0.484108 0.384231 0.221560
O O10 0.750000 0.633107 0.699005
O O11 0.556948 0.750000 0.714027
O O12 0.491049 0.619692 0.647470
O O13 0.250000 0.750000 0.220396
O O14 0.004070 0.750000 0.281168
O O15 0.250000 0.112704 0.532576
O O16 0.033392 0.170725 0.606960
O O17 0.988315 0.117310 0.484913
O O18 0.048562 0.016810 0.585867
O O19 0.250000 0.250000 0.664507
O O20 0.250000 0.597967 0.582385
#
# Coordination Sequence:
#
# PCOD8241721 Si02
#       8
#     8   8   8   8   4   8   4   8
#     4  10  19  33  55  81 107 137 179 228 268 312
#     4  10  20  36  55  77 108 144 179 218 268 328
#     4   9  19  35  56  79 105 140 184 226 267 318
#     4  10  21  37  58  81 107 144 185 227 275 327
#     4  10  22  36  52  80 113 144 177 218 273 332
#     4   9  20  39  59  83 112 147 185 223 270 325
#     4  10  22  38  60  84 111 144 185 228 267 316
#     4  10  21  37  58  84 115 145 180 227 274 325
#
# _framework density 18.758552999999999
#
# number of rings (size 3 to 8) (size 9 to 14) (size 15 to 20)
#    0.000    2.286    0.714    1.286    3.000    3.714 
#    0.000    1.429    0.000    1.714    0.000    0.000 
#    0.000    0.000    0.000    0.000    0.000    0.000 
#
# Total GULP energy -694588.793752 kJ/mol
# GULP energy per Si atom -12403.371317 kJ/mol
# Density = 1.871586 g / cm^3
# Si number density = 18.758553 Si / 1000 Ang^3
#
#
#
# Elastic Constant Matrix: (Units=GPa)
#
#
# Indices 1 2 3 4 5 6 
#
# 1 49.3534 36.3317 54.2912 0.0000 0.0000 0.0000
# 2 36.3317 97.6157 66.0319 0.0000 0.0000 0.0000
# 3 54.2912 66.0319 156.6034 0.0000 0.0000 0.0000
# 4 0.0000 0.0000 0.0000 36.2872 0.0000 0.0000
# 5 0.0000 0.0000 0.0000 0.0000 2.6763 0.0000
# 6 0.0000 0.0000 0.0000 0.0000 0.0000 21.0037
#
#
#
# Elastic Compliance Matrix: (Units=1/GPa)
#
#
# Indices 1 2 3 4 5 6 
#
# 1 0.035787 -0.006893 -0.009500 0.000000 0.000000 0.000000
# 2 -0.006893 0.015660 -0.004213 0.000000 0.000000 0.000000
# 3 -0.009500 -0.004213 0.011456 0.000000 0.000000 0.000000
# 4 0.000000 0.000000 0.000000 0.027558 0.000000 0.000000
# 5 0.000000 0.000000 0.000000 0.000000 0.373644 0.000000
# 6 0.000000 0.000000 0.000000 0.000000 0.000000 0.047611
#
#
# Mechanical properties :
#
#
# Convention : Reuss Voigt Hill
#
# Bulk Modulus (GPa) = 46.10569 68.54245 57.32407
# Shear Modulus (GPa) = 8.92606 21.78797 15.35701
#
# Velocity S-wave (km/s) = 2.18374 3.41177 2.86434
# Velocity P-wave (km/s) = 5.56688 7.22072 6.44705
#
# Compressibility (1/GPa) = 0.02168930
#
# Stress axis : x y z
#
# Youngs Moduli (GPa) = 27.94298 63.85727 87.29379
#
# Poissons Ratio (x) = 0.44019 0.82930
# Poissons Ratio (y) = 0.19262 0.36779
# Poissons Ratio (z) = 0.26546 0.26905
#
# Static dielectric constant tensor:
#      x y z
#    x 3.348460 0.000000 0.000000 
#    y 0.000000 3.632820 0.000000 
#    z 0.000000 0.000000 3.543930 
# 
# 
# High freq. dielectric constant tensor:
#      x y z
#    x 1.706060 0.000000 0.000000 
#    y 0.000000 1.742910 0.000000 
#    z 0.000000 0.000000 1.738620 
# 
# From -- ./inp_files/29211.got.cif
#   From: 2010.03.12/outbox.cif.g09.slc.cpg/sg59_15_cif.got.tgz:29211.got - 2010.04.16 16:29:54.
