data_PCOD8241980
_publ_section_title
;
Structure prediction by ZEFSAII (Michael W. Deem and Ramdas Pophale) SiO2 
 PCOD8241980
Probable space group: P M M N
;
_chemical_formula_sum "Si O2"
_cell_formula_units_Z 56
_cell_length_a 8.813760
_cell_length_b 18.403781
_cell_length_c 17.731982
_cell_angle_alpha 90.000000
_cell_angle_beta 90.000000
_cell_angle_gamma 90.000000
_cell_volume 2876.242895
_symmetry_space_group_name_H-M "P M M N"
_symmetry_group_IT_number 59
_space_group.IT_coordinate_system_code '2'
_symmetry_cell_setting 'orthorhombic'
loop_
_space_group_symop_operation_xyz
x,y,z
1/2-x,1/2-y,z
1/2+x,-y,-z
-x,1/2+y,-z
-x,-y,-z
1/2+x,1/2+y,-z
1/2-x,y,z
x,1/2-y,z
loop_
_atom_site_type_symbol
_atom_site_label
_atom_site_fract_x
_atom_site_fract_y
_atom_site_fract_z
Si Si1 0.929171 0.921525 0.515616
Si Si2 0.070503 0.584751 0.235334
Si Si3 0.427883 0.930921 0.960258
Si Si4 0.428939 0.075531 0.201111
Si Si5 0.426518 0.835245 0.383706
Si Si6 0.069867 0.331835 0.341133
Si Si7 0.070591 0.830008 0.093084
O O1 0.750000 0.931734 0.518045
O O2 0.989918 0.886590 0.594025
O O3 0.974429 0.864168 0.452212
O O4 0.000000 0.000000 0.500000
O O5 0.250000 0.592062 0.233430
O O6 0.020288 0.501033 0.237314
O O7 0.009245 0.625451 0.309149
O O8 0.000265 0.621385 0.160311
O O9 0.250000 0.944540 0.955184
O O10 0.490726 0.912598 0.878222
O O11 0.470660 0.862390 0.011914
O O12 0.500000 0.000000 0.000000
O O13 0.250000 0.076795 0.186738
O O14 0.481175 0.137828 0.259491
O O15 0.250000 0.853814 0.397704
O O16 0.452703 0.750000 0.374289
O O17 0.250000 0.329148 0.345722
O O18 0.003637 0.250000 0.351470
O O19 0.250000 0.826573 0.103521
O O20 0.998679 0.750000 0.097989
#
# Coordination Sequence:
#
# PCOD8241980 Si02
#       7
#     8   8   8   8   8   8   8
#     4  11  22  38  60  83 112 150 196 242 287 340
#     4   9  16  30  52  79 108 142 183 222 264 324
#     4  11  21  35  55  80 109 142 182 227 276 331
#     4  10  19  34  57  81 106 140 185 230 272 324
#     4  10  20  34  56  86 116 146 183 228 279 337
#     4   9  19  36  58  83 112 150 191 230 278 344
#     4   9  17  30  51  77 103 136 180 225 264 315
#
# _framework density 19.469843999999998
#
# number of rings (size 3 to 8) (size 9 to 14) (size 15 to 20)
#    0.000    2.143    1.429    2.571    0.000    5.429 
#    0.000    3.571    0.000    3.000    0.000    0.000 
#    0.000    0.000    0.000    0.000    0.000    0.000 
#
# Total GULP energy -694342.127606 kJ/mol
# GULP energy per Si atom -12398.966564 kJ/mol
# Density = 1.942553 g / cm^3
# Si number density = 19.469844 Si / 1000 Ang^3
#
#
#
# Elastic Constant Matrix: (Units=GPa)
#
#
# Indices 1 2 3 4 5 6 
#
# 1 39.4025 26.6704 33.5988 0.0000 0.0000 0.0000
# 2 26.6704 133.8928 65.7452 0.0000 0.0000 0.0000
# 3 33.5988 65.7452 166.4633 0.0000 0.0000 0.0000
# 4 0.0000 0.0000 0.0000 37.0854 0.0000 0.0000
# 5 0.0000 0.0000 0.0000 0.0000 30.3757 0.0000
# 6 0.0000 0.0000 0.0000 0.0000 0.0000 20.6228
#
#
#
# Elastic Compliance Matrix: (Units=1/GPa)
#
#
# Indices 1 2 3 4 5 6 
#
# 1 0.032303 -0.004011 -0.004936 0.000000 0.000000 0.000000
# 2 -0.004011 0.009764 -0.003047 0.000000 0.000000 0.000000
# 3 -0.004936 -0.003047 0.008207 0.000000 0.000000 0.000000
# 4 0.000000 0.000000 0.000000 0.026965 0.000000 0.000000
# 5 0.000000 0.000000 0.000000 0.000000 0.032921 0.000000
# 6 0.000000 0.000000 0.000000 0.000000 0.000000 0.048490
#
#
# Mechanical properties :
#
#
# Convention : Reuss Voigt Hill
#
# Bulk Modulus (GPa) = 38.04223 65.75415 51.89819
# Shear Modulus (GPa) = 26.12360 31.86639 28.99500
#
# Velocity S-wave (km/s) = 3.66696 4.05001 3.86324
# Velocity P-wave (km/s) = 6.12456 7.46430 6.82737
#
# Compressibility (1/GPa) = 0.02628658
#
# Stress axis : x y z
#
# Youngs Moduli (GPa) = 30.95712 102.42176 121.84932
#
# Poissons Ratio (x) = 0.41079 0.60144
# Poissons Ratio (y) = 0.12416 0.37123
# Poissons Ratio (z) = 0.15280 0.31204
#
# Static dielectric constant tensor:
#      x y z
#    x 3.197600 0.000000 0.000000 
#    y 0.000000 5.235980 0.000000 
#    z 0.000000 0.000000 4.177110 
# 
# 
# High freq. dielectric constant tensor:
#      x y z
#    x 1.709950 0.000000 0.000000 
#    y 0.000000 1.771530 0.000000 
#    z 0.000000 0.000000 1.775130 
# 
# From -- ./inp_files/21017.got.cif
#   From: 2010.03.12/outbox.cif.g09.slc.cpg/sg59_11_cif.got.tgz:21017.got - 2010.04.16 16:29:54.
