data_PCOD8241254
_publ_section_title
;
Structure prediction by ZEFSAII (Michael W. Deem and Ramdas Pophale) SiO2 
 PCOD8241254
Probable space group: P M M N
;
_chemical_formula_sum "Si O2"
_cell_formula_units_Z 40
_cell_length_a 10.542499
_cell_length_b 21.548094
_cell_length_c 9.052630
_cell_angle_alpha 90.000000
_cell_angle_beta 90.000000
_cell_angle_gamma 90.000000
_cell_volume 2056.492832
_symmetry_space_group_name_H-M "P M M N"
_symmetry_group_IT_number 59
_space_group.IT_coordinate_system_code '2'
_symmetry_cell_setting 'orthorhombic'
loop_
_space_group_symop_operation_xyz
x,y,z
1/2-x,1/2-y,z
1/2+x,-y,-z
-x,1/2+y,-z
-x,-y,-z
1/2+x,1/2+y,-z
1/2-x,y,z
x,1/2-y,z
loop_
_atom_site_type_symbol
_atom_site_label
_atom_site_fract_x
_atom_site_fract_y
_atom_site_fract_z
Si Si1 0.111293 0.017989 0.305066
Si Si2 0.400787 0.131776 0.126696
Si Si3 0.478267 0.095502 0.565971
Si Si4 0.892278 0.320163 0.346199
Si Si5 0.604752 0.817902 0.181998
O O1 0.250000 0.989970 0.284183
O O2 0.072759 0.059073 0.162379
O O3 0.113668 0.064599 0.445662
O O4 0.021444 0.959422 0.325186
O O5 0.250000 0.147290 0.155507
O O6 0.494608 0.172759 0.227592
O O7 0.446253 0.143734 0.959079
O O8 0.591461 0.131083 0.480820
O O9 0.407290 0.145267 0.665878
O O10 0.750000 0.331904 0.279964
O O11 0.901326 0.250000 0.407519
O O12 0.750000 0.805986 0.151011
O O13 0.537359 0.750000 0.192699
#
# Coordination Sequence:
#
# PCOD8241254 Si02
#       5
#     8   8   8   8   8
#     4   9  18  33  52  74 101 135 177 220 259 308
#     4   9  19  36  57  80 106 140 181 221 263 314
#     4  10  19  32  52  75 104 138 175 216 266 316
#     4  10  20  34  52  76 107 142 180 221 267 320
#     4  10  20  34  53  79 109 138 174 222 268 311
#
# _framework density 19.450590999999999
#
# number of rings (size 3 to 8) (size 9 to 14) (size 15 to 20)
#    0.000    2.400    0.000    2.400    0.000    2.800 
#    0.000    3.000    0.000    4.800    0.000    0.000 
#    0.000    0.000    0.000    0.000    0.000    0.000 
#
# Total GULP energy -495555.332594 kJ/mol
# GULP energy per Si atom -12388.883315 kJ/mol
# Density = 1.940632 g / cm^3
# Si number density = 19.450591 Si / 1000 Ang^3
#
#
#
# Elastic Constant Matrix: (Units=GPa)
#
#
# Indices 1 2 3 4 5 6 
#
# 1 59.0983 10.9160 2.4952 0.0000 0.0000 0.0000
# 2 10.9160 78.9117 27.7380 0.0000 0.0000 0.0000
# 3 2.4952 27.7380 71.8324 0.0000 0.0000 0.0000
# 4 0.0000 0.0000 0.0000 25.7508 0.0000 0.0000
# 5 0.0000 0.0000 0.0000 0.0000 20.4365 0.0000
# 6 0.0000 0.0000 0.0000 0.0000 0.0000 15.3906
#
#
#
# Elastic Compliance Matrix: (Units=1/GPa)
#
#
# Indices 1 2 3 4 5 6 
#
# 1 0.017373 -0.002535 0.000376 0.000000 0.000000 0.000000
# 2 -0.002535 0.015033 -0.005717 0.000000 0.000000 0.000000
# 3 0.000376 -0.005717 0.016116 0.000000 0.000000 0.000000
# 4 0.000000 0.000000 0.000000 0.038834 0.000000 0.000000
# 5 0.000000 0.000000 0.000000 0.000000 0.048932 0.000000
# 6 0.000000 0.000000 0.000000 0.000000 0.000000 0.064975
#
#
# Mechanical properties :
#
#
# Convention : Reuss Voigt Hill
#
# Bulk Modulus (GPa) = 30.51694 32.46010 31.48852
# Shear Modulus (GPa) = 21.93575 23.56178 22.74876
#
# Velocity S-wave (km/s) = 3.36187 3.48424 3.42360
# Velocity P-wave (km/s) = 5.54915 5.73684 5.64378
#
# Compressibility (1/GPa) = 0.03276868
#
# Stress axis : x y z
#
# Youngs Moduli (GPa) = 57.55926 66.52220 62.05100
#
# Poissons Ratio (x) = 0.16865 -0.02330
# Poissons Ratio (y) = 0.14593 0.35473
# Poissons Ratio (z) = -0.02161 0.38029
#
# Static dielectric constant tensor:
#      x y z
#    x 3.353310 0.000000 0.000000 
#    y 0.000000 3.714010 0.000000 
#    z 0.000000 0.000000 3.441950 
# 
# 
# High freq. dielectric constant tensor:
#      x y z
#    x 1.737040 0.000000 0.000000 
#    y 0.000000 1.768970 0.000000 
#    z 0.000000 0.000000 1.742200 
# 
# From -- ./inp_files/7344.got.cif
#   From: 2010.03.12/outbox.cif.g09.slc.cpg/sg59_4_cif.got.tgz:7344.got - 2010.04.16 16:29:54.
