data_PCOD8241057
_publ_section_title
;
Structure prediction by ZEFSAII (Michael W. Deem and Ramdas Pophale) SiO2 
 PCOD8241057
Probable space group: P M M N
;
_chemical_formula_sum "Si O2"
_cell_formula_units_Z 64
_cell_length_a 8.873730
_cell_length_b 27.997914
_cell_length_c 14.313627
_cell_angle_alpha 90.000000
_cell_angle_beta 90.000000
_cell_angle_gamma 90.000000
_cell_volume 3556.162363
_symmetry_space_group_name_H-M "P M M N"
_symmetry_group_IT_number 59
_space_group.IT_coordinate_system_code '2'
_symmetry_cell_setting 'orthorhombic'
loop_
_space_group_symop_operation_xyz
x,y,z
1/2-x,1/2-y,z
1/2+x,-y,-z
-x,1/2+y,-z
-x,-y,-z
1/2+x,1/2+y,-z
1/2-x,y,z
x,1/2-y,z
loop_
_atom_site_type_symbol
_atom_site_label
_atom_site_fract_x
_atom_site_fract_y
_atom_site_fract_z
Si Si1 0.418289 0.806091 0.465901
Si Si2 0.071047 0.304320 0.727570
Si Si3 0.419169 0.950744 0.485771
Si Si4 0.572409 0.931639 0.769132
Si Si5 0.573878 0.890427 0.149740
Si Si6 0.569978 0.948545 0.975975
Si Si7 0.572208 0.628683 0.601125
Si Si8 0.082757 0.963496 0.275662
O O1 0.250000 0.827887 0.459745
O O2 0.413074 0.750000 0.473817
O O3 0.506197 0.821405 0.372120
O O4 0.495692 0.823304 0.562462
O O5 0.250000 0.307282 0.719388
O O6 0.019389 0.250000 0.751768
O O7 0.008387 0.340117 0.809242
O O8 0.250000 0.950381 0.529349
O O9 0.528053 0.911399 0.527338
O O10 0.408417 0.940166 0.376517
O O11 0.500000 0.000000 0.500000
O O12 0.750000 0.926617 0.771296
O O13 0.511422 0.887941 0.704100
O O14 0.526295 0.981599 0.720328
O O15 0.510117 0.930634 0.874937
O O16 0.750000 0.883762 0.144810
O O17 0.514960 0.906704 0.047295
O O18 0.536581 0.934037 0.217061
O O19 0.750000 0.954621 0.978166
O O20 0.500000 0.000000 0.000000
O O21 0.750000 0.636052 0.602565
O O22 0.250000 0.961557 0.228679
#
# Coordination Sequence:
#
# PCOD8241057 Si02
#       8
#     8   8   8   8   8   8   8   8
#     4  10  21  37  56  80 107 134 169 212 257 307
#     4   9  18  34  54  76 104 135 165 203 255 310
#     4  11  21  32  46  68 100 136 172 207 251 303
#     4   9  18  33  49  67  97 136 170 206 249 298
#     4  10  20  31  49  77 100 125 166 214 256 298
#     4  10  19  33  51  71  99 133 170 210 253 298
#     4  11  21  35  53  73 100 137 178 212 253 305
#     4  10  19  32  47  66  97 136 169 197 246 303
#
# _framework density 17.996928
#
# number of rings (size 3 to 8) (size 9 to 14) (size 15 to 20)
#    0.000    2.000    2.500    1.875    0.000    4.250 
#    0.000    1.250    0.000    0.750    0.000    3.500 
#    0.000    2.000    0.000    0.000    0.000    0.000 
#
# Total GULP energy -793080.949875 kJ/mol
# GULP energy per Si atom -12391.889842 kJ/mol
# Density = 1.795597 g / cm^3
# Si number density = 17.996928 Si / 1000 Ang^3
#
#
#
# Elastic Constant Matrix: (Units=GPa)
#
#
# Indices 1 2 3 4 5 6 
#
# 1 34.1357 21.2654 24.0480 0.0000 0.0000 0.0000
# 2 21.2654 69.7043 53.9384 0.0000 0.0000 0.0000
# 3 24.0480 53.9384 134.7294 0.0000 0.0000 0.0000
# 4 0.0000 0.0000 0.0000 32.5091 0.0000 0.0000
# 5 0.0000 0.0000 0.0000 0.0000 17.5067 0.0000
# 6 0.0000 0.0000 0.0000 0.0000 0.0000 24.7677
#
#
#
# Elastic Compliance Matrix: (Units=1/GPa)
#
#
# Indices 1 2 3 4 5 6 
#
# 1 0.036999 -0.008950 -0.003021 0.000000 0.000000 0.000000
# 2 -0.008950 0.022951 -0.007591 0.000000 0.000000 0.000000
# 3 -0.003021 -0.007591 0.011000 0.000000 0.000000 0.000000
# 4 0.000000 0.000000 0.000000 0.030761 0.000000 0.000000
# 5 0.000000 0.000000 0.000000 0.000000 0.057121 0.000000
# 6 0.000000 0.000000 0.000000 0.000000 0.000000 0.040375
#
#
# Mechanical properties :
#
#
# Convention : Reuss Voigt Hill
#
# Bulk Modulus (GPa) = 31.42031 48.56366 39.99199
# Shear Modulus (GPa) = 20.08530 24.24452 22.16491
#
# Velocity S-wave (km/s) = 3.34434 3.67433 3.51322
# Velocity P-wave (km/s) = 5.69293 6.71148 6.22308
#
# Compressibility (1/GPa) = 0.03182654
#
# Stress axis : x y z
#
# Youngs Moduli (GPa) = 27.02810 43.57189 90.90596
#
# Poissons Ratio (x) = 0.38997 0.27461
# Poissons Ratio (y) = 0.24190 0.69004
# Poissons Ratio (z) = 0.08165 0.33074
#
# Static dielectric constant tensor:
#      x y z
#    x 3.260820 0.000000 0.000000 
#    y 0.000000 3.266590 0.000000 
#    z 0.000000 0.000000 3.739130 
# 
# 
# High freq. dielectric constant tensor:
#      x y z
#    x 1.685330 0.000000 0.000000 
#    y 0.000000 1.685120 0.000000 
#    z 0.000000 0.000000 1.692050 
# 
# From -- ./inp_files/21965.got.cif
#   From: 2010.03.12/outbox.cif.g09.slc.cpg/sg59_11_cif.got.tgz:21965.got - 2010.04.16 16:29:54.
