data_PCOD8241007
_publ_section_title
;
Structure prediction by ZEFSAII (Michael W. Deem and Ramdas Pophale) SiO2 
 PCOD8241007
Probable space group: P M M N
;
_chemical_formula_sum "Si O2"
_cell_formula_units_Z 40
_cell_length_a 8.943220
_cell_length_b 10.191607
_cell_length_c 24.328997
_cell_angle_alpha 90.000000
_cell_angle_beta 90.000000
_cell_angle_gamma 90.000000
_cell_volume 2217.485495
_symmetry_space_group_name_H-M "P M M N"
_symmetry_group_IT_number 59
_space_group.IT_coordinate_system_code '2'
_symmetry_cell_setting 'orthorhombic'
loop_
_space_group_symop_operation_xyz
x,y,z
1/2-x,1/2-y,z
1/2+x,-y,-z
-x,1/2+y,-z
-x,-y,-z
1/2+x,1/2+y,-z
1/2-x,y,z
x,1/2-y,z
loop_
_atom_site_type_symbol
_atom_site_label
_atom_site_fract_x
_atom_site_fract_y
_atom_site_fract_z
Si Si1 0.073225 0.597933 0.043134
Si Si2 0.074750 0.902450 0.264602
Si Si3 0.073886 0.250000 0.553834
Si Si4 0.417680 0.405266 0.845039
Si Si5 0.923933 0.250000 0.436599
Si Si6 0.074187 0.009499 0.627405
O O1 0.250000 0.580450 0.041934
O O2 0.028849 0.750000 0.030791
O O3 0.013566 0.551871 0.102359
O O4 0.000000 0.500000 0.000000
O O5 0.250000 0.924505 0.258407
O O6 0.034821 0.750000 0.273778
O O7 0.996897 0.959219 0.209794
O O8 0.012881 0.984718 0.315464
O O9 0.250000 0.250000 0.547585
O O10 0.017633 0.123449 0.586941
O O11 0.008050 0.250000 0.493641
O O12 0.250000 0.463505 0.849509
O O13 0.412051 0.250000 0.841598
O O14 0.750000 0.250000 0.450439
O O15 0.970955 0.374764 0.401168
O O16 0.250000 0.021569 0.639478
#
# Coordination Sequence:
#
# PCOD8241007 Si02
#       6
#     8   8   4   8   4   8
#     4  10  20  34  54  81 113 147 184 225 269 319
#     4  10  19  31  51  79 105 131 170 219 262 305
#     4  10  20  34  54  76 100 132 171 210 251 304
#     4   9  17  30  51  78 107 140 176 218 267 314
#     4  10  22  36  52  74 104 136 167 206 255 308
#     4  10  20  35  53  75 102 134 169 208 256 308
#
# _framework density 18.038447999999999
#
# number of rings (size 3 to 8) (size 9 to 14) (size 15 to 20)
#    0.000    2.200    1.000    2.400    0.000    6.000 
#    0.000    0.000    2.200    0.000    0.000    0.000 
#    0.000    0.000    0.000    0.000    0.000    0.000 
#
# Total GULP energy -496075.020454 kJ/mol
# GULP energy per Si atom -12401.875511 kJ/mol
# Density = 1.799739 g / cm^3
# Si number density = 18.038448 Si / 1000 Ang^3
#
#
#
# Elastic Constant Matrix: (Units=GPa)
#
#
# Indices 1 2 3 4 5 6 
#
# 1 86.3896 38.4391 69.8266 0.0000 0.0000 0.0000
# 2 38.4391 95.8507 65.2947 0.0000 0.0000 0.0000
# 3 69.8266 65.2947 177.4334 0.0000 0.0000 0.0000
# 4 0.0000 0.0000 0.0000 21.8020 0.0000 0.0000
# 5 0.0000 0.0000 0.0000 0.0000 43.1070 0.0000
# 6 0.0000 0.0000 0.0000 0.0000 0.0000 11.3448
#
#
#
# Elastic Compliance Matrix: (Units=1/GPa)
#
#
# Indices 1 2 3 4 5 6 
#
# 1 0.017652 -0.003132 -0.005794 0.000000 0.000000 0.000000
# 2 -0.003132 0.014479 -0.004096 0.000000 0.000000 0.000000
# 3 -0.005794 -0.004096 0.009423 0.000000 0.000000 0.000000
# 4 0.000000 0.000000 0.000000 0.045867 0.000000 0.000000
# 5 0.000000 0.000000 0.000000 0.000000 0.023198 0.000000
# 6 0.000000 0.000000 0.000000 0.000000 0.000000 0.088146
#
#
# Mechanical properties :
#
#
# Convention : Reuss Voigt Hill
#
# Bulk Modulus (GPa) = 64.47108 78.53273 71.50190
# Shear Modulus (GPa) = 21.74099 27.65831 24.69965
#
# Velocity S-wave (km/s) = 3.47545 3.91998 3.70439
# Velocity P-wave (km/s) = 7.20580 8.00744 7.61717
#
# Compressibility (1/GPa) = 0.01551083
#
# Stress axis : x y z
#
# Youngs Moduli (GPa) = 56.64924 69.06602 106.11913
#
# Poissons Ratio (x) = 0.21632 0.61489
# Poissons Ratio (y) = 0.17743 0.43462
# Poissons Ratio (z) = 0.32824 0.28287
#
# Static dielectric constant tensor:
#      x y z
#    x 3.296840 0.000000 0.000000 
#    y 0.000000 3.130910 0.000000 
#    z 0.000000 0.000000 3.457210 
# 
# 
# High freq. dielectric constant tensor:
#      x y z
#    x 1.705530 0.000000 0.000000 
#    y 0.000000 1.666790 0.000000 
#    z 0.000000 0.000000 1.713640 
# 
# From -- ./inp_files/28741.got.cif
#   From: 2010.03.12/outbox.cif.g09.slc.cpg/sg59_15_cif.got.tgz:28741.got - 2010.04.16 16:29:54.
