data_PCOD8241505
_publ_section_title
;
Structure prediction by ZEFSAII (Michael W. Deem and Ramdas Pophale) SiO2 
 PCOD8241505
Probable space group: P M M N
;
_chemical_formula_sum "Si O2"
_cell_formula_units_Z 64
_cell_length_a 9.022926
_cell_length_b 23.256542
_cell_length_c 17.984928
_cell_angle_alpha 90.000000
_cell_angle_beta 90.000000
_cell_angle_gamma 90.000000
_cell_volume 3773.994295
_symmetry_space_group_name_H-M "P M M N"
_symmetry_group_IT_number 59
_space_group.IT_coordinate_system_code '2'
_symmetry_cell_setting 'orthorhombic'
loop_
_space_group_symop_operation_xyz
x,y,z
1/2-x,1/2-y,z
1/2+x,-y,-z
-x,1/2+y,-z
-x,-y,-z
1/2+x,1/2+y,-z
1/2-x,y,z
x,1/2-y,z
loop_
_atom_site_type_symbol
_atom_site_label
_atom_site_fract_x
_atom_site_fract_y
_atom_site_fract_z
Si Si1 0.077804 0.876509 0.644242
Si Si2 0.583694 0.181726 0.072188
Si Si3 0.573843 0.186321 0.502492
Si Si4 0.925541 0.109877 0.637862
Si Si5 0.083420 0.318429 0.928191
Si Si6 0.424801 0.183998 0.221930
Si Si7 0.423214 0.001045 0.580223
Si Si8 0.423474 0.684145 0.220287
O O1 0.250000 0.864431 0.660791
O O2 0.019486 0.838514 0.575681
O O3 0.982895 0.858500 0.715009
O O4 0.048710 0.942429 0.624435
O O5 0.750000 0.156883 0.076339
O O6 0.586514 0.250000 0.066853
O O7 0.494378 0.162187 0.144811
O O8 0.504165 0.156116 0.999000
O O9 0.750000 0.187437 0.505828
O O10 0.507761 0.250000 0.512248
O O11 0.514098 0.146991 0.568816
O O12 0.750000 0.099878 0.633306
O O13 0.971521 0.143280 0.712273
O O14 0.008080 0.049188 0.633996
O O15 0.250000 0.342601 0.930100
O O16 0.082361 0.250000 0.931511
O O17 0.006252 0.339250 0.852502
O O18 0.250000 0.178466 0.215092
O O19 0.471935 0.250000 0.239127
O O20 0.250000 0.011776 0.566898
O O21 0.500000 0.000000 0.500000
O O22 0.250000 0.680246 0.204453
O O23 0.467937 0.750000 0.239486
#
# Coordination Sequence:
#
# PCOD8241505 Si02
#       8
#     8   8   8   8   8   8   8   8
#     4  10  20  34  51  70  93 127 169 205 242 291
#     4   9  16  27  45  68  96 132 170 201 234 285
#     4   9  16  28  48  71  95 125 161 198 238 290
#     4  10  19  33  51  73  98 127 165 207 251 292
#     4   9  16  26  42  66  99 135 167 201 243 288
#     4  10  20  32  47  72 105 133 159 198 249 297
#     4  11  22  37  55  73  93 123 166 213 254 294
#     4   9  17  29  47  72 102 134 168 204 242 293
#
# _framework density 16.958158999999998
#
# number of rings (size 3 to 8) (size 9 to 14) (size 15 to 20)
#    0.000    2.375    1.250    2.250    0.000    7.250 
#    0.000    0.000    0.000    1.125    0.000    0.875 
#    0.000    0.000    0.000    0.000    0.000    0.000 
#
# Total GULP energy -793626.265813 kJ/mol
# GULP energy per Si atom -12400.410403 kJ/mol
# Density = 1.691956 g / cm^3
# Si number density = 16.958159 Si / 1000 Ang^3
#
#
#
# Elastic Constant Matrix: (Units=GPa)
#
#
# Indices 1 2 3 4 5 6 
#
# 1 84.8055 35.1877 64.6720 0.0000 0.0000 0.0000
# 2 35.1877 72.3350 44.1687 0.0000 0.0000 0.0000
# 3 64.6720 44.1687 147.2267 0.0000 0.0000 0.0000
# 4 0.0000 0.0000 0.0000 6.5917 0.0000 0.0000
# 5 0.0000 0.0000 0.0000 0.0000 25.0149 0.0000
# 6 0.0000 0.0000 0.0000 0.0000 0.0000 22.0833
#
#
#
# Elastic Compliance Matrix: (Units=1/GPa)
#
#
# Indices 1 2 3 4 5 6 
#
# 1 0.019165 -0.005120 -0.006882 0.000000 0.000000 0.000000
# 2 -0.005120 0.018293 -0.003239 0.000000 0.000000 0.000000
# 3 -0.006882 -0.003239 0.010787 0.000000 0.000000 0.000000
# 4 0.000000 0.000000 0.000000 0.151707 0.000000 0.000000
# 5 0.000000 0.000000 0.000000 0.000000 0.039976 0.000000
# 6 0.000000 0.000000 0.000000 0.000000 0.000000 0.045283
#
#
# Mechanical properties :
#
#
# Convention : Reuss Voigt Hill
#
# Bulk Modulus (GPa) = 56.30028 65.82491 61.06259
# Shear Modulus (GPa) = 15.54658 21.42723 18.48691
#
# Velocity S-wave (km/s) = 3.03109 3.55848 3.30532
# Velocity P-wave (km/s) = 6.74697 7.46887 7.11708
#
# Compressibility (1/GPa) = 0.01776190
#
# Stress axis : x y z
#
# Youngs Moduli (GPa) = 52.17965 54.66566 92.70364
#
# Poissons Ratio (x) = 0.27990 0.63801
# Poissons Ratio (y) = 0.26717 0.30025
# Poissons Ratio (z) = 0.35911 0.17705
#
# Static dielectric constant tensor:
#      x y z
#    x 3.139920 0.000000 0.000000 
#    y 0.000000 2.968280 0.000000 
#    z 0.000000 0.000000 3.262820 
# 
# 
# High freq. dielectric constant tensor:
#      x y z
#    x 1.649900 0.000000 0.000000 
#    y 0.000000 1.616580 0.000000 
#    z 0.000000 0.000000 1.663180 
# 
# From -- ./inp_files/26456.got.cif
#   From: 2010.03.12/outbox.cif.g09.slc.cpg/sg59_14_cif.got.tgz:26456.got - 2010.04.16 16:29:54.
