data_PCOD8241733
_publ_section_title
;
Structure prediction by ZEFSAII (Michael W. Deem and Ramdas Pophale) SiO2 
 PCOD8241733
Probable space group: P M M N
;
_chemical_formula_sum "Si O2"
_cell_formula_units_Z 48
_cell_length_a 8.627409
_cell_length_b 14.666767
_cell_length_c 20.352615
_cell_angle_alpha 90.000000
_cell_angle_beta 90.000000
_cell_angle_gamma 90.000000
_cell_volume 2575.342514
_symmetry_space_group_name_H-M "P M M N"
_symmetry_group_IT_number 59
_space_group.IT_coordinate_system_code '2'
_symmetry_cell_setting 'orthorhombic'
loop_
_space_group_symop_operation_xyz
x,y,z
1/2-x,1/2-y,z
1/2+x,-y,-z
-x,1/2+y,-z
-x,-y,-z
1/2+x,1/2+y,-z
1/2-x,y,z
x,1/2-y,z
loop_
_atom_site_type_symbol
_atom_site_label
_atom_site_fract_x
_atom_site_fract_y
_atom_site_fract_z
Si Si1 0.572482 0.549238 0.699746
Si Si2 0.573884 0.250000 0.438809
Si Si3 0.566158 0.058821 0.826101
Si Si4 0.066610 0.559118 0.941270
Si Si5 0.933732 0.056761 0.441557
Si Si6 0.073881 0.250000 0.306732
Si Si7 0.066937 0.250000 0.021618
Si Si8 0.433833 0.250000 0.868664
O O1 0.750000 0.533173 0.682285
O O2 0.518928 0.475607 0.753552
O O3 0.483756 0.528889 0.631798
O O4 0.549075 0.652632 0.730406
O O5 0.750000 0.250000 0.461182
O O6 0.496537 0.343853 0.462142
O O7 0.560483 0.250000 0.360296
O O8 0.750000 0.055256 0.838096
O O9 0.505536 0.161339 0.834352
O O10 0.481938 0.989520 0.874613
O O11 0.250000 0.562278 0.947468
O O12 0.001330 0.661373 0.942885
O O13 0.000000 0.500000 0.000000
O O14 0.750000 0.055199 0.442287
O O15 0.000000 0.000000 0.500000
O O16 0.250000 0.250000 0.335962
O O17 0.250000 0.250000 0.030440
O O18 0.019496 0.250000 0.945152
O O19 0.250000 0.250000 0.859502
#
# Coordination Sequence:
#
# PCOD8241733 Si02
#       8
#     8   4   8   8   8   4   4   4
#     4   9  19  35  56  84 114 148 186 227 279 339
#     4   8  16  30  48  74 104 138 177 216 267 324
#     4  11  23  39  61  86 116 153 192 237 290 349
#     4  12  24  39  60  87 116 149 190 238 287 343
#     4  10  19  33  55  81 111 147 186 232 280 333
#     4   8  14  29  53  77 106 139 173 214 264 326
#     4  11  23  40  62  88 116 151 194 244 293 340
#     4  11  23  39  61  83 110 152 198 242 286 342
#
# _framework density 18.638296
#
# number of rings (size 3 to 8) (size 9 to 14) (size 15 to 20)
#    0.000    1.833    1.667    3.000    0.000    3.333 
#    0.000    2.500    0.000    4.000    0.000    0.000 
#    0.000    0.000    0.000    0.000    0.000    0.000 
#
# Total GULP energy -594688.618970 kJ/mol
# GULP energy per Si atom -12389.346229 kJ/mol
# Density = 1.859587 g / cm^3
# Si number density = 18.638296 Si / 1000 Ang^3
#
#
#
# Elastic Constant Matrix: (Units=GPa)
#
#
# Indices 1 2 3 4 5 6 
#
# 1 84.9463 53.2849 48.0313 0.0000 0.0000 0.0000
# 2 53.2849 178.9896 80.8589 0.0000 0.0000 0.0000
# 3 48.0313 80.8589 110.5499 0.0000 0.0000 0.0000
# 4 0.0000 0.0000 0.0000 38.7149 0.0000 0.0000
# 5 0.0000 0.0000 0.0000 0.0000 29.3578 0.0000
# 6 0.0000 0.0000 0.0000 0.0000 0.0000 30.5076
#
#
#
# Elastic Compliance Matrix: (Units=1/GPa)
#
#
# Indices 1 2 3 4 5 6 
#
# 1 0.016306 -0.002470 -0.005278 0.000000 0.000000 0.000000
# 2 -0.002470 0.008718 -0.005304 0.000000 0.000000 0.000000
# 3 -0.005278 -0.005304 0.015218 0.000000 0.000000 0.000000
# 4 0.000000 0.000000 0.000000 0.025830 0.000000 0.000000
# 5 0.000000 0.000000 0.000000 0.000000 0.034063 0.000000
# 6 0.000000 0.000000 0.000000 0.000000 0.000000 0.032779
#
#
# Mechanical properties :
#
#
# Convention : Reuss Voigt Hill
#
# Bulk Modulus (GPa) = 70.72572 82.09287 76.40930
# Shear Modulus (GPa) = 30.53836 32.53676 31.53756
#
# Velocity S-wave (km/s) = 4.05220 4.18268 4.11796
# Velocity P-wave (km/s) = 7.74097 8.21385 7.98091
#
# Compressibility (1/GPa) = 0.01413913
#
# Stress axis : x y z
#
# Youngs Moduli (GPa) = 61.32810 114.70437 65.71194
#
# Poissons Ratio (x) = 0.28331 0.34682
# Poissons Ratio (y) = 0.15147 0.34850
# Poissons Ratio (z) = 0.32369 0.60833
#
# Static dielectric constant tensor:
#      x y z
#    x 3.539550 0.000000 0.000000 
#    y 0.000000 3.792820 0.000000 
#    z 0.000000 0.000000 3.225510 
# 
# 
# High freq. dielectric constant tensor:
#      x y z
#    x 1.731580 0.000000 0.000000 
#    y 0.000000 1.742260 0.000000 
#    z 0.000000 0.000000 1.699930 
# 
# From -- ./inp_files/25686.got.cif
#   From: 2010.03.12/outbox.cif.g09.slc.cpg/sg59_13_cif.got.tgz:25686.got - 2010.04.16 16:29:54.
