data_PCOD8241274
_publ_section_title
;
Structure prediction by ZEFSAII (Michael W. Deem and Ramdas Pophale) SiO2 
 PCOD8241274
Probable space group: P M M N
;
_chemical_formula_sum "Si O2"
_cell_formula_units_Z 64
_cell_length_a 8.748840
_cell_length_b 19.061557
_cell_length_c 21.598701
_cell_angle_alpha 90.000000
_cell_angle_beta 90.000000
_cell_angle_gamma 90.000000
_cell_volume 3601.940037
_symmetry_space_group_name_H-M "P M M N"
_symmetry_group_IT_number 59
_space_group.IT_coordinate_system_code '2'
_symmetry_cell_setting 'orthorhombic'
loop_
_space_group_symop_operation_xyz
x,y,z
1/2-x,1/2-y,z
1/2+x,-y,-z
-x,1/2+y,-z
-x,-y,-z
1/2+x,1/2+y,-z
1/2-x,y,z
x,1/2-y,z
loop_
_atom_site_type_symbol
_atom_site_label
_atom_site_fract_x
_atom_site_fract_y
_atom_site_fract_z
Si Si1 0.432773 0.465676 0.439274
Si Si2 0.070443 0.591348 0.849954
Si Si3 0.427137 0.669981 0.090192
Si Si4 0.926987 0.831503 0.961802
Si Si5 0.581731 0.862764 0.731025
Si Si6 0.432230 0.946280 0.185847
Si Si7 0.583843 0.480024 0.685985
Si Si8 0.926245 0.171960 0.391831
O O1 0.500000 0.500000 0.500000
O O2 0.250000 0.467745 0.439804
O O3 0.499584 0.511748 0.380803
O O4 0.482615 0.384515 0.433285
O O5 0.250000 0.588094 0.840714
O O6 0.029742 0.623000 0.916249
O O7 0.001450 0.642395 0.797219
O O8 0.004969 0.512953 0.847620
O O9 0.250000 0.658024 0.073489
O O10 0.459308 0.750000 0.109448
O O11 0.478408 0.622851 0.148245
O O12 0.527385 0.647610 0.031434
O O13 0.750000 0.849333 0.951168
O O14 0.962598 0.750000 0.950339
O O15 0.750000 0.827758 0.736029
O O16 0.484028 0.823893 0.678715
O O17 0.601564 0.942913 0.713322
O O18 0.250000 0.957250 0.188796
O O19 0.496338 0.937173 0.257452
O O20 0.750000 0.446436 0.673016
O O21 0.750000 0.149435 0.391812
O O22 0.948085 0.250000 0.420767
#
# Coordination Sequence:
#
# PCOD8241274 Si02
#       8
#     8   8   8   8   8   8   8   8
#     4  10  19  32  52  76 104 140 179 215 254 302
#     4  11  21  32  49  73 100 129 165 209 252 294
#     4   9  18  33  53  75  96 121 158 205 256 306
#     4  10  21  36  51  66  90 127 166 203 248 305
#     4   9  17  31  49  69  97 131 164 198 242 296
#     4   9  17  32  53  74  99 129 161 202 250 301
#     4   7  13  27  47  70  94 122 155 192 235 284
#     4  10  20  33  50  75 106 137 173 216 256 298
#
# _framework density 17.768201999999999
#
# number of rings (size 3 to 8) (size 9 to 14) (size 15 to 20)
#    0.000    2.625    0.000    4.125    0.000    3.250 
#    0.000    0.625    0.000    0.750    0.000    3.500 
#    0.000    0.000    0.000    0.000    0.000    0.000 
#
# Total GULP energy -793101.077436 kJ/mol
# GULP energy per Si atom -12392.204335 kJ/mol
# Density = 1.772776 g / cm^3
# Si number density = 17.768202 Si / 1000 Ang^3
#
#
#
# Elastic Constant Matrix: (Units=GPa)
#
#
# Indices 1 2 3 4 5 6 
#
# 1 76.1997 30.6789 38.0418 0.0000 0.0000 0.0000
# 2 30.6789 74.4182 64.4238 0.0000 0.0000 0.0000
# 3 38.0418 64.4238 139.3011 0.0000 0.0000 0.0000
# 4 0.0000 0.0000 0.0000 20.7421 0.0000 0.0000
# 5 0.0000 0.0000 0.0000 0.0000 27.5190 0.0000
# 6 0.0000 0.0000 0.0000 0.0000 0.0000 20.3636
#
#
#
# Elastic Compliance Matrix: (Units=1/GPa)
#
#
# Indices 1 2 3 4 5 6 
#
# 1 0.016136 -0.004732 -0.002218 0.000000 0.000000 0.000000
# 2 -0.004732 0.023797 -0.009714 0.000000 0.000000 0.000000
# 3 -0.002218 -0.009714 0.012277 0.000000 0.000000 0.000000
# 4 0.000000 0.000000 0.000000 0.048211 0.000000 0.000000
# 5 0.000000 0.000000 0.000000 0.000000 0.036339 0.000000
# 6 0.000000 0.000000 0.000000 0.000000 0.000000 0.049107
#
#
# Mechanical properties :
#
#
# Convention : Reuss Voigt Hill
#
# Bulk Modulus (GPa) = 52.95783 61.80089 57.37936
# Shear Modulus (GPa) = 22.17412 24.17657 23.17535
#
# Velocity S-wave (km/s) = 3.53649 3.69272 3.61545
# Velocity P-wave (km/s) = 6.82241 7.28278 7.05635
#
# Compressibility (1/GPa) = 0.01888295
#
# Stress axis : x y z
#
# Youngs Moduli (GPa) = 61.97375 42.02174 81.45460
#
# Poissons Ratio (x) = 0.19883 0.18069
# Poissons Ratio (y) = 0.29324 0.79121
# Poissons Ratio (z) = 0.13747 0.40818
#
# Static dielectric constant tensor:
#      x y z
#    x 3.271880 0.000000 0.000000 
#    y 0.000000 3.162860 0.000000 
#    z 0.000000 0.000000 3.577150 
# 
# 
# High freq. dielectric constant tensor:
#      x y z
#    x 1.682550 0.000000 0.000000 
#    y 0.000000 1.662140 0.000000 
#    z 0.000000 0.000000 1.686230 
# 
# From -- ./inp_files/29622.got.cif
#   From: 2010.03.12/outbox.cif.g09.slc.cpg/sg59_15_cif.got.tgz:29622.got - 2010.04.16 16:29:54.
