data_PCOD8241014
_publ_section_title
;
Structure prediction by ZEFSAII (Michael W. Deem and Ramdas Pophale) SiO2 
 PCOD8241014
Probable space group: P M M N
;
_chemical_formula_sum "Si O2"
_cell_formula_units_Z 64
_cell_length_a 9.123939
_cell_length_b 26.630730
_cell_length_c 12.180176
_cell_angle_alpha 90.000000
_cell_angle_beta 90.000000
_cell_angle_gamma 90.000000
_cell_volume 2959.504525
_symmetry_space_group_name_H-M "P M M N"
_symmetry_group_IT_number 59
_space_group.IT_coordinate_system_code '2'
_symmetry_cell_setting 'orthorhombic'
loop_
_space_group_symop_operation_xyz
x,y,z
1/2-x,1/2-y,z
1/2+x,-y,-z
-x,1/2+y,-z
-x,-y,-z
1/2+x,1/2+y,-z
1/2-x,y,z
x,1/2-y,z
loop_
_atom_site_type_symbol
_atom_site_label
_atom_site_fract_x
_atom_site_fract_y
_atom_site_fract_z
Si Si1 0.079811 0.089125 0.235390
Si Si2 0.589522 0.835916 0.270036
Si Si3 0.411663 0.447221 0.814208
Si Si4 0.423034 0.588155 0.983120
Si Si5 0.925749 0.482784 0.386365
Si Si6 0.085477 0.304987 0.313521
Si Si7 0.086211 0.807452 0.468351
Si Si8 0.418924 0.695181 0.069294
O O1 0.250000 0.072748 0.236844
O O2 0.063656 0.149742 0.228094
O O3 0.999779 0.067425 0.127240
O O4 0.997902 0.069690 0.345972
O O5 0.750000 0.811952 0.286575
O O6 0.603467 0.891175 0.225497
O O7 0.509934 0.840162 0.386431
O O8 0.501912 0.801771 0.184719
O O9 0.250000 0.466758 0.851205
O O10 0.470899 0.479380 0.711741
O O11 0.522666 0.447382 0.917298
O O12 0.250000 0.582259 0.970702
O O13 0.470298 0.646982 0.998265
O O14 0.750000 0.478528 0.401849
O O15 0.000000 0.500000 0.500000
O O16 0.250000 0.307153 0.362552
O O17 0.058544 0.250000 0.257511
O O18 0.971208 0.313303 0.409563
O O19 0.250000 0.828907 0.466147
O O20 0.079911 0.750000 0.429379
O O21 0.250000 0.687285 0.098514
O O22 0.444298 0.750000 0.010388
#
# Coordination Sequence:
#
# PCOD8241014 Si02
#       8
#     8   8   8   8   8   8   8   8
#     4  11  24  42  65  92 125 162 203 253 307 365
#     4  10  19  31  51  79 112 153 199 246 297 356
#     4   9  21  41  62  86 120 159 200 248 301 358
#     4  10  21  38  62  91 121 159 208 255 306 364
#     4  11  25  45  68  96 127 161 203 252 309 371
#     4   9  20  39  60  83 115 158 205 249 296 355
#     4  10  20  32  48  75 111 151 196 246 301 359
#     4   9  18  33  52  79 118 159 200 249 303 359
#
# _framework density 21.625242
#
# number of rings (size 3 to 8) (size 9 to 14) (size 15 to 20)
#    0.000    2.125    0.000    2.250    1.750    6.500 
#    0.000    0.000    0.000    0.000    0.000    0.000 
#    0.000    0.000    0.000    0.000    0.000    0.000 
#
# Total GULP energy -793301.790884 kJ/mol
# GULP energy per Si atom -12395.340483 kJ/mol
# Density = 2.157602 g / cm^3
# Si number density = 21.625242 Si / 1000 Ang^3
#
#
#
# Elastic Constant Matrix: (Units=GPa)
#
#
# Indices 1 2 3 4 5 6 
#
# 1 126.9251 26.5103 62.7973 0.0000 0.0000 0.0000
# 2 26.5103 62.8076 34.1742 0.0000 0.0000 0.0000
# 3 62.7973 34.1742 115.5184 0.0000 0.0000 0.0000
# 4 0.0000 0.0000 0.0000 20.5234 0.0000 0.0000
# 5 0.0000 0.0000 0.0000 0.0000 37.6160 0.0000
# 6 0.0000 0.0000 0.0000 0.0000 0.0000 25.9074
#
#
#
# Elastic Compliance Matrix: (Units=1/GPa)
#
#
# Indices 1 2 3 4 5 6 
#
# 1 0.010918 -0.001643 -0.005449 0.000000 0.000000 0.000000
# 2 -0.001643 0.019224 -0.004794 0.000000 0.000000 0.000000
# 3 -0.005449 -0.004794 0.013037 0.000000 0.000000 0.000000
# 4 0.000000 0.000000 0.000000 0.048725 0.000000 0.000000
# 5 0.000000 0.000000 0.000000 0.000000 0.026584 0.000000
# 6 0.000000 0.000000 0.000000 0.000000 0.000000 0.038599
#
#
# Mechanical properties :
#
#
# Convention : Reuss Voigt Hill
#
# Bulk Modulus (GPa) = 51.52951 61.35719 56.44335
# Shear Modulus (GPa) = 26.69127 28.92730 27.80928
#
# Velocity S-wave (km/s) = 3.51702 3.66138 3.58992
# Velocity P-wave (km/s) = 6.35395 6.80506 6.58337
#
# Compressibility (1/GPa) = 0.01940636
#
# Stress axis : x y z
#
# Youngs Moduli (GPa) = 91.59350 52.01948 76.70601
#
# Poissons Ratio (x) = 0.08549 0.41796
# Poissons Ratio (y) = 0.15053 0.36769
# Poissons Ratio (z) = 0.49908 0.24936
#
# Static dielectric constant tensor:
#      x y z
#    x 4.094530 0.000000 0.000000 
#    y 0.000000 4.057540 0.000000 
#    z 0.000000 0.000000 3.643110 
# 
# 
# High freq. dielectric constant tensor:
#      x y z
#    x 1.855660 0.000000 0.000000 
#    y 0.000000 1.853800 0.000000 
#    z 0.000000 0.000000 1.832790 
# 
# From -- ./inp_files/14872.got.cif
#   From: 2010.03.12/outbox.cif.g09.slc.cpg/sg59_8_cif.got.tgz:14872.got - 2010.04.16 16:29:54.
