data_PCOD8241317
_publ_section_title
;
Structure prediction by ZEFSAII (Michael W. Deem and Ramdas Pophale) SiO2 
 PCOD8241317
Probable space group: P M M N
;
_chemical_formula_sum "Si O2"
_cell_formula_units_Z 48
_cell_length_a 9.040954
_cell_length_b 21.729536
_cell_length_c 12.360600
_cell_angle_alpha 90.000000
_cell_angle_beta 90.000000
_cell_angle_gamma 90.000000
_cell_volume 2428.310763
_symmetry_space_group_name_H-M "P M M N"
_symmetry_group_IT_number 59
_space_group.IT_coordinate_system_code '2'
_symmetry_cell_setting 'orthorhombic'
loop_
_space_group_symop_operation_xyz
x,y,z
1/2-x,1/2-y,z
1/2+x,-y,-z
-x,1/2+y,-z
-x,-y,-z
1/2+x,1/2+y,-z
1/2-x,y,z
x,1/2-y,z
loop_
_atom_site_type_symbol
_atom_site_label
_atom_site_fract_x
_atom_site_fract_y
_atom_site_fract_z
Si Si1 0.579940 0.020410 0.606950
Si Si2 0.078365 0.092033 0.251861
Si Si3 0.073036 0.067582 0.015667
Si Si4 0.916591 0.817780 0.570508
Si Si5 0.575188 0.156151 0.646407
Si Si6 0.578305 0.818266 0.135316
O O1 0.750000 0.022239 0.575308
O O2 0.546409 0.976325 0.706864
O O3 0.500000 0.000000 0.500000
O O4 0.523466 0.085728 0.647184
O O5 0.250000 0.108776 0.248057
O O6 0.015569 0.094656 0.130583
O O7 0.005706 0.139507 0.337803
O O8 0.250000 0.058290 0.014393
O O9 0.021864 0.121989 0.933163
O O10 0.000000 0.000000 0.000000
O O11 0.750000 0.841611 0.542653
O O12 0.909774 0.750000 0.621073
O O13 0.012799 0.814042 0.462391
O O14 0.750000 0.165651 0.648768
O O15 0.507825 0.186914 0.752172
O O16 0.750000 0.828411 0.159851
O O17 0.555070 0.750000 0.079023
#
# Coordination Sequence:
#
# PCOD8241317 Si02
#       6
#     8   8   8   8   8   8
#     4  10  19  32  52  78 108 141 177 218 269 331
#     4   9  18  34  55  79 108 139 175 223 276 327
#     4  10  21  39  62  86 115 149 190 242 293 344
#     4  10  20  34  54  79 108 145 185 223 270 333
#     4  11  22  35  55  83 114 148 186 233 287 340
#     4  10  22  39  59  84 114 154 202 245 287 342
#
# _framework density 19.766826999999999
#
# number of rings (size 3 to 8) (size 9 to 14) (size 15 to 20)
#    0.000    2.000    1.667    2.000    0.000    6.000 
#    0.000    5.000    0.000    0.000    0.000    2.333 
#    0.000    0.000    0.000    0.000    0.000    0.000 
#
# Total GULP energy -594805.718784 kJ/mol
# GULP energy per Si atom -12391.785808 kJ/mol
# Density = 1.972184 g / cm^3
# Si number density = 19.766827 Si / 1000 Ang^3
#
#
#
# Elastic Constant Matrix: (Units=GPa)
#
#
# Indices 1 2 3 4 5 6 
#
# 1 39.9694 28.3806 27.2413 0.0000 0.0000 0.0000
# 2 28.3806 145.4432 48.3271 0.0000 0.0000 0.0000
# 3 27.2413 48.3271 130.1932 0.0000 0.0000 0.0000
# 4 0.0000 0.0000 0.0000 24.4350 0.0000 0.0000
# 5 0.0000 0.0000 0.0000 0.0000 20.4697 0.0000
# 6 0.0000 0.0000 0.0000 0.0000 0.0000 25.5942
#
#
#
# Elastic Compliance Matrix: (Units=1/GPa)
#
#
# Indices 1 2 3 4 5 6 
#
# 1 0.031594 -0.004527 -0.004930 0.000000 0.000000 0.000000
# 2 -0.004527 0.008491 -0.002205 0.000000 0.000000 0.000000
# 3 -0.004930 -0.002205 0.009531 0.000000 0.000000 0.000000
# 4 0.000000 0.000000 0.000000 0.040925 0.000000 0.000000
# 5 0.000000 0.000000 0.000000 0.000000 0.048853 0.000000
# 6 0.000000 0.000000 0.000000 0.000000 0.000000 0.039071
#
#
# Mechanical properties :
#
#
# Convention : Reuss Voigt Hill
#
# Bulk Modulus (GPa) = 38.03390 58.16709 48.10049
# Shear Modulus (GPa) = 23.74703 28.21024 25.97864
#
# Velocity S-wave (km/s) = 3.46982 3.78186 3.62920
# Velocity P-wave (km/s) = 5.94440 6.96854 6.47674
#
# Compressibility (1/GPa) = 0.02629234
#
# Stress axis : x y z
#
# Youngs Moduli (GPa) = 31.65199 117.76554 104.92171
#
# Poissons Ratio (x) = 0.53309 0.51729
# Poissons Ratio (y) = 0.14328 0.23133
# Poissons Ratio (z) = 0.15605 0.25965
#
# Static dielectric constant tensor:
#      x y z
#    x 3.307930 0.000000 0.000000 
#    y 0.000000 3.959430 0.000000 
#    z 0.000000 0.000000 3.565550 
# 
# 
# High freq. dielectric constant tensor:
#      x y z
#    x 1.739550 0.000000 0.000000 
#    y 0.000000 1.793700 0.000000 
#    z 0.000000 0.000000 1.767800 
# 
# From -- ./inp_files/14393.got.cif
#   From: 2010.03.12/outbox.cif.g09.slc.cpg/sg59_8_cif.got.tgz:14393.got - 2010.04.16 16:29:54.
