data_PCOD8241255
_publ_section_title
;
Structure prediction by ZEFSAII (Michael W. Deem and Ramdas Pophale) SiO2 
 PCOD8241255
Probable space group: P M M N
;
_chemical_formula_sum "Si O2"
_cell_formula_units_Z 40
_cell_length_a 9.246445
_cell_length_b 21.165857
_cell_length_c 11.460691
_cell_angle_alpha 90.000000
_cell_angle_beta 90.000000
_cell_angle_gamma 90.000000
_cell_volume 2242.959603
_symmetry_space_group_name_H-M "P M M N"
_symmetry_group_IT_number 59
_space_group.IT_coordinate_system_code '2'
_symmetry_cell_setting 'orthorhombic'
loop_
_space_group_symop_operation_xyz
x,y,z
1/2-x,1/2-y,z
1/2+x,-y,-z
-x,1/2+y,-z
-x,-y,-z
1/2+x,1/2+y,-z
1/2-x,y,z
x,1/2-y,z
loop_
_atom_site_type_symbol
_atom_site_label
_atom_site_fract_x
_atom_site_fract_y
_atom_site_fract_z
Si Si1 0.078805 0.941667 0.564089
Si Si2 0.592517 0.677220 0.194911
Si Si3 0.082226 0.914065 0.063473
Si Si4 0.083590 0.975750 0.826300
Si Si5 0.920319 0.822724 0.460465
O O1 0.250000 0.944193 0.536016
O O2 0.048071 0.946246 0.701679
O O3 0.014179 0.873378 0.531496
O O4 0.000000 0.000000 0.500000
O O5 0.750000 0.644736 0.177479
O O6 0.609690 0.750000 0.171107
O O7 0.478591 0.653712 0.099240
O O8 0.538451 0.665010 0.326213
O O9 0.250000 0.917024 0.086624
O O10 0.042655 0.926199 0.928458
O O11 0.010153 0.962165 0.154410
O O12 0.250000 0.995549 0.836119
O O13 0.750000 0.834421 0.481585
O O14 0.959498 0.750000 0.495843
#
# Coordination Sequence:
#
# PCOD8241255 Si02
#       5
#     8   8   8   8   8
#     4  11  22  35  53  77 105 136 171 211 254 302
#     4   9  18  33  52  73  99 131 162 196 246 299
#     4  10  19  32  52  75  97 125 164 206 244 287
#     4   9  20  36  50  69 101 135 161 195 250 302
#     4   9  19  36  55  75 103 137 170 208 255 303
#
# _framework density 17.833580000000001
#
# number of rings (size 3 to 8) (size 9 to 14) (size 15 to 20)
#    0.000    2.400    0.000    3.600    0.000    8.800 
#    0.000    3.000    0.000    6.000    0.000    0.000 
#    0.000    0.000    0.000    0.000    0.000    0.000 
#
# Total GULP energy -495837.576741 kJ/mol
# GULP energy per Si atom -12395.939419 kJ/mol
# Density = 1.779299 g / cm^3
# Si number density = 17.833580 Si / 1000 Ang^3
#
#
#
# Elastic Constant Matrix: (Units=GPa)
#
#
# Indices 1 2 3 4 5 6 
#
# 1 79.5971 54.0086 57.9541 0.0000 0.0000 0.0000
# 2 54.0086 90.3619 66.9004 0.0000 0.0000 0.0000
# 3 57.9541 66.9004 104.3471 0.0000 0.0000 0.0000
# 4 0.0000 0.0000 0.0000 27.4909 0.0000 0.0000
# 5 0.0000 0.0000 0.0000 0.0000 28.1519 0.0000
# 6 0.0000 0.0000 0.0000 0.0000 0.0000 36.1214
#
#
#
# Elastic Compliance Matrix: (Units=1/GPa)
#
#
# Indices 1 2 3 4 5 6 
#
# 1 0.024139 -0.008570 -0.007912 0.000000 0.000000 0.000000
# 2 -0.008570 0.024108 -0.010697 0.000000 0.000000 0.000000
# 3 -0.007912 -0.010697 0.020836 0.000000 0.000000 0.000000
# 4 0.000000 0.000000 0.000000 0.036376 0.000000 0.000000
# 5 0.000000 0.000000 0.000000 0.000000 0.035522 0.000000
# 6 0.000000 0.000000 0.000000 0.000000 0.000000 0.027684
#
#
# Mechanical properties :
#
#
# Convention : Reuss Voigt Hill
#
# Bulk Modulus (GPa) = 67.91089 70.22579 69.06834
# Shear Modulus (GPa) = 21.93637 24.71569 23.32603
#
# Velocity S-wave (km/s) = 3.51103 3.72682 3.62053
# Velocity P-wave (km/s) = 7.38914 7.61464 7.50274
#
# Compressibility (1/GPa) = 0.01472518
#
# Stress axis : x y z
#
# Youngs Moduli (GPa) = 41.42680 41.47946 47.99334
#
# Poissons Ratio (x) = 0.35546 0.37975
# Poissons Ratio (y) = 0.35501 0.51339
# Poissons Ratio (z) = 0.32779 0.44371
#
# Static dielectric constant tensor:
#      x y z
#    x 3.700580 0.000000 0.000000 
#    y 0.000000 3.308670 0.000000 
#    z 0.000000 0.000000 3.413490 
# 
# 
# High freq. dielectric constant tensor:
#      x y z
#    x 1.695120 0.000000 0.000000 
#    y 0.000000 1.688030 0.000000 
#    z 0.000000 0.000000 1.685430 
# 
# From -- ./inp_files/13865.got.cif
#   From: 2010.03.12/outbox.cif.g09.slc.cpg/sg59_7_cif.got.tgz:13865.got - 2010.04.16 16:29:54.
