data_PCOD8241250
_publ_section_title
;
Structure prediction by ZEFSAII (Michael W. Deem and Ramdas Pophale) SiO2 
 PCOD8241250
Probable space group: P M M N
;
_chemical_formula_sum "Si O2"
_cell_formula_units_Z 64
_cell_length_a 9.109843
_cell_length_b 14.666884
_cell_length_c 25.083424
_cell_angle_alpha 90.000000
_cell_angle_beta 90.000000
_cell_angle_gamma 90.000000
_cell_volume 3351.471795
_symmetry_space_group_name_H-M "P M M N"
_symmetry_group_IT_number 59
_space_group.IT_coordinate_system_code '2'
_symmetry_cell_setting 'orthorhombic'
loop_
_space_group_symop_operation_xyz
x,y,z
1/2-x,1/2-y,z
1/2+x,-y,-z
-x,1/2+y,-z
-x,-y,-z
1/2+x,1/2+y,-z
1/2-x,y,z
x,1/2-y,z
loop_
_atom_site_type_symbol
_atom_site_label
_atom_site_fract_x
_atom_site_fract_y
_atom_site_fract_z
Si Si1 0.082065 0.145556 0.031462
Si Si2 0.413863 0.151370 0.419257
Si Si3 0.575896 0.849141 0.088972
Si Si4 0.576105 0.406716 0.515293
Si Si5 0.076029 0.649799 0.368277
Si Si6 0.923797 0.458655 0.122827
Si Si7 0.075530 0.855016 0.772678
Si Si8 0.077421 0.034051 0.319897
O O1 0.250000 0.112889 0.036040
O O2 0.067057 0.250000 0.049874
O O3 0.021553 0.133888 0.971413
O O4 0.983219 0.083583 0.068760
O O5 0.250000 0.125434 0.439483
O O6 0.412500 0.250000 0.390570
O O7 0.524195 0.161229 0.468934
O O8 0.465705 0.076952 0.376720
O O9 0.750000 0.843350 0.087377
O O10 0.515302 0.750000 0.109782
O O11 0.525402 0.934394 0.125911
O O12 0.500000 0.500000 0.500000
O O13 0.750000 0.416391 0.515403
O O14 0.517081 0.372315 0.572457
O O15 0.250000 0.650861 0.371548
O O16 0.016921 0.750000 0.350426
O O17 0.029104 0.572525 0.325091
O O18 0.750000 0.452043 0.120784
O O19 0.984086 0.402531 0.173409
O O20 0.250000 0.858214 0.769668
O O21 0.020118 0.750000 0.770328
O O22 0.013128 0.914780 0.724915
O O23 0.250000 0.045366 0.307881
#
# Coordination Sequence:
#
# PCOD8241250 Si02
#       8
#     8   8   8   8   8   8   8   8
#     4   9  17  29  47  74 107 138 170 210 253 303
#     4  10  20  34  52  77 107 135 169 214 259 305
#     4   8  15  29  49  74 104 138 173 207 249 304
#     4  11  20  33  53  78 110 143 175 207 250 308
#     4   9  18  34  56  79 104 135 171 209 250 302
#     4  10  19  32  52  75 101 136 174 213 258 306
#     4  10  22  38  53  74 105 134 165 212 265 311
#     4  10  20  37  58  77  99 132 175 216 256 305
#
# _framework density 19.096088000000002
#
# number of rings (size 3 to 8) (size 9 to 14) (size 15 to 20)
#    0.000    2.375    1.250    2.625    0.000    3.250 
#    0.000    0.625    0.000    3.750    0.000    0.000 
#    0.000    0.000    0.000    0.000    0.000    0.000 
#
# Total GULP energy -793119.304941 kJ/mol
# GULP energy per Si atom -12392.489140 kJ/mol
# Density = 1.905262 g / cm^3
# Si number density = 19.096088 Si / 1000 Ang^3
#
#
#
# Elastic Constant Matrix: (Units=GPa)
#
#
# Indices 1 2 3 4 5 6 
#
# 1 24.9297 23.0462 18.8581 0.0000 0.0000 0.0000
# 2 23.0462 173.7771 68.7254 0.0000 0.0000 0.0000
# 3 18.8581 68.7254 78.9443 0.0000 0.0000 0.0000
# 4 0.0000 0.0000 0.0000 32.3101 0.0000 0.0000
# 5 0.0000 0.0000 0.0000 0.0000 26.2461 0.0000
# 6 0.0000 0.0000 0.0000 0.0000 0.0000 22.4071
#
#
#
# Elastic Compliance Matrix: (Units=1/GPa)
#
#
# Indices 1 2 3 4 5 6 
#
# 1 0.049902 -0.002903 -0.009393 0.000000 0.000000 0.000000
# 2 -0.002903 0.008945 -0.007093 0.000000 0.000000 0.000000
# 3 -0.009393 -0.007093 0.021086 0.000000 0.000000 0.000000
# 4 0.000000 0.000000 0.000000 0.030950 0.000000 0.000000
# 5 0.000000 0.000000 0.000000 0.000000 0.038101 0.000000
# 6 0.000000 0.000000 0.000000 0.000000 0.000000 0.044629
#
#
# Mechanical properties :
#
#
# Convention : Reuss Voigt Hill
#
# Bulk Modulus (GPa) = 24.29923 55.43450 39.86686
# Shear Modulus (GPa) = 20.31607 27.32742 23.82175
#
# Velocity S-wave (km/s) = 3.26527 3.78702 3.53578
# Velocity P-wave (km/s) = 5.19310 6.94365 6.13118
#
# Compressibility (1/GPa) = 0.04115356
#
# Stress axis : x y z
#
# Youngs Moduli (GPa) = 20.03921 111.79626 47.42417
#
# Poissons Ratio (x) = 0.32456 0.44547
# Poissons Ratio (y) = 0.05818 0.33640
# Poissons Ratio (z) = 0.18823 0.79303
#
# Static dielectric constant tensor:
#      x y z
#    x 3.264440 0.000000 0.000000 
#    y 0.000000 4.246900 0.000000 
#    z 0.000000 0.000000 3.476850 
# 
# 
# High freq. dielectric constant tensor:
#      x y z
#    x 1.705960 0.000000 0.000000 
#    y 0.000000 1.768480 0.000000 
#    z 0.000000 0.000000 1.720020 
# 
# From -- ./inp_files/31575.got.cif
#   From: 2010.03.12/outbox.cif.g09.slc.cpg/sg59_16_cif.got.tgz:31575.got - 2010.04.16 16:29:54.
