data_PCOD8241943
_publ_section_title
;
Structure prediction by ZEFSAII (Michael W. Deem and Ramdas Pophale) SiO2 
 PCOD8241943
Probable space group: P M M N
;
_chemical_formula_sum "Si O2"
_cell_formula_units_Z 48
_cell_length_a 8.809470
_cell_length_b 31.277271
_cell_length_c 9.032910
_cell_angle_alpha 90.000000
_cell_angle_beta 90.000000
_cell_angle_gamma 90.000000
_cell_volume 2488.893521
_symmetry_space_group_name_H-M "P M M N"
_symmetry_group_IT_number 59
_space_group.IT_coordinate_system_code '2'
_symmetry_cell_setting 'orthorhombic'
loop_
_space_group_symop_operation_xyz
x,y,z
1/2-x,1/2-y,z
1/2+x,-y,-z
-x,1/2+y,-z
-x,-y,-z
1/2+x,1/2+y,-z
1/2-x,y,z
x,1/2-y,z
loop_
_atom_site_type_symbol
_atom_site_label
_atom_site_fract_x
_atom_site_fract_y
_atom_site_fract_z
Si Si1 0.076821 0.250000 0.851615
Si Si2 0.427511 0.996751 0.840495
Si Si3 0.072985 0.409667 0.842304
Si Si4 0.928444 0.250000 0.164044
Si Si5 0.570051 0.912158 0.822257
Si Si6 0.427900 0.331496 0.652033
Si Si7 0.429524 0.667548 0.662362
O O1 0.250000 0.250000 0.906594
O O2 0.040372 0.208524 0.756242
O O3 0.970504 0.250000 0.993229
O O4 0.250000 0.987285 0.853017
O O5 0.507936 0.957390 0.755647
O O6 0.457432 0.043619 0.767790
O O7 0.500000 0.000000 0.000000
O O8 0.250000 0.400714 0.858418
O O9 0.005342 0.373368 0.735529
O O10 0.006721 0.406219 0.009694
O O11 0.750000 0.250000 0.181897
O O12 0.993072 0.292427 0.243241
O O13 0.750000 0.913301 0.816230
O O14 0.509811 0.874909 0.719284
O O15 0.250000 0.335985 0.612218
O O16 0.525484 0.324526 0.506215
O O17 0.250000 0.662365 0.677224
#
# Coordination Sequence:
#
# PCOD8241943 Si02
#       7
#     4   8   8   4   8   8   8
#     4  10  21  36  60  88 110 136 179 224 264 314
#     4   9  16  29  50  78 109 142 180 226 273 321
#     4   8  16  31  53  78 106 138 177 222 268 314
#     4  10  23  40  58  80 110 142 175 216 266 318
#     4  10  19  34  56  81 107 140 180 228 277 322
#     4  10  20  36  55  79 109 142 177 218 265 316
#     4  11  23  38  54  78 110 145 180 218 265 323
#
# _framework density 19.285678999999998
#
# number of rings (size 3 to 8) (size 9 to 14) (size 15 to 20)
#    0.000    2.333    0.000    4.000    0.000    3.333 
#    0.000    5.833    0.000    0.000    0.000    0.000 
#    0.000    0.000    0.000    0.000    0.000    0.000 
#
# Total GULP energy -595047.172463 kJ/mol
# GULP energy per Si atom -12396.816093 kJ/mol
# Density = 1.924178 g / cm^3
# Si number density = 19.285679 Si / 1000 Ang^3
#
#
#
# Elastic Constant Matrix: (Units=GPa)
#
#
# Indices 1 2 3 4 5 6 
#
# 1 59.3136 41.1444 19.6024 0.0000 0.0000 0.0000
# 2 41.1444 171.4638 48.9889 0.0000 0.0000 0.0000
# 3 19.6024 48.9889 78.4440 0.0000 0.0000 0.0000
# 4 0.0000 0.0000 0.0000 3.2901 0.0000 0.0000
# 5 0.0000 0.0000 0.0000 0.0000 27.8723 0.0000
# 6 0.0000 0.0000 0.0000 0.0000 0.0000 22.4520
#
#
#
# Elastic Compliance Matrix: (Units=1/GPa)
#
#
# Indices 1 2 3 4 5 6 
#
# 1 0.020625 -0.004232 -0.002511 0.000000 0.000000 0.000000
# 2 -0.004232 0.007967 -0.003918 0.000000 0.000000 0.000000
# 3 -0.002511 -0.003918 0.015822 0.000000 0.000000 0.000000
# 4 0.000000 0.000000 0.000000 0.303946 0.000000 0.000000
# 5 0.000000 0.000000 0.000000 0.000000 0.035878 0.000000
# 6 0.000000 0.000000 0.000000 0.000000 0.000000 0.044540
#
#
# Mechanical properties :
#
#
# Convention : Reuss Voigt Hill
#
# Bulk Modulus (GPa) = 43.30439 58.74365 51.02402
# Shear Modulus (GPa) = 10.92187 24.02192 17.47189
#
# Velocity S-wave (km/s) = 2.38233 3.53311 3.01317
# Velocity P-wave (km/s) = 5.48363 6.86802 6.21450
#
# Compressibility (1/GPa) = 0.02309235
#
# Stress axis : x y z
#
# Youngs Moduli (GPa) = 48.48518 125.51832 63.20187
#
# Poissons Ratio (x) = 0.53115 0.15872
# Poissons Ratio (y) = 0.20517 0.24762
# Poissons Ratio (z) = 0.12176 0.49178
#
# Static dielectric constant tensor:
#      x y z
#    x 3.443050 0.000000 0.000000 
#    y 0.000000 4.193610 0.000000 
#    z 0.000000 0.000000 3.315800 
# 
# 
# High freq. dielectric constant tensor:
#      x y z
#    x 1.735850 0.000000 0.000000 
#    y 0.000000 1.777940 0.000000 
#    z 0.000000 0.000000 1.725630 
# 
# From -- ./inp_files/6373.got.cif
#   From: 2010.03.12/outbox.cif.g09.slc.cpg/sg59_4_cif.got.tgz:6373.got - 2010.04.16 16:29:54.
