data_PCOD8241061
_publ_section_title
;
Structure prediction by ZEFSAII (Michael W. Deem and Ramdas Pophale) SiO2 
 PCOD8241061
Probable space group: P M M N
;
_chemical_formula_sum "Si O2"
_cell_formula_units_Z 56
_cell_length_a 21.058328
_cell_length_b 9.272117
_cell_length_c 17.837308
_cell_angle_alpha 90.000000
_cell_angle_beta 90.000000
_cell_angle_gamma 90.000000
_cell_volume 3482.828587
_symmetry_space_group_name_H-M "P M M N"
_symmetry_group_IT_number 59
_space_group.IT_coordinate_system_code '2'
_symmetry_cell_setting 'orthorhombic'
loop_
_space_group_symop_operation_xyz
x,y,z
1/2-x,1/2-y,z
1/2+x,-y,-z
-x,1/2+y,-z
-x,-y,-z
1/2+x,1/2+y,-z
1/2-x,y,z
x,1/2-y,z
loop_
_atom_site_type_symbol
_atom_site_label
_atom_site_fract_x
_atom_site_fract_y
_atom_site_fract_z
Si Si1 0.608270 0.413844 0.783052
Si Si2 0.592298 0.417314 0.542357
Si Si3 0.960734 0.583476 0.237947
Si Si4 0.049290 0.416284 0.594957
Si Si5 0.054022 0.584834 0.900608
Si Si6 0.069352 0.585798 0.060816
Si Si7 0.324816 0.415456 0.341424
O O1 0.621932 0.250000 0.756492
O O2 0.535188 0.453983 0.766557
O O3 0.621587 0.432187 0.872809
O O4 0.653768 0.520520 0.738336
O O5 0.609777 0.250000 0.535988
O O6 0.591185 0.484195 0.459072
O O7 0.525311 0.442666 0.582702
O O8 0.645631 0.496539 0.590136
O O9 0.949047 0.750000 0.223203
O O10 0.934559 0.539204 0.319703
O O11 0.921462 0.500278 0.172871
O O12 0.066187 0.250000 0.578921
O O13 0.050343 0.750000 0.876533
O O14 0.984744 0.530813 0.924302
O O15 0.097526 0.563210 0.976167
O O16 0.041361 0.750000 0.066578
O O17 0.250000 0.429629 0.347904
O O18 0.347171 0.250000 0.346127
#
# Coordination Sequence:
#
# PCOD8241061 Si02
#       7
#     8   8   8   8   8   8   8
#     4   9  16  29  45  60  80 112 151 184 217 257
#     4  10  19  32  48  66  85 112 149 184 223 268
#     4   9  16  27  41  60  89 118 143 174 214 260
#     4   9  17  30  46  65  90 117 144 180 223 268
#     4   9  15  22  35  57  82 111 144 173 204 244
#     4   8  15  26  37  52  80 112 141 175 210 247
#     4  11  23  35  46  63  88 116 148 188 230 268
#
# _framework density 16.078886000000001
#
# number of rings (size 3 to 8) (size 9 to 14) (size 15 to 20)
#    0.000    2.714    1.429    2.143    0.000    5.143 
#    0.000    0.000    0.000    0.000    0.000    0.000 
#    0.000    1.143    0.000    7.429    0.000    6.000 
#
# Total GULP energy -693941.768004 kJ/mol
# GULP energy per Si atom -12391.817286 kJ/mol
# Density = 1.604229 g / cm^3
# Si number density = 16.078886 Si / 1000 Ang^3
#
#
#
# Elastic Constant Matrix: (Units=GPa)
#
#
# Indices 1 2 3 4 5 6 
#
# 1 29.0475 30.4590 31.0125 0.0000 0.0000 0.0000
# 2 30.4590 98.6460 75.8894 0.0000 0.0000 0.0000
# 3 31.0125 75.8894 166.8588 0.0000 0.0000 0.0000
# 4 0.0000 0.0000 0.0000 33.0882 0.0000 0.0000
# 5 0.0000 0.0000 0.0000 0.0000 11.3548 0.0000
# 6 0.0000 0.0000 0.0000 0.0000 0.0000 15.4537
#
#
#
# Elastic Compliance Matrix: (Units=1/GPa)
#
#
# Indices 1 2 3 4 5 6 
#
# 1 0.052320 -0.013342 -0.003656 0.000000 0.000000 0.000000
# 2 -0.013342 0.018996 -0.006160 0.000000 0.000000 0.000000
# 3 -0.003656 -0.006160 0.009474 0.000000 0.000000 0.000000
# 4 0.000000 0.000000 0.000000 0.030222 0.000000 0.000000
# 5 0.000000 0.000000 0.000000 0.000000 0.088069 0.000000
# 6 0.000000 0.000000 0.000000 0.000000 0.000000 0.064709
#
#
# Mechanical properties :
#
#
# Convention : Reuss Voigt Hill
#
# Bulk Modulus (GPa) = 29.00728 63.25267 46.12997
# Shear Modulus (GPa) = 15.54737 22.45877 19.00307
#
# Velocity S-wave (km/s) = 3.11294 3.74142 3.44156
# Velocity P-wave (km/s) = 5.56779 7.62159 6.67416
#
# Compressibility (1/GPa) = 0.03447411
#
# Stress axis : x y z
#
# Youngs Moduli (GPa) = 19.11297 52.64356 105.55112
#
# Poissons Ratio (x) = 0.70239 0.38590
# Poissons Ratio (y) = 0.25501 0.65016
# Poissons Ratio (z) = 0.06988 0.32427
#
# Static dielectric constant tensor:
#      x y z
#    x 2.416210 0.000000 0.000000 
#    y 0.000000 3.158010 0.000000 
#    z 0.000000 0.000000 3.596740 
# 
# 
# High freq. dielectric constant tensor:
#      x y z
#    x 1.532300 0.000000 0.000000 
#    y 0.000000 1.628700 0.000000 
#    z 0.000000 0.000000 1.644290 
# 
# From -- ./inp_files/28079.got.cif
#   From: 2010.03.12/outbox.cif.g09.slc.cpg/sg59_15_cif.got.tgz:28079.got - 2010.04.16 16:29:54.
