data_PCOD8241724
_publ_section_title
;
Structure prediction by ZEFSAII (Michael W. Deem and Ramdas Pophale) SiO2 
 PCOD8241724
Probable space group: P M M N
;
_chemical_formula_sum "Si O2"
_cell_formula_units_Z 48
_cell_length_a 30.852959
_cell_length_b 8.905328
_cell_length_c 9.123340
_cell_angle_alpha 90.000000
_cell_angle_beta 90.000000
_cell_angle_gamma 90.000000
_cell_volume 2506.689847
_symmetry_space_group_name_H-M "P M M N"
_symmetry_group_IT_number 59
_space_group.IT_coordinate_system_code '2'
_symmetry_cell_setting 'orthorhombic'
loop_
_space_group_symop_operation_xyz
x,y,z
1/2-x,1/2-y,z
1/2+x,-y,-z
-x,1/2+y,-z
-x,-y,-z
1/2+x,1/2+y,-z
1/2-x,y,z
x,1/2-y,z
loop_
_atom_site_type_symbol
_atom_site_label
_atom_site_fract_x
_atom_site_fract_y
_atom_site_fract_z
Si Si1 0.418388 0.574276 0.334912
Si Si2 0.657140 0.570256 0.841934
Si Si3 0.502845 0.926019 0.156996
Si Si4 0.250000 0.416113 0.829771
Si Si5 0.250000 0.086378 0.176915
Si Si6 0.578298 0.078220 0.327542
Si Si7 0.336511 0.576318 0.850174
O O1 0.408684 0.750000 0.313332
O O2 0.378720 0.479677 0.272271
O O3 0.461821 0.523052 0.252886
O O4 0.423878 0.530736 0.503649
O O5 0.658665 0.750000 0.856201
O O6 0.704194 0.507168 0.782275
O O7 0.647115 0.503163 0.001546
O O8 0.503233 0.750000 0.133842
O O9 0.546552 0.972838 0.237274
O O10 0.500000 0.000000 0.000000
O O11 0.250000 0.250000 0.757180
O O12 0.293051 0.505087 0.781258
O O13 0.250000 0.399482 0.002690
O O14 0.250000 0.250000 0.251296
O O15 0.563381 0.250000 0.305964
O O16 0.626956 0.054285 0.272053
O O17 0.327960 0.750000 0.886055
#
# Coordination Sequence:
#
# PCOD8241724 Si02
#       7
#     8   8   8   4   4   8   8
#     4  10  22  39  55  77 110 145 179 221 272 326
#     4  10  19  33  55  81 109 143 182 227 272 320
#     4  11  23  38  59  83 108 139 178 223 272 324
#     4   9  17  31  52  79 110 142 178 224 268 313
#     4   7  14  29  48  73 104 134 170 216 262 301
#     4  10  22  39  57  78 109 144 180 223 270 322
#     4  10  19  33  55  81 108 142 181 223 270 319
#
# _framework density 19.148758000000001
#
# number of rings (size 3 to 8) (size 9 to 14) (size 15 to 20)
#    0.000    2.167    0.000    4.250    0.000    7.333 
#    0.000    2.083    0.000    3.000    0.000    0.000 
#    0.000    0.000    0.000    0.000    0.000    0.000 
#
# Total GULP energy -595147.409669 kJ/mol
# GULP energy per Si atom -12398.904368 kJ/mol
# Density = 1.910517 g / cm^3
# Si number density = 19.148758 Si / 1000 Ang^3
#
#
#
# Elastic Constant Matrix: (Units=GPa)
#
#
# Indices 1 2 3 4 5 6 
#
# 1 143.5827 57.7916 64.1065 0.0000 0.0000 0.0000
# 2 57.7916 85.0554 45.6334 0.0000 0.0000 0.0000
# 3 64.1065 45.6334 116.3991 0.0000 0.0000 0.0000
# 4 0.0000 0.0000 0.0000 24.1393 0.0000 0.0000
# 5 0.0000 0.0000 0.0000 0.0000 8.0870 0.0000
# 6 0.0000 0.0000 0.0000 0.0000 0.0000 35.7674
#
#
#
# Elastic Compliance Matrix: (Units=1/GPa)
#
#
# Indices 1 2 3 4 5 6 
#
# 1 0.010823 -0.005263 -0.003898 0.000000 0.000000 0.000000
# 2 -0.005263 0.017448 -0.003942 0.000000 0.000000 0.000000
# 3 -0.003898 -0.003942 0.012283 0.000000 0.000000 0.000000
# 4 0.000000 0.000000 0.000000 0.041426 0.000000 0.000000
# 5 0.000000 0.000000 0.000000 0.000000 0.123656 0.000000
# 6 0.000000 0.000000 0.000000 0.000000 0.000000 0.027958
#
#
# Mechanical properties :
#
#
# Convention : Reuss Voigt Hill
#
# Bulk Modulus (GPa) = 69.68823 75.56669 72.62746
# Shear Modulus (GPa) = 18.89777 25.43245 22.16511
#
# Velocity S-wave (km/s) = 3.14489 3.64833 3.40593
# Velocity P-wave (km/s) = 7.04693 7.56940 7.31283
#
# Compressibility (1/GPa) = 0.01434962
#
# Stress axis : x y z
#
# Youngs Moduli (GPa) = 92.39569 57.31426 81.41292
#
# Poissons Ratio (x) = 0.30163 0.31731
# Poissons Ratio (y) = 0.48625 0.32091
# Poissons Ratio (z) = 0.36012 0.22592
#
# Static dielectric constant tensor:
#      x y z
#    x 3.964970 0.000000 0.000000 
#    y 0.000000 3.533890 0.000000 
#    z 0.000000 0.000000 3.384210 
# 
# 
# High freq. dielectric constant tensor:
#      x y z
#    x 1.765220 0.000000 0.000000 
#    y 0.000000 1.743290 0.000000 
#    z 0.000000 0.000000 1.724900 
# 
# From -- ./inp_files/13017.got.cif
#   From: 2010.03.12/outbox.cif.g09.slc.cpg/sg59_7_cif.got.tgz:13017.got - 2010.04.16 16:29:54.
