data_PCOD8241230
_publ_section_title
;
Structure prediction by ZEFSAII (Michael W. Deem and Ramdas Pophale) SiO2 
 PCOD8241230
Probable space group: P M M N
;
_chemical_formula_sum "Si O2"
_cell_formula_units_Z 40
_cell_length_a 7.744923
_cell_length_b 9.154349
_cell_length_c 29.345801
_cell_angle_alpha 90.000000
_cell_angle_beta 90.000000
_cell_angle_gamma 90.000000
_cell_volume 2080.609312
_symmetry_space_group_name_H-M "P M M N"
_symmetry_group_IT_number 59
_space_group.IT_coordinate_system_code '2'
_symmetry_cell_setting 'orthorhombic'
loop_
_space_group_symop_operation_xyz
x,y,z
1/2-x,1/2-y,z
1/2+x,-y,-z
-x,1/2+y,-z
-x,-y,-z
1/2+x,1/2+y,-z
1/2-x,y,z
x,1/2-y,z
loop_
_atom_site_type_symbol
_atom_site_label
_atom_site_fract_x
_atom_site_fract_y
_atom_site_fract_z
Si Si1 0.750000 0.424717 0.295687
Si Si2 0.250000 0.425292 0.800893
Si Si3 0.059043 0.422201 0.359235
Si Si4 0.451511 0.092671 0.043166
Si Si5 0.049309 0.423681 0.143646
Si Si6 0.548114 0.412975 0.455451
O O1 0.750000 0.250000 0.286190
O O2 0.750000 0.516546 0.250042
O O3 0.581628 0.478639 0.323389
O O4 0.250000 0.250000 0.802629
O O5 0.424754 0.486114 0.823578
O O6 0.250000 0.464329 0.341263
O O7 0.033697 0.250000 0.363923
O O8 0.033209 0.487596 0.410130
O O9 0.250000 0.115596 0.044866
O O10 0.542183 0.250000 0.036989
O O11 0.504968 0.026455 0.092228
O O12 0.500000 0.000000 0.000000
O O13 0.250000 0.462479 0.154199
O O14 0.020312 0.250000 0.149695
O O15 0.500000 0.500000 0.500000
O O16 0.750000 0.410102 0.447508
O O17 0.474393 0.250000 0.462133
#
# Coordination Sequence:
#
# PCOD8241230 Si02
#       6
#     4   4   8   8   8   8
#     4  10  20  38  60  82 106 142 196 244 283 346
#     4  12  26  40  60  90 122 156 192 244 311 368
#     4   9  17  32  56  82 108 140 183 237 286 329
#     4   9  19  34  53  81 115 149 189 234 283 339
#     4   9  20  41  64  85 115 156 203 249 288 344
#     4  10  19  32  51  79 114 149 187 231 277 332
#
# _framework density 19.225137
#
# number of rings (size 3 to 8) (size 9 to 14) (size 15 to 20)
#    0.000    2.400    1.000    2.700    1.400    3.600 
#    0.000    5.000    0.000    1.200    0.000    0.000 
#    0.000    0.000    0.000    0.000    0.000    0.000 
#
# Total GULP energy -495707.200028 kJ/mol
# GULP energy per Si atom -12392.680001 kJ/mol
# Density = 1.918138 g / cm^3
# Si number density = 19.225137 Si / 1000 Ang^3
#
#
#
# Elastic Constant Matrix: (Units=GPa)
#
#
# Indices 1 2 3 4 5 6 
#
# 1 121.7666 42.0060 79.1905 0.0000 0.0000 0.0000
# 2 42.0060 71.9456 63.7911 0.0000 0.0000 0.0000
# 3 79.1905 63.7911 181.3168 0.0000 0.0000 0.0000
# 4 0.0000 0.0000 0.0000 32.2719 0.0000 0.0000
# 5 0.0000 0.0000 0.0000 0.0000 35.9874 0.0000
# 6 0.0000 0.0000 0.0000 0.0000 0.0000 20.4600
#
#
#
# Elastic Compliance Matrix: (Units=1/GPa)
#
#
# Indices 1 2 3 4 5 6 
#
# 1 0.012028 -0.003437 -0.004044 0.000000 0.000000 0.000000
# 2 -0.003437 0.021183 -0.005952 0.000000 0.000000 0.000000
# 3 -0.004044 -0.005952 0.009375 0.000000 0.000000 0.000000
# 4 0.000000 0.000000 0.000000 0.030987 0.000000 0.000000
# 5 0.000000 0.000000 0.000000 0.000000 0.027788 0.000000
# 6 0.000000 0.000000 0.000000 0.000000 0.000000 0.048876
#
#
# Mechanical properties :
#
#
# Convention : Reuss Voigt Hill
#
# Bulk Modulus (GPa) = 63.60790 82.77821 73.19306
# Shear Modulus (GPa) = 27.42092 30.41328 28.91710
#
# Velocity S-wave (km/s) = 3.78074 3.98169 3.88252
# Velocity P-wave (km/s) = 7.22609 8.01806 7.63235
#
# Compressibility (1/GPa) = 0.01572132
#
# Stress axis : x y z
#
# Youngs Moduli (GPa) = 83.13807 47.20748 106.66247
#
# Poissons Ratio (x) = 0.16225 0.43136
# Poissons Ratio (y) = 0.28574 0.63481
# Poissons Ratio (z) = 0.33622 0.28096
#
# Static dielectric constant tensor:
#      x y z
#    x 3.533680 0.000000 0.000000 
#    y 0.000000 3.152560 0.000000 
#    z 0.000000 0.000000 3.384580 
# 
# 
# High freq. dielectric constant tensor:
#      x y z
#    x 1.760580 0.000000 0.000000 
#    y 0.000000 1.706570 0.000000 
#    z 0.000000 0.000000 1.757420 
# 
# From -- ./inp_files/32382.got.cif
#   From: 2010.03.12/outbox.cif.g09.slc.cpg/sg59_17_cif.got.tgz:32382.got - 2010.04.16 16:29:54.
