data_PCOD8241131
_publ_section_title
;
Structure prediction by ZEFSAII (Michael W. Deem and Ramdas Pophale) SiO2 
 PCOD8241131
Probable space group: P M M N
;
_chemical_formula_sum "Si O2"
_cell_formula_units_Z 64
_cell_length_a 24.050653
_cell_length_b 8.828249
_cell_length_c 16.403712
_cell_angle_alpha 90.000000
_cell_angle_beta 90.000000
_cell_angle_gamma 90.000000
_cell_volume 3482.920665
_symmetry_space_group_name_H-M "P M M N"
_symmetry_group_IT_number 59
_space_group.IT_coordinate_system_code '2'
_symmetry_cell_setting 'orthorhombic'
loop_
_space_group_symop_operation_xyz
x,y,z
1/2-x,1/2-y,z
1/2+x,-y,-z
-x,1/2+y,-z
-x,-y,-z
1/2+x,1/2+y,-z
1/2-x,y,z
x,1/2-y,z
loop_
_atom_site_type_symbol
_atom_site_label
_atom_site_fract_x
_atom_site_fract_y
_atom_site_fract_z
Si Si1 0.313759 0.927710 0.298268
Si Si2 0.405889 0.577328 0.877405
Si Si3 0.976759 0.569351 0.262753
Si Si4 0.942528 0.571309 0.971746
Si Si5 0.380159 0.426605 0.623808
Si Si6 0.085466 0.428946 0.211391
Si Si7 0.313736 0.071811 0.470302
Si Si8 0.687827 0.080437 0.244648
O O1 0.250000 0.968973 0.276346
O O2 0.324515 0.750000 0.292543
O O3 0.353543 0.012763 0.234948
O O4 0.328271 0.982017 0.388909
O O5 0.426798 0.750000 0.888628
O O6 0.451059 0.494460 0.820702
O O7 0.398168 0.494481 0.964013
O O8 0.345274 0.568524 0.839125
O O9 0.977618 0.750000 0.258586
O O10 0.939713 0.512487 0.341244
O O11 0.039094 0.504483 0.270666
O O12 0.945524 0.750000 0.978102
O O13 0.925656 0.519738 0.881325
O O14 0.000000 0.500000 0.000000
O O15 0.384909 0.250000 0.612742
O O16 0.357974 0.491798 0.537504
O O17 0.333306 0.460948 0.690015
O O18 0.082507 0.250000 0.222533
O O19 0.250000 0.038800 0.498350
O O20 0.321686 0.250000 0.454402
O O21 0.750000 0.037919 0.221582
O O22 0.682146 0.250000 0.281517
#
# Coordination Sequence:
#
# PCOD8241131 Si02
#       8
#     8   8   8   8   8   8   8   8
#     4  10  22  40  61  84 108 136 176 224 272 321
#     4  10  19  32  50  74 106 141 179 220 264 314
#     4  10  19  32  52  78 111 145 179 220 266 316
#     4  11  22  35  55  81 107 135 174 221 267 317
#     4   9  18  31  50  79 110 142 181 223 266 315
#     4  11  23  38  58  82 108 140 179 220 271 328
#     4   9  17  32  55  80 108 142 180 223 270 319
#     4   9  18  31  47  70 104 145 182 217 261 313
#
# _framework density 18.375382999999999
#
# number of rings (size 3 to 8) (size 9 to 14) (size 15 to 20)
#    0.000    2.125    1.250    2.250    0.000    4.500 
#    0.000    2.500    0.000    2.250    0.000    0.000 
#    0.000    0.000    0.000    0.000    0.000    0.000 
#
# Total GULP energy -793397.284223 kJ/mol
# GULP energy per Si atom -12396.832566 kJ/mol
# Density = 1.833356 g / cm^3
# Si number density = 18.375383 Si / 1000 Ang^3
#
#
#
# Elastic Constant Matrix: (Units=GPa)
#
#
# Indices 1 2 3 4 5 6 
#
# 1 112.4345 35.9637 61.0598 0.0000 0.0000 0.0000
# 2 35.9637 56.4979 41.3684 0.0000 0.0000 0.0000
# 3 61.0598 41.3684 109.2086 0.0000 0.0000 0.0000
# 4 0.0000 0.0000 0.0000 27.7538 0.0000 0.0000
# 5 0.0000 0.0000 0.0000 0.0000 28.8473 0.0000
# 6 0.0000 0.0000 0.0000 0.0000 0.0000 26.0945
#
#
#
# Elastic Compliance Matrix: (Units=1/GPa)
#
#
# Indices 1 2 3 4 5 6 
#
# 1 0.013466 -0.004233 -0.005926 0.000000 0.000000 0.000000
# 2 -0.004233 0.025824 -0.007415 0.000000 0.000000 0.000000
# 3 -0.005926 -0.007415 0.015279 0.000000 0.000000 0.000000
# 4 0.000000 0.000000 0.000000 0.036031 0.000000 0.000000
# 5 0.000000 0.000000 0.000000 0.000000 0.034665 0.000000
# 6 0.000000 0.000000 0.000000 0.000000 0.000000 0.038322
#
#
# Mechanical properties :
#
#
# Convention : Reuss Voigt Hill
#
# Bulk Modulus (GPa) = 51.49115 61.65830 56.57473
# Shear Modulus (GPa) = 24.36540 25.85573 25.11056
#
# Velocity S-wave (km/s) = 3.64535 3.75518 3.70067
# Velocity P-wave (km/s) = 6.76763 7.24083 7.00822
#
# Compressibility (1/GPa) = 0.01942081
#
# Stress axis : x y z
#
# Youngs Moduli (GPa) = 74.26084 38.72372 65.45020
#
# Poissons Ratio (x) = 0.16392 0.38783
# Poissons Ratio (y) = 0.31435 0.48534
# Poissons Ratio (z) = 0.44004 0.28715
#
# Static dielectric constant tensor:
#      x y z
#    x 3.500690 0.000000 0.000000 
#    y 0.000000 3.452100 0.000000 
#    z 0.000000 0.000000 3.430420 
# 
# 
# High freq. dielectric constant tensor:
#      x y z
#    x 1.707670 0.000000 0.000000 
#    y 0.000000 1.717220 0.000000 
#    z 0.000000 0.000000 1.702470 
# 
# From -- ./inp_files/24684.got.cif
#   From: 2010.03.12/outbox.cif.g09.slc.cpg/sg59_13_cif.got.tgz:24684.got - 2010.04.16 16:29:54.
