data_PCOD8241036
_publ_section_title
;
Structure prediction by ZEFSAII (Michael W. Deem and Ramdas Pophale) SiO2 
 PCOD8241036
Probable space group: P M M N
;
_chemical_formula_sum "Si O2"
_cell_formula_units_Z 64
_cell_length_a 8.873484
_cell_length_b 19.878549
_cell_length_c 19.835748
_cell_angle_alpha 90.000000
_cell_angle_beta 90.000000
_cell_angle_gamma 90.000000
_cell_volume 3498.866993
_symmetry_space_group_name_H-M "P M M N"
_symmetry_group_IT_number 59
_space_group.IT_coordinate_system_code '2'
_symmetry_cell_setting 'orthorhombic'
loop_
_space_group_symop_operation_xyz
x,y,z
1/2-x,1/2-y,z
1/2+x,-y,-z
-x,1/2+y,-z
-x,-y,-z
1/2+x,1/2+y,-z
1/2-x,y,z
x,1/2-y,z
loop_
_atom_site_type_symbol
_atom_site_label
_atom_site_fract_x
_atom_site_fract_y
_atom_site_fract_z
Si Si1 0.924975 0.414969 0.443732
Si Si2 0.425407 0.326739 0.341118
Si Si3 0.423689 0.826773 0.174394
Si Si4 0.922210 0.079169 0.944425
Si Si5 0.075281 0.552061 0.407151
Si Si6 0.424532 0.944768 0.907101
Si Si7 0.072925 0.068575 0.227378
Si Si8 0.572688 0.570715 0.272799
O O1 0.750000 0.429433 0.429361
O O2 0.954712 0.407689 0.523610
O O3 0.979339 0.347141 0.407287
O O4 0.022141 0.475322 0.413151
O O5 0.250000 0.336152 0.357691
O O6 0.464061 0.250000 0.322952
O O7 0.475638 0.372387 0.278116
O O8 0.250000 0.834276 0.196571
O O9 0.477458 0.750000 0.176137
O O10 0.445919 0.852935 0.097911
O O11 0.526388 0.868207 0.225203
O O12 0.750000 0.052838 0.938968
O O13 0.961531 0.093592 0.022775
O O14 0.030588 0.022811 0.913668
O O15 0.250000 0.551039 0.387621
O O16 0.983534 0.588668 0.348058
O O17 0.250000 0.940951 0.888192
O O18 0.517412 0.909897 0.846999
O O19 0.250000 0.057701 0.226551
O O20 0.998787 0.998708 0.248405
O O21 0.750000 0.562516 0.272348
#
# Coordination Sequence:
#
# PCOD8241036 Si02
#       8
#     8   8   8   8   8   8   8   8
#     4  10  20  34  56  85 112 142 183 231 279 329
#     4  10  22  39  58  80 111 153 194 233 283 342
#     4  10  21  38  59  81 110 151 192 230 282 346
#     4   9  18  33  53  78 109 144 181 225 279 334
#     4  10  20  35  56  83 114 146 182 227 279 334
#     4  10  19  31  52  83 112 140 181 232 278 325
#     4  11  21  35  56  81 112 150 189 233 284 337
#     4  12  23  35  56  86 115 145 188 239 285 331
#
# _framework density 18.291636
#
# number of rings (size 3 to 8) (size 9 to 14) (size 15 to 20)
#    0.000    1.750    2.500    2.625    0.000    3.000 
#    0.000    1.250    0.000    1.500    0.000    0.000 
#    0.000    0.000    0.000    0.000    0.000    0.000 
#
# Total GULP energy -793769.640453 kJ/mol
# GULP energy per Si atom -12402.650632 kJ/mol
# Density = 1.825000 g / cm^3
# Si number density = 18.291636 Si / 1000 Ang^3
#
#
#
# Elastic Constant Matrix: (Units=GPa)
#
#
# Indices 1 2 3 4 5 6 
#
# 1 85.6950 41.3091 55.7278 0.0000 0.0000 0.0000
# 2 41.3091 105.2520 63.2127 0.0000 0.0000 0.0000
# 3 55.7278 63.2127 141.7356 0.0000 0.0000 0.0000
# 4 0.0000 0.0000 0.0000 26.9084 0.0000 0.0000
# 5 0.0000 0.0000 0.0000 0.0000 34.2179 0.0000
# 6 0.0000 0.0000 0.0000 0.0000 0.0000 18.5943
#
#
#
# Elastic Compliance Matrix: (Units=1/GPa)
#
#
# Indices 1 2 3 4 5 6 
#
# 1 0.016592 -0.003543 -0.004944 0.000000 0.000000 0.000000
# 2 -0.003543 0.013733 -0.004732 0.000000 0.000000 0.000000
# 3 -0.004944 -0.004732 0.011110 0.000000 0.000000 0.000000
# 4 0.000000 0.000000 0.000000 0.037163 0.000000 0.000000
# 5 0.000000 0.000000 0.000000 0.000000 0.029224 0.000000
# 6 0.000000 0.000000 0.000000 0.000000 0.000000 0.053780
#
#
# Mechanical properties :
#
#
# Convention : Reuss Voigt Hill
#
# Bulk Modulus (GPa) = 66.67545 72.57576 69.62561
# Shear Modulus (GPa) = 25.90153 27.43966 26.67059
#
# Velocity S-wave (km/s) = 3.76710 3.87734 3.82262
# Velocity P-wave (km/s) = 7.44660 7.73358 7.59144
#
# Compressibility (1/GPa) = 0.01499802
#
# Stress axis : x y z
#
# Youngs Moduli (GPa) = 60.27012 72.81467 90.01300
#
# Poissons Ratio (x) = 0.25798 0.44498
# Poissons Ratio (y) = 0.21354 0.42594
# Poissons Ratio (z) = 0.29795 0.34456
#
# Static dielectric constant tensor:
#      x y z
#    x 3.428120 0.000000 0.000000 
#    y 0.000000 3.110550 0.000000 
#    z 0.000000 0.000000 3.760040 
# 
# 
# High freq. dielectric constant tensor:
#      x y z
#    x 1.716650 0.000000 0.000000 
#    y 0.000000 1.672940 0.000000 
#    z 0.000000 0.000000 1.726450 
# 
# From -- ./inp_files/29377.got.cif
#   From: 2010.03.12/outbox.cif.g09.slc.cpg/sg59_15_cif.got.tgz:29377.got - 2010.04.16 16:29:54.
