data_PCOD8241169
_publ_section_title
;
Structure prediction by ZEFSAII (Michael W. Deem and Ramdas Pophale) SiO2 
 PCOD8241169
Probable space group: P M M N
;
_chemical_formula_sum "Si O2"
_cell_formula_units_Z 64
_cell_length_a 24.100249
_cell_length_b 8.831507
_cell_length_c 16.485934
_cell_angle_alpha 90.000000
_cell_angle_beta 90.000000
_cell_angle_gamma 90.000000
_cell_volume 3508.891214
_symmetry_space_group_name_H-M "P M M N"
_symmetry_group_IT_number 59
_space_group.IT_coordinate_system_code '2'
_symmetry_cell_setting 'orthorhombic'
loop_
_space_group_symop_operation_xyz
x,y,z
1/2-x,1/2-y,z
1/2+x,-y,-z
-x,1/2+y,-z
-x,-y,-z
1/2+x,1/2+y,-z
1/2-x,y,z
x,1/2-y,z
loop_
_atom_site_type_symbol
_atom_site_label
_atom_site_fract_x
_atom_site_fract_y
_atom_site_fract_z
Si Si1 0.089348 0.074408 0.197468
Si Si2 0.314064 0.573580 0.294587
Si Si3 0.527235 0.073388 0.258156
Si Si4 0.188047 0.569543 0.477345
Si Si5 0.117844 0.926147 0.623095
Si Si6 0.403162 0.077355 0.879721
Si Si7 0.942694 0.428312 0.970907
Si Si8 0.187309 0.420682 0.753688
O O1 0.094077 0.250000 0.175405
O O2 0.039014 0.046613 0.262095
O O3 0.147006 0.020294 0.235023
O O4 0.077199 0.984590 0.115906
O O5 0.250000 0.542770 0.271524
O O6 0.328238 0.750000 0.285657
O O7 0.325911 0.516871 0.386237
O O8 0.541707 0.250000 0.245734
O O9 0.558190 0.014134 0.341333
O O10 0.549321 0.983895 0.180349
O O11 0.250000 0.510866 0.501977
O O12 0.188978 0.750000 0.480590
O O13 0.140477 0.502058 0.538211
O O14 0.112852 0.750000 0.607932
O O15 0.164065 0.959521 0.690084
O O16 0.418907 0.250000 0.900874
O O17 0.343303 0.064076 0.839128
O O18 0.398298 0.979137 0.961423
O O19 0.948615 0.250000 0.968128
O O20 0.000000 0.500000 0.000000
O O21 0.250000 0.463290 0.771557
O O22 0.180148 0.250000 0.718963
#
# Coordination Sequence:
#
# PCOD8241169 Si02
#       8
#     8   8   8   8   8   8   8   8
#     4  11  22  36  55  79 107 139 174 215 266 321
#     4   9  19  37  58  78 102 135 177 225 272 316
#     4   9  18  31  48  73 107 140 170 212 262 312
#     4   8  14  27  50  77 102 132 176 226 269 310
#     4   9  16  28  49  76 103 135 178 221 259 305
#     4  10  19  32  51  74 102 138 176 214 257 307
#     4  12  23  36  56  81 106 133 171 217 261 309
#     4   9  18  31  46  69 105 143 174 208 255 308
#
# _framework density 18.239380000000001
#
# number of rings (size 3 to 8) (size 9 to 14) (size 15 to 20)
#    0.000    2.375    1.250    3.000    0.000    2.000 
#    0.000    1.875    0.000    3.000    0.000    0.000 
#    0.000    0.000    0.000    0.000    0.000    0.000 
#
# Total GULP energy -793180.162791 kJ/mol
# GULP energy per Si atom -12393.440044 kJ/mol
# Density = 1.819787 g / cm^3
# Si number density = 18.239380 Si / 1000 Ang^3
#
#
#
# Elastic Constant Matrix: (Units=GPa)
#
#
# Indices 1 2 3 4 5 6 
#
# 1 94.1096 31.5433 47.8773 0.0000 0.0000 0.0000
# 2 31.5433 67.3539 34.8688 0.0000 0.0000 0.0000
# 3 47.8773 34.8688 105.2866 0.0000 0.0000 0.0000
# 4 0.0000 0.0000 0.0000 20.3343 0.0000 0.0000
# 5 0.0000 0.0000 0.0000 0.0000 27.6531 0.0000
# 6 0.0000 0.0000 0.0000 0.0000 0.0000 22.5949
#
#
#
# Elastic Compliance Matrix: (Units=1/GPa)
#
#
# Indices 1 2 3 4 5 6 
#
# 1 0.014721 -0.004138 -0.005324 0.000000 0.000000 0.000000
# 2 -0.004138 0.019082 -0.004438 0.000000 0.000000 0.000000
# 3 -0.005324 -0.004438 0.013389 0.000000 0.000000 0.000000
# 4 0.000000 0.000000 0.000000 0.049178 0.000000 0.000000
# 5 0.000000 0.000000 0.000000 0.000000 0.036162 0.000000
# 6 0.000000 0.000000 0.000000 0.000000 0.000000 0.044258
#
#
# Mechanical properties :
#
#
# Convention : Reuss Voigt Hill
#
# Bulk Modulus (GPa) = 51.56646 55.03656 53.30151
# Shear Modulus (GPa) = 23.69055 24.28050 23.98553
#
# Velocity S-wave (km/s) = 3.60789 3.65254 3.63028
# Velocity P-wave (km/s) = 6.75938 6.93023 6.84534
#
# Compressibility (1/GPa) = 0.01939245
#
# Stress axis : x y z
#
# Youngs Moduli (GPa) = 67.92848 52.40406 74.69074
#
# Poissons Ratio (x) = 0.21686 0.39764
# Poissons Ratio (y) = 0.28110 0.33147
# Poissons Ratio (z) = 0.36164 0.23257
#
# Static dielectric constant tensor:
#      x y z
#    x 3.490110 0.000000 0.000000 
#    y 0.000000 3.291470 0.000000 
#    z 0.000000 0.000000 3.560350 
# 
# 
# High freq. dielectric constant tensor:
#      x y z
#    x 1.700510 0.000000 0.000000 
#    y 0.000000 1.695360 0.000000 
#    z 0.000000 0.000000 1.699060 
# 
# From -- ./inp_files/28417.got.cif
#   From: 2010.03.12/outbox.cif.g09.slc.cpg/sg59_15_cif.got.tgz:28417.got - 2010.04.16 16:29:54.
