data_PCOD8241816
_publ_section_title
;
Structure prediction by ZEFSAII (Michael W. Deem and Ramdas Pophale) SiO2 
 PCOD8241816
Probable space group: P M M N
;
_chemical_formula_sum "Si O2"
_cell_formula_units_Z 64
_cell_length_a 31.613062
_cell_length_b 10.873267
_cell_length_c 9.400431
_cell_angle_alpha 90.000000
_cell_angle_beta 90.000000
_cell_angle_gamma 90.000000
_cell_volume 3231.278431
_symmetry_space_group_name_H-M "P M M N"
_symmetry_group_IT_number 59
_space_group.IT_coordinate_system_code '2'
_symmetry_cell_setting 'orthorhombic'
loop_
_space_group_symop_operation_xyz
x,y,z
1/2-x,1/2-y,z
1/2+x,-y,-z
-x,1/2+y,-z
-x,-y,-z
1/2+x,1/2+y,-z
1/2-x,y,z
x,1/2-y,z
loop_
_atom_site_type_symbol
_atom_site_label
_atom_site_fract_x
_atom_site_fract_y
_atom_site_fract_z
Si Si1 0.798325 0.893389 0.315106
Si Si2 0.420425 0.888206 0.378717
Si Si3 0.070003 0.610673 0.681911
Si Si4 0.004391 0.958212 0.207031
Si Si5 0.200118 0.388484 0.363446
Si Si6 0.135930 0.985104 0.895183
Si Si7 0.156864 0.604894 0.196272
Si Si8 0.441324 0.118662 0.008516
O O1 0.750000 0.939176 0.298390
O O2 0.801543 0.750000 0.280406
O O3 0.815202 0.919314 0.475439
O O4 0.826120 0.965151 0.200306
O O5 0.405187 0.750000 0.397143
O O6 0.416691 0.956053 0.532799
O O7 0.469437 0.891464 0.330365
O O8 0.387710 0.941904 0.263149
O O9 0.061632 0.750000 0.643471
O O10 0.024614 0.565870 0.733546
O O11 0.106199 0.601503 0.799821
O O12 0.973645 0.865273 0.124554
O O13 0.041357 0.011059 0.106518
O O14 0.250000 0.378160 0.365985
O O15 0.182928 0.250000 0.318023
O O16 0.189006 0.502601 0.259255
O O17 0.155140 0.907387 0.025679
O O18 0.106154 0.093746 0.954131
O O19 0.168487 0.750000 0.229863
O O20 0.440273 0.250000 0.088427
#
# Coordination Sequence:
#
# PCOD8241816 Si02
#       8
#     8   8   8   8   8   8   8   8
#     4   9  19  38  64  90 117 150 189 236 292 354
#     4  10  20  36  54  77 109 147 193 240 290 345
#     4  10  21  35  55  77 105 147 192 241 291 342
#     4  10  19  34  51  76 105 145 189 241 291 343
#     4   9  20  41  66  91 118 150 191 240 295 354
#     4  11  21  36  56  82 118 151 193 234 286 346
#     4  11  23  38  58  86 121 159 198 241 294 353
#     4  10  20  32  50  77 110 146 187 237 292 345
#
# _framework density 19.806401000000001
#
# number of rings (size 3 to 8) (size 9 to 14) (size 15 to 20)
#    0.000    2.000    1.250    3.375    0.000    1.750 
#    0.000    1.875    0.000    7.875    0.000    0.000 
#    0.000    0.000    0.000    0.000    0.000    0.000 
#
# Total GULP energy -792870.860216 kJ/mol
# GULP energy per Si atom -12388.607191 kJ/mol
# Density = 1.976132 g / cm^3
# Si number density = 19.806401 Si / 1000 Ang^3
#
#
#
# Elastic Constant Matrix: (Units=GPa)
#
#
# Indices 1 2 3 4 5 6 
#
# 1 61.8156 21.2931 27.7480 0.0000 0.0000 0.0000
# 2 21.2931 82.4613 28.0777 0.0000 0.0000 0.0000
# 3 27.7480 28.0777 118.2159 0.0000 0.0000 0.0000
# 4 0.0000 0.0000 0.0000 27.5242 0.0000 0.0000
# 5 0.0000 0.0000 0.0000 0.0000 32.5852 0.0000
# 6 0.0000 0.0000 0.0000 0.0000 0.0000 -16.4557
#
#
#
# Elastic Compliance Matrix: (Units=1/GPa)
#
#
# Indices 1 2 3 4 5 6 
#
# 1 0.019066 -0.003698 -0.003597 0.000000 0.000000 0.000000
# 2 -0.003698 0.013911 -0.002436 0.000000 0.000000 0.000000
# 3 -0.003597 -0.002436 0.009882 0.000000 0.000000 0.000000
# 4 0.000000 0.000000 0.000000 0.036332 0.000000 0.000000
# 5 0.000000 0.000000 0.000000 0.000000 0.030689 0.000000
# 6 0.000000 0.000000 0.000000 0.000000 0.000000 -0.060769
#
#
# Mechanical properties :
#
#
# Convention : Reuss Voigt Hill
#
# Bulk Modulus (GPa) = 42.74135 46.30340 44.52238
# Shear Modulus (GPa) = 65.46947 21.08900 43.27923
#
# Velocity S-wave (km/s) = 5.75556 3.26660 4.67959
# Velocity P-wave (km/s) = 8.11141 6.13647 7.19206
#
# Compressibility (1/GPa) = 0.02339655
#
# Stress axis : x y z
#
# Youngs Moduli (GPa) = 52.45044 71.88370 101.19498
#
# Poissons Ratio (x) = 0.26586 0.36397
# Poissons Ratio (y) = 0.19399 0.24651
# Poissons Ratio (z) = 0.18865 0.17511
#
# Static dielectric constant tensor:
#      x y z
#    x 3.491520 0.000000 0.000000 
#    y 0.000000 3.383600 0.000000 
#    z 0.000000 0.000000 3.821590 
# 
# 
# High freq. dielectric constant tensor:
#      x y z
#    x 1.765380 0.000000 0.000000 
#    y 0.000000 1.757160 0.000000 
#    z 0.000000 0.000000 1.779280 
# 
# From -- ./inp_files/13199.got.cif
#   From: 2010.03.12/outbox.cif.g09.slc.cpg/sg59_7_cif.got.tgz:13199.got - 2010.04.16 16:29:54.
