data_PCOD8241686
_publ_section_title
;
Structure prediction by ZEFSAII (Michael W. Deem and Ramdas Pophale) SiO2 
 PCOD8241686
Probable space group: P M M N
;
_chemical_formula_sum "Si O2"
_cell_formula_units_Z 64
_cell_length_a 8.635787
_cell_length_b 22.549518
_cell_length_c 17.584779
_cell_angle_alpha 90.000000
_cell_angle_beta 90.000000
_cell_angle_gamma 90.000000
_cell_volume 3424.333857
_symmetry_space_group_name_H-M "P M M N"
_symmetry_group_IT_number 59
_space_group.IT_coordinate_system_code '2'
_symmetry_cell_setting 'orthorhombic'
loop_
_space_group_symop_operation_xyz
x,y,z
1/2-x,1/2-y,z
1/2+x,-y,-z
-x,1/2+y,-z
-x,-y,-z
1/2+x,1/2+y,-z
1/2-x,y,z
x,1/2-y,z
loop_
_atom_site_type_symbol
_atom_site_label
_atom_site_fract_x
_atom_site_fract_y
_atom_site_fract_z
Si Si1 0.930862 0.518866 0.079764
Si Si2 0.067189 0.950919 0.674744
Si Si3 0.568075 0.418981 0.652320
Si Si4 0.572570 0.682731 0.941853
Si Si5 0.570479 0.582145 0.825741
Si Si6 0.430697 0.856591 0.097294
Si Si7 0.071162 0.316614 0.753417
Si Si8 0.930028 0.063065 0.489000
O O1 0.750000 0.532248 0.070402
O O2 0.959168 0.467754 0.140242
O O3 0.017811 0.576215 0.110555
O O4 0.000000 0.500000 0.000000
O O5 0.250000 0.947828 0.690348
O O6 0.019460 0.916327 0.595840
O O7 0.974612 0.913184 0.737541
O O8 0.018838 0.020404 0.675312
O O9 0.750000 0.431328 0.660870
O O10 0.524252 0.364212 0.705375
O O11 0.525005 0.399032 0.564525
O O12 0.750000 0.673591 0.967164
O O13 0.537409 0.750000 0.918424
O O14 0.533334 0.643784 0.867866
O O15 0.466812 0.664114 0.012161
O O16 0.750000 0.564621 0.835765
O O17 0.250000 0.850352 0.112079
O O18 0.519273 0.816604 0.158642
O O19 0.250000 0.334046 0.748072
O O20 0.042343 0.250000 0.721868
O O21 0.750000 0.053769 0.486450
O O22 0.000000 0.000000 0.500000
#
# Coordination Sequence:
#
# PCOD8241686 Si02
#       8
#     8   8   8   8   8   8   8   8
#     4  12  23  37  56  80 110 142 177 221 272 326
#     4  10  19  33  54  82 115 145 177 218 271 329
#     4  10  19  34  56  82 111 141 179 222 269 326
#     4  10  22  40  59  76 100 138 181 226 274 319
#     4  11  22  36  55  80 110 143 180 222 270 323
#     4  12  24  38  58  82 108 140 180 225 272 324
#     4  11  24  40  56  76 107 147 188 229 275 326
#     4   8  16  30  51  79 109 140 169 207 258 315
#
# _framework density 18.689767
#
# number of rings (size 3 to 8) (size 9 to 14) (size 15 to 20)
#    0.000    1.500    1.250    4.875    0.000    4.250 
#    0.000    0.000    0.000    0.750    0.000    3.500 
#    0.000    0.000    0.000    0.000    0.000    0.000 
#
# Total GULP energy -793320.371661 kJ/mol
# GULP energy per Si atom -12395.630807 kJ/mol
# Density = 1.864723 g / cm^3
# Si number density = 18.689767 Si / 1000 Ang^3
#
#
#
# Elastic Constant Matrix: (Units=GPa)
#
#
# Indices 1 2 3 4 5 6 
#
# 1 37.6942 15.3443 21.2962 0.0000 0.0000 0.0000
# 2 15.3443 83.1159 35.8557 0.0000 0.0000 0.0000
# 3 21.2962 35.8557 130.6706 0.0000 0.0000 0.0000
# 4 0.0000 0.0000 0.0000 17.3765 0.0000 0.0000
# 5 0.0000 0.0000 0.0000 0.0000 27.6169 0.0000
# 6 0.0000 0.0000 0.0000 0.0000 0.0000 20.4052
#
#
#
# Elastic Compliance Matrix: (Units=1/GPa)
#
#
# Indices 1 2 3 4 5 6 
#
# 1 0.030311 -0.003930 -0.003862 0.000000 0.000000 0.000000
# 2 -0.003930 0.014156 -0.003244 0.000000 0.000000 0.000000
# 3 -0.003862 -0.003244 0.009172 0.000000 0.000000 0.000000
# 4 0.000000 0.000000 0.000000 0.057549 0.000000 0.000000
# 5 0.000000 0.000000 0.000000 0.000000 0.036210 0.000000
# 6 0.000000 0.000000 0.000000 0.000000 0.000000 0.049007
#
#
# Mechanical properties :
#
#
# Convention : Reuss Voigt Hill
#
# Bulk Modulus (GPa) = 31.67720 44.05257 37.86489
# Shear Modulus (GPa) = 21.83417 25.01202 23.42310
#
# Velocity S-wave (km/s) = 3.42166 3.66221 3.54398
# Velocity P-wave (km/s) = 5.70930 6.44236 6.08688
#
# Compressibility (1/GPa) = 0.03156844
#
# Stress axis : x y z
#
# Youngs Moduli (GPa) = 32.99166 70.63975 109.02376
#
# Poissons Ratio (x) = 0.27761 0.42100
# Poissons Ratio (y) = 0.12965 0.35367
# Poissons Ratio (z) = 0.12740 0.22915
#
# Static dielectric constant tensor:
#      x y z
#    x 3.306230 0.000000 0.000000 
#    y 0.000000 0.517310 0.000000 
#    z 0.000000 0.000000 36.880980 
# 
# 
# High freq. dielectric constant tensor:
#      x y z
#    x 1.736950 0.000000 0.000000 
#    y 0.000000 1.695790 0.000000 
#    z 0.000000 0.000000 1.738560 
# 
# From -- ./inp_files/26221.got.cif
#   From: 2010.03.12/outbox.cif.g09.slc.cpg/sg59_14_cif.got.tgz:26221.got - 2010.04.16 16:29:54.
