data_PCOD8241187
_publ_section_title
;
Structure prediction by ZEFSAII (Michael W. Deem and Ramdas Pophale) SiO2 
 PCOD8241187
Probable space group: P M M N
;
_chemical_formula_sum "Si O2"
_cell_formula_units_Z 64
_cell_length_a 9.094641
_cell_length_b 17.241316
_cell_length_c 23.128409
_cell_angle_alpha 90.000000
_cell_angle_beta 90.000000
_cell_angle_gamma 90.000000
_cell_volume 3626.617317
_symmetry_space_group_name_H-M "P M M N"
_symmetry_group_IT_number 59
_space_group.IT_coordinate_system_code '2'
_symmetry_cell_setting 'orthorhombic'
loop_
_space_group_symop_operation_xyz
x,y,z
1/2-x,1/2-y,z
1/2+x,-y,-z
-x,1/2+y,-z
-x,-y,-z
1/2+x,1/2+y,-z
1/2-x,y,z
x,1/2-y,z
loop_
_atom_site_type_symbol
_atom_site_label
_atom_site_fract_x
_atom_site_fract_y
_atom_site_fract_z
Si Si1 0.923313 0.472026 0.139663
Si Si2 0.579194 0.057586 0.366874
Si Si3 0.924326 0.008155 0.741177
Si Si4 0.417617 0.436141 0.965379
Si Si5 0.422228 0.162040 0.067471
Si Si6 0.081856 0.158830 0.453245
Si Si7 0.919787 0.895605 0.423573
Si Si8 0.420170 0.835553 0.316421
O O1 0.750000 0.461556 0.150884
O O2 0.957921 0.551413 0.102439
O O3 0.007105 0.481682 0.199093
O O4 0.983001 0.395310 0.107325
O O5 0.750000 0.068569 0.351649
O O6 0.518258 0.132610 0.399728
O O7 0.489009 0.047757 0.307885
O O8 0.551563 0.985022 0.408924
O O9 0.750000 0.998174 0.743852
O O10 0.972348 0.097423 0.727983
O O11 0.250000 0.458727 0.972306
O O12 0.500000 0.500000 0.000000
O O13 0.449881 0.354507 0.998040
O O14 0.250000 0.150844 0.082131
O O15 0.472750 0.250000 0.079569
O O16 0.250000 0.132802 0.442034
O O17 0.068413 0.250000 0.459303
O O18 0.019882 0.120678 0.512236
O O19 0.750000 0.872684 0.420436
O O20 0.999724 0.840989 0.377647
O O21 0.250000 0.847709 0.329801
O O22 0.451687 0.750000 0.289588
#
# Coordination Sequence:
#
# PCOD8241187 Si02
#       8
#     8   8   8   8   8   8   8   8
#     4  10  19  32  51  75 103 133 169 209 245 286
#     4  10  20  34  52  73  97 126 164 208 249 292
#     4  10  20  35  54  72  96 133 172 206 243 292
#     4   8  15  28  47  71  98 127 156 190 233 279
#     4   9  17  31  52  77 104 134 168 204 244 291
#     4  10  20  33  49  71 100 131 161 196 244 302
#     4   9  18  32  51  74  98 126 159 196 244 302
#     4   9  18  32  50  73  99 126 159 202 249 294
#
# _framework density 17.647300000000001
#
# number of rings (size 3 to 8) (size 9 to 14) (size 15 to 20)
#    0.000    2.625    0.000    1.875    0.000    3.250 
#    0.000    1.250    0.000    4.500    0.000    0.000 
#    0.000    0.000    0.000    0.000    0.000    0.000 
#
# Total GULP energy -793125.537435 kJ/mol
# GULP energy per Si atom -12392.586522 kJ/mol
# Density = 1.760713 g / cm^3
# Si number density = 17.647300 Si / 1000 Ang^3
#
#
#
# Elastic Constant Matrix: (Units=GPa)
#
#
# Indices 1 2 3 4 5 6 
#
# 1 67.6399 32.1582 53.5341 0.0000 0.0000 0.0000
# 2 32.1582 59.8255 52.5408 0.0000 0.0000 0.0000
# 3 53.5341 52.5408 137.2325 0.0000 0.0000 0.0000
# 4 0.0000 0.0000 0.0000 19.0287 0.0000 0.0000
# 5 0.0000 0.0000 0.0000 0.0000 27.0960 0.0000
# 6 0.0000 0.0000 0.0000 0.0000 0.0000 22.9000
#
#
#
# Elastic Compliance Matrix: (Units=1/GPa)
#
#
# Indices 1 2 3 4 5 6 
#
# 1 0.023078 -0.006778 -0.006408 0.000000 0.000000 0.000000
# 2 -0.006778 0.027173 -0.007760 0.000000 0.000000 0.000000
# 3 -0.006408 -0.007760 0.012757 0.000000 0.000000 0.000000
# 4 0.000000 0.000000 0.000000 0.052552 0.000000 0.000000
# 5 0.000000 0.000000 0.000000 0.000000 0.036906 0.000000
# 6 0.000000 0.000000 0.000000 0.000000 0.000000 0.043668
#
#
# Mechanical properties :
#
#
# Convention : Reuss Voigt Hill
#
# Bulk Modulus (GPa) = 47.35171 60.12936 53.74053
# Shear Modulus (GPa) = 20.40281 22.23593 21.31937
#
# Velocity S-wave (km/s) = 3.40390 3.55353 3.47952
# Velocity P-wave (km/s) = 6.50686 7.14027 6.83091
#
# Compressibility (1/GPa) = 0.02111856
#
# Stress axis : x y z
#
# Youngs Moduli (GPa) = 43.33139 36.80095 78.38591
#
# Poissons Ratio (x) = 0.24942 0.50228
# Poissons Ratio (y) = 0.29368 0.60824
# Poissons Ratio (z) = 0.27766 0.28556
#
# Static dielectric constant tensor:
#      x y z
#    x 3.292990 0.000000 0.000000 
#    y 0.000000 3.463090 0.000000 
#    z 0.000000 0.000000 3.395880 
# 
# 
# High freq. dielectric constant tensor:
#      x y z
#    x 1.686940 0.000000 0.000000 
#    y 0.000000 1.670740 0.000000 
#    z 0.000000 0.000000 1.675200 
# 
# From -- ./inp_files/29394.got.cif
#   From: 2010.03.12/outbox.cif.g09.slc.cpg/sg59_15_cif.got.tgz:29394.got - 2010.04.16 16:29:54.
