data_PCOD8241842
_publ_section_title
;
Structure prediction by ZEFSAII (Michael W. Deem and Ramdas Pophale) SiO2 
 PCOD8241842
Probable space group: P M M N
;
_chemical_formula_sum "Si O2"
_cell_formula_units_Z 48
_cell_length_a 30.783606
_cell_length_b 8.717342
_cell_length_c 9.692850
_cell_angle_alpha 90.000000
_cell_angle_beta 90.000000
_cell_angle_gamma 90.000000
_cell_volume 2601.088137
_symmetry_space_group_name_H-M "P M M N"
_symmetry_group_IT_number 59
_space_group.IT_coordinate_system_code '2'
_symmetry_cell_setting 'orthorhombic'
loop_
_space_group_symop_operation_xyz
x,y,z
1/2-x,1/2-y,z
1/2+x,-y,-z
-x,1/2+y,-z
-x,-y,-z
1/2+x,1/2+y,-z
1/2-x,y,z
x,1/2-y,z
loop_
_atom_site_type_symbol
_atom_site_label
_atom_site_fract_x
_atom_site_fract_y
_atom_site_fract_z
Si Si1 0.013103 0.929908 0.144966
Si Si2 0.612047 0.068530 0.803884
Si Si3 0.369441 0.930865 0.497905
Si Si4 0.700263 0.430613 0.285564
Si Si5 0.933817 0.431722 0.272085
Si Si6 0.136393 0.430535 0.921430
O O1 0.007328 0.750000 0.135256
O O2 0.061651 0.976715 0.184981
O O3 0.981452 0.994457 0.264181
O O4 0.000000 0.000000 0.000000
O O5 0.619216 0.250000 0.819506
O O6 0.629113 0.003392 0.656799
O O7 0.640016 0.981183 0.919401
O O8 0.373116 0.750000 0.488145
O O9 0.324939 0.979557 0.574604
O O10 0.410514 0.989794 0.587881
O O11 0.750000 0.479538 0.303764
O O12 0.694795 0.250000 0.258536
O O13 0.680490 0.519293 0.155085
O O14 0.937839 0.250000 0.265771
O O15 0.905312 0.484006 0.141360
O O16 0.129906 0.250000 0.908441
#
# Coordination Sequence:
#
# PCOD8241842 Si02
#       6
#     8   8   8   8   8   8
#     4  11  21  31  49  75 106 145 190 231 267 309
#     4  10  20  35  53  75 108 146 181 221 268 316
#     4   8  17  34  55  78 105 138 176 218 267 319
#     4   9  18  36  62  85 104 132 171 213 261 320
#     4  10  19  34  54  75 103 140 182 227 267 311
#     4  11  21  33  53  79 108 139 175 217 261 313
#
# _framework density 18.453814000000001
#
# number of rings (size 3 to 8) (size 9 to 14) (size 15 to 20)
#    0.000    2.167    1.667    3.500    0.000    1.667 
#    0.000    5.000    0.000    3.000    0.000    0.000 
#    0.000    0.000    0.000    0.000    0.000    0.000 
#
# Total GULP energy -595209.777815 kJ/mol
# GULP energy per Si atom -12400.203704 kJ/mol
# Density = 1.841181 g / cm^3
# Si number density = 18.453814 Si / 1000 Ang^3
#
#
#
# Elastic Constant Matrix: (Units=GPa)
#
#
# Indices 1 2 3 4 5 6 
#
# 1 114.7312 35.9020 60.3562 0.0000 0.0000 0.0000
# 2 35.9020 55.3338 30.6940 0.0000 0.0000 0.0000
# 3 60.3562 30.6940 150.1718 0.0000 0.0000 0.0000
# 4 0.0000 0.0000 0.0000 14.9227 0.0000 0.0000
# 5 0.0000 0.0000 0.0000 0.0000 20.7655 0.0000
# 6 0.0000 0.0000 0.0000 0.0000 0.0000 24.9006
#
#
#
# Elastic Compliance Matrix: (Units=1/GPa)
#
#
# Indices 1 2 3 4 5 6 
#
# 1 0.012634 -0.006068 -0.003837 0.000000 0.000000 0.000000
# 2 -0.006068 0.023298 -0.002323 0.000000 0.000000 0.000000
# 3 -0.003837 -0.002323 0.008676 0.000000 0.000000 0.000000
# 4 0.000000 0.000000 0.000000 0.067012 0.000000 0.000000
# 5 0.000000 0.000000 0.000000 0.000000 0.048157 0.000000
# 6 0.000000 0.000000 0.000000 0.000000 0.000000 0.040160
#
#
# Mechanical properties :
#
#
# Convention : Reuss Voigt Hill
#
# Bulk Modulus (GPa) = 49.62681 63.79347 56.71014
# Shear Modulus (GPa) = 21.63465 25.00338 23.31901
#
# Velocity S-wave (km/s) = 3.42770 3.68491 3.55863
# Velocity P-wave (km/s) = 6.52812 7.26286 6.90527
#
# Compressibility (1/GPa) = 0.02015040
#
# Stress axis : x y z
#
# Youngs Moduli (GPa) = 79.15361 42.92197 115.25921
#
# Poissons Ratio (x) = 0.26047 0.44228
# Poissons Ratio (y) = 0.48034 0.26774
# Poissons Ratio (z) = 0.30374 0.09971
#
# Static dielectric constant tensor:
#      x y z
#    x 3.440070 0.000000 0.000000 
#    y 0.000000 3.225220 0.000000 
#    z 0.000000 0.000000 3.637150 
# 
# 
# High freq. dielectric constant tensor:
#      x y z
#    x 1.704550 0.000000 0.000000 
#    y 0.000000 1.701330 0.000000 
#    z 0.000000 0.000000 1.716570 
# 
# From -- ./inp_files/6177.got.cif
#   From: 2010.03.12/outbox.cif.g09.slc.cpg/sg59_4_cif.got.tgz:6177.got - 2010.04.16 16:29:54.
