data_PCOD8241165
_publ_section_title
;
Structure prediction by ZEFSAII (Michael W. Deem and Ramdas Pophale) SiO2 
 PCOD8241165
Probable space group: P M M N
;
_chemical_formula_sum "Si O2"
_cell_formula_units_Z 64
_cell_length_a 8.909261
_cell_length_b 24.277740
_cell_length_c 15.437547
_cell_angle_alpha 90.000000
_cell_angle_beta 90.000000
_cell_angle_gamma 90.000000
_cell_volume 3339.090814
_symmetry_space_group_name_H-M "P M M N"
_symmetry_group_IT_number 59
_space_group.IT_coordinate_system_code '2'
_symmetry_cell_setting 'orthorhombic'
loop_
_space_group_symop_operation_xyz
x,y,z
1/2-x,1/2-y,z
1/2+x,-y,-z
-x,1/2+y,-z
-x,-y,-z
1/2+x,1/2+y,-z
1/2-x,y,z
x,1/2-y,z
loop_
_atom_site_type_symbol
_atom_site_label
_atom_site_fract_x
_atom_site_fract_y
_atom_site_fract_z
Si Si1 0.921131 0.083993 0.725910
Si Si2 0.076766 0.188611 0.668916
Si Si3 0.073230 0.185516 0.135226
Si Si4 0.573995 0.660956 0.523034
Si Si5 0.086817 0.811825 0.694383
Si Si6 0.077875 0.554606 0.472119
Si Si7 0.073317 0.913464 0.961912
Si Si8 0.073880 0.471770 0.880321
O O1 0.750000 0.083797 0.758482
O O2 0.937006 0.060801 0.630071
O O3 0.980412 0.146948 0.727192
O O4 0.021173 0.043888 0.784315
O O5 0.250000 0.170497 0.674950
O O6 0.051417 0.250000 0.705826
O O7 0.026369 0.188505 0.568095
O O8 0.250000 0.177542 0.133947
O O9 0.032456 0.250000 0.115829
O O10 0.014615 0.163298 0.228633
O O11 0.001519 0.144497 0.064643
O O12 0.750000 0.664791 0.538254
O O13 0.494866 0.690739 0.602415
O O14 0.517853 0.598888 0.524230
O O15 0.250000 0.842262 0.688952
O O16 0.116809 0.750000 0.722908
O O17 0.250000 0.557189 0.502245
O O18 0.000000 0.500000 0.500000
O O19 0.250000 0.903675 0.967424
O O20 0.033559 0.963998 0.896801
O O21 0.012486 0.930587 0.055695
O O22 0.250000 0.461717 0.891549
#
# Coordination Sequence:
#
# PCOD8241165 Si02
#       8
#     8   8   8   8   8   8   8   8
#     4  10  21  36  55  80 109 141 178 224 274 321
#     4   9  18  33  53  76 104 140 180 222 270 324
#     4  10  21  37  57  82 114 150 185 223 270 325
#     4  10  19  32  51  74 101 136 179 224 269 318
#     4  10  20  33  50  74 105 140 178 220 264 312
#     4  10  21  36  52  73 104 141 180 221 268 320
#     4  10  21  38  61  87 113 142 177 220 270 322
#     4  10  21  38  61  86 111 141 178 221 269 323
#
# _framework density 19.166893999999999
#
# number of rings (size 3 to 8) (size 9 to 14) (size 15 to 20)
#    0.000    2.125    0.000    3.000    0.000    6.750 
#    0.000    3.125    0.000    3.750    0.000    0.000 
#    0.000    0.000    0.000    0.000    0.000    0.000 
#
# Total GULP energy -793441.450309 kJ/mol
# GULP energy per Si atom -12397.522661 kJ/mol
# Density = 1.912327 g / cm^3
# Si number density = 19.166894 Si / 1000 Ang^3
#
#
#
# Elastic Constant Matrix: (Units=GPa)
#
#
# Indices 1 2 3 4 5 6 
#
# 1 100.7442 42.8315 33.1275 0.0000 0.0000 0.0000
# 2 42.8315 98.5331 28.0422 0.0000 0.0000 0.0000
# 3 33.1275 28.0422 48.9760 0.0000 0.0000 0.0000
# 4 0.0000 0.0000 0.0000 27.1723 0.0000 0.0000
# 5 0.0000 0.0000 0.0000 0.0000 35.6509 0.0000
# 6 0.0000 0.0000 0.0000 0.0000 0.0000 32.0909
#
#
#
# Elastic Compliance Matrix: (Units=1/GPa)
#
#
# Indices 1 2 3 4 5 6 
#
# 1 0.013999 -0.004051 -0.007150 0.000000 0.000000 0.000000
# 2 -0.004051 0.013297 -0.004873 0.000000 0.000000 0.000000
# 3 -0.007150 -0.004873 0.028045 0.000000 0.000000 0.000000
# 4 0.000000 0.000000 0.000000 0.036802 0.000000 0.000000
# 5 0.000000 0.000000 0.000000 0.000000 0.028050 0.000000
# 6 0.000000 0.000000 0.000000 0.000000 0.000000 0.031162
#
#
# Mechanical properties :
#
#
# Convention : Reuss Voigt Hill
#
# Bulk Modulus (GPa) = 43.11676 50.69508 46.90592
# Shear Modulus (GPa) = 26.14613 28.59962 27.37287
#
# Velocity S-wave (km/s) = 3.69742 3.86701 3.78316
# Velocity P-wave (km/s) = 6.38531 6.81506 6.60368
#
# Compressibility (1/GPa) = 0.02319284
#
# Stress axis : x y z
#
# Youngs Moduli (GPa) = 71.43205 75.20739 35.65729
#
# Poissons Ratio (x) = 0.30463 0.25495
# Poissons Ratio (y) = 0.28934 0.17377
# Poissons Ratio (z) = 0.51074 0.36652
#
# Static dielectric constant tensor:
#      x y z
#    x 3.766380 0.000000 0.000000 
#    y 0.000000 3.536660 0.000000 
#    z 0.000000 0.000000 3.428410 
# 
# 
# High freq. dielectric constant tensor:
#      x y z
#    x 1.760360 0.000000 0.000000 
#    y 0.000000 1.742380 0.000000 
#    z 0.000000 0.000000 1.729800 
# 
# From -- ./inp_files/21510.got.cif
#   From: 2010.03.12/outbox.cif.g09.slc.cpg/sg59_11_cif.got.tgz:21510.got - 2010.04.16 16:29:54.
