data_PCOD8241299
_publ_section_title
;
Structure prediction by ZEFSAII (Michael W. Deem and Ramdas Pophale) SiO2 
 PCOD8241299
Probable space group: P M M N
;
_chemical_formula_sum "Si O2"
_cell_formula_units_Z 48
_cell_length_a 9.896296
_cell_length_b 33.056315
_cell_length_c 7.580257
_cell_angle_alpha 90.000000
_cell_angle_beta 90.000000
_cell_angle_gamma 90.000000
_cell_volume 2479.767964
_symmetry_space_group_name_H-M "P M M N"
_symmetry_group_IT_number 59
_space_group.IT_coordinate_system_code '2'
_symmetry_cell_setting 'orthorhombic'
loop_
_space_group_symop_operation_xyz
x,y,z
1/2-x,1/2-y,z
1/2+x,-y,-z
-x,1/2+y,-z
-x,-y,-z
1/2+x,1/2+y,-z
1/2-x,y,z
x,1/2-y,z
loop_
_atom_site_type_symbol
_atom_site_label
_atom_site_fract_x
_atom_site_fract_y
_atom_site_fract_z
Si Si1 0.595157 0.854114 0.824910
Si Si2 0.594458 0.646250 0.426523
Si Si3 0.900796 0.425812 0.683747
Si Si4 0.909059 0.705177 0.117996
Si Si5 0.015951 0.937024 0.947101
Si Si6 0.397182 0.486826 0.764620
O O1 0.750000 0.858656 0.879270
O O2 0.576590 0.838333 0.626119
O O3 0.533110 0.898416 0.840267
O O4 0.528233 0.821610 0.958337
O O5 0.750000 0.631767 0.392008
O O6 0.490386 0.610446 0.390476
O O7 0.556708 0.683980 0.303338
O O8 0.750000 0.426490 0.599355
O O9 0.983447 0.467731 0.640992
O O10 0.883864 0.421982 0.896481
O O11 0.750000 0.709429 0.091841
O O12 0.975032 0.750000 0.116154
O O13 0.898283 0.963045 0.045483
O O14 0.085115 0.965444 0.799965
O O15 0.250000 0.480071 0.676966
#
# Coordination Sequence:
#
# PCOD8241299 Si02
#       6
#     8   8   8   8   8   8
#     4  10  19  32  52  82 111 143 179 220 268 324
#     4  10  20  34  55  81 110 142 180 220 269 322
#     4  10  19  32  52  77 107 143 184 223 270 317
#     4   9  17  32  55  84 114 139 169 218 273 321
#     4   9  18  28  52  75 107 139 184 220 274 312
#     4   9  17  30  53  78 104 141 188 230 272 316
#
# _framework density 19.356650999999999
#
# number of rings (size 3 to 8) (size 9 to 14) (size 15 to 20)
#    1.000    1.500    1.667    1.500    0.000    1.333 
#    0.000    5.833    0.000    0.500    0.000    0.000 
#    0.000    0.000    0.000    0.000    0.000    0.000 
#
# Total GULP energy -594633.550238 kJ/mol
# GULP energy per Si atom -12388.198963 kJ/mol
# Density = 1.931259 g / cm^3
# Si number density = 19.356651 Si / 1000 Ang^3
#
#
#
# Elastic Constant Matrix: (Units=GPa)
#
#
# Indices 1 2 3 4 5 6 
#
# 1 93.2919 38.2634 17.6469 0.0000 0.0000 0.0000
# 2 38.2634 141.2121 57.5584 0.0000 0.0000 0.0000
# 3 17.6469 57.5584 77.2027 0.0000 0.0000 0.0000
# 4 0.0000 0.0000 0.0000 14.7418 0.0000 0.0000
# 5 0.0000 0.0000 0.0000 0.0000 12.0991 0.0000
# 6 0.0000 0.0000 0.0000 0.0000 0.0000 20.4682
#
#
#
# Elastic Compliance Matrix: (Units=1/GPa)
#
#
# Indices 1 2 3 4 5 6 
#
# 1 0.012071 -0.003083 -0.000461 0.000000 0.000000 0.000000
# 2 -0.003083 0.010960 -0.007467 0.000000 0.000000 0.000000
# 3 -0.000461 -0.007467 0.018625 0.000000 0.000000 0.000000
# 4 0.000000 0.000000 0.000000 0.067834 0.000000 0.000000
# 5 0.000000 0.000000 0.000000 0.000000 0.082650 0.000000
# 6 0.000000 0.000000 0.000000 0.000000 0.000000 0.048856
#
#
# Mechanical properties :
#
#
# Convention : Reuss Voigt Hill
#
# Bulk Modulus (GPa) = 50.92850 59.84935 55.38892
# Shear Modulus (GPa) = 18.54854 22.67769 20.61312
#
# Velocity S-wave (km/s) = 3.09892 3.42654 3.26684
# Velocity P-wave (km/s) = 6.25877 6.82944 6.55032
#
# Compressibility (1/GPa) = 0.01963537
#
# Stress axis : x y z
#
# Youngs Moduli (GPa) = 82.84566 91.23735 53.69100
#
# Poissons Ratio (x) = 0.28128 0.02473
# Poissons Ratio (y) = 0.25541 0.40090
# Poissons Ratio (z) = 0.03816 0.68125
#
# Static dielectric constant tensor:
#      x y z
#    x 3.146190 0.000000 0.000000 
#    y 0.000000 3.547400 0.000000 
#    z 0.000000 0.000000 3.382290 
# 
# 
# High freq. dielectric constant tensor:
#      x y z
#    x 1.712390 0.000000 0.000000 
#    y 0.000000 1.745840 0.000000 
#    z 0.000000 0.000000 1.743310 
# 
# From -- ./inp_files/7675.got.cif
#   From: 2010.03.12/outbox.cif.g09.slc.cpg/sg59_4_cif.got.tgz:7675.got - 2010.04.16 16:29:54.
