data_PCOD8241350
_publ_section_title
;
Structure prediction by ZEFSAII (Michael W. Deem and Ramdas Pophale) SiO2 
 PCOD8241350
Probable space group: P M M N
;
_chemical_formula_sum "Si O2"
_cell_formula_units_Z 56
_cell_length_a 19.456746
_cell_length_b 9.446947
_cell_length_c 17.154036
_cell_angle_alpha 90.000000
_cell_angle_beta 90.000000
_cell_angle_gamma 90.000000
_cell_volume 3153.029292
_symmetry_space_group_name_H-M "P M M N"
_symmetry_group_IT_number 59
_space_group.IT_coordinate_system_code '2'
_symmetry_cell_setting 'orthorhombic'
loop_
_space_group_symop_operation_xyz
x,y,z
1/2-x,1/2-y,z
1/2+x,-y,-z
-x,1/2+y,-z
-x,-y,-z
1/2+x,1/2+y,-z
1/2-x,y,z
x,1/2-y,z
loop_
_atom_site_type_symbol
_atom_site_label
_atom_site_fract_x
_atom_site_fract_y
_atom_site_fract_z
Si Si1 0.907016 0.910465 0.965892
Si Si2 0.446120 0.585160 0.894084
Si Si3 0.063038 0.413631 0.737835
Si Si4 0.170895 0.585177 0.456633
Si Si5 0.672412 0.586872 0.816745
Si Si6 0.910413 0.086310 0.694005
Si Si7 0.328703 0.086255 0.608063
O O1 0.909292 0.750000 0.997981
O O2 0.843024 0.935069 0.908373
O O3 0.974960 0.942946 0.915514
O O4 0.898972 0.016033 0.038546
O O5 0.428122 0.750000 0.887604
O O6 0.429636 0.511643 0.812749
O O7 0.068608 0.250000 0.763808
O O8 0.124571 0.457892 0.680767
O O9 0.991843 0.440704 0.692156
O O10 0.250000 0.551773 0.435098
O O11 0.159562 0.750000 0.473309
O O12 0.123100 0.530862 0.386149
O O13 0.147505 0.502021 0.533227
O O14 0.750000 0.537584 0.800728
O O15 0.661283 0.750000 0.793730
O O16 0.620774 0.495130 0.766653
O O17 0.892048 0.250000 0.705682
O O18 0.250000 0.051920 0.630331
O O19 0.338921 0.250000 0.586961
#
# Coordination Sequence:
#
# PCOD8241350 Si02
#       7
#     8   8   8   8   8   8   8
#     4   9  18  33  51  73 101 133 169 207 249 298
#     4  10  19  32  53  77 100 130 169 211 254 300
#     4  10  20  34  53  77 104 134 170 215 262 307
#     4   9  18  33  51  72 101 136 170 205 252 309
#     4  10  20  34  52  76 107 140 173 210 253 302
#     4  10  20  33  51  76 106 137 172 210 255 308
#     4   9  19  36  55  74  98 132 174 216 260 310
#
# _framework density 17.760697
#
# number of rings (size 3 to 8) (size 9 to 14) (size 15 to 20)
#    0.000    2.429    1.429    0.857    0.000    3.714 
#    0.000    2.143    0.000    4.286    0.000    0.000 
#    0.000    0.000    0.000    0.000    0.000    0.000 
#
# Total GULP energy -694537.418694 kJ/mol
# GULP energy per Si atom -12402.453905 kJ/mol
# Density = 1.772027 g / cm^3
# Si number density = 17.760697 Si / 1000 Ang^3
#
#
#
# Elastic Constant Matrix: (Units=GPa)
#
#
# Indices 1 2 3 4 5 6 
#
# 1 76.4164 39.1242 54.1957 0.0000 0.0000 0.0000
# 2 39.1242 76.7152 70.0224 0.0000 0.0000 0.0000
# 3 54.1957 70.0224 135.9096 0.0000 0.0000 0.0000
# 4 0.0000 0.0000 0.0000 38.5209 0.0000 0.0000
# 5 0.0000 0.0000 0.0000 0.0000 24.5613 0.0000
# 6 0.0000 0.0000 0.0000 0.0000 0.0000 16.5085
#
#
#
# Elastic Compliance Matrix: (Units=1/GPa)
#
#
# Indices 1 2 3 4 5 6 
#
# 1 0.019336 -0.005330 -0.004964 0.000000 0.000000 0.000000
# 2 -0.005330 0.026076 -0.011309 0.000000 0.000000 0.000000
# 3 -0.004964 -0.011309 0.015164 0.000000 0.000000 0.000000
# 4 0.000000 0.000000 0.000000 0.025960 0.000000 0.000000
# 5 0.000000 0.000000 0.000000 0.000000 0.040714 0.000000
# 6 0.000000 0.000000 0.000000 0.000000 0.000000 0.060575
#
#
# Mechanical properties :
#
#
# Convention : Reuss Voigt Hill
#
# Bulk Modulus (GPa) = 57.57429 68.41397 62.99413
# Shear Modulus (GPa) = 21.11285 24.29806 22.70545
#
# Velocity S-wave (km/s) = 3.45155 3.70277 3.57937
# Velocity P-wave (km/s) = 6.95495 7.54216 7.25450
#
# Compressibility (1/GPa) = 0.01736887
#
# Stress axis : x y z
#
# Youngs Moduli (GPa) = 51.71747 38.34913 65.94470
#
# Poissons Ratio (x) = 0.20439 0.32738
# Poissons Ratio (y) = 0.27565 0.74580
# Poissons Ratio (z) = 0.25675 0.43371
#
# Static dielectric constant tensor:
#      x y z
#    x 3.279000 0.000000 0.000000 
#    y 0.000000 3.304820 0.000000 
#    z 0.000000 0.000000 3.238320 
# 
# 
# High freq. dielectric constant tensor:
#      x y z
#    x 1.676310 0.000000 0.000000 
#    y 0.000000 1.686330 0.000000 
#    z 0.000000 0.000000 1.687190 
# 
# From -- ./inp_files/20910.got.cif
#   From: 2010.03.12/outbox.cif.g09.slc.cpg/sg59_11_cif.got.tgz:20910.got - 2010.04.16 16:29:54.
