data_PCOD8241648
_publ_section_title
;
Structure prediction by ZEFSAII (Michael W. Deem and Ramdas Pophale) SiO2 
 PCOD8241648
Probable space group: P M M N
;
_chemical_formula_sum "Si O2"
_cell_formula_units_Z 56
_cell_length_a 8.288307
_cell_length_b 22.580389
_cell_length_c 14.930657
_cell_angle_alpha 90.000000
_cell_angle_beta 90.000000
_cell_angle_gamma 90.000000
_cell_volume 2794.320179
_symmetry_space_group_name_H-M "P M M N"
_symmetry_group_IT_number 59
_space_group.IT_coordinate_system_code '2'
_symmetry_cell_setting 'orthorhombic'
loop_
_space_group_symop_operation_xyz
x,y,z
1/2-x,1/2-y,z
1/2+x,-y,-z
-x,1/2+y,-z
-x,-y,-z
1/2+x,1/2+y,-z
1/2-x,y,z
x,1/2-y,z
loop_
_atom_site_type_symbol
_atom_site_label
_atom_site_fract_x
_atom_site_fract_y
_atom_site_fract_z
Si Si1 0.941780 0.750000 0.814090
Si Si2 0.056609 0.250000 0.981727
Si Si3 0.558476 0.854793 0.684923
Si Si4 0.061450 0.980584 0.737862
Si Si5 0.558339 0.815793 0.490426
Si Si6 0.941893 0.606567 0.329578
Si Si7 0.565246 0.648004 0.143209
Si Si8 0.564046 0.472308 0.911217
O O1 0.750000 0.750000 0.813566
O O2 0.010801 0.750000 0.915968
O O3 0.001718 0.690688 0.762236
O O4 0.250000 0.250000 0.988167
O O5 0.985035 0.305442 0.925404
O O6 0.750000 0.861686 0.688349
O O7 0.477809 0.918940 0.691186
O O8 0.497361 0.830036 0.589930
O O9 0.250000 0.985309 0.759263
O O10 0.961781 0.981797 0.830190
O O11 0.006920 0.037158 0.676708
O O12 0.750000 0.818445 0.488751
O O13 0.498596 0.750000 0.463881
O O14 0.486814 0.863486 0.419498
O O15 0.750000 0.610915 0.328759
O O16 0.010204 0.643932 0.243735
O O17 0.750000 0.666695 0.152099
O O18 0.549487 0.583883 0.100878
O O19 0.750000 0.453756 0.918334
O O20 0.500000 0.500000 0.000000
#
# Coordination Sequence:
#
# PCOD8241648 Si02
#       8
#     4   4   8   8   8   8   8   8
#     4   9  18  32  48  74 108 139 178 230 273 321
#     4   9  18  30  50  78 108 143 182 222 269 319
#     4  10  19  33  54  79 106 140 184 229 276 330
#     4  10  21  37  54  78 110 143 179 225 280 332
#     4   9  16  28  50  79 107 139 182 231 277 323
#     4   8  16  30  49  75 108 138 176 229 276 320
#     4   9  18  33  52  80 111 142 182 226 271 326
#     4  11  22  37  57  80 108 144 183 225 272 323
#
# _framework density 20.040652999999999
#
# number of rings (size 3 to 8) (size 9 to 14) (size 15 to 20)
#    0.000    2.571    0.714    2.571    3.000    0.571 
#    0.000    0.714    0.000    4.286    0.000    0.000 
#    0.000    0.000    0.000    0.000    0.000    0.000 
#
# Total GULP energy -694007.086161 kJ/mol
# GULP energy per Si atom -12392.983681 kJ/mol
# Density = 1.999504 g / cm^3
# Si number density = 20.040653 Si / 1000 Ang^3
#
#
#
# Elastic Constant Matrix: (Units=GPa)
#
#
# Indices 1 2 3 4 5 6 
#
# 1 23.8528 6.1699 8.0039 0.0000 0.0000 0.0000
# 2 6.1699 142.6257 87.0642 0.0000 0.0000 0.0000
# 3 8.0039 87.0642 142.2867 0.0000 0.0000 0.0000
# 4 0.0000 0.0000 0.0000 35.8791 0.0000 0.0000
# 5 0.0000 0.0000 0.0000 0.0000 12.4572 0.0000
# 6 0.0000 0.0000 0.0000 0.0000 0.0000 21.6788
#
#
#
# Elastic Compliance Matrix: (Units=1/GPa)
#
#
# Indices 1 2 3 4 5 6 
#
# 1 0.042764 -0.000609 -0.002033 0.000000 0.000000 0.000000
# 2 -0.000609 0.011200 -0.006819 0.000000 0.000000 0.000000
# 3 -0.002033 -0.006819 0.011315 0.000000 0.000000 0.000000
# 4 0.000000 0.000000 0.000000 0.027871 0.000000 0.000000
# 5 0.000000 0.000000 0.000000 0.000000 0.080275 0.000000
# 6 0.000000 0.000000 0.000000 0.000000 0.000000 0.046128
#
#
# Mechanical properties :
#
#
# Convention : Reuss Voigt Hill
#
# Bulk Modulus (GPa) = 21.57179 56.80458 39.18818
# Shear Modulus (GPa) = 19.69063 27.83815 23.76439
#
# Velocity S-wave (km/s) = 3.13794 3.73109 3.44729
# Velocity P-wave (km/s) = 4.89043 6.85329 5.95331
#
# Compressibility (1/GPa) = 0.04635683
#
# Stress axis : x y z
#
# Youngs Moduli (GPa) = 23.38441 89.28262 88.37808
#
# Poissons Ratio (x) = 0.05437 0.17967
# Poissons Ratio (y) = 0.01424 0.60267
# Poissons Ratio (z) = 0.04754 0.60883
#
# Static dielectric constant tensor:
#      x y z
#    x 3.343730 0.000000 0.000000 
#    y 0.000000 3.825700 0.000000 
#    z 0.000000 0.000000 4.017470 
# 
# 
# High freq. dielectric constant tensor:
#      x y z
#    x 1.731290 0.000000 0.000000 
#    y 0.000000 1.789260 0.000000 
#    z 0.000000 0.000000 1.790760 
# 
# From -- ./inp_files/21220.got.cif
#   From: 2010.03.12/outbox.cif.g09.slc.cpg/sg59_11_cif.got.tgz:21220.got - 2010.04.16 16:29:54.
