data_PCOD8241482
_publ_section_title
;
Structure prediction by ZEFSAII (Michael W. Deem and Ramdas Pophale) SiO2 
 PCOD8241482
Probable space group: P M M N
;
_chemical_formula_sum "Si O2"
_cell_formula_units_Z 64
_cell_length_a 15.817734
_cell_length_b 21.920905
_cell_length_c 9.556830
_cell_angle_alpha 90.000000
_cell_angle_beta 90.000000
_cell_angle_gamma 90.000000
_cell_volume 3313.726101
_symmetry_space_group_name_H-M "P M M N"
_symmetry_group_IT_number 59
_space_group.IT_coordinate_system_code '2'
_symmetry_cell_setting 'orthorhombic'
loop_
_space_group_symop_operation_xyz
x,y,z
1/2-x,1/2-y,z
1/2+x,-y,-z
-x,1/2+y,-z
-x,-y,-z
1/2+x,1/2+y,-z
1/2-x,y,z
x,1/2-y,z
loop_
_atom_site_type_symbol
_atom_site_label
_atom_site_fract_x
_atom_site_fract_y
_atom_site_fract_z
Si Si1 0.984548 0.181484 0.007286
Si Si2 0.080588 0.504956 0.100935
Si Si3 0.999945 0.180905 0.684238
Si Si4 0.155672 0.382615 0.035708
Si Si5 0.346992 0.591927 0.892983
Si Si6 0.842869 0.885151 0.286652
Si Si7 0.950948 0.448493 0.593759
Si Si8 0.153056 0.987060 0.632391
O O1 0.969017 0.250000 0.050350
O O2 0.967449 0.170562 0.842449
O O3 0.081456 0.167048 0.052199
O O4 0.914091 0.146071 0.094606
O O5 0.049398 0.530945 0.247336
O O6 0.127060 0.440827 0.126442
O O7 0.148235 0.550283 0.031217
O O8 0.000000 0.500000 0.000000
O O9 0.976214 0.250000 0.631398
O O10 0.102183 0.175406 0.687153
O O11 0.969127 0.125006 0.585582
O O12 0.250000 0.359564 0.084545
O O13 0.161971 0.403197 0.875435
O O14 0.250000 0.615344 0.876458
O O15 0.379825 0.555416 0.757325
O O16 0.750000 0.871603 0.348372
O O17 0.889471 0.944361 0.359292
O O18 0.859732 0.453981 0.516817
O O19 0.000000 0.500000 0.500000
O O20 0.250000 0.001900 0.660149
#
# Coordination Sequence:
#
# PCOD8241482 Si02
#       8
#     8   8   8   8   8   8   8   8
#     4  10  21  37  58  85 118 157 202 253 302 359
#     4  12  20  35  60  88 121 153 196 249 304 362
#     4  10  20  36  55  81 115 155 199 244 295 359
#     4  10  19  32  57  89 118 151 191 240 298 358
#     4  11  21  37  62  87 115 154 197 250 308 358
#     4   9  16  31  54  84 117 147 183 234 289 347
#     4  12  23  36  59  88 119 158 201 247 307 361
#     4  10  21  36  57  86 120 148 190 247 301 358
#
# _framework density 19.313604000000002
#
# number of rings (size 3 to 8) (size 9 to 14) (size 15 to 20)
#    0.000    1.500    5.000    1.875    0.000    1.750 
#    0.000    3.125    0.000    1.125    0.000    0.000 
#    0.000    0.000    0.000    0.000    0.000    0.000 
#
# Total GULP energy -792848.441191 kJ/mol
# GULP energy per Si atom -12388.256894 kJ/mol
# Density = 1.926965 g / cm^3
# Si number density = 19.313604 Si / 1000 Ang^3
#
#
#
# Elastic Constant Matrix: (Units=GPa)
#
#
# Indices 1 2 3 4 5 6 
#
# 1 76.4922 30.6010 20.3913 0.0000 0.0000 0.0000
# 2 30.6010 117.7608 30.5088 0.0000 0.0000 0.0000
# 3 20.3913 30.5088 77.1109 0.0000 0.0000 0.0000
# 4 0.0000 0.0000 0.0000 24.1529 0.0000 0.0000
# 5 0.0000 0.0000 0.0000 0.0000 22.5805 0.0000
# 6 0.0000 0.0000 0.0000 0.0000 0.0000 18.5397
#
#
#
# Elastic Compliance Matrix: (Units=1/GPa)
#
#
# Indices 1 2 3 4 5 6 
#
# 1 0.015084 -0.003216 -0.002716 0.000000 0.000000 0.000000
# 2 -0.003216 0.010147 -0.003164 0.000000 0.000000 0.000000
# 3 -0.002716 -0.003164 0.014939 0.000000 0.000000 0.000000
# 4 0.000000 0.000000 0.000000 0.041403 0.000000 0.000000
# 5 0.000000 0.000000 0.000000 0.000000 0.044286 0.000000
# 6 0.000000 0.000000 0.000000 0.000000 0.000000 0.053938
#
#
# Mechanical properties :
#
#
# Convention : Reuss Voigt Hill
#
# Bulk Modulus (GPa) = 45.50323 48.26289 46.88306
# Shear Modulus (GPa) = 24.35273 25.71214 25.03244
#
# Velocity S-wave (km/s) = 3.55478 3.65265 3.60405
# Velocity P-wave (km/s) = 6.36082 6.54465 6.45339
#
# Compressibility (1/GPa) = 0.02197646
#
# Stress axis : x y z
#
# Youngs Moduli (GPa) = 66.29582 98.54879 66.94051
#
# Poissons Ratio (x) = 0.31692 0.18184
# Poissons Ratio (y) = 0.21320 0.21182
# Poissons Ratio (z) = 0.18009 0.31184
#
# Static dielectric constant tensor:
#      x y z
#    x 3.886190 0.000000 0.000000 
#    y 0.000000 3.561140 0.000000 
#    z 0.000000 0.000000 3.599430 
# 
# 
# High freq. dielectric constant tensor:
#      x y z
#    x 1.761040 0.000000 0.000000 
#    y 0.000000 1.743290 0.000000 
#    z 0.000000 0.000000 1.717410 
# 
# From -- ./inp_files/10691.got.cif
#   From: 2010.03.12/outbox.cif.g09.slc.cpg/sg59_6_cif.got.tgz:10691.got - 2010.04.16 16:29:54.
