data_PCOD8241711
_publ_section_title
;
Structure prediction by ZEFSAII (Michael W. Deem and Ramdas Pophale) SiO2 
 PCOD8241711
Probable space group: P M M N
;
_chemical_formula_sum "Si O2"
_cell_formula_units_Z 64
_cell_length_a 33.110457
_cell_length_b 9.047697
_cell_length_c 11.360052
_cell_angle_alpha 90.000000
_cell_angle_beta 90.000000
_cell_angle_gamma 90.000000
_cell_volume 3403.169203
_symmetry_space_group_name_H-M "P M M N"
_symmetry_group_IT_number 59
_space_group.IT_coordinate_system_code '2'
_symmetry_cell_setting 'orthorhombic'
loop_
_space_group_symop_operation_xyz
x,y,z
1/2-x,1/2-y,z
1/2+x,-y,-z
-x,1/2+y,-z
-x,-y,-z
1/2+x,1/2+y,-z
1/2-x,y,z
x,1/2-y,z
loop_
_atom_site_type_symbol
_atom_site_label
_atom_site_fract_x
_atom_site_fract_y
_atom_site_fract_z
Si Si1 0.703066 0.575558 0.955339
Si Si2 0.021097 0.923360 0.832337
Si Si3 0.638126 0.078589 0.541827
Si Si4 0.204829 0.417029 0.589324
Si Si5 0.907156 0.423758 0.316870
Si Si6 0.637955 0.077925 0.810523
Si Si7 0.173948 0.574388 0.807461
Si Si8 0.554073 0.077814 0.913259
O O1 0.750000 0.533471 0.937218
O O2 0.697644 0.750000 0.968186
O O3 0.685115 0.496603 0.069168
O O4 0.677395 0.516728 0.844174
O O5 0.013654 0.750000 0.821898
O O6 0.049864 0.987673 0.728030
O O7 0.043858 0.964310 0.953354
O O8 0.977592 0.000253 0.825107
O O9 0.648392 0.250000 0.518928
O O10 0.602152 0.029363 0.452009
O O11 0.625586 0.048133 0.675290
O O12 0.677832 0.985311 0.513664
O O13 0.250000 0.418741 0.539573
O O14 0.190659 0.250000 0.617521
O O15 0.203955 0.513293 0.708193
O O16 0.910512 0.250000 0.304499
O O17 0.871061 0.475768 0.230748
O O18 0.647775 0.250000 0.832349
O O19 0.599614 0.024584 0.887078
O O20 0.178288 0.750000 0.817320
O O21 0.550518 0.250000 0.887714
#
# Coordination Sequence:
#
# PCOD8241711 Si02
#       8
#     8   8   8   8   8   8   8   8
#     4  11  24  38  52  75 107 138 169 212 266 318
#     4   9  16  29  51  76 102 132 165 201 250 315
#     4   9  19  35  54  74  96 130 178 223 260 303
#     4  10  20  33  50  74 105 137 168 210 264 312
#     4   8  15  30  52  77 103 131 166 210 255 297
#     4  10  21  38  57  74  98 136 179 220 260 306
#     4  10  19  33  55  80 106 137 173 212 255 305
#     4   9  18  32  50  75 105 133 165 210 259 304
#
# _framework density 18.806001999999999
#
# number of rings (size 3 to 8) (size 9 to 14) (size 15 to 20)
#    0.000    2.500    0.000    3.000    0.000    7.000 
#    0.000    8.750    0.000    0.000    0.000    0.000 
#    0.000    0.000    0.000    0.000    0.000    0.000 
#
# Total GULP energy -793448.916074 kJ/mol
# GULP energy per Si atom -12397.639314 kJ/mol
# Density = 1.876320 g / cm^3
# Si number density = 18.806002 Si / 1000 Ang^3
#
#
#
# Elastic Constant Matrix: (Units=GPa)
#
#
# Indices 1 2 3 4 5 6 
#
# 1 87.4961 32.3187 35.1112 0.0000 0.0000 0.0000
# 2 32.3187 57.1889 30.0872 0.0000 0.0000 0.0000
# 3 35.1112 30.0872 79.9826 0.0000 0.0000 0.0000
# 4 0.0000 0.0000 0.0000 20.4343 0.0000 0.0000
# 5 0.0000 0.0000 0.0000 0.0000 17.8052 0.0000
# 6 0.0000 0.0000 0.0000 0.0000 0.0000 28.7095
#
#
#
# Elastic Compliance Matrix: (Units=1/GPa)
#
#
# Indices 1 2 3 4 5 6 
#
# 1 0.015596 -0.006497 -0.004402 0.000000 0.000000 0.000000
# 2 -0.006497 0.024507 -0.006367 0.000000 0.000000 0.000000
# 3 -0.004402 -0.006367 0.016830 0.000000 0.000000 0.000000
# 4 0.000000 0.000000 0.000000 0.048937 0.000000 0.000000
# 5 0.000000 0.000000 0.000000 0.000000 0.056163 0.000000
# 6 0.000000 0.000000 0.000000 0.000000 0.000000 0.034832
#
#
# Mechanical properties :
#
#
# Convention : Reuss Voigt Hill
#
# Bulk Modulus (GPa) = 44.64165 46.63352 45.63759
# Shear Modulus (GPa) = 20.93237 21.86650 21.39943
#
# Velocity S-wave (km/s) = 3.33989 3.41360 3.37694
# Velocity P-wave (km/s) = 6.21793 6.35514 6.28691
#
# Compressibility (1/GPa) = 0.02240060
#
# Stress axis : x y z
#
# Youngs Moduli (GPa) = 64.12072 40.80421 59.41730
#
# Poissons Ratio (x) = 0.26512 0.26156
# Poissons Ratio (y) = 0.41662 0.37829
# Poissons Ratio (z) = 0.28226 0.25979
#
# Static dielectric constant tensor:
#      x y z
#    x 3.621580 0.000000 0.000000 
#    y 0.000000 3.367580 0.000000 
#    z 0.000000 0.000000 3.440840 
# 
# 
# High freq. dielectric constant tensor:
#      x y z
#    x 1.730090 0.000000 0.000000 
#    y 0.000000 1.717570 0.000000 
#    z 0.000000 0.000000 1.721330 
# 
# From -- ./inp_files/19223.got.cif
#   From: 2010.03.12/outbox.cif.g09.slc.cpg/sg59_10_cif.got.tgz:19223.got - 2010.04.16 16:29:54.
