data_PCOD8241462
_publ_section_title
;
Structure prediction by ZEFSAII (Michael W. Deem and Ramdas Pophale) SiO2 
 PCOD8241462
Probable space group: P M M N
;
_chemical_formula_sum "Si O2"
_cell_formula_units_Z 64
_cell_length_a 9.019111
_cell_length_b 28.985740
_cell_length_c 12.346587
_cell_angle_alpha 90.000000
_cell_angle_beta 90.000000
_cell_angle_gamma 90.000000
_cell_volume 3227.713994
_symmetry_space_group_name_H-M "P M M N"
_symmetry_group_IT_number 59
_space_group.IT_coordinate_system_code '2'
_symmetry_cell_setting 'orthorhombic'
loop_
_space_group_symop_operation_xyz
x,y,z
1/2-x,1/2-y,z
1/2+x,-y,-z
-x,1/2+y,-z
-x,-y,-z
1/2+x,1/2+y,-z
1/2-x,y,z
x,1/2-y,z
loop_
_atom_site_type_symbol
_atom_site_label
_atom_site_fract_x
_atom_site_fract_y
_atom_site_fract_z
Si Si1 0.416256 0.700057 0.631211
Si Si2 0.077495 0.542156 0.742052
Si Si3 0.575290 0.696216 0.018241
Si Si4 0.081799 0.547547 0.270525
Si Si5 0.923695 0.139065 0.168298
Si Si6 0.419994 0.925106 0.507091
Si Si7 0.923360 0.834738 0.440351
Si Si8 0.573359 0.150539 0.776347
O O1 0.250000 0.690182 0.588648
O O2 0.424727 0.750000 0.689192
O O3 0.461797 0.661192 0.716249
O O4 0.527844 0.702325 0.529814
O O5 0.250000 0.534126 0.751011
O O6 0.031710 0.585191 0.819024
O O7 0.031754 0.549234 0.616553
O O8 0.002492 0.495222 0.784946
O O9 0.750000 0.690282 0.034546
O O10 0.534134 0.750000 0.998401
O O11 0.523754 0.664429 0.919368
O O12 0.490934 0.677506 0.122428
O O13 0.250000 0.542960 0.233613
O O14 0.064915 0.542941 0.400883
O O15 0.020750 0.596790 0.226663
O O16 0.750000 0.145053 0.138742
O O17 0.250000 0.906985 0.516973
O O18 0.531906 0.883296 0.492116
O O19 0.750000 0.832082 0.416706
O O20 0.010120 0.824309 0.329626
O O21 0.750000 0.153672 0.776075
#
# Coordination Sequence:
#
# PCOD8241462 Si02
#       8
#     8   8   8   8   8   8   8   8
#     4  10  20  36  58  81 112 155 197 238 289 354
#     4  10  19  32  55  84 119 159 200 243 285 339
#     4  11  25  44  66  92 118 145 187 249 310 357
#     4   9  19  33  54  85 119 154 195 243 293 344
#     4  10  21  39  62  87 116 155 202 243 285 348
#     4   9  17  33  52  76 116 161 202 240 276 335
#     4  11  21  33  54  85 120 154 188 238 298 349
#     4  10  22  42  65  86 115 155 200 245 289 351
#
# _framework density 19.828274
#
# number of rings (size 3 to 8) (size 9 to 14) (size 15 to 20)
#    0.000    2.000    1.250    3.375    0.000    6.250 
#    0.000    0.625    0.000    0.000    0.000    0.000 
#    0.000    0.000    0.000    0.000    0.000    0.000 
#
# Total GULP energy -793375.358990 kJ/mol
# GULP energy per Si atom -12396.489984 kJ/mol
# Density = 1.978314 g / cm^3
# Si number density = 19.828274 Si / 1000 Ang^3
#
#
#
# Elastic Constant Matrix: (Units=GPa)
#
#
# Indices 1 2 3 4 5 6 
#
# 1 75.9714 24.9840 41.0376 0.0000 0.0000 0.0000
# 2 24.9840 66.7597 26.4781 0.0000 0.0000 0.0000
# 3 41.0376 26.4781 77.6157 0.0000 0.0000 0.0000
# 4 0.0000 0.0000 0.0000 18.2516 0.0000 0.0000
# 5 0.0000 0.0000 0.0000 0.0000 25.1930 0.0000
# 6 0.0000 0.0000 0.0000 0.0000 0.0000 32.8887
#
#
#
# Elastic Compliance Matrix: (Units=1/GPa)
#
#
# Indices 1 2 3 4 5 6 
#
# 1 0.019163 -0.003646 -0.008888 0.000000 0.000000 0.000000
# 2 -0.003646 0.018017 -0.004218 0.000000 0.000000 0.000000
# 3 -0.008888 -0.004218 0.019022 0.000000 0.000000 0.000000
# 4 0.000000 0.000000 0.000000 0.054790 0.000000 0.000000
# 5 0.000000 0.000000 0.000000 0.000000 0.039694 0.000000
# 6 0.000000 0.000000 0.000000 0.000000 0.000000 0.030406
#
#
# Mechanical properties :
#
#
# Convention : Reuss Voigt Hill
#
# Bulk Modulus (GPa) = 44.05944 45.03847 44.54895
# Shear Modulus (GPa) = 22.50605 23.78981 23.14793
#
# Velocity S-wave (km/s) = 3.37270 3.46756 3.42046
# Velocity P-wave (km/s) = 6.11846 6.22861 6.17378
#
# Compressibility (1/GPa) = 0.02269661
#
# Stress axis : x y z
#
# Youngs Moduli (GPa) = 52.18358 55.50376 52.56941
#
# Poissons Ratio (x) = 0.20239 0.46724
# Poissons Ratio (y) = 0.19028 0.22176
# Poissons Ratio (z) = 0.46382 0.23413
#
# Static dielectric constant tensor:
#      x y z
#    x 3.507350 0.000000 0.000000 
#    y 0.000000 3.713100 0.000000 
#    z 0.000000 0.000000 3.593680 
# 
# 
# High freq. dielectric constant tensor:
#      x y z
#    x 1.764100 0.000000 0.000000 
#    y 0.000000 1.779960 0.000000 
#    z 0.000000 0.000000 1.755380 
# 
# From -- ./inp_files/15033.got.cif
#   From: 2010.03.12/outbox.cif.g09.slc.cpg/sg59_8_cif.got.tgz:15033.got - 2010.04.16 16:29:54.
