data_PCOD8241071
_publ_section_title
;
Structure prediction by ZEFSAII (Michael W. Deem and Ramdas Pophale) SiO2 
 PCOD8241071
Probable space group: P M M N
;
_chemical_formula_sum "Si O2"
_cell_formula_units_Z 40
_cell_length_a 12.548810
_cell_length_b 9.163458
_cell_length_c 20.758421
_cell_angle_alpha 90.000000
_cell_angle_beta 90.000000
_cell_angle_gamma 90.000000
_cell_volume 2387.021073
_symmetry_space_group_name_H-M "P M M N"
_symmetry_group_IT_number 59
_space_group.IT_coordinate_system_code '2'
_symmetry_cell_setting 'orthorhombic'
loop_
_space_group_symop_operation_xyz
x,y,z
1/2-x,1/2-y,z
1/2+x,-y,-z
-x,1/2+y,-z
-x,-y,-z
1/2+x,1/2+y,-z
1/2-x,y,z
x,1/2-y,z
loop_
_atom_site_type_symbol
_atom_site_label
_atom_site_fract_x
_atom_site_fract_y
_atom_site_fract_z
Si Si1 0.927655 0.419807 0.590836
Si Si2 0.250000 0.422719 0.181487
Si Si3 0.869150 0.580324 0.052614
Si Si4 0.433547 0.421295 0.090466
Si Si5 0.129565 0.917715 0.555530
Si Si6 0.250000 0.423715 0.329367
O O1 0.926311 0.250000 0.609582
O O2 0.879807 0.447077 0.520394
O O3 0.856305 0.509702 0.640284
O O4 0.048728 0.479180 0.594614
O O5 0.250000 0.250000 0.173795
O O6 0.355751 0.483198 0.146013
O O7 0.250000 0.471672 0.255117
O O8 0.750000 0.538883 0.074447
O O9 0.891758 0.750000 0.061321
O O10 0.950876 0.494731 0.098446
O O11 0.883193 0.535123 0.978148
O O12 0.449497 0.250000 0.097084
O O13 0.250000 0.955384 0.577138
O O14 0.101376 0.750000 0.570804
O O15 0.250000 0.250000 0.338701
#
# Coordination Sequence:
#
# PCOD8241071 Si02
#       6
#     8   4   8   8   8   4
#     4  10  19  32  48  72 102 129 160 198 246 292
#     4   9  18  33  51  69  93 129 168 201 232 277
#     4   9  16  27  45  69  98 125 148 188 245 292
#     4   9  16  29  47  67  93 124 159 195 234 280
#     4   9  17  31  50  73 101 129 157 195 240 291
#     4  11  21  33  51  71  95 131 172 205 238 283
#
# _framework density 16.757289
#
# number of rings (size 3 to 8) (size 9 to 14) (size 15 to 20)
#    0.000    2.600    2.000    0.900    0.000    1.600 
#    0.000    2.500    0.000    1.200    0.000    2.800 
#    0.000    0.000    0.000    0.000    0.000    0.000 
#
# Total GULP energy -495968.752623 kJ/mol
# GULP energy per Si atom -12399.218816 kJ/mol
# Density = 1.671915 g / cm^3
# Si number density = 16.757289 Si / 1000 Ang^3
#
#
#
# Elastic Constant Matrix: (Units=GPa)
#
#
# Indices 1 2 3 4 5 6 
#
# 1 153.2596 59.6715 62.5896 0.0000 0.0000 0.0000
# 2 59.6715 65.2777 42.0507 0.0000 0.0000 0.0000
# 3 62.5896 42.0507 77.4225 0.0000 0.0000 0.0000
# 4 0.0000 0.0000 0.0000 17.0712 0.0000 0.0000
# 5 0.0000 0.0000 0.0000 0.0000 19.4986 0.0000
# 6 0.0000 0.0000 0.0000 0.0000 0.0000 34.1107
#
#
#
# Elastic Compliance Matrix: (Units=1/GPa)
#
#
# Indices 1 2 3 4 5 6 
#
# 1 0.011478 -0.006944 -0.005507 0.000000 0.000000 0.000000
# 2 -0.006944 0.027765 -0.009466 0.000000 0.000000 0.000000
# 3 -0.005507 -0.009466 0.022509 0.000000 0.000000 0.000000
# 4 0.000000 0.000000 0.000000 0.058578 0.000000 0.000000
# 5 0.000000 0.000000 0.000000 0.000000 0.051286 0.000000
# 6 0.000000 0.000000 0.000000 0.000000 0.000000 0.029316
#
#
# Mechanical properties :
#
#
# Convention : Reuss Voigt Hill
#
# Bulk Modulus (GPa) = 55.81258 69.39814 62.60536
# Shear Modulus (GPa) = 19.94097 22.91264 21.42680
#
# Velocity S-wave (km/s) = 3.45336 3.70175 3.57971
# Velocity P-wave (km/s) = 7.01995 7.73138 7.38424
#
# Compressibility (1/GPa) = 0.01791711
#
# Stress axis : x y z
#
# Youngs Moduli (GPa) = 87.12556 36.01641 44.42578
#
# Poissons Ratio (x) = 0.25011 0.24465
# Poissons Ratio (y) = 0.60504 0.42054
# Poissons Ratio (z) = 0.47980 0.34094
#
# Static dielectric constant tensor:
#      x y z
#    x 3.398200 0.000000 0.000000 
#    y 0.000000 3.070710 0.000000 
#    z 0.000000 0.000000 2.866840 
# 
# 
# High freq. dielectric constant tensor:
#      x y z
#    x 1.660600 0.000000 0.000000 
#    y 0.000000 1.639510 0.000000 
#    z 0.000000 0.000000 1.600940 
# 
# From -- ./inp_files/29959.got.cif
#   From: 2010.03.12/outbox.cif.g09.slc.cpg/sg59_15_cif.got.tgz:29959.got - 2010.04.16 16:29:54.
