data_PCOD8241164
_publ_section_title
;
Structure prediction by ZEFSAII (Michael W. Deem and Ramdas Pophale) SiO2 
 PCOD8241164
Probable space group: P M M N
;
_chemical_formula_sum "Si O2"
_cell_formula_units_Z 64
_cell_length_a 22.714783
_cell_length_b 9.124407
_cell_length_c 16.208718
_cell_angle_alpha 90.000000
_cell_angle_beta 90.000000
_cell_angle_gamma 90.000000
_cell_volume 3359.401468
_symmetry_space_group_name_H-M "P M M N"
_symmetry_group_IT_number 59
_space_group.IT_coordinate_system_code '2'
_symmetry_cell_setting 'orthorhombic'
loop_
_space_group_symop_operation_xyz
x,y,z
1/2-x,1/2-y,z
1/2+x,-y,-z
-x,1/2+y,-z
-x,-y,-z
1/2+x,1/2+y,-z
1/2-x,y,z
x,1/2-y,z
loop_
_atom_site_type_symbol
_atom_site_label
_atom_site_fract_x
_atom_site_fract_y
_atom_site_fract_z
Si Si1 0.468670 0.418411 0.879875
Si Si2 0.085029 0.578271 0.726881
Si Si3 0.682127 0.410911 0.515347
Si Si4 0.006738 0.420645 0.412917
Si Si5 0.819034 0.919297 0.357040
Si Si6 0.315940 0.077734 0.166754
Si Si7 0.868979 0.922795 0.661173
Si Si8 0.920307 0.918320 0.945517
O O1 0.472768 0.250000 0.851023
O O2 0.447093 0.520971 0.807346
O O3 0.533182 0.472360 0.904965
O O4 0.422924 0.434697 0.955783
O O5 0.095470 0.750000 0.736623
O O6 0.147698 0.496710 0.718872
O O7 0.047240 0.539398 0.646073
O O8 0.750000 0.387900 0.498022
O O9 0.651131 0.250000 0.516889
O O10 0.656215 0.506995 0.440773
O O11 0.675371 0.495642 0.600500
O O12 0.009830 0.250000 0.432409
O O13 0.065104 0.470681 0.363319
O O14 0.000000 0.500000 0.500000
O O15 0.750000 0.942305 0.343429
O O16 0.836069 0.750000 0.360812
O O17 0.250000 0.006978 0.160714
O O18 0.308045 0.250000 0.173230
O O19 0.351928 0.022539 0.247207
O O20 0.355084 0.036611 0.086444
O O21 0.859681 0.750000 0.652098
O O22 0.934780 0.750000 0.919380
#
# Coordination Sequence:
#
# PCOD8241164 Si02
#       8
#     8   8   8   8   8   8   8   8
#     4  10  20  34  56  84 110 140 179 222 271 324
#     4  11  22  37  57  80 108 139 174 216 264 319
#     4  10  20  33  49  71 101 137 177 218 260 307
#     4  10  22  36  51  75 106 141 177 219 268 314
#     4  10  21  37  56  77 102 133 172 218 263 308
#     4   9  17  31  54  81 107 139 180 226 276 329
#     4  10  19  32  51  74 101 135 178 221 262 313
#     4   9  18  35  57  81 109 139 177 223 270 324
#
# _framework density 19.051013000000001
#
# number of rings (size 3 to 8) (size 9 to 14) (size 15 to 20)
#    0.000    2.125    0.000    3.375    0.000    8.000 
#    0.000    2.500    0.000    3.375    0.000    0.000 
#    0.000    0.000    0.000    0.000    0.000    0.000 
#
# Total GULP energy -793537.147640 kJ/mol
# GULP energy per Si atom -12399.017932 kJ/mol
# Density = 1.900765 g / cm^3
# Si number density = 19.051013 Si / 1000 Ang^3
#
#
#
# Elastic Constant Matrix: (Units=GPa)
#
#
# Indices 1 2 3 4 5 6 
#
# 1 96.0509 39.5464 52.3478 0.0000 0.0000 0.0000
# 2 39.5464 82.6601 39.2202 0.0000 0.0000 0.0000
# 3 52.3478 39.2202 89.9145 0.0000 0.0000 0.0000
# 4 0.0000 0.0000 0.0000 27.5905 0.0000 0.0000
# 5 0.0000 0.0000 0.0000 0.0000 31.6695 0.0000
# 6 0.0000 0.0000 0.0000 0.0000 0.0000 26.2020
#
#
#
# Elastic Compliance Matrix: (Units=1/GPa)
#
#
# Indices 1 2 3 4 5 6 
#
# 1 0.016310 -0.004158 -0.007682 0.000000 0.000000 0.000000
# 2 -0.004158 0.016315 -0.004696 0.000000 0.000000 0.000000
# 3 -0.007682 -0.004696 0.017642 0.000000 0.000000 0.000000
# 4 0.000000 0.000000 0.000000 0.036244 0.000000 0.000000
# 5 0.000000 0.000000 0.000000 0.000000 0.031576 0.000000
# 6 0.000000 0.000000 0.000000 0.000000 0.000000 0.038165
#
#
# Mechanical properties :
#
#
# Convention : Reuss Voigt Hill
#
# Bulk Modulus (GPa) = 58.15341 58.98381 58.56861
# Shear Modulus (GPa) = 25.63376 26.25980 25.94678
#
# Velocity S-wave (km/s) = 3.67213 3.71670 3.69448
# Velocity P-wave (km/s) = 6.96927 7.03183 7.00062
#
# Compressibility (1/GPa) = 0.01719590
#
# Stress axis : x y z
#
# Youngs Moduli (GPa) = 61.31345 61.29305 56.68255
#
# Poissons Ratio (x) = 0.25486 0.43541
# Poissons Ratio (y) = 0.25495 0.26616
# Poissons Ratio (z) = 0.47099 0.28781
#
# Static dielectric constant tensor:
#      x y z
#    x 3.579120 0.000000 0.000000 
#    y 0.000000 3.470620 0.000000 
#    z 0.000000 0.000000 3.489990 
# 
# 
# High freq. dielectric constant tensor:
#      x y z
#    x 1.741060 0.000000 0.000000 
#    y 0.000000 1.733350 0.000000 
#    z 0.000000 0.000000 1.735150 
# 
# From -- ./inp_files/24703.got.cif
#   From: 2010.03.12/outbox.cif.g09.slc.cpg/sg59_13_cif.got.tgz:24703.got - 2010.04.16 16:29:54.
