data_PCOD8241899
_publ_section_title
;
Structure prediction by ZEFSAII (Michael W. Deem and Ramdas Pophale) SiO2 
 PCOD8241899
Probable space group: P M M N
;
_chemical_formula_sum "Si O2"
_cell_formula_units_Z 64
_cell_length_a 19.393681
_cell_length_b 9.141146
_cell_length_c 19.016443
_cell_angle_alpha 90.000000
_cell_angle_beta 90.000000
_cell_angle_gamma 90.000000
_cell_volume 3371.243943
_symmetry_space_group_name_H-M "P M M N"
_symmetry_group_IT_number 59
_space_group.IT_coordinate_system_code '2'
_symmetry_cell_setting 'orthorhombic'
loop_
_space_group_symop_operation_xyz
x,y,z
1/2-x,1/2-y,z
1/2+x,-y,-z
-x,1/2+y,-z
-x,-y,-z
1/2+x,1/2+y,-z
1/2-x,y,z
x,1/2-y,z
loop_
_atom_site_type_symbol
_atom_site_label
_atom_site_fract_x
_atom_site_fract_y
_atom_site_fract_z
Si Si1 0.328984 0.082983 0.345272
Si Si2 0.169969 0.581060 0.484984
Si Si3 0.909582 0.420731 0.062757
Si Si4 0.068420 0.082854 0.069805
Si Si5 0.330126 0.577039 0.799264
Si Si6 0.067811 0.081118 0.224580
Si Si7 0.058466 0.078605 0.714321
Si Si8 0.947537 0.921664 0.447011
O O1 0.250000 0.061796 0.323874
O O2 0.343825 0.250000 0.368622
O O3 0.372951 0.035960 0.278374
O O4 0.350127 0.975316 0.407783
O O5 0.250000 0.556872 0.501202
O O6 0.148365 0.750000 0.489927
O O7 0.128724 0.486026 0.541383
O O8 0.898556 0.250000 0.054689
O O9 0.861977 0.478627 0.126498
O O10 0.988559 0.465201 0.076623
O O11 0.888514 0.492408 0.988052
O O12 0.073698 0.250000 0.046405
O O13 0.099883 0.055005 0.147164
O O14 0.250000 0.532736 0.796288
O O15 0.340346 0.750000 0.790894
O O16 0.369528 0.498939 0.734744
O O17 0.044663 0.250000 0.233018
O O18 0.000925 0.982146 0.235366
O O19 0.067785 0.250000 0.726423
O O20 0.035634 0.044246 0.634149
O O21 0.948814 0.750000 0.463111
O O22 0.000000 0.000000 0.500000
#
# Coordination Sequence:
#
# PCOD8241899 Si02
#       8
#     8   8   8   8   8   8   8   8
#     4   9  18  33  55  81 108 142 181 223 275 331
#     4  10  21  37  57  80 107 142 184 227 272 330
#     4   9  17  32  52  77 106 137 178 223 265 315
#     4   9  17  30  51  78 107 139 176 220 266 313
#     4  10  21  39  61  82 110 150 191 230 277 334
#     4  10  19  34  55  79 110 146 184 225 269 326
#     4  11  24  38  55  82 113 141 181 230 279 329
#     4  11  24  40  58  83 113 146 182 231 285 335
#
# _framework density 18.984092
#
# number of rings (size 3 to 8) (size 9 to 14) (size 15 to 20)
#    0.000    2.125    1.250    1.875    0.000    7.000 
#    0.000    3.125    0.000    0.750    0.000    0.000 
#    0.000    0.000    0.000    0.000    0.000    0.000 
#
# Total GULP energy -793645.741061 kJ/mol
# GULP energy per Si atom -12400.714704 kJ/mol
# Density = 1.894088 g / cm^3
# Si number density = 18.984092 Si / 1000 Ang^3
#
#
#
# Elastic Constant Matrix: (Units=GPa)
#
#
# Indices 1 2 3 4 5 6 
#
# 1 65.2252 34.5112 34.7509 0.0000 0.0000 0.0000
# 2 34.5112 71.6008 47.7535 0.0000 0.0000 0.0000
# 3 34.7509 47.7535 98.2614 0.0000 0.0000 0.0000
# 4 0.0000 0.0000 0.0000 34.1143 0.0000 0.0000
# 5 0.0000 0.0000 0.0000 0.0000 33.3873 0.0000
# 6 0.0000 0.0000 0.0000 0.0000 0.0000 23.9775
#
#
#
# Elastic Compliance Matrix: (Units=1/GPa)
#
#
# Indices 1 2 3 4 5 6 
#
# 1 0.021497 -0.007828 -0.003798 0.000000 0.000000 0.000000
# 2 -0.007828 0.023515 -0.008659 0.000000 0.000000 0.000000
# 3 -0.003798 -0.008659 0.015728 0.000000 0.000000 0.000000
# 4 0.000000 0.000000 0.000000 0.029313 0.000000 0.000000
# 5 0.000000 0.000000 0.000000 0.000000 0.029952 0.000000
# 6 0.000000 0.000000 0.000000 0.000000 0.000000 0.041706
#
#
# Mechanical properties :
#
#
# Convention : Reuss Voigt Hill
#
# Bulk Modulus (GPa) = 49.58153 52.12430 50.85292
# Shear Modulus (GPa) = 23.92284 26.16729 25.04507
#
# Velocity S-wave (km/s) = 3.55371 3.71668 3.63611
# Velocity P-wave (km/s) = 6.55840 6.77752 6.66886
#
# Compressibility (1/GPa) = 0.02016880
#
# Stress axis : x y z
#
# Youngs Moduli (GPa) = 46.51783 42.52648 63.57913
#
# Poissons Ratio (x) = 0.33291 0.24148
# Poissons Ratio (y) = 0.36416 0.55055
# Poissons Ratio (z) = 0.17668 0.36825
#
# Static dielectric constant tensor:
#      x y z
#    x 3.415920 0.000000 0.000000 
#    y 0.000000 3.451380 0.000000 
#    z 0.000000 0.000000 3.668930 
# 
# 
# High freq. dielectric constant tensor:
#      x y z
#    x 1.722450 0.000000 0.000000 
#    y 0.000000 1.734570 0.000000 
#    z 0.000000 0.000000 1.745420 
# 
# From -- ./inp_files/28195.got.cif
#   From: 2010.03.12/outbox.cif.g09.slc.cpg/sg59_15_cif.got.tgz:28195.got - 2010.04.16 16:29:54.
