data_PCOD8241923
_publ_section_title
;
Structure prediction by ZEFSAII (Michael W. Deem and Ramdas Pophale) SiO2 
 PCOD8241923
Probable space group: P M M N
;
_chemical_formula_sum "Si O2"
_cell_formula_units_Z 56
_cell_length_a 21.180029
_cell_length_b 17.151854
_cell_length_c 7.421219
_cell_angle_alpha 90.000000
_cell_angle_beta 90.000000
_cell_angle_gamma 90.000000
_cell_volume 2695.956432
_symmetry_space_group_name_H-M "P M M N"
_symmetry_group_IT_number 59
_space_group.IT_coordinate_system_code '2'
_symmetry_cell_setting 'orthorhombic'
loop_
_space_group_symop_operation_xyz
x,y,z
1/2-x,1/2-y,z
1/2+x,-y,-z
-x,1/2+y,-z
-x,-y,-z
1/2+x,1/2+y,-z
1/2-x,y,z
x,1/2-y,z
loop_
_atom_site_type_symbol
_atom_site_label
_atom_site_fract_x
_atom_site_fract_y
_atom_site_fract_z
Si Si1 0.121941 0.065998 0.224356
Si Si2 0.417758 0.339064 0.870191
Si Si3 0.323507 0.389935 0.584678
Si Si4 0.877677 0.052868 0.357656
Si Si5 0.322741 0.837965 0.928410
Si Si6 0.501934 0.978956 0.208254
Si Si7 0.320971 0.914119 0.285544
O O1 0.142612 0.121961 0.389639
O O2 0.176987 0.001623 0.196029
O O3 0.106688 0.118355 0.052047
O O4 0.065259 0.006489 0.287183
O O5 0.438241 0.250000 0.912473
O O6 0.359668 0.336606 0.729921
O O7 0.477514 0.386988 0.786646
O O8 0.250000 0.365397 0.576305
O O9 0.329515 0.479983 0.644237
O O10 0.867268 0.098828 0.544297
O O11 0.949192 0.026133 0.331304
O O12 0.866035 0.107936 0.190225
O O13 0.250000 0.859476 0.896623
O O14 0.337660 0.750000 0.875271
O O15 0.341285 0.851322 0.136422
O O16 0.500000 0.000000 0.000000
O O17 0.250000 0.898603 0.352409
#
# Coordination Sequence:
#
# PCOD8241923 Si02
#       7
#     8   8   8   8   8   8   8
#     4  10  20  38  61  82 110 148 191 235 282 330
#     4  10  22  38  57  83 117 152 185 232 293 346
#     4  10  21  36  59  89 114 144 193 241 281 340
#     4  10  19  34  56  78 107 144 187 233 283 334
#     4  10  20  33  51  77 111 147 180 225 286 340
#     4   9  19  37  60  83 107 143 190 234 274 327
#     4  10  20  34  55  82 107 139 189 237 275 333
#
# _framework density 20.771847999999999
#
# number of rings (size 3 to 8) (size 9 to 14) (size 15 to 20)
#    0.000    2.143    0.000    5.143    0.000    8.857 
#    0.000    7.857    0.000    4.286    0.000    0.000 
#    0.000    0.000    0.000    0.000    0.000    0.000 
#
# Total GULP energy -693920.319400 kJ/mol
# GULP energy per Si atom -12391.434275 kJ/mol
# Density = 2.072457 g / cm^3
# Si number density = 20.771848 Si / 1000 Ang^3
#
#
#
# Elastic Constant Matrix: (Units=GPa)
#
#
# Indices 1 2 3 4 5 6 
#
# 1 83.8026 22.0801 40.2372 0.0000 0.0000 0.0000
# 2 22.0801 56.3965 21.1645 0.0000 0.0000 0.0000
# 3 40.2372 21.1645 79.1739 0.0000 0.0000 0.0000
# 4 0.0000 0.0000 0.0000 6.1464 0.0000 0.0000
# 5 0.0000 0.0000 0.0000 0.0000 35.4293 0.0000
# 6 0.0000 0.0000 0.0000 0.0000 0.0000 14.0398
#
#
#
# Elastic Compliance Matrix: (Units=1/GPa)
#
#
# Indices 1 2 3 4 5 6 
#
# 1 0.016440 -0.003669 -0.007374 0.000000 0.000000 0.000000
# 2 -0.003669 0.020528 -0.003623 0.000000 0.000000 0.000000
# 3 -0.007374 -0.003623 0.017347 0.000000 0.000000 0.000000
# 4 0.000000 0.000000 0.000000 0.162697 0.000000 0.000000
# 5 0.000000 0.000000 0.000000 0.000000 0.028225 0.000000
# 6 0.000000 0.000000 0.000000 0.000000 0.000000 0.071226
#
#
# Mechanical properties :
#
#
# Convention : Reuss Voigt Hill
#
# Bulk Modulus (GPa) = 40.02860 42.92629 41.47745
# Shear Modulus (GPa) = 14.11942 20.18252 17.15097
#
# Velocity S-wave (km/s) = 2.61001 3.12048 2.87659
# Velocity P-wave (km/s) = 5.32872 5.80462 5.57176
#
# Compressibility (1/GPa) = 0.02498214
#
# Stress axis : x y z
#
# Youngs Moduli (GPa) = 60.82624 48.71483 57.64829
#
# Poissons Ratio (x) = 0.17874 0.42512
# Poissons Ratio (y) = 0.22318 0.20884
# Poissons Ratio (z) = 0.44855 0.17648
#
# Static dielectric constant tensor:
#      x y z
#    x 3.930840 0.000000 0.000000 
#    y 0.000000 3.536240 0.000000 
#    z 0.000000 0.000000 3.862370 
# 
# 
# High freq. dielectric constant tensor:
#      x y z
#    x 1.807810 0.000000 0.000000 
#    y 0.000000 1.782100 0.000000 
#    z 0.000000 0.000000 1.825920 
# 
# From -- ./inp_files/11546.got.cif
#   From: 2010.03.12/outbox.cif.g09.slc.cpg/sg59_6_cif.got.tgz:11546.got - 2010.04.16 16:29:54.
