data_PCOD8241013
_publ_section_title
;
Structure prediction by ZEFSAII (Michael W. Deem and Ramdas Pophale) SiO2 
 PCOD8241013
Probable space group: P M M N
;
_chemical_formula_sum "Si O2"
_cell_formula_units_Z 64
_cell_length_a 9.023553
_cell_length_b 29.441409
_cell_length_c 12.527742
_cell_angle_alpha 90.000000
_cell_angle_beta 90.000000
_cell_angle_gamma 90.000000
_cell_volume 3328.196541
_symmetry_space_group_name_H-M "P M M N"
_symmetry_group_IT_number 59
_space_group.IT_coordinate_system_code '2'
_symmetry_cell_setting 'orthorhombic'
loop_
_space_group_symop_operation_xyz
x,y,z
1/2-x,1/2-y,z
1/2+x,-y,-z
-x,1/2+y,-z
-x,-y,-z
1/2+x,1/2+y,-z
1/2-x,y,z
x,1/2-y,z
loop_
_atom_site_type_symbol
_atom_site_label
_atom_site_fract_x
_atom_site_fract_y
_atom_site_fract_z
Si Si1 0.924938 0.299327 0.376001
Si Si2 0.419526 0.421393 0.094332
Si Si3 0.925647 0.393193 0.458770
Si Si4 0.425599 0.965059 0.717390
Si Si5 0.076957 0.942749 0.330223
Si Si6 0.583396 0.679221 0.834253
Si Si7 0.921735 0.800250 0.071355
Si Si8 0.077810 0.889617 0.114170
O O1 0.750000 0.302877 0.376975
O O2 0.975219 0.250000 0.423571
O O3 0.991481 0.342019 0.442426
O O4 0.973328 0.301666 0.253421
O O5 0.250000 0.436707 0.077573
O O6 0.503145 0.458920 0.165331
O O7 0.431202 0.374778 0.158650
O O8 0.493785 0.416794 0.978664
O O9 0.750000 0.391219 0.459766
O O10 0.979119 0.425102 0.361843
O O11 0.982269 0.412439 0.571385
O O12 0.250000 0.966193 0.729592
O O13 0.481975 0.011733 0.667419
O O14 0.250000 0.954970 0.342791
O O15 0.045691 0.915166 0.223353
O O16 0.750000 0.693427 0.803081
O O17 0.537541 0.701135 0.946573
O O18 0.750000 0.814114 0.084746
O O19 0.953374 0.750000 0.119614
O O20 0.019951 0.838084 0.129940
O O21 0.250000 0.887967 0.084988
#
# Coordination Sequence:
#
# PCOD8241013 Si02
#       8
#     8   8   8   8   8   8   8   8
#     4  10  19  31  51  79 110 143 176 214 266 322
#     4  10  20  35  56  81 113 149 179 215 275 337
#     4   9  19  37  57  80 112 144 180 226 273 323
#     4  11  21  35  60  88 111 137 178 232 281 331
#     4  10  22  40  58  77 108 148 187 229 277 330
#     4   9  17  30  49  75 108 142 173 210 260 321
#     4   9  18  33  53  77 108 147 186 226 277 332
#     4  10  21  36  55  80 111 146 187 233 274 320
#
# _framework density 19.229633
#
# number of rings (size 3 to 8) (size 9 to 14) (size 15 to 20)
#    0.000    2.250    1.250    2.625    0.000    4.500 
#    0.000    1.875    0.000    2.250    0.000    0.000 
#    0.000    0.000    0.000    0.000    0.000    0.000 
#
# Total GULP energy -793515.523871 kJ/mol
# GULP energy per Si atom -12398.680060 kJ/mol
# Density = 1.918587 g / cm^3
# Si number density = 19.229633 Si / 1000 Ang^3
#
#
#
# Elastic Constant Matrix: (Units=GPa)
#
#
# Indices 1 2 3 4 5 6 
#
# 1 66.5860 46.3729 44.6491 0.0000 0.0000 0.0000
# 2 46.3729 127.5605 49.7830 0.0000 0.0000 0.0000
# 3 44.6491 49.7830 91.4314 0.0000 0.0000 0.0000
# 4 0.0000 0.0000 0.0000 9.6075 0.0000 0.0000
# 5 0.0000 0.0000 0.0000 0.0000 16.5498 0.0000
# 6 0.0000 0.0000 0.0000 0.0000 0.0000 26.0460
#
#
#
# Elastic Compliance Matrix: (Units=1/GPa)
#
#
# Indices 1 2 3 4 5 6 
#
# 1 0.025039 -0.005499 -0.009233 0.000000 0.000000 0.000000
# 2 -0.005499 0.011163 -0.003392 0.000000 0.000000 0.000000
# 3 -0.009233 -0.003392 0.017293 0.000000 0.000000 0.000000
# 4 0.000000 0.000000 0.000000 0.104085 0.000000 0.000000
# 5 0.000000 0.000000 0.000000 0.000000 0.060424 0.000000
# 6 0.000000 0.000000 0.000000 0.000000 0.000000 0.038394
#
#
# Mechanical properties :
#
#
# Convention : Reuss Voigt Hill
#
# Bulk Modulus (GPa) = 57.98696 63.02088 60.50392
# Shear Modulus (GPa) = 16.75625 20.09219 18.42422
#
# Velocity S-wave (km/s) = 2.95511 3.23593 3.09870
# Velocity P-wave (km/s) = 6.47024 6.84146 6.65844
#
# Compressibility (1/GPa) = 0.01724526
#
# Stress axis : x y z
#
# Youngs Moduli (GPa) = 39.93693 89.58542 57.82611
#
# Poissons Ratio (x) = 0.49265 0.53393
# Poissons Ratio (y) = 0.21962 0.19617
# Poissons Ratio (z) = 0.36875 0.30391
#
# Static dielectric constant tensor:
#      x y z
#    x 3.372120 0.000000 0.000000 
#    y 0.000000 3.951550 0.000000 
#    z 0.000000 0.000000 3.365870 
# 
# 
# High freq. dielectric constant tensor:
#      x y z
#    x 1.734260 0.000000 0.000000 
#    y 0.000000 1.759830 0.000000 
#    z 0.000000 0.000000 1.729260 
# 
# From -- ./inp_files/14962.got.cif
#   From: 2010.03.12/outbox.cif.g09.slc.cpg/sg59_8_cif.got.tgz:14962.got - 2010.04.16 16:29:54.
