data_PCOD8241469
_publ_section_title
;
Structure prediction by ZEFSAII (Michael W. Deem and Ramdas Pophale) SiO2 
 PCOD8241469
Probable space group: P M M N
;
_chemical_formula_sum "Si O2"
_cell_formula_units_Z 48
_cell_length_a 14.070848
_cell_length_b 18.619519
_cell_length_c 9.706987
_cell_angle_alpha 90.000000
_cell_angle_beta 90.000000
_cell_angle_gamma 90.000000
_cell_volume 2543.157031
_symmetry_space_group_name_H-M "P M M N"
_symmetry_group_IT_number 59
_space_group.IT_coordinate_system_code '2'
_symmetry_cell_setting 'orthorhombic'
loop_
_space_group_symop_operation_xyz
x,y,z
1/2-x,1/2-y,z
1/2+x,-y,-z
-x,1/2+y,-z
-x,-y,-z
1/2+x,1/2+y,-z
1/2-x,y,z
x,1/2-y,z
loop_
_atom_site_type_symbol
_atom_site_label
_atom_site_fract_x
_atom_site_fract_y
_atom_site_fract_z
Si Si1 0.041352 0.166666 0.440074
Si Si2 0.645721 0.434020 0.777626
Si Si3 0.969053 0.573623 0.067915
Si Si4 0.355710 0.911351 0.538561
Si Si5 0.360221 0.432773 0.654569
Si Si6 0.140673 0.101656 0.186578
O O1 0.040560 0.250000 0.474868
O O2 0.078199 0.126781 0.576439
O O3 0.110081 0.151918 0.311930
O O4 0.934832 0.141407 0.398845
O O5 0.750000 0.419904 0.842631
O O6 0.566263 0.392714 0.868922
O O7 0.641143 0.403201 0.625186
O O8 0.624537 0.519005 0.771012
O O9 0.891791 0.561316 0.187302
O O10 0.921155 0.622277 0.949196
O O11 0.000000 0.500000 0.000000
O O12 0.250000 0.890398 0.593035
O O13 0.380569 0.992120 0.580786
O O14 0.250000 0.411400 0.647045
O O15 0.250000 0.117384 0.152637
#
# Coordination Sequence:
#
# PCOD8241469 Si02
#       6
#     8   8   8   8   8   8
#     4  12  24  38  58  84 117 157 198 239 288 347
#     4   9  16  30  56  86 113 142 185 237 287 337
#     4  10  19  32  55  86 120 149 186 241 292 345
#     4  10  19  35  61  88 113 145 189 246 297 339
#     4  11  21  36  61  90 117 148 195 246 291 341
#     4  10  20  35  53  80 117 154 186 228 289 346
#
# _framework density 18.874178000000001
#
# number of rings (size 3 to 8) (size 9 to 14) (size 15 to 20)
#    0.000    1.667    3.333    3.500    0.000    2.333 
#    0.000    1.667    0.000    2.000    0.000    0.000 
#    0.000    0.000    0.000    0.000    0.000    0.000 
#
# Total GULP energy -595099.346016 kJ/mol
# GULP energy per Si atom -12397.903042 kJ/mol
# Density = 1.883122 g / cm^3
# Si number density = 18.874178 Si / 1000 Ang^3
#
#
#
# Elastic Constant Matrix: (Units=GPa)
#
#
# Indices 1 2 3 4 5 6 
#
# 1 119.0863 38.4716 29.1123 0.0000 0.0000 0.0000
# 2 38.4716 67.1237 20.2645 0.0000 0.0000 0.0000
# 3 29.1123 20.2645 87.2381 0.0000 0.0000 0.0000
# 4 0.0000 0.0000 0.0000 10.6832 0.0000 0.0000
# 5 0.0000 0.0000 0.0000 0.0000 39.0425 0.0000
# 6 0.0000 0.0000 0.0000 0.0000 0.0000 13.0874
#
#
#
# Elastic Compliance Matrix: (Units=1/GPa)
#
#
# Indices 1 2 3 4 5 6 
#
# 1 0.010722 -0.005447 -0.002313 0.000000 0.000000 0.000000
# 2 -0.005447 0.018789 -0.002547 0.000000 0.000000 0.000000
# 3 -0.002313 -0.002547 0.012826 0.000000 0.000000 0.000000
# 4 0.000000 0.000000 0.000000 0.093605 0.000000 0.000000
# 5 0.000000 0.000000 0.000000 0.000000 0.025613 0.000000
# 6 0.000000 0.000000 0.000000 0.000000 0.000000 0.076410
#
#
# Mechanical properties :
#
#
# Convention : Reuss Voigt Hill
#
# Bulk Modulus (GPa) = 46.03208 49.90499 47.96853
# Shear Modulus (GPa) = 18.80975 24.93594 21.87284
#
# Velocity S-wave (km/s) = 3.16030 3.63873 3.40792
# Velocity P-wave (km/s) = 6.14480 6.64470 6.39963
#
# Compressibility (1/GPa) = 0.02172398
#
# Stress axis : x y z
#
# Youngs Moduli (GPa) = 93.26218 53.22331 77.96503
#
# Poissons Ratio (x) = 0.28992 0.18032
# Poissons Ratio (y) = 0.50802 0.19855
# Poissons Ratio (z) = 0.21570 0.13554
#
# Static dielectric constant tensor:
#      x y z
#    x 4.094150 0.000000 0.000000 
#    y 0.000000 2.924090 0.000000 
#    z 0.000000 0.000000 3.659350 
# 
# 
# High freq. dielectric constant tensor:
#      x y z
#    x 1.762570 0.000000 0.000000 
#    y 0.000000 1.669370 0.000000 
#    z 0.000000 0.000000 1.735510 
# 
# From -- ./inp_files/9001.got.cif
#   From: 2010.03.12/outbox.cif.g09.slc.cpg/sg59_5_cif.got.tgz:9001.got - 2010.04.16 16:29:54.
