data_PCOD8241496
_publ_section_title
;
Structure prediction by ZEFSAII (Michael W. Deem and Ramdas Pophale) SiO2 
 PCOD8241496
Probable space group: P M M N
;
_chemical_formula_sum "Si O2"
_cell_formula_units_Z 64
_cell_length_a 25.289656
_cell_length_b 14.288620
_cell_length_c 9.851413
_cell_angle_alpha 90.000000
_cell_angle_beta 90.000000
_cell_angle_gamma 90.000000
_cell_volume 3559.850296
_symmetry_space_group_name_H-M "P M M N"
_symmetry_group_IT_number 59
_space_group.IT_coordinate_system_code '2'
_symmetry_cell_setting 'orthorhombic'
loop_
_space_group_symop_operation_xyz
x,y,z
1/2-x,1/2-y,z
1/2+x,-y,-z
-x,1/2+y,-z
-x,-y,-z
1/2+x,1/2+y,-z
1/2-x,y,z
x,1/2-y,z
loop_
_atom_site_type_symbol
_atom_site_label
_atom_site_fract_x
_atom_site_fract_y
_atom_site_fract_z
Si Si1 0.930885 0.143959 0.102067
Si Si2 0.048809 0.856967 0.363235
Si Si3 0.393156 0.466744 0.287485
Si Si4 0.520362 0.644028 0.104104
Si Si5 0.001046 0.356972 0.355633
Si Si6 0.878550 0.530709 0.028125
Si Si7 0.187894 0.352844 0.781101
Si Si8 0.688456 0.859652 0.524451
O O1 0.913455 0.250000 0.070524
O O2 0.952036 0.132165 0.253725
O O3 0.880525 0.078452 0.071300
O O4 0.976535 0.109085 0.000951
O O5 0.070122 0.750000 0.373243
O O6 0.021553 0.891445 0.501350
O O7 0.002303 0.864989 0.254310
O O8 0.098335 0.923883 0.325664
O O9 0.449297 0.417133 0.308426
O O10 0.347230 0.422392 0.377745
O O11 0.374515 0.455556 0.132587
O O12 0.536878 0.750000 0.068433
O O13 0.570576 0.578934 0.093463
O O14 0.020604 0.250000 0.362901
O O15 0.828173 0.575037 0.101902
O O16 0.250000 0.344631 0.783095
O O17 0.163320 0.250000 0.811836
O O18 0.170740 0.384299 0.629522
O O19 0.750000 0.884606 0.549141
O O20 0.678679 0.750000 0.554135
#
# Coordination Sequence:
#
# PCOD8241496 Si02
#       8
#     8   8   8   8   8   8   8   8
#     4  10  20  35  51  73 113 151 175 211 260 306
#     4  10  22  36  50  75 111 149 183 216 257 308
#     4  12  22  33  54  81 108 141 181 222 261 308
#     4  10  19  33  50  73 110 147 176 210 256 311
#     4  10  21  34  49  76 111 143 180 223 261 306
#     4  12  22  32  54  83 106 140 185 217 257 315
#     4   9  21  41  60  80 106 134 169 217 270 323
#     4   9  21  41  60  79 105 135 169 216 273 323
#
# _framework density 17.978283999999999
#
# number of rings (size 3 to 8) (size 9 to 14) (size 15 to 20)
#    0.000    1.750    2.500    3.000    3.500    2.000 
#    0.000    1.250    0.000    0.750    0.000    3.500 
#    0.000    0.000    0.000    0.000    0.000    0.000 
#
# Total GULP energy -793629.335087 kJ/mol
# GULP energy per Si atom -12400.458361 kJ/mol
# Density = 1.793736 g / cm^3
# Si number density = 17.978284 Si / 1000 Ang^3
#
#
#
# Elastic Constant Matrix: (Units=GPa)
#
#
# Indices 1 2 3 4 5 6 
#
# 1 42.7408 33.6104 33.0230 0.0000 0.0000 0.0000
# 2 33.6104 84.8511 33.8161 0.0000 0.0000 0.0000
# 3 33.0230 33.8161 128.1467 0.0000 0.0000 0.0000
# 4 0.0000 0.0000 0.0000 21.3279 0.0000 0.0000
# 5 0.0000 0.0000 0.0000 0.0000 29.7546 0.0000
# 6 0.0000 0.0000 0.0000 0.0000 0.0000 25.1461
#
#
#
# Elastic Compliance Matrix: (Units=1/GPa)
#
#
# Indices 1 2 3 4 5 6 
#
# 1 0.038362 -0.012579 -0.006566 0.000000 0.000000 0.000000
# 2 -0.012579 0.017295 -0.001322 0.000000 0.000000 0.000000
# 3 -0.006566 -0.001322 0.009845 0.000000 0.000000 0.000000
# 4 0.000000 0.000000 0.000000 0.046887 0.000000 0.000000
# 5 0.000000 0.000000 0.000000 0.000000 0.033608 0.000000
# 6 0.000000 0.000000 0.000000 0.000000 0.000000 0.039768
#
#
# Mechanical properties :
#
#
# Convention : Reuss Voigt Hill
#
# Bulk Modulus (GPa) = 40.70577 50.73750 45.72164
# Shear Modulus (GPa) = 21.28680 25.59836 23.44258
#
# Velocity S-wave (km/s) = 3.44470 3.77749 3.61493
# Velocity P-wave (km/s) = 6.20581 6.87813 6.55060
#
# Compressibility (1/GPa) = 0.02456654
#
# Stress axis : x y z
#
# Youngs Moduli (GPa) = 26.06766 57.82059 101.57793
#
# Poissons Ratio (x) = 0.72730 0.66700
# Poissons Ratio (y) = 0.32789 0.13433
# Poissons Ratio (z) = 0.17117 0.07646
#
# Static dielectric constant tensor:
#      x y z
#    x 2.980250 0.000000 0.000000 
#    y 0.000000 3.759680 0.000000 
#    z 0.000000 0.000000 3.551420 
# 
# 
# High freq. dielectric constant tensor:
#      x y z
#    x 1.653780 0.000000 0.000000 
#    y 0.000000 1.703750 0.000000 
#    z 0.000000 0.000000 1.714840 
# 
# From -- ./inp_files/12233.got.cif
#   From: 2010.03.12/outbox.cif.g09.slc.cpg/sg59_7_cif.got.tgz:12233.got - 2010.04.16 16:29:54.
