data_PCOD8241422
_publ_section_title
;
Structure prediction by ZEFSAII (Michael W. Deem and Ramdas Pophale) SiO2 
 PCOD8241422
Probable space group: P M M N
;
_chemical_formula_sum "Si O2"
_cell_formula_units_Z 48
_cell_length_a 8.830707
_cell_length_b 30.304070
_cell_length_c 9.490916
_cell_angle_alpha 90.000000
_cell_angle_beta 90.000000
_cell_angle_gamma 90.000000
_cell_volume 2539.829513
_symmetry_space_group_name_H-M "P M M N"
_symmetry_group_IT_number 59
_space_group.IT_coordinate_system_code '2'
_symmetry_cell_setting 'orthorhombic'
loop_
_space_group_symop_operation_xyz
x,y,z
1/2-x,1/2-y,z
1/2+x,-y,-z
-x,1/2+y,-z
-x,-y,-z
1/2+x,1/2+y,-z
1/2-x,y,z
x,1/2-y,z
loop_
_atom_site_type_symbol
_atom_site_label
_atom_site_fract_x
_atom_site_fract_y
_atom_site_fract_z
Si Si1 0.930432 0.750000 0.145804
Si Si2 0.073118 0.750000 0.841422
Si Si3 0.575953 0.822282 0.656151
Si Si4 0.924046 0.575379 0.667185
Si Si5 0.069877 0.074293 0.649747
Si Si6 0.929939 0.828403 0.338710
Si Si7 0.928750 0.496657 0.152104
O O1 0.750000 0.750000 0.146185
O O2 0.987866 0.750000 0.988683
O O3 0.993747 0.793310 0.226576
O O4 0.250000 0.750000 0.870446
O O5 0.028836 0.706299 0.756958
O O6 0.750000 0.807023 0.672636
O O7 0.558262 0.873049 0.700346
O O8 0.519238 0.814902 0.496138
O O9 0.750000 0.560693 0.685131
O O10 0.983738 0.564549 0.509835
O O11 0.026752 0.549496 0.777819
O O12 0.250000 0.074993 0.650602
O O13 0.008797 0.122477 0.698748
O O14 0.005691 0.036869 0.753293
O O15 0.750000 0.829253 0.336185
O O16 0.750000 0.499921 0.138339
O O17 0.000000 0.500000 0.000000
#
# Coordination Sequence:
#
# PCOD8241422 Si02
#       7
#     4   4   8   8   8   8   8
#     4  10  19  32  54  80 104 136 177 218 262 310
#     4  12  25  36  48  74 114 148 173 208 256 312
#     4   9  18  36  61  82 100 129 173 220 264 313
#     4   9  18  35  59  82 102 129 171 222 269 312
#     4   8  16  32  54  79 104 132 170 218 267 311
#     4   8  15  31  57  83 100 123 173 230 265 300
#     4  11  22  34  50  75 110 147 179 213 258 313
#
# _framework density 18.898906
#
# number of rings (size 3 to 8) (size 9 to 14) (size 15 to 20)
#    0.000    2.667    0.000    4.250    0.000    3.333 
#    0.000    5.833    0.000    4.000    0.000    0.000 
#    0.000    0.000    0.000    0.000    0.000    0.000 
#
# Total GULP energy -595138.524692 kJ/mol
# GULP energy per Si atom -12398.719264 kJ/mol
# Density = 1.885589 g / cm^3
# Si number density = 18.898906 Si / 1000 Ang^3
#
#
#
# Elastic Constant Matrix: (Units=GPa)
#
#
# Indices 1 2 3 4 5 6 
#
# 1 34.4409 25.8325 21.3502 0.0000 0.0000 0.0000
# 2 25.8325 114.2967 72.2979 0.0000 0.0000 0.0000
# 3 21.3502 72.2979 126.9942 0.0000 0.0000 0.0000
# 4 0.0000 0.0000 0.0000 16.5107 0.0000 0.0000
# 5 0.0000 0.0000 0.0000 0.0000 19.2751 0.0000
# 6 0.0000 0.0000 0.0000 0.0000 0.0000 24.6900
#
#
#
# Elastic Compliance Matrix: (Units=1/GPa)
#
#
# Indices 1 2 3 4 5 6 
#
# 1 0.035344 -0.006610 -0.002179 0.000000 0.000000 0.000000
# 2 -0.006610 0.014909 -0.007376 0.000000 0.000000 0.000000
# 3 -0.002179 -0.007376 0.012440 0.000000 0.000000 0.000000
# 4 0.000000 0.000000 0.000000 0.060567 0.000000 0.000000
# 5 0.000000 0.000000 0.000000 0.000000 0.051880 0.000000
# 6 0.000000 0.000000 0.000000 0.000000 0.000000 0.040502
#
#
# Mechanical properties :
#
#
# Convention : Reuss Voigt Hill
#
# Bulk Modulus (GPa) = 32.93556 57.18813 45.06184
# Shear Modulus (GPa) = 19.37282 22.51192 20.94237
#
# Velocity S-wave (km/s) = 3.20515 3.45509 3.33246
# Velocity P-wave (km/s) = 5.58233 6.80019 6.22113
#
# Compressibility (1/GPa) = 0.03036232
#
# Stress axis : x y z
#
# Youngs Moduli (GPa) = 28.29353 67.07343 80.38491
#
# Poissons Ratio (x) = 0.44334 0.17516
# Poissons Ratio (y) = 0.18702 0.59296
# Poissons Ratio (z) = 0.06165 0.49477
#
# Static dielectric constant tensor:
#      x y z
#    x 3.040960 0.000000 0.000000 
#    y 0.000000 3.810750 0.000000 
#    z 0.000000 0.000000 3.497810 
# 
# 
# High freq. dielectric constant tensor:
#      x y z
#    x 1.692000 0.000000 0.000000 
#    y 0.000000 1.749530 0.000000 
#    z 0.000000 0.000000 1.735030 
# 
# From -- ./inp_files/6443.got.cif
#   From: 2010.03.12/outbox.cif.g09.slc.cpg/sg59_4_cif.got.tgz:6443.got - 2010.04.16 16:29:54.
