data_PCOD8241328
_publ_section_title
;
Structure prediction by ZEFSAII (Michael W. Deem and Ramdas Pophale) SiO2 
 PCOD8241328
Probable space group: P M M N
;
_chemical_formula_sum "Si O2"
_cell_formula_units_Z 56
_cell_length_a 8.736631
_cell_length_b 24.233396
_cell_length_c 14.796804
_cell_angle_alpha 90.000000
_cell_angle_beta 90.000000
_cell_angle_gamma 90.000000
_cell_volume 3132.753282
_symmetry_space_group_name_H-M "P M M N"
_symmetry_group_IT_number 59
_space_group.IT_coordinate_system_code '2'
_symmetry_cell_setting 'orthorhombic'
loop_
_space_group_symop_operation_xyz
x,y,z
1/2-x,1/2-y,z
1/2+x,-y,-z
-x,1/2+y,-z
-x,-y,-z
1/2+x,1/2+y,-z
1/2-x,y,z
x,1/2-y,z
loop_
_atom_site_type_symbol
_atom_site_label
_atom_site_fract_x
_atom_site_fract_y
_atom_site_fract_z
Si Si1 0.431510 0.548329 0.323494
Si Si2 0.072887 0.080570 0.051872
Si Si3 0.075270 0.750000 0.701836
Si Si4 0.571275 0.041340 0.878671
Si Si5 0.929566 0.750000 0.508728
Si Si6 0.929316 0.572262 0.630954
Si Si7 0.930725 0.136295 0.533336
Si Si8 0.927285 0.134769 0.210536
O O1 0.250000 0.547358 0.317918
O O2 0.495188 0.553377 0.221514
O O3 0.483691 0.491442 0.371522
O O4 0.491833 0.599387 0.383160
O O5 0.250000 0.096138 0.055263
O O6 0.976689 0.126345 0.106625
O O7 0.037616 0.021910 0.097685
O O8 0.017718 0.080870 0.948124
O O9 0.250000 0.750000 0.666663
O O10 0.039642 0.697714 0.763730
O O11 0.968614 0.750000 0.614427
O O12 0.750000 0.054795 0.885881
O O13 0.750000 0.750000 0.497302
O O14 0.995256 0.696318 0.458782
O O15 0.750000 0.578825 0.609923
O O16 0.026072 0.607180 0.560016
O O17 0.965386 0.595215 0.730050
O O18 0.750000 0.143008 0.536375
O O19 0.750000 0.119338 0.224637
#
# Coordination Sequence:
#
# PCOD8241328 Si02
#       8
#     8   8   4   8   4   8   8   8
#     4   9  19  35  55  79 111 147 181 223 269 322
#     4  10  19  32  52  79 110 139 172 218 268 318
#     4  10  22  38  56  77 106 139 184 229 266 318
#     4   9  17  33  53  76 107 141 177 215 261 320
#     4  12  24  38  56  77 104 141 184 231 278 316
#     4  11  20  34  53  80 114 145 178 219 270 324
#     4  11  22  37  56  78 107 145 186 226 272 324
#     4  11  21  34  54  79 108 145 182 221 269 322
#
# _framework density 17.875648999999999
#
# number of rings (size 3 to 8) (size 9 to 14) (size 15 to 20)
#    0.000    1.714    2.857    2.786    0.000    1.143 
#    0.000    3.571    0.000    0.857    0.000    3.000 
#    0.000    0.000    0.000    0.000    0.000    0.000 
#
# Total GULP energy -694550.363515 kJ/mol
# GULP energy per Si atom -12402.685063 kJ/mol
# Density = 1.783496 g / cm^3
# Si number density = 17.875649 Si / 1000 Ang^3
#
#
#
# Elastic Constant Matrix: (Units=GPa)
#
#
# Indices 1 2 3 4 5 6 
#
# 1 66.0468 41.5011 21.0854 0.0000 0.0000 0.0000
# 2 41.5011 124.4962 50.2310 0.0000 0.0000 0.0000
# 3 21.0854 50.2310 84.8253 0.0000 0.0000 0.0000
# 4 0.0000 0.0000 0.0000 25.8976 0.0000 0.0000
# 5 0.0000 0.0000 0.0000 0.0000 26.2212 0.0000
# 6 0.0000 0.0000 0.0000 0.0000 0.0000 21.9241
#
#
#
# Elastic Compliance Matrix: (Units=1/GPa)
#
#
# Indices 1 2 3 4 5 6 
#
# 1 0.019260 -0.005898 -0.001295 0.000000 0.000000 0.000000
# 2 -0.005898 0.012360 -0.005853 0.000000 0.000000 0.000000
# 3 -0.001295 -0.005853 0.015577 0.000000 0.000000 0.000000
# 4 0.000000 0.000000 0.000000 0.038614 0.000000 0.000000
# 5 0.000000 0.000000 0.000000 0.000000 0.038137 0.000000
# 6 0.000000 0.000000 0.000000 0.000000 0.000000 0.045612
#
#
# Mechanical properties :
#
#
# Convention : Reuss Voigt Hill
#
# Bulk Modulus (GPa) = 47.38228 55.66704 51.52466
# Shear Modulus (GPa) = 24.66855 25.64529 25.15692
#
# Velocity S-wave (km/s) = 3.71888 3.79179 3.75551
# Velocity P-wave (km/s) = 6.70852 7.09782 6.90591
#
# Compressibility (1/GPa) = 0.02110493
#
# Stress axis : x y z
#
# Youngs Moduli (GPa) = 51.92044 80.90563 64.19748
#
# Poissons Ratio (x) = 0.47718 0.08314
# Poissons Ratio (y) = 0.30622 0.37576
# Poissons Ratio (z) = 0.06724 0.47356
#
# Static dielectric constant tensor:
#      x y z
#    x 3.205410 0.000000 0.000000 
#    y 0.000000 3.343820 0.000000 
#    z 0.000000 0.000000 3.424370 
# 
# 
# High freq. dielectric constant tensor:
#      x y z
#    x 1.689000 0.000000 0.000000 
#    y 0.000000 1.677190 0.000000 
#    z 0.000000 0.000000 1.688890 
# 
# From -- ./inp_files/21180.got.cif
#   From: 2010.03.12/outbox.cif.g09.slc.cpg/sg59_11_cif.got.tgz:21180.got - 2010.04.16 16:29:54.
