data_PCOD8241039
_publ_section_title
;
Structure prediction by ZEFSAII (Michael W. Deem and Ramdas Pophale) SiO2 
 PCOD8241039
Probable space group: P M M N
;
_chemical_formula_sum "Si O2"
_cell_formula_units_Z 64
_cell_length_a 9.457814
_cell_length_b 19.286320
_cell_length_c 18.962325
_cell_angle_alpha 90.000000
_cell_angle_beta 90.000000
_cell_angle_gamma 90.000000
_cell_volume 3458.849957
_symmetry_space_group_name_H-M "P M M N"
_symmetry_group_IT_number 59
_space_group.IT_coordinate_system_code '2'
_symmetry_cell_setting 'orthorhombic'
loop_
_space_group_symop_operation_xyz
x,y,z
1/2-x,1/2-y,z
1/2+x,-y,-z
-x,1/2+y,-z
-x,-y,-z
1/2+x,1/2+y,-z
1/2-x,y,z
x,1/2-y,z
loop_
_atom_site_type_symbol
_atom_site_label
_atom_site_fract_x
_atom_site_fract_y
_atom_site_fract_z
Si Si1 0.085395 0.936767 0.713942
Si Si2 0.086524 0.169999 0.661090
Si Si3 0.412260 0.572451 0.075192
Si Si4 0.589822 0.172762 0.529603
Si Si5 0.086040 0.422480 0.790417
Si Si6 0.911286 0.590267 0.942260
Si Si7 0.584393 0.830876 0.801257
Si Si8 0.411604 0.543004 0.556428
O O1 0.250000 0.916231 0.709476
O O2 0.033600 0.963587 0.636887
O O3 0.998770 0.869509 0.738681
O O4 0.058920 0.997855 0.769739
O O5 0.250000 0.156090 0.646011
O O6 0.052603 0.250000 0.676028
O O7 0.034736 0.126619 0.727604
O O8 0.004548 0.142516 0.592812
O O9 0.250000 0.596444 0.076402
O O10 0.492138 0.600518 0.143704
O O11 0.426750 0.489947 0.076835
O O12 0.485667 0.607052 0.007247
O O13 0.750000 0.173568 0.557348
O O14 0.539641 0.250000 0.507930
O O15 0.573502 0.124355 0.461740
O O16 0.250000 0.410321 0.809103
O O17 0.750000 0.607599 0.963799
O O18 0.960345 0.637208 0.876653
O O19 0.750000 0.842676 0.788209
O O20 0.543840 0.750000 0.800200
O O21 0.500000 0.500000 0.500000
O O22 0.250000 0.517399 0.550739
#
# Coordination Sequence:
#
# PCOD8241039 Si02
#       8
#     8   8   8   8   8   8   8   8
#     4  10  21  35  53  78 108 141 181 221 266 320
#     4   9  18  33  53  76 102 134 173 215 260 313
#     4  10  19  31  53  80 103 133 172 214 258 306
#     4   9  18  33  52  73  99 134 174 214 261 317
#     4  10  19  32  51  76 106 139 173 215 262 312
#     4   9  18  34  53  76 104 134 170 214 261 309
#     4  10  21  38  58  80 109 144 182 224 270 319
#     4  10  21  36  54  79 108 140 176 222 273 319
#
# _framework density 18.503260999999998
#
# number of rings (size 3 to 8) (size 9 to 14) (size 15 to 20)
#    0.000    2.375    1.250    1.125    0.000    4.250 
#    0.000    1.875    0.000    5.250    0.000    0.000 
#    0.000    0.000    0.000    0.000    0.000    0.000 
#
# Total GULP energy -793666.585372 kJ/mol
# GULP energy per Si atom -12401.040396 kJ/mol
# Density = 1.846115 g / cm^3
# Si number density = 18.503261 Si / 1000 Ang^3
#
#
#
# Elastic Constant Matrix: (Units=GPa)
#
#
# Indices 1 2 3 4 5 6 
#
# 1 68.8801 23.6073 53.8970 0.0000 0.0000 0.0000
# 2 23.6073 53.6573 27.8584 0.0000 0.0000 0.0000
# 3 53.8970 27.8584 112.4889 0.0000 0.0000 0.0000
# 4 0.0000 0.0000 0.0000 30.5236 0.0000 0.0000
# 5 0.0000 0.0000 0.0000 0.0000 35.1744 0.0000
# 6 0.0000 0.0000 0.0000 0.0000 0.0000 24.8131
#
#
#
# Elastic Compliance Matrix: (Units=1/GPa)
#
#
# Indices 1 2 3 4 5 6 
#
# 1 0.024507 -0.005377 -0.010410 0.000000 0.000000 0.000000
# 2 -0.005377 0.022567 -0.003012 0.000000 0.000000 0.000000
# 3 -0.010410 -0.003012 0.014624 0.000000 0.000000 0.000000
# 4 0.000000 0.000000 0.000000 0.032762 0.000000 0.000000
# 5 0.000000 0.000000 0.000000 0.000000 0.028430 0.000000
# 6 0.000000 0.000000 0.000000 0.000000 0.000000 0.040301
#
#
# Mechanical properties :
#
#
# Convention : Reuss Voigt Hill
#
# Bulk Modulus (GPa) = 41.49829 49.52797 45.51313
# Shear Modulus (GPa) = 23.94392 26.74647 25.34519
#
# Velocity S-wave (km/s) = 3.60118 3.80610 3.70505
# Velocity P-wave (km/s) = 6.30615 6.79268 6.55393
#
# Compressibility (1/GPa) = 0.02409738
#
# Stress axis : x y z
#
# Youngs Moduli (GPa) = 40.80523 44.31346 68.38232
#
# Poissons Ratio (x) = 0.23828 0.71188
# Poissons Ratio (y) = 0.21942 0.20599
# Poissons Ratio (z) = 0.42479 0.13349
#
# Static dielectric constant tensor:
#      x y z
#    x 3.377310 0.000000 0.000000 
#    y 0.000000 3.341430 0.000000 
#    z 0.000000 0.000000 3.404810 
# 
# 
# High freq. dielectric constant tensor:
#      x y z
#    x 1.712880 0.000000 0.000000 
#    y 0.000000 1.706800 0.000000 
#    z 0.000000 0.000000 1.719790 
# 
# From -- ./inp_files/26297.got.cif
#   From: 2010.03.12/outbox.cif.g09.slc.cpg/sg59_14_cif.got.tgz:26297.got - 2010.04.16 16:29:54.
