data_PCOD8241746
_publ_section_title
;
Structure prediction by ZEFSAII (Michael W. Deem and Ramdas Pophale) SiO2 
 PCOD8241746
Probable space group: P M M N
;
_chemical_formula_sum "Si O2"
_cell_formula_units_Z 64
_cell_length_a 16.182726
_cell_length_b 16.976839
_cell_length_c 12.083300
_cell_angle_alpha 90.000000
_cell_angle_beta 90.000000
_cell_angle_gamma 90.000000
_cell_volume 3319.663543
_symmetry_space_group_name_H-M "P M M N"
_symmetry_group_IT_number 59
_space_group.IT_coordinate_system_code '2'
_symmetry_cell_setting 'orthorhombic'
loop_
_space_group_symop_operation_xyz
x,y,z
1/2-x,1/2-y,z
1/2+x,-y,-z
-x,1/2+y,-z
-x,-y,-z
1/2+x,1/2+y,-z
1/2-x,y,z
x,1/2-y,z
loop_
_atom_site_type_symbol
_atom_site_label
_atom_site_fract_x
_atom_site_fract_y
_atom_site_fract_z
Si Si1 0.409358 0.440911 0.662364
Si Si2 0.505409 0.842782 0.975535
Si Si3 0.497975 0.342316 0.471712
Si Si4 0.345196 0.157161 0.865785
Si Si5 0.841323 0.467072 0.726556
Si Si6 0.157207 0.931297 0.515634
Si Si7 0.341861 0.841359 0.097301
Si Si8 0.474029 0.423386 0.251245
O O1 0.462520 0.387591 0.578226
O O2 0.362775 0.385688 0.749699
O O3 0.343039 0.492185 0.594264
O O4 0.464626 0.504252 0.726380
O O5 0.507445 0.750000 0.976540
O O6 0.498687 0.869527 0.849596
O O7 0.586999 0.872730 0.042959
O O8 0.418301 0.873907 0.025409
O O9 0.485602 0.250000 0.490667
O O10 0.594588 0.362420 0.447929
O O11 0.453832 0.370094 0.358708
O O12 0.250000 0.138516 0.903460
O O13 0.355969 0.250000 0.845649
O O14 0.750000 0.500027 0.722621
O O15 0.876353 0.458079 0.603431
O O16 0.847794 0.382583 0.784404
O O17 0.890340 0.535117 0.789898
O O18 0.250000 0.896579 0.511060
O O19 0.250000 0.857964 0.043584
O O20 0.353423 0.750000 0.121531
#
# Coordination Sequence:
#
# PCOD8241746 Si02
#       8
#     8   8   8   8   8   8   8   8
#     4  11  20  38  60  85 114 152 190 236 293 340
#     4  10  22  39  60  82 113 156 195 239 291 343
#     4  11  22  37  59  85 114 152 195 236 289 354
#     4  10  22  39  59  85 116 151 196 244 287 335
#     4  10  19  33  55  82 115 149 184 235 293 347
#     4  10  20  36  56  83 118 150 182 231 292 350
#     4   9  19  36  57  85 117 150 193 242 291 346
#     4  11  21  39  57  83 116 153 195 236 284 351
#
# _framework density 19.279063000000001
#
# number of rings (size 3 to 8) (size 9 to 14) (size 15 to 20)
#    0.000    1.750    2.500    2.625    0.000    3.250 
#    0.000    5.625    0.000    4.875    0.000    0.000 
#    0.000    0.000    0.000    0.000    0.000    0.000 
#
# Total GULP energy -793103.655715 kJ/mol
# GULP energy per Si atom -12392.244621 kJ/mol
# Density = 1.923518 g / cm^3
# Si number density = 19.279063 Si / 1000 Ang^3
#
#
#
# Elastic Constant Matrix: (Units=GPa)
#
#
# Indices 1 2 3 4 5 6 
#
# 1 114.7595 25.6464 43.1732 0.0000 0.0000 0.0000
# 2 25.6464 38.1405 16.4660 0.0000 0.0000 0.0000
# 3 43.1732 16.4660 97.7528 0.0000 0.0000 0.0000
# 4 0.0000 0.0000 0.0000 36.1357 0.0000 0.0000
# 5 0.0000 0.0000 0.0000 0.0000 19.9472 0.0000
# 6 0.0000 0.0000 0.0000 0.0000 0.0000 19.1202
#
#
#
# Elastic Compliance Matrix: (Units=1/GPa)
#
#
# Indices 1 2 3 4 5 6 
#
# 1 0.011608 -0.006031 -0.004111 0.000000 0.000000 0.000000
# 2 -0.006031 0.031408 -0.002627 0.000000 0.000000 0.000000
# 3 -0.004111 -0.002627 0.012488 0.000000 0.000000 0.000000
# 4 0.000000 0.000000 0.000000 0.027673 0.000000 0.000000
# 5 0.000000 0.000000 0.000000 0.000000 0.050132 0.000000
# 6 0.000000 0.000000 0.000000 0.000000 0.000000 0.052301
#
#
# Mechanical properties :
#
#
# Convention : Reuss Voigt Hill
#
# Bulk Modulus (GPa) = 33.37018 46.80264 40.08641
# Shear Modulus (GPa) = 22.61035 26.06510 24.33773
#
# Velocity S-wave (km/s) = 3.42832 3.68093 3.55687
# Velocity P-wave (km/s) = 5.74611 6.51113 6.14054
#
# Compressibility (1/GPa) = 0.02996688
#
# Stress axis : x y z
#
# Youngs Moduli (GPa) = 86.14596 31.83880 80.07667
#
# Poissons Ratio (x) = 0.19201 0.32919
# Poissons Ratio (y) = 0.51953 0.21036
# Poissons Ratio (z) = 0.35414 0.08364
#
# Static dielectric constant tensor:
#      x y z
#    x 3.791800 0.000000 0.000000 
#    y 0.000000 3.444300 0.000000 
#    z 0.000000 0.000000 3.528330 
# 
# 
# High freq. dielectric constant tensor:
#      x y z
#    x 1.760160 0.000000 0.000000 
#    y 0.000000 1.741570 0.000000 
#    z 0.000000 0.000000 1.744200 
# 
# From -- ./inp_files/17825.got.cif
#   From: 2010.03.12/outbox.cif.g09.slc.cpg/sg59_9_cif.got.tgz:17825.got - 2010.04.16 16:29:54.
