data_PCOD8241316
_publ_section_title
;
Structure prediction by ZEFSAII (Michael W. Deem and Ramdas Pophale) SiO2 
 PCOD8241316
Probable space group: P M M N
;
_chemical_formula_sum "Si O2"
_cell_formula_units_Z 64
_cell_length_a 8.883426
_cell_length_b 33.200170
_cell_length_c 11.378438
_cell_angle_alpha 90.000000
_cell_angle_beta 90.000000
_cell_angle_gamma 90.000000
_cell_volume 3355.856981
_symmetry_space_group_name_H-M "P M M N"
_symmetry_group_IT_number 59
_space_group.IT_coordinate_system_code '2'
_symmetry_cell_setting 'orthorhombic'
loop_
_space_group_symop_operation_xyz
x,y,z
1/2-x,1/2-y,z
1/2+x,-y,-z
-x,1/2+y,-z
-x,-y,-z
1/2+x,1/2+y,-z
1/2-x,y,z
x,1/2-y,z
loop_
_atom_site_type_symbol
_atom_site_label
_atom_site_fract_x
_atom_site_fract_y
_atom_site_fract_z
Si Si1 0.572845 0.601968 0.125960
Si Si2 0.570924 0.025975 0.766922
Si Si3 0.926472 0.445956 0.271088
Si Si4 0.924442 0.204218 0.259855
Si Si5 0.424046 0.628631 0.891665
Si Si6 0.575270 0.355824 0.661770
Si Si7 0.919357 0.797265 0.499752
Si Si8 0.075231 0.564565 0.469925
O O1 0.750000 0.596277 0.137111
O O2 0.494424 0.558525 0.142171
O O3 0.516220 0.634087 0.221140
O O4 0.532096 0.619725 0.999747
O O5 0.750000 0.028122 0.775938
O O6 0.511224 0.036459 0.634844
O O7 0.510725 0.981674 0.799408
O O8 0.750000 0.455488 0.271633
O O9 0.959655 0.403516 0.210162
O O10 0.997378 0.444381 0.403007
O O11 0.750000 0.200996 0.294301
O O12 0.965979 0.250000 0.220758
O O13 0.962901 0.173446 0.154867
O O14 0.015909 0.190414 0.373886
O O15 0.250000 0.625770 0.931040
O O16 0.750000 0.353000 0.695903
O O17 0.518106 0.314337 0.607055
O O18 0.544504 0.389263 0.562640
O O19 0.750000 0.814021 0.491207
O O20 0.925206 0.750000 0.483680
O O21 0.250000 0.556048 0.481519
#
# Coordination Sequence:
#
# PCOD8241316 Si02
#       8
#     8   8   8   8   8   8   8   8
#     4  11  23  39  57  76 102 140 184 228 276 328
#     4  10  20  35  54  77 107 141 178 221 269 322
#     4  10  19  32  52  78 108 140 175 218 270 323
#     4   9  18  35  60  86 111 143 182 221 265 318
#     4  10  21  37  56  79 108 143 185 232 274 318
#     4  10  19  35  58  80 105 140 182 224 269 322
#     4  10  20  33  52  83 120 149 175 214 266 322
#     4   8  16  31  52  78 105 134 170 217 270 321
#
# _framework density 19.071135000000002
#
# number of rings (size 3 to 8) (size 9 to 14) (size 15 to 20)
#    0.000    2.250    0.000    4.125    0.000    4.250 
#    0.000    5.000    0.000    2.250    0.000    0.000 
#    0.000    0.000    0.000    0.000    0.000    0.000 
#
# Total GULP energy -793640.357243 kJ/mol
# GULP energy per Si atom -12400.630582 kJ/mol
# Density = 1.902773 g / cm^3
# Si number density = 19.071135 Si / 1000 Ang^3
#
#
#
# Elastic Constant Matrix: (Units=GPa)
#
#
# Indices 1 2 3 4 5 6 
#
# 1 91.2414 41.9970 39.5155 0.0000 0.0000 0.0000
# 2 41.9970 91.1903 47.3881 0.0000 0.0000 0.0000
# 3 39.5155 47.3881 72.0491 0.0000 0.0000 0.0000
# 4 0.0000 0.0000 0.0000 22.0695 0.0000 0.0000
# 5 0.0000 0.0000 0.0000 0.0000 26.8169 0.0000
# 6 0.0000 0.0000 0.0000 0.0000 0.0000 28.5239
#
#
#
# Elastic Compliance Matrix: (Units=1/GPa)
#
#
# Indices 1 2 3 4 5 6 
#
# 1 0.015314 -0.004084 -0.005713 0.000000 0.000000 0.000000
# 2 -0.004084 0.017750 -0.009434 0.000000 0.000000 0.000000
# 3 -0.005713 -0.009434 0.023218 0.000000 0.000000 0.000000
# 4 0.000000 0.000000 0.000000 0.045311 0.000000 0.000000
# 5 0.000000 0.000000 0.000000 0.000000 0.037290 0.000000
# 6 0.000000 0.000000 0.000000 0.000000 0.000000 0.035058
#
#
# Mechanical properties :
#
#
# Convention : Reuss Voigt Hill
#
# Bulk Modulus (GPa) = 56.12010 56.92022 56.52016
# Shear Modulus (GPa) = 22.89975 23.85408 23.37691
#
# Velocity S-wave (km/s) = 3.46895 3.54049 3.50490
# Velocity P-wave (km/s) = 6.74799 6.82822 6.78822
#
# Compressibility (1/GPa) = 0.01781893
#
# Stress axis : x y z
#
# Youngs Moduli (GPa) = 65.30029 56.33922 43.07034
#
# Poissons Ratio (x) = 0.23009 0.24605
# Poissons Ratio (y) = 0.26668 0.40634
# Poissons Ratio (z) = 0.37305 0.53153
#
# Static dielectric constant tensor:
#      x y z
#    x 3.405380 0.000000 0.000000 
#    y 0.000000 3.727820 0.000000 
#    z 0.000000 0.000000 3.472430 
# 
# 
# High freq. dielectric constant tensor:
#      x y z
#    x 1.732570 0.000000 0.000000 
#    y 0.000000 1.744050 0.000000 
#    z 0.000000 0.000000 1.731570 
# 
# From -- ./inp_files/14923.got.cif
#   From: 2010.03.12/outbox.cif.g09.slc.cpg/sg59_8_cif.got.tgz:14923.got - 2010.04.16 16:29:54.
