data_PCOD8241699
_publ_section_title
;
Structure prediction by ZEFSAII (Michael W. Deem and Ramdas Pophale) SiO2 
 PCOD8241699
Probable space group: P M M N
;
_chemical_formula_sum "Si O2"
_cell_formula_units_Z 56
_cell_length_a 19.698560
_cell_length_b 9.108302
_cell_length_c 17.318015
_cell_angle_alpha 90.000000
_cell_angle_beta 90.000000
_cell_angle_gamma 90.000000
_cell_volume 3107.205758
_symmetry_space_group_name_H-M "P M M N"
_symmetry_group_IT_number 59
_space_group.IT_coordinate_system_code '2'
_symmetry_cell_setting 'orthorhombic'
loop_
_space_group_symop_operation_xyz
x,y,z
1/2-x,1/2-y,z
1/2+x,-y,-z
-x,1/2+y,-z
-x,-y,-z
1/2+x,1/2+y,-z
1/2-x,y,z
x,1/2-y,z
loop_
_atom_site_type_symbol
_atom_site_label
_atom_site_fract_x
_atom_site_fract_y
_atom_site_fract_z
Si Si1 0.050800 0.421578 0.894388
Si Si2 0.674890 0.075700 0.382151
Si Si3 0.672846 0.077415 0.555806
Si Si4 0.671768 0.582005 0.833052
Si Si5 0.590294 0.921432 0.685241
Si Si6 0.403372 0.921026 0.040412
Si Si7 0.060068 0.577158 0.733497
O O1 0.066992 0.250000 0.892706
O O2 0.068579 0.491481 0.812830
O O3 0.972710 0.454115 0.914059
O O4 0.098099 0.496978 0.958550
O O5 0.750000 0.020216 0.356981
O O6 0.673811 0.250000 0.382525
O O7 0.658592 0.021083 0.468793
O O8 0.618807 0.016149 0.322815
O O9 0.750000 0.036716 0.579839
O O10 0.661435 0.250000 0.562203
O O11 0.618708 0.000146 0.610144
O O12 0.750000 0.568113 0.810583
O O13 0.651090 0.750000 0.851248
O O14 0.628722 0.519933 0.761275
O O15 0.657497 0.484181 0.908154
O O16 0.603827 0.750000 0.675351
O O17 0.511145 0.959318 0.692854
O O18 0.392145 0.750000 0.025264
O O19 0.066550 0.750000 0.750422
#
# Coordination Sequence:
#
# PCOD8241699 Si02
#       7
#     8   8   8   8   8   8   8
#     4  10  20  34  54  78 105 134 168 213 263 310
#     4   8  16  33  55  77 101 133 174 218 264 311
#     4   9  18  33  52  73 101 139 179 216 257 309
#     4  10  20  34  51  73 107 145 174 211 265 316
#     4  10  20  32  49  76 108 138 174 215 262 316
#     4  10  20  34  54  77 101 134 176 216 254 304
#     4  10  19  33  55  79 104 136 175 218 263 314
#
# _framework density 18.022621999999998
#
# number of rings (size 3 to 8) (size 9 to 14) (size 15 to 20)
#    0.000    2.429    1.429    2.143    0.000    4.000 
#    0.000    1.429    0.000    3.857    0.000    0.000 
#    0.000    0.000    0.000    0.000    0.000    0.000 
#
# Total GULP energy -694487.673311 kJ/mol
# GULP energy per Si atom -12401.565595 kJ/mol
# Density = 1.798160 g / cm^3
# Si number density = 18.022622 Si / 1000 Ang^3
#
#
#
# Elastic Constant Matrix: (Units=GPa)
#
#
# Indices 1 2 3 4 5 6 
#
# 1 105.7374 41.0207 76.7717 0.0000 0.0000 0.0000
# 2 41.0207 57.2054 56.5902 0.0000 0.0000 0.0000
# 3 76.7717 56.5902 148.9228 0.0000 0.0000 0.0000
# 4 0.0000 0.0000 0.0000 32.9096 0.0000 0.0000
# 5 0.0000 0.0000 0.0000 0.0000 29.9642 0.0000
# 6 0.0000 0.0000 0.0000 0.0000 0.0000 19.8648
#
#
#
# Elastic Compliance Matrix: (Units=1/GPa)
#
#
# Indices 1 2 3 4 5 6 
#
# 1 0.016070 -0.005333 -0.006258 0.000000 0.000000 0.000000
# 2 -0.005333 0.029780 -0.008567 0.000000 0.000000 0.000000
# 3 -0.006258 -0.008567 0.013196 0.000000 0.000000 0.000000
# 4 0.000000 0.000000 0.000000 0.030386 0.000000 0.000000
# 5 0.000000 0.000000 0.000000 0.000000 0.033373 0.000000
# 6 0.000000 0.000000 0.000000 0.000000 0.000000 0.050340
#
#
# Mechanical properties :
#
#
# Convention : Reuss Voigt Hill
#
# Bulk Modulus (GPa) = 53.38849 73.40340 63.39594
# Shear Modulus (GPa) = 22.75784 25.71326 24.23555
#
# Velocity S-wave (km/s) = 3.55736 3.78129 3.67103
# Velocity P-wave (km/s) = 6.82352 7.73829 7.29526
#
# Compressibility (1/GPa) = 0.01873063
#
# Stress axis : x y z
#
# Youngs Moduli (GPa) = 62.22882 33.57964 75.77885
#
# Poissons Ratio (x) = 0.17908 0.47420
# Poissons Ratio (y) = 0.33186 0.64921
# Poissons Ratio (z) = 0.38941 0.28768
#
# Static dielectric constant tensor:
#      x y z
#    x 3.367760 0.000000 0.000000 
#    y 0.000000 3.130090 0.000000 
#    z 0.000000 0.000000 3.397830 
# 
# 
# High freq. dielectric constant tensor:
#      x y z
#    x 1.689310 0.000000 0.000000 
#    y 0.000000 1.681380 0.000000 
#    z 0.000000 0.000000 1.703650 
# 
# From -- ./inp_files/20986.got.cif
#   From: 2010.03.12/outbox.cif.g09.slc.cpg/sg59_11_cif.got.tgz:20986.got - 2010.04.16 16:29:54.
