data_PCOD8241321
_publ_section_title
;
Structure prediction by ZEFSAII (Michael W. Deem and Ramdas Pophale) SiO2 
 PCOD8241321
Probable space group: P M M N
;
_chemical_formula_sum "Si O2"
_cell_formula_units_Z 64
_cell_length_a 27.796176
_cell_length_b 12.417334
_cell_length_c 10.043142
_cell_angle_alpha 90.000000
_cell_angle_beta 90.000000
_cell_angle_gamma 90.000000
_cell_volume 3466.434664
_symmetry_space_group_name_H-M "P M M N"
_symmetry_group_IT_number 59
_space_group.IT_coordinate_system_code '2'
_symmetry_cell_setting 'orthorhombic'
loop_
_space_group_symop_operation_xyz
x,y,z
1/2-x,1/2-y,z
1/2+x,-y,-z
-x,1/2+y,-z
-x,-y,-z
1/2+x,1/2+y,-z
1/2-x,y,z
x,1/2-y,z
loop_
_atom_site_type_symbol
_atom_site_label
_atom_site_fract_x
_atom_site_fract_y
_atom_site_fract_z
Si Si1 0.805146 0.015157 0.654263
Si Si2 0.431799 0.512627 0.092983
Si Si3 0.032368 0.121051 0.853328
Si Si4 0.106133 0.129136 0.329356
Si Si5 0.949387 0.963977 0.441679
Si Si6 0.134700 0.624590 0.562941
Si Si7 0.833637 0.375937 0.916144
Si Si8 0.697415 0.121996 0.200540
O O1 0.750000 0.987621 0.613582
O O2 0.828573 0.104420 0.558080
O O3 0.804957 0.062208 0.802235
O O4 0.838964 0.909798 0.647476
O O5 0.478696 0.584366 0.113563
O O6 0.422772 0.439717 0.221519
O O7 0.390071 0.600290 0.081728
O O8 0.433522 0.436799 0.962189
O O9 0.037081 0.250000 0.864846
O O10 0.047083 0.082345 0.706577
O O11 0.108909 0.250000 0.276839
O O12 0.075821 0.125968 0.466304
O O13 0.916760 0.070182 0.452634
O O14 0.000000 0.000000 0.500000
O O15 0.124367 0.750000 0.572839
O O16 0.158660 0.575684 0.696324
O O17 0.824689 0.250000 0.898200
O O18 0.812275 0.421533 0.053376
O O19 0.750000 0.082961 0.246711
O O20 0.694056 0.250000 0.201434
#
# Coordination Sequence:
#
# PCOD8241321 Si02
#       8
#     8   8   8   8   8   8   8   8
#     4  10  21  35  54  82 112 143 186 227 272 339
#     4  10  21  37  54  82 110 141 191 231 278 335
#     4  11  22  37  58  79 109 148 188 235 285 331
#     4  10  21  39  58  78 110 146 186 235 284 330
#     4  11  22  39  54  83 109 145 190 234 280 340
#     4  10  21  35  54  79 110 144 179 226 279 329
#     4  10  19  32  52  78 111 145 176 222 276 330
#     4   9  17  30  49  74 104 139 174 208 260 323
#
# _framework density 18.462774
#
# number of rings (size 3 to 8) (size 9 to 14) (size 15 to 20)
#    0.000    1.875    1.250    3.000    0.000    3.250 
#    0.000    0.625    0.000    0.000    0.000    0.000 
#    0.000   18.000    0.000    0.000    0.000    0.000 
#
# Total GULP energy -793544.649254 kJ/mol
# GULP energy per Si atom -12399.135145 kJ/mol
# Density = 1.842075 g / cm^3
# Si number density = 18.462774 Si / 1000 Ang^3
#
#
#
# Elastic Constant Matrix: (Units=GPa)
#
#
# Indices 1 2 3 4 5 6 
#
# 1 102.2016 16.6022 32.7939 0.0000 0.0000 0.0000
# 2 16.6022 62.5973 17.1353 0.0000 0.0000 0.0000
# 3 32.7939 17.1353 113.2674 0.0000 0.0000 0.0000
# 4 0.0000 0.0000 0.0000 19.3501 0.0000 0.0000
# 5 0.0000 0.0000 0.0000 0.0000 26.1266 0.0000
# 6 0.0000 0.0000 0.0000 0.0000 0.0000 6.1382
#
#
#
# Elastic Compliance Matrix: (Units=1/GPa)
#
#
# Indices 1 2 3 4 5 6 
#
# 1 0.011056 -0.002145 -0.002877 0.000000 0.000000 0.000000
# 2 -0.002145 0.017081 -0.001963 0.000000 0.000000 0.000000
# 3 -0.002877 -0.001963 0.009958 0.000000 0.000000 0.000000
# 4 0.000000 0.000000 0.000000 0.051679 0.000000 0.000000
# 5 0.000000 0.000000 0.000000 0.000000 0.038275 0.000000
# 6 0.000000 0.000000 0.000000 0.000000 0.000000 0.162914
#
#
# Mechanical properties :
#
#
# Convention : Reuss Voigt Hill
#
# Bulk Modulus (GPa) = 41.44762 45.68101 43.56431
# Shear Modulus (GPa) = 15.97569 24.42531 20.20050
#
# Velocity S-wave (km/s) = 2.94478 3.64118 3.31134
# Velocity P-wave (km/s) = 5.83612 6.51717 6.18603
#
# Compressibility (1/GPa) = 0.02412684
#
# Stress axis : x y z
#
# Youngs Moduli (GPa) = 90.44856 58.54334 100.41697
#
# Poissons Ratio (x) = 0.12557 0.28885
# Poissons Ratio (y) = 0.19400 0.19713
# Poissons Ratio (z) = 0.26018 0.11493
#
# Static dielectric constant tensor:
#      x y z
#    x 3.474410 0.000000 0.000000 
#    y 0.000000 3.147880 0.000000 
#    z 0.000000 0.000000 3.694700 
# 
# 
# High freq. dielectric constant tensor:
#      x y z
#    x 1.724800 0.000000 0.000000 
#    y 0.000000 1.691800 0.000000 
#    z 0.000000 0.000000 1.735430 
# 
# From -- ./inp_files/13206.got.cif
#   From: 2010.03.12/outbox.cif.g09.slc.cpg/sg59_7_cif.got.tgz:13206.got - 2010.04.16 16:29:54.
