data_PCOD8241868
_publ_section_title
;
Structure prediction by ZEFSAII (Michael W. Deem and Ramdas Pophale) SiO2 
 PCOD8241868
Probable space group: P M M N
;
_chemical_formula_sum "Si O2"
_cell_formula_units_Z 48
_cell_length_a 18.709962
_cell_length_b 14.236106
_cell_length_c 10.165148
_cell_angle_alpha 90.000000
_cell_angle_beta 90.000000
_cell_angle_gamma 90.000000
_cell_volume 2707.558349
_symmetry_space_group_name_H-M "P M M N"
_symmetry_group_IT_number 59
_space_group.IT_coordinate_system_code '2'
_symmetry_cell_setting 'orthorhombic'
loop_
_space_group_symop_operation_xyz
x,y,z
1/2-x,1/2-y,z
1/2+x,-y,-z
-x,1/2+y,-z
-x,-y,-z
1/2+x,1/2+y,-z
1/2-x,y,z
x,1/2-y,z
loop_
_atom_site_type_symbol
_atom_site_label
_atom_site_fract_x
_atom_site_fract_y
_atom_site_fract_z
Si Si1 0.831400 0.001895 0.953086
Si Si2 0.412994 0.957910 0.788075
Si Si3 0.545398 0.857898 0.906742
Si Si4 0.169270 0.856902 0.561806
Si Si5 0.136055 0.857375 0.273002
Si Si6 0.523543 0.647551 0.204880
O O1 0.750000 0.967854 0.978580
O O2 0.829698 0.079657 0.839838
O O3 0.878942 0.912431 0.908840
O O4 0.862334 0.050855 0.084691
O O5 0.490189 0.909969 0.810460
O O6 0.379640 0.913473 0.660176
O O7 0.421975 0.067453 0.750060
O O8 0.558206 0.750000 0.861761
O O9 0.508710 0.862227 0.049365
O O10 0.250000 0.866000 0.611743
O O11 0.142448 0.750000 0.563804
O O12 0.163413 0.895681 0.413337
O O13 0.161053 0.750000 0.249029
O O14 0.050894 0.865000 0.277981
O O15 0.557348 0.750000 0.236480
#
# Coordination Sequence:
#
# PCOD8241868 Si02
#       6
#     8   8   8   8   8   8
#     4  11  21  34  54  81 106 137 178 216 258 312
#     4  11  19  35  56  80 104 137 178 218 263 306
#     4  10  19  34  54  78 109 141 173 218 264 306
#     4  10  22  36  50  75 111 142 168 211 270 320
#     4  10  19  35  55  77 104 137 172 211 262 315
#     4   9  17  32  55  80 105 131 171 220 261 303
#
# _framework density 17.728151
#
# number of rings (size 3 to 8) (size 9 to 14) (size 15 to 20)
#    0.000    1.833    3.333    2.500    0.000    2.667 
#    0.000    0.000    0.000    1.500    0.000    0.000 
#    0.000    0.000    0.000    0.000    0.000    0.000 
#
# Total GULP energy -595183.311556 kJ/mol
# GULP energy per Si atom -12399.652324 kJ/mol
# Density = 1.768780 g / cm^3
# Si number density = 17.728151 Si / 1000 Ang^3
#
#
#
# Elastic Constant Matrix: (Units=GPa)
#
#
# Indices 1 2 3 4 5 6 
#
# 1 101.6842 44.8569 35.6440 0.0000 0.0000 0.0000
# 2 44.8569 103.0410 42.9933 0.0000 0.0000 0.0000
# 3 35.6440 42.9933 63.7914 0.0000 0.0000 0.0000
# 4 0.0000 0.0000 0.0000 24.3830 0.0000 0.0000
# 5 0.0000 0.0000 0.0000 0.0000 17.6899 0.0000
# 6 0.0000 0.0000 0.0000 0.0000 0.0000 20.9424
#
#
#
# Elastic Compliance Matrix: (Units=1/GPa)
#
#
# Indices 1 2 3 4 5 6 
#
# 1 0.013174 -0.003706 -0.004863 0.000000 0.000000 0.000000
# 2 -0.003706 0.014544 -0.007732 0.000000 0.000000 0.000000
# 3 -0.004863 -0.007732 0.023604 0.000000 0.000000 0.000000
# 4 0.000000 0.000000 0.000000 0.041012 0.000000 0.000000
# 5 0.000000 0.000000 0.000000 0.000000 0.056529 0.000000
# 6 0.000000 0.000000 0.000000 0.000000 0.000000 0.047750
#
#
# Mechanical properties :
#
#
# Convention : Reuss Voigt Hill
#
# Bulk Modulus (GPa) = 53.41659 57.27833 55.34746
# Shear Modulus (GPa) = 21.23538 22.27122 21.75330
#
# Velocity S-wave (km/s) = 3.46473 3.54823 3.50673
# Velocity P-wave (km/s) = 6.79722 7.01184 6.90536
#
# Compressibility (1/GPa) = 0.01872078
#
# Stress axis : x y z
#
# Youngs Moduli (GPa) = 75.90736 68.75652 42.36488
#
# Poissons Ratio (x) = 0.25480 0.20604
# Poissons Ratio (y) = 0.28130 0.32755
# Poissons Ratio (z) = 0.36917 0.53160
#
# Static dielectric constant tensor:
#      x y z
#    x 3.191800 0.000000 0.000000 
#    y 0.000000 3.479380 0.000000 
#    z 0.000000 0.000000 3.129790 
# 
# 
# High freq. dielectric constant tensor:
#      x y z
#    x 1.680530 0.000000 0.000000 
#    y 0.000000 1.687170 0.000000 
#    z 0.000000 0.000000 1.670170 
# 
# From -- ./inp_files/9023.got.cif
#   From: 2010.03.12/outbox.cif.g09.slc.cpg/sg59_5_cif.got.tgz:9023.got - 2010.04.16 16:29:54.
