data_PCOD8241970
_publ_section_title
;
Structure prediction by ZEFSAII (Michael W. Deem and Ramdas Pophale) SiO2 
 PCOD8241970
Probable space group: P M M N
;
_chemical_formula_sum "Si O2"
_cell_formula_units_Z 64
_cell_length_a 24.781044
_cell_length_b 9.136811
_cell_length_c 14.828744
_cell_angle_alpha 90.000000
_cell_angle_beta 90.000000
_cell_angle_gamma 90.000000
_cell_volume 3357.519996
_symmetry_space_group_name_H-M "P M M N"
_symmetry_group_IT_number 59
_space_group.IT_coordinate_system_code '2'
_symmetry_cell_setting 'orthorhombic'
loop_
_space_group_symop_operation_xyz
x,y,z
1/2-x,1/2-y,z
1/2+x,-y,-z
-x,1/2+y,-z
-x,-y,-z
1/2+x,1/2+y,-z
1/2-x,y,z
x,1/2-y,z
loop_
_atom_site_type_symbol
_atom_site_label
_atom_site_fract_x
_atom_site_fract_y
_atom_site_fract_z
Si Si1 0.188643 0.581204 0.305194
Si Si2 0.513106 0.414597 0.716748
Si Si3 0.544692 0.584149 0.554295
Si Si4 0.335714 0.416552 0.489027
Si Si5 0.809921 0.082603 0.331674
Si Si6 0.057122 0.575514 0.982340
Si Si7 0.108508 0.586143 0.157332
Si Si8 0.088310 0.578210 0.782607
O O1 0.250000 0.569970 0.270902
O O2 0.171492 0.750000 0.322714
O O3 0.183300 0.496315 0.398699
O O4 0.150588 0.508410 0.226451
O O5 0.502214 0.250000 0.681890
O O6 0.551989 0.500847 0.648430
O O7 0.546509 0.415131 0.808798
O O8 0.456116 0.494619 0.724127
O O9 0.500000 0.500000 0.500000
O O10 0.526246 0.750000 0.571779
O O11 0.600048 0.576797 0.499841
O O12 0.315188 0.250000 0.483379
O O13 0.311087 0.489744 0.577181
O O14 0.750000 0.065371 0.289236
O O15 0.821703 0.250000 0.358803
O O16 0.853169 0.031442 0.256278
O O17 0.048802 0.750000 0.989677
O O18 0.101560 0.519438 0.056715
O O19 0.082596 0.529730 0.886531
O O20 0.000000 0.500000 0.000000
O O21 0.130986 0.750000 0.148516
O O22 0.077954 0.750000 0.772169
#
# Coordination Sequence:
#
# PCOD8241970 Si02
#       8
#     8   8   8   8   8   8   8   8
#     4  10  20  36  58  81 108 147 189 224 267 327
#     4  11  20  33  55  80 112 148 179 221 276 330
#     4  11  23  36  51  77 112 149 186 226 276 332
#     4  11  23  37  55  81 110 141 183 231 277 321
#     4  10  22  40  58  77 106 147 189 227 271 323
#     4  10  19  34  56  83 113 143 178 223 275 329
#     4   9  18  33  53  80 112 142 175 220 270 321
#     4  10  21  36  57  84 113 143 183 231 276 329
#
# _framework density 19.061688
#
# number of rings (size 3 to 8) (size 9 to 14) (size 15 to 20)
#    0.000    1.750    2.500    2.250    0.000    6.000 
#    0.000    1.250    0.000    3.750    0.000    0.000 
#    0.000    3.000    0.000    0.000    0.000    0.000 
#
# Total GULP energy -793361.923758 kJ/mol
# GULP energy per Si atom -12396.280059 kJ/mol
# Density = 1.901830 g / cm^3
# Si number density = 19.061688 Si / 1000 Ang^3
#
#
#
# Elastic Constant Matrix: (Units=GPa)
#
#
# Indices 1 2 3 4 5 6 
#
# 1 112.4555 31.4786 49.2989 0.0000 0.0000 0.0000
# 2 31.4786 70.0402 31.9906 0.0000 0.0000 0.0000
# 3 49.2989 31.9906 114.5507 0.0000 0.0000 0.0000
# 4 0.0000 0.0000 0.0000 18.1671 0.0000 0.0000
# 5 0.0000 0.0000 0.0000 0.0000 21.9940 0.0000
# 6 0.0000 0.0000 0.0000 0.0000 0.0000 22.8024
#
#
#
# Elastic Compliance Matrix: (Units=1/GPa)
#
#
# Indices 1 2 3 4 5 6 
#
# 1 0.011614 -0.003366 -0.004058 0.000000 0.000000 0.000000
# 2 -0.003366 0.017341 -0.003394 0.000000 0.000000 0.000000
# 3 -0.004058 -0.003394 0.011424 0.000000 0.000000 0.000000
# 4 0.000000 0.000000 0.000000 0.055045 0.000000 0.000000
# 5 0.000000 0.000000 0.000000 0.000000 0.045467 0.000000
# 6 0.000000 0.000000 0.000000 0.000000 0.000000 0.043855
#
#
# Mechanical properties :
#
#
# Convention : Reuss Voigt Hill
#
# Bulk Modulus (GPa) = 53.35646 58.06472 55.71059
# Shear Modulus (GPa) = 23.51518 24.87792 24.19655
#
# Velocity S-wave (km/s) = 3.51613 3.61657 3.56670
# Velocity P-wave (km/s) = 6.67356 6.92583 6.80086
#
# Compressibility (1/GPa) = 0.01874187
#
# Stress axis : x y z
#
# Youngs Moduli (GPa) = 86.10555 57.66822 87.53433
#
# Poissons Ratio (x) = 0.19412 0.35522
# Poissons Ratio (y) = 0.28984 0.29710
# Poissons Ratio (z) = 0.34942 0.19573
#
# Static dielectric constant tensor:
#      x y z
#    x 3.549920 0.000000 0.000000 
#    y 0.000000 3.541440 0.000000 
#    z 0.000000 0.000000 3.624040 
# 
# 
# High freq. dielectric constant tensor:
#      x y z
#    x 1.740940 0.000000 0.000000 
#    y 0.000000 1.726780 0.000000 
#    z 0.000000 0.000000 1.741040 
# 
# From -- ./inp_files/24705.got.cif
#   From: 2010.03.12/outbox.cif.g09.slc.cpg/sg59_13_cif.got.tgz:24705.got - 2010.04.16 16:29:54.
