data_PCOD8241364
_publ_section_title
;
Structure prediction by ZEFSAII (Michael W. Deem and Ramdas Pophale) SiO2 
 PCOD8241364
Probable space group: P M M N
;
_chemical_formula_sum "Si O2"
_cell_formula_units_Z 64
_cell_length_a 16.859320
_cell_length_b 20.865389
_cell_length_c 9.231409
_cell_angle_alpha 90.000000
_cell_angle_beta 90.000000
_cell_angle_gamma 90.000000
_cell_volume 3247.390626
_symmetry_space_group_name_H-M "P M M N"
_symmetry_group_IT_number 59
_space_group.IT_coordinate_system_code '2'
_symmetry_cell_setting 'orthorhombic'
loop_
_space_group_symop_operation_xyz
x,y,z
1/2-x,1/2-y,z
1/2+x,-y,-z
-x,1/2+y,-z
-x,-y,-z
1/2+x,1/2+y,-z
1/2-x,y,z
x,1/2-y,z
loop_
_atom_site_type_symbol
_atom_site_label
_atom_site_fract_x
_atom_site_fract_y
_atom_site_fract_z
Si Si1 0.415542 0.059006 0.214451
Si Si2 0.340970 0.433698 0.909364
Si Si3 0.107648 0.681632 0.668308
Si Si4 0.843136 0.046502 0.598001
Si Si5 0.662075 0.182310 0.637244
Si Si6 0.841729 0.823253 0.308072
Si Si7 0.404260 0.955234 0.721112
Si Si8 0.072153 0.178474 0.399572
O O1 0.503855 0.033277 0.242853
O O2 0.398895 0.129995 0.275623
O O3 0.355100 0.010856 0.291175
O O4 0.399354 0.060424 0.044388
O O5 0.250000 0.429401 0.961049
O O6 0.365914 0.369746 0.822996
O O7 0.349988 0.496083 0.809057
O O8 0.113868 0.750000 0.755908
O O9 0.170063 0.681716 0.537971
O O10 0.119857 0.618333 0.767263
O O11 0.022358 0.676461 0.589471
O O12 0.750000 0.053421 0.562203
O O13 0.875424 0.112799 0.676676
O O14 0.891053 0.034033 0.450014
O O15 0.750000 0.185678 0.703101
O O16 0.617862 0.250000 0.685336
O O17 0.750000 0.833070 0.349991
O O18 0.858958 0.750000 0.260878
O O19 0.893463 0.843538 0.446247
O O20 0.103135 0.250000 0.360445
#
# Coordination Sequence:
#
# PCOD8241364 Si02
#       8
#     8   8   8   8   8   8   8   8
#     4  11  22  35  52  77 108 140 175 219 267 312
#     4  11  23  37  53  73 103 141 179 219 262 311
#     4   8  15  29  50  76 102 127 161 207 255 302
#     4  10  19  32  53  78 103 133 172 216 263 315
#     4   8  14  25  43  69  97 123 155 199 249 298
#     4   9  19  36  56  77 102 135 175 216 258 309
#     4  10  20  35  54  76 103 139 176 215 259 313
#     4   9  18  33  54  78 102 130 167 213 262 310
#
# _framework density 19.708130000000001
#
# number of rings (size 3 to 8) (size 9 to 14) (size 15 to 20)
#    0.000    2.500    0.000    2.250    0.000    5.000 
#    0.000    0.000    0.000    0.750    0.000    0.000 
#    0.000    0.000    0.000    0.000    0.000    0.000 
#
# Total GULP energy -792954.682323 kJ/mol
# GULP energy per Si atom -12389.916911 kJ/mol
# Density = 1.966327 g / cm^3
# Si number density = 19.708130 Si / 1000 Ang^3
#
#
#
# Elastic Constant Matrix: (Units=GPa)
#
#
# Indices 1 2 3 4 5 6 
#
# 1 43.6636 19.0854 14.0858 0.0000 0.0000 0.0000
# 2 19.0854 135.3529 44.2447 0.0000 0.0000 0.0000
# 3 14.0858 44.2447 69.9196 0.0000 0.0000 0.0000
# 4 0.0000 0.0000 0.0000 17.6715 0.0000 0.0000
# 5 0.0000 0.0000 0.0000 0.0000 19.0451 0.0000
# 6 0.0000 0.0000 0.0000 0.0000 0.0000 24.7033
#
#
#
# Elastic Compliance Matrix: (Units=1/GPa)
#
#
# Indices 1 2 3 4 5 6 
#
# 1 0.025086 -0.002377 -0.003550 0.000000 0.000000 0.000000
# 2 -0.002377 0.009540 -0.005558 0.000000 0.000000 0.000000
# 3 -0.003550 -0.005558 0.018534 0.000000 0.000000 0.000000
# 4 0.000000 0.000000 0.000000 0.056588 0.000000 0.000000
# 5 0.000000 0.000000 0.000000 0.000000 0.052507 0.000000
# 6 0.000000 0.000000 0.000000 0.000000 0.000000 0.040480
#
#
# Mechanical properties :
#
#
# Convention : Reuss Voigt Hill
#
# Bulk Modulus (GPa) = 33.12196 44.86310 38.99253
# Shear Modulus (GPa) = 21.20712 23.71866 22.46289
#
# Velocity S-wave (km/s) = 3.28389 3.47291 3.37972
# Velocity P-wave (km/s) = 5.58760 6.23656 5.92098
#
# Compressibility (1/GPa) = 0.03019145
#
# Stress axis : x y z
#
# Youngs Moduli (GPa) = 39.86210 104.82078 53.95387
#
# Poissons Ratio (x) = 0.24916 0.19152
# Poissons Ratio (y) = 0.09475 0.29988
# Poissons Ratio (z) = 0.14150 0.58260
#
# Static dielectric constant tensor:
#      x y z
#    x 3.442240 0.000000 0.000000 
#    y 0.000000 4.211530 0.000000 
#    z 0.000000 0.000000 3.068190 
# 
# 
# High freq. dielectric constant tensor:
#      x y z
#    x 1.760050 0.000000 0.000000 
#    y 0.000000 1.801100 0.000000 
#    z 0.000000 0.000000 1.711700 
# 
# From -- ./inp_files/10724.got.cif
#   From: 2010.03.12/outbox.cif.g09.slc.cpg/sg59_6_cif.got.tgz:10724.got - 2010.04.16 16:29:54.
