data_PCOD8241147
_publ_section_title
;
Structure prediction by ZEFSAII (Michael W. Deem and Ramdas Pophale) SiO2 
 PCOD8241147
Probable space group: P M M N
;
_chemical_formula_sum "Si O2"
_cell_formula_units_Z 56
_cell_length_a 14.236486
_cell_length_b 9.539683
_cell_length_c 22.872446
_cell_angle_alpha 90.000000
_cell_angle_beta 90.000000
_cell_angle_gamma 90.000000
_cell_volume 3106.342652
_symmetry_space_group_name_H-M "P M M N"
_symmetry_group_IT_number 59
_space_group.IT_coordinate_system_code '2'
_symmetry_cell_setting 'orthorhombic'
loop_
_space_group_symop_operation_xyz
x,y,z
1/2-x,1/2-y,z
1/2+x,-y,-z
-x,1/2+y,-z
-x,-y,-z
1/2+x,1/2+y,-z
1/2-x,y,z
x,1/2-y,z
loop_
_atom_site_type_symbol
_atom_site_label
_atom_site_fract_x
_atom_site_fract_y
_atom_site_fract_z
Si Si1 0.640640 0.907837 0.037072
Si Si2 0.141024 0.915404 0.743611
Si Si3 0.648171 0.584611 0.906509
Si Si4 0.641651 0.910272 0.474606
Si Si5 0.959327 0.911779 0.356004
Si Si6 0.546405 0.415010 0.136597
Si Si7 0.855371 0.411651 0.585729
O O1 0.750000 0.907706 0.051728
O O2 0.600196 0.750000 0.043934
O O3 0.590593 0.010967 0.081293
O O4 0.622964 0.968502 0.971825
O O5 0.250000 0.959880 0.741844
O O6 0.129137 0.750000 0.735369
O O7 0.096235 0.966988 0.804460
O O8 0.083751 0.990811 0.693117
O O9 0.750000 0.522769 0.885743
O O10 0.658515 0.750000 0.911495
O O11 0.564873 0.544605 0.861498
O O12 0.750000 0.935740 0.459504
O O13 0.621102 0.750000 0.491359
O O14 0.584097 0.956190 0.417907
O O15 0.610158 0.003081 0.529372
O O16 0.936154 0.750000 0.341256
O O17 0.071968 0.937655 0.360910
O O18 0.561086 0.250000 0.128319
O O19 0.750000 0.456754 0.605595
O O20 0.857914 0.250000 0.566906
#
# Coordination Sequence:
#
# PCOD8241147 Si02
#       7
#     8   8   8   8   8   8   8
#     4   9  17  29  47  73 102 129 158 194 238 289
#     4  10  22  37  50  69  98 127 158 200 245 286
#     4   8  15  29  49  73 100 128 158 194 238 288
#     4   9  17  29  47  73 101 126 157 199 241 281
#     4  10  20  34  52  72  96 130 168 201 235 280
#     4  10  19  32  51  72  96 128 163 200 241 283
#     4   9  18  32  50  74 102 129 158 194 239 289
#
# _framework density 18.027632000000001
#
# number of rings (size 3 to 8) (size 9 to 14) (size 15 to 20)
#    0.000    2.714    0.000    2.571    0.000    3.429 
#    0.000    2.143    0.000    2.143    0.000    0.000 
#    0.000    0.000    0.000    0.000    0.000    0.000 
#
# Total GULP energy -694188.595931 kJ/mol
# GULP energy per Si atom -12396.224927 kJ/mol
# Density = 1.798660 g / cm^3
# Si number density = 18.027632 Si / 1000 Ang^3
#
#
#
# Elastic Constant Matrix: (Units=GPa)
#
#
# Indices 1 2 3 4 5 6 
#
# 1 113.8723 33.2116 69.3463 0.0000 0.0000 0.0000
# 2 33.2116 35.6411 30.6193 0.0000 0.0000 0.0000
# 3 69.3463 30.6193 76.1265 0.0000 0.0000 0.0000
# 4 0.0000 0.0000 0.0000 27.8079 0.0000 0.0000
# 5 0.0000 0.0000 0.0000 0.0000 29.7750 0.0000
# 6 0.0000 0.0000 0.0000 0.0000 0.0000 22.5884
#
#
#
# Elastic Compliance Matrix: (Units=1/GPa)
#
#
# Indices 1 2 3 4 5 6 
#
# 1 0.020206 -0.004608 -0.016553 0.000000 0.000000 0.000000
# 2 -0.004608 0.043922 -0.013469 0.000000 0.000000 0.000000
# 3 -0.016553 -0.013469 0.033632 0.000000 0.000000 0.000000
# 4 0.000000 0.000000 0.000000 0.035961 0.000000 0.000000
# 5 0.000000 0.000000 0.000000 0.000000 0.033585 0.000000
# 6 0.000000 0.000000 0.000000 0.000000 0.000000 0.044270
#
#
# Mechanical properties :
#
#
# Convention : Reuss Voigt Hill
#
# Bulk Modulus (GPa) = 35.08635 54.66606 44.87621
# Shear Modulus (GPa) = 17.22129 22.19845 19.70987
#
# Velocity S-wave (km/s) = 3.09410 3.51288 3.31012
# Velocity P-wave (km/s) = 5.68062 6.84420 6.28937
#
# Compressibility (1/GPa) = 0.02850111
#
# Stress axis : x y z
#
# Youngs Moduli (GPa) = 49.48918 22.76740 29.73327
#
# Poissons Ratio (x) = 0.10491 0.49218
# Poissons Ratio (y) = 0.22805 0.40047
# Poissons Ratio (z) = 0.81921 0.30665
#
# Static dielectric constant tensor:
#      x y z
#    x 3.794050 0.000000 0.000000 
#    y 0.000000 3.174330 0.000000 
#    z 0.000000 0.000000 3.184280 
# 
# 
# High freq. dielectric constant tensor:
#      x y z
#    x 1.717710 0.000000 0.000000 
#    y 0.000000 1.678950 0.000000 
#    z 0.000000 0.000000 1.674630 
# 
# From -- ./inp_files/30306.got.cif
#   From: 2010.03.12/outbox.cif.g09.slc.cpg/sg59_16_cif.got.tgz:30306.got - 2010.04.16 16:29:54.
