data_PCOD8241012
_publ_section_title
;
Structure prediction by ZEFSAII (Michael W. Deem and Ramdas Pophale) SiO2 
 PCOD8241012
Probable space group: P M M N
;
_chemical_formula_sum "Si O2"
_cell_formula_units_Z 56
_cell_length_a 22.813801
_cell_length_b 13.664977
_cell_length_c 10.041712
_cell_angle_alpha 90.000000
_cell_angle_beta 90.000000
_cell_angle_gamma 90.000000
_cell_volume 3130.504378
_symmetry_space_group_name_H-M "P M M N"
_symmetry_group_IT_number 59
_space_group.IT_coordinate_system_code '2'
_symmetry_cell_setting 'orthorhombic'
loop_
_space_group_symop_operation_xyz
x,y,z
1/2-x,1/2-y,z
1/2+x,-y,-z
-x,1/2+y,-z
-x,-y,-z
1/2+x,1/2+y,-z
1/2-x,y,z
x,1/2-y,z
loop_
_atom_site_type_symbol
_atom_site_label
_atom_site_fract_x
_atom_site_fract_y
_atom_site_fract_z
Si Si1 0.182644 0.637031 0.095826
Si Si2 0.818557 0.469638 0.173464
Si Si3 0.616827 0.466276 0.673053
Si Si4 0.613476 0.861006 0.285427
Si Si5 0.317653 0.139645 0.440230
Si Si6 0.609661 0.365541 0.385661
Si Si7 0.511771 0.996304 0.345537
O O1 0.250000 0.615945 0.131570
O O2 0.171722 0.750000 0.065085
O O3 0.143769 0.606463 0.220298
O O4 0.163002 0.578984 0.965040
O O5 0.750000 0.489921 0.181794
O O6 0.852599 0.572967 0.178098
O O7 0.835270 0.398181 0.296142
O O8 0.655219 0.565241 0.666897
O O9 0.616568 0.411171 0.531844
O O10 0.551586 0.495185 0.724892
O O11 0.611956 0.750000 0.233687
O O12 0.647598 0.872107 0.423289
O O13 0.547060 0.898151 0.305770
O O14 0.250000 0.113460 0.466506
O O15 0.324212 0.250000 0.384463
O O16 0.605142 0.250000 0.396336
O O17 0.551313 0.408189 0.312058
O O18 0.500000 0.000000 0.500000
#
# Coordination Sequence:
#
# PCOD8241012 Si02
#       7
#     8   8   8   8   8   8   8
#     4  10  22  38  56  79 111 149 182 221 280 339
#     4  10  20  37  56  78 108 142 181 226 275 328
#     4  11  20  36  55  81 110 142 185 226 271 326
#     4  10  19  33  55  82 110 141 183 229 275 324
#     4  10  19  31  51  79 110 142 176 221 275 322
#     4  10  20  33  53  80 108 137 180 229 271 320
#     4   9  18  33  50  79 110 141 178 222 275 320
#
# _framework density 17.888491999999999
#
# number of rings (size 3 to 8) (size 9 to 14) (size 15 to 20)
#    0.000    2.000    4.286    1.714    0.000    5.714 
#    0.000    3.571    0.000    2.571    0.000    0.000 
#    0.000    0.000    0.000    0.000    0.000    0.000 
#
# Total GULP energy -694301.534200 kJ/mol
# GULP energy per Si atom -12398.241682 kJ/mol
# Density = 1.784778 g / cm^3
# Si number density = 17.888492 Si / 1000 Ang^3
#
#
#
# Elastic Constant Matrix: (Units=GPa)
#
#
# Indices 1 2 3 4 5 6 
#
# 1 99.8709 46.7403 37.3877 0.0000 0.0000 0.0000
# 2 46.7403 139.9601 36.5779 0.0000 0.0000 0.0000
# 3 37.3877 36.5779 69.9584 0.0000 0.0000 0.0000
# 4 0.0000 0.0000 0.0000 28.5692 0.0000 0.0000
# 5 0.0000 0.0000 0.0000 0.0000 4.6603 0.0000
# 6 0.0000 0.0000 0.0000 0.0000 0.0000 23.4302
#
#
#
# Elastic Compliance Matrix: (Units=1/GPa)
#
#
# Indices 1 2 3 4 5 6 
#
# 1 0.013555 -0.003050 -0.005649 0.000000 0.000000 0.000000
# 2 -0.003050 0.008962 -0.003056 0.000000 0.000000 0.000000
# 3 -0.005649 -0.003056 0.018911 0.000000 0.000000 0.000000
# 4 0.000000 0.000000 0.000000 0.035003 0.000000 0.000000
# 5 0.000000 0.000000 0.000000 0.000000 0.214576 0.000000
# 6 0.000000 0.000000 0.000000 0.000000 0.000000 0.042680
#
#
# Mechanical properties :
#
#
# Convention : Reuss Voigt Hill
#
# Bulk Modulus (GPa) = 55.81106 61.24458 58.52782
# Shear Modulus (GPa) = 13.76759 23.93752 18.85256
#
# Velocity S-wave (km/s) = 2.77724 3.66204 3.24989
# Velocity P-wave (km/s) = 6.44602 7.22440 6.84628
#
# Compressibility (1/GPa) = 0.01791760
#
# Stress axis : x y z
#
# Youngs Moduli (GPa) = 73.77081 111.57992 52.87896
#
# Poissons Ratio (x) = 0.34037 0.29874
# Poissons Ratio (y) = 0.22503 0.16158
# Poissons Ratio (z) = 0.41677 0.34095
#
# Static dielectric constant tensor:
#      x y z
#    x 3.757240 0.000000 0.000000 
#    y 0.000000 3.467920 0.000000 
#    z 0.000000 0.000000 3.002480 
# 
# 
# High freq. dielectric constant tensor:
#      x y z
#    x 1.704090 0.000000 0.000000 
#    y 0.000000 1.700900 0.000000 
#    z 0.000000 0.000000 1.658840 
# 
# From -- ./inp_files/11435.got.cif
#   From: 2010.03.12/outbox.cif.g09.slc.cpg/sg59_6_cif.got.tgz:11435.got - 2010.04.16 16:29:54.
