data_PCOD8241838
_publ_section_title
;
Structure prediction by ZEFSAII (Michael W. Deem and Ramdas Pophale) SiO2 
 PCOD8241838
Probable space group: P M M N
;
_chemical_formula_sum "Si O2"
_cell_formula_units_Z 64
_cell_length_a 8.914418
_cell_length_b 21.511889
_cell_length_c 19.245874
_cell_angle_alpha 90.000000
_cell_angle_beta 90.000000
_cell_angle_gamma 90.000000
_cell_volume 3690.703706
_symmetry_space_group_name_H-M "P M M N"
_symmetry_group_IT_number 59
_space_group.IT_coordinate_system_code '2'
_symmetry_cell_setting 'orthorhombic'
loop_
_space_group_symop_operation_xyz
x,y,z
1/2-x,1/2-y,z
1/2+x,-y,-z
-x,1/2+y,-z
-x,-y,-z
1/2+x,1/2+y,-z
1/2-x,y,z
x,1/2-y,z
loop_
_atom_site_type_symbol
_atom_site_label
_atom_site_fract_x
_atom_site_fract_y
_atom_site_fract_z
Si Si1 0.423411 0.001799 0.675250
Si Si2 0.073850 0.011514 0.829306
Si Si3 0.426694 0.679166 0.532143
Si Si4 0.420071 0.679668 0.782162
Si Si5 0.423922 0.060229 0.534987
Si Si6 0.425198 0.123680 0.340701
Si Si7 0.573475 0.561062 0.031907
Si Si8 0.421745 0.889898 0.911305
O O1 0.250000 0.980596 0.681755
O O2 0.490638 0.022268 0.751172
O O3 0.439204 0.056852 0.619030
O O4 0.520009 0.945700 0.643022
O O5 0.250000 0.010528 0.820542
O O6 0.028717 0.065540 0.885706
O O7 0.019860 0.946340 0.862266
O O8 0.250000 0.667446 0.531799
O O9 0.463142 0.750000 0.506632
O O10 0.503255 0.626269 0.484916
O O11 0.488309 0.672314 0.610310
O O12 0.250000 0.658567 0.764549
O O13 0.448956 0.750000 0.761956
O O14 0.535000 0.638018 0.738984
O O15 0.447465 0.671364 0.864824
O O16 0.250000 0.060791 0.512097
O O17 0.500000 0.000000 0.500000
O O18 0.250000 0.129493 0.354308
O O19 0.750000 0.556233 0.024252
O O20 0.500000 0.500000 0.000000
O O21 0.512625 0.617443 0.984015
O O22 0.250000 0.900642 0.932241
#
# Coordination Sequence:
#
# PCOD8241838 Si02
#       8
#     8   8   8   8   8   8   8   8
#     4  10  19  34  54  74 102 140 173 204 255 320
#     4   8  14  27  46  66  91 124 160 196 237 293
#     4  11  24  41  59  76 101 142 184 221 267 322
#     4  10  20  34  50  66  92 135 179 212 249 305
#     4  11  22  35  57  83 109 139 174 221 269 319
#     4  12  23  33  50  76 105 135 171 219 262 305
#     4   9  16  26  42  65  91 121 155 193 236 284
#     4   9  16  28  45  65  91 125 163 203 245 291
#
# _framework density 17.340865000000001
#
# number of rings (size 3 to 8) (size 9 to 14) (size 15 to 20)
#    0.000    2.000    2.500    3.375    0.000    3.750 
#    0.000    0.625    0.000    0.000    0.000    0.875 
#    0.000    5.000    0.000    0.000    0.000    0.000 
#
# Total GULP energy -792935.998587 kJ/mol
# GULP energy per Si atom -12389.624978 kJ/mol
# Density = 1.730140 g / cm^3
# Si number density = 17.340865 Si / 1000 Ang^3
#
#
#
# Elastic Constant Matrix: (Units=GPa)
#
#
# Indices 1 2 3 4 5 6 
#
# 1 89.0273 42.3952 42.8386 0.0000 0.0000 0.0000
# 2 42.3952 75.3759 44.9029 0.0000 0.0000 0.0000
# 3 42.8386 44.9029 110.4884 0.0000 0.0000 0.0000
# 4 0.0000 0.0000 0.0000 22.6138 0.0000 0.0000
# 5 0.0000 0.0000 0.0000 0.0000 25.4594 0.0000
# 6 0.0000 0.0000 0.0000 0.0000 0.0000 20.2813
#
#
#
# Elastic Compliance Matrix: (Units=1/GPa)
#
#
# Indices 1 2 3 4 5 6 
#
# 1 0.016263 -0.007113 -0.003415 0.000000 0.000000 0.000000
# 2 -0.007113 0.020616 -0.005621 0.000000 0.000000 0.000000
# 3 -0.003415 -0.005621 0.012659 0.000000 0.000000 0.000000
# 4 0.000000 0.000000 0.000000 0.044221 0.000000 0.000000
# 5 0.000000 0.000000 0.000000 0.000000 0.039278 0.000000
# 6 0.000000 0.000000 0.000000 0.000000 0.000000 0.049306
#
#
# Mechanical properties :
#
#
# Convention : Reuss Voigt Hill
#
# Bulk Modulus (GPa) = 58.00040 59.46276 58.73158
# Shear Modulus (GPa) = 22.68747 23.32123 23.00435
#
# Velocity S-wave (km/s) = 3.62100 3.67123 3.64620
# Velocity P-wave (km/s) = 7.14157 7.23433 7.18810
#
# Compressibility (1/GPa) = 0.01724126
#
# Stress axis : x y z
#
# Youngs Moduli (GPa) = 61.49020 48.50681 78.99585
#
# Poissons Ratio (x) = 0.34502 0.26975
# Poissons Ratio (y) = 0.43736 0.44400
# Poissons Ratio (z) = 0.20997 0.27263
#
# Static dielectric constant tensor:
#      x y z
#    x 3.279270 0.000000 0.000000 
#    y 0.000000 2.965750 0.000000 
#    z 0.000000 0.000000 3.660010 
# 
# 
# High freq. dielectric constant tensor:
#      x y z
#    x 1.662230 0.000000 0.000000 
#    y 0.000000 1.626020 0.000000 
#    z 0.000000 0.000000 1.678640 
# 
# From -- ./inp_files/29657.got.cif
#   From: 2010.03.12/outbox.cif.g09.slc.cpg/sg59_15_cif.got.tgz:29657.got - 2010.04.16 16:29:54.
