data_PCOD8241041
_publ_section_title
;
Structure prediction by ZEFSAII (Michael W. Deem and Ramdas Pophale) SiO2 
 PCOD8241041
Probable space group: P M M N
;
_chemical_formula_sum "Si O2"
_cell_formula_units_Z 64
_cell_length_a 9.034799
_cell_length_b 19.603116
_cell_length_c 19.902868
_cell_angle_alpha 90.000000
_cell_angle_beta 90.000000
_cell_angle_gamma 90.000000
_cell_volume 3525.001187
_symmetry_space_group_name_H-M "P M M N"
_symmetry_group_IT_number 59
_space_group.IT_coordinate_system_code '2'
_symmetry_cell_setting 'orthorhombic'
loop_
_space_group_symop_operation_xyz
x,y,z
1/2-x,1/2-y,z
1/2+x,-y,-z
-x,1/2+y,-z
-x,-y,-z
1/2+x,1/2+y,-z
1/2-x,y,z
x,1/2-y,z
loop_
_atom_site_type_symbol
_atom_site_label
_atom_site_fract_x
_atom_site_fract_y
_atom_site_fract_z
Si Si1 0.076543 0.940291 0.414000
Si Si2 0.079539 0.828854 0.659532
Si Si3 0.920055 0.329580 0.825180
Si Si4 0.424593 0.426109 0.723655
Si Si5 0.076982 0.437416 0.085421
Si Si6 0.423812 0.572461 0.778389
Si Si7 0.579282 0.411071 0.954704
Si Si8 0.576955 0.906851 0.546540
O O1 0.250000 0.925810 0.412800
O O2 0.004312 0.911724 0.346577
O O3 0.006288 0.899127 0.475869
O O4 0.039632 0.020303 0.420339
O O5 0.250000 0.845669 0.642489
O O6 0.055492 0.750000 0.676588
O O7 0.027144 0.871551 0.724025
O O8 0.980996 0.848126 0.595567
O O9 0.750000 0.348182 0.807773
O O10 0.950983 0.250000 0.819248
O O11 0.956181 0.352284 0.901144
O O12 0.028963 0.366889 0.774274
O O13 0.250000 0.424653 0.712044
O O14 0.477348 0.498614 0.752871
O O15 0.250000 0.425407 0.090392
O O16 0.033714 0.516840 0.078281
O O17 0.003878 0.408143 0.152606
O O18 0.015975 0.396127 0.021177
O O19 0.250000 0.573396 0.791599
O O20 0.750000 0.412171 0.976260
O O21 0.750000 0.897513 0.533764
#
# Coordination Sequence:
#
# PCOD8241041 Si02
#       8
#     8   8   8   8   8   8   8   8
#     4  10  20  34  56  83 112 144 182 226 273 326
#     4  10  21  38  58  80 111 151 190 227 273 333
#     4  10  21  38  58  80 110 148 186 225 276 339
#     4  11  21  34  56  84 114 145 183 233 280 324
#     4  10  19  31  53  81 107 137 177 227 275 318
#     4  10  20  34  54  81 111 145 184 228 275 326
#     4   9  18  33  52  77 107 138 177 223 270 326
#     4  10  20  34  55  83 113 143 179 228 278 325
#
# _framework density 18.156022
#
# number of rings (size 3 to 8) (size 9 to 14) (size 15 to 20)
#    0.000    2.000    2.500    1.500    0.000    3.500 
#    0.000    1.250    0.000    7.500    0.000    0.000 
#    0.000    0.000    0.000    0.000    0.000    0.000 
#
# Total GULP energy -793937.124609 kJ/mol
# GULP energy per Si atom -12405.267572 kJ/mol
# Density = 1.811470 g / cm^3
# Si number density = 18.156022 Si / 1000 Ang^3
#
#
#
# Elastic Constant Matrix: (Units=GPa)
#
#
# Indices 1 2 3 4 5 6 
#
# 1 75.9105 33.8523 62.1023 0.0000 0.0000 0.0000
# 2 33.8523 80.9794 50.7336 0.0000 0.0000 0.0000
# 3 62.1023 50.7336 146.0356 0.0000 0.0000 0.0000
# 4 0.0000 0.0000 0.0000 26.5043 0.0000 0.0000
# 5 0.0000 0.0000 0.0000 0.0000 37.6267 0.0000
# 6 0.0000 0.0000 0.0000 0.0000 0.0000 23.0990
#
#
#
# Elastic Compliance Matrix: (Units=1/GPa)
#
#
# Indices 1 2 3 4 5 6 
#
# 1 0.021222 -0.004113 -0.007596 0.000000 0.000000 0.000000
# 2 -0.004113 0.016581 -0.004012 0.000000 0.000000 0.000000
# 3 -0.007596 -0.004012 0.011471 0.000000 0.000000 0.000000
# 4 0.000000 0.000000 0.000000 0.037730 0.000000 0.000000
# 5 0.000000 0.000000 0.000000 0.000000 0.026577 0.000000
# 6 0.000000 0.000000 0.000000 0.000000 0.000000 0.043292
#
#
# Mechanical properties :
#
#
# Convention : Reuss Voigt Hill
#
# Bulk Modulus (GPa) = 56.07156 66.25578 61.16367
# Shear Modulus (GPa) = 25.73904 27.86182 26.80043
#
# Velocity S-wave (km/s) = 3.76927 3.92162 3.84620
# Velocity P-wave (km/s) = 7.06352 7.55494 7.31336
#
# Compressibility (1/GPa) = 0.01783435
#
# Stress axis : x y z
#
# Youngs Moduli (GPa) = 47.12192 60.30913 87.17306
#
# Poissons Ratio (x) = 0.24803 0.66215
# Poissons Ratio (y) = 0.19379 0.34970
# Poissons Ratio (z) = 0.35793 0.24193
#
# Static dielectric constant tensor:
#      x y z
#    x 3.319270 0.000000 0.000000 
#    y 0.000000 3.107100 0.000000 
#    z 0.000000 0.000000 3.391130 
# 
# 
# High freq. dielectric constant tensor:
#      x y z
#    x 1.707450 0.000000 0.000000 
#    y 0.000000 1.674220 0.000000 
#    z 0.000000 0.000000 1.714850 
# 
# From -- ./inp_files/26223.got.cif
#   From: 2010.03.12/outbox.cif.g09.slc.cpg/sg59_14_cif.got.tgz:26223.got - 2010.04.16 16:29:54.
