data_PCOD8241568
_publ_section_title
;
Structure prediction by ZEFSAII (Michael W. Deem and Ramdas Pophale) SiO2 
 PCOD8241568
Probable space group: P M M N
;
_chemical_formula_sum "Si O2"
_cell_formula_units_Z 56
_cell_length_a 20.394156
_cell_length_b 8.968129
_cell_length_c 15.539246
_cell_angle_alpha 90.000000
_cell_angle_beta 90.000000
_cell_angle_gamma 90.000000
_cell_volume 2842.088031
_symmetry_space_group_name_H-M "P M M N"
_symmetry_group_IT_number 59
_space_group.IT_coordinate_system_code '2'
_symmetry_cell_setting 'orthorhombic'
loop_
_space_group_symop_operation_xyz
x,y,z
1/2-x,1/2-y,z
1/2+x,-y,-z
-x,1/2+y,-z
-x,-y,-z
1/2+x,1/2+y,-z
1/2-x,y,z
x,1/2-y,z
loop_
_atom_site_type_symbol
_atom_site_label
_atom_site_fract_x
_atom_site_fract_y
_atom_site_fract_z
Si Si1 0.823715 0.576455 0.029868
Si Si2 0.452179 0.072103 0.570824
Si Si3 0.854271 0.915639 0.700559
Si Si4 0.178605 0.426453 0.485078
Si Si5 0.675989 0.090339 0.865482
Si Si6 0.004415 0.918284 0.740005
Si Si7 0.464513 0.072624 0.917021
O O1 0.750000 0.515079 0.058028
O O2 0.815878 0.750000 0.017641
O O3 0.885389 0.538393 0.091809
O O4 0.852067 0.515920 0.939223
O O5 0.462431 0.250000 0.569033
O O6 0.378314 0.020477 0.548460
O O7 0.500000 0.000000 0.500000
O O8 0.458066 0.011762 0.667466
O O9 0.824358 0.750000 0.711188
O O10 0.833538 0.990354 0.610505
O O11 0.931651 0.908065 0.705245
O O12 0.825074 0.019571 0.772642
O O13 0.250000 0.480158 0.519288
O O14 0.175551 0.250000 0.477351
O O15 0.750000 0.119615 0.891946
O O16 0.638209 0.250000 0.865434
O O17 0.033172 0.750000 0.750089
O O18 0.004326 0.003478 0.831023
O O19 0.476317 0.250000 0.920611
O O20 0.500000 0.000000 0.000000
#
# Coordination Sequence:
#
# PCOD8241568 Si02
#       7
#     8   8   8   8   8   8   8
#     4   9  19  37  58  77 103 147 199 242 284 342
#     4  11  21  38  62  88 117 153 195 240 290 345
#     4  10  19  33  53  77 107 146 191 233 279 344
#     4   9  18  34  57  84 113 148 193 241 286 338
#     4  10  20  31  46  75 112 145 181 229 290 352
#     4  11  23  39  59  86 115 152 199 243 291 352
#     4  11  23  39  60  89 121 155 195 247 302 351
#
# _framework density 19.703823
#
# number of rings (size 3 to 8) (size 9 to 14) (size 15 to 20)
#    0.000    1.857    1.429    3.000    0.000    7.143 
#    0.000    0.714    0.000    6.857    0.000    0.000 
#    0.000    0.000    0.000    0.000    0.000    0.000 
#
# Total GULP energy -693803.917395 kJ/mol
# GULP energy per Si atom -12389.355668 kJ/mol
# Density = 1.965898 g / cm^3
# Si number density = 19.703823 Si / 1000 Ang^3
#
#
#
# Elastic Constant Matrix: (Units=GPa)
#
#
# Indices 1 2 3 4 5 6 
#
# 1 109.8618 32.7580 33.0379 0.0000 0.0000 0.0000
# 2 32.7580 62.1854 20.3686 0.0000 0.0000 0.0000
# 3 33.0379 20.3686 90.6268 0.0000 0.0000 0.0000
# 4 0.0000 0.0000 0.0000 28.1738 0.0000 0.0000
# 5 0.0000 0.0000 0.0000 0.0000 28.5844 0.0000
# 6 0.0000 0.0000 0.0000 0.0000 0.0000 18.9804
#
#
#
# Elastic Compliance Matrix: (Units=1/GPa)
#
#
# Indices 1 2 3 4 5 6 
#
# 1 0.011537 -0.005073 -0.003066 0.000000 0.000000 0.000000
# 2 -0.005073 0.019590 -0.002553 0.000000 0.000000 0.000000
# 3 -0.003066 -0.002553 0.012726 0.000000 0.000000 0.000000
# 4 0.000000 0.000000 0.000000 0.035494 0.000000 0.000000
# 5 0.000000 0.000000 0.000000 0.000000 0.034984 0.000000
# 6 0.000000 0.000000 0.000000 0.000000 0.000000 0.052686
#
#
# Mechanical properties :
#
#
# Convention : Reuss Voigt Hill
#
# Bulk Modulus (GPa) = 44.50781 48.33365 46.42073
# Shear Modulus (GPa) = 25.52448 26.91501 26.21975
#
# Velocity S-wave (km/s) = 3.60308 3.69993 3.65182
# Velocity P-wave (km/s) = 6.32037 6.54492 6.43362
#
# Compressibility (1/GPa) = 0.02246797
#
# Stress axis : x y z
#
# Youngs Moduli (GPa) = 86.67789 51.04688 78.58125
#
# Poissons Ratio (x) = 0.25898 0.24089
# Poissons Ratio (y) = 0.43975 0.20065
# Poissons Ratio (z) = 0.26572 0.13034
#
# Static dielectric constant tensor:
#      x y z
#    x 3.837360 0.000000 0.000000 
#    y 0.000000 3.960130 0.000000 
#    z 0.000000 0.000000 3.472550 
# 
# 
# High freq. dielectric constant tensor:
#      x y z
#    x 1.777320 0.000000 0.000000 
#    y 0.000000 1.760670 0.000000 
#    z 0.000000 0.000000 1.753160 
# 
# From -- ./inp_files/21027.got.cif
#   From: 2010.03.12/outbox.cif.g09.slc.cpg/sg59_11_cif.got.tgz:21027.got - 2010.04.16 16:29:54.
