data_PCOD8241345
_publ_section_title
;
Structure prediction by ZEFSAII (Michael W. Deem and Ramdas Pophale) SiO2 
 PCOD8241345
Probable space group: P M M N
;
_chemical_formula_sum "Si O2"
_cell_formula_units_Z 64
_cell_length_a 8.880081
_cell_length_b 17.574162
_cell_length_c 22.488876
_cell_angle_alpha 90.000000
_cell_angle_beta 90.000000
_cell_angle_gamma 90.000000
_cell_volume 3509.613585
_symmetry_space_group_name_H-M "P M M N"
_symmetry_group_IT_number 59
_space_group.IT_coordinate_system_code '2'
_symmetry_cell_setting 'orthorhombic'
loop_
_space_group_symop_operation_xyz
x,y,z
1/2-x,1/2-y,z
1/2+x,-y,-z
-x,1/2+y,-z
-x,-y,-z
1/2+x,1/2+y,-z
1/2-x,y,z
x,1/2-y,z
loop_
_atom_site_type_symbol
_atom_site_label
_atom_site_fract_x
_atom_site_fract_y
_atom_site_fract_z
Si Si1 0.924294 0.835896 0.701608
Si Si2 0.074433 0.034141 0.613656
Si Si3 0.928386 0.026778 0.861609
Si Si4 0.575149 0.018882 0.255516
Si Si5 0.074126 0.387564 0.429159
Si Si6 0.426596 0.666175 0.058774
Si Si7 0.426233 0.939261 0.957382
Si Si8 0.078315 0.836856 0.453451
O O1 0.750000 0.855317 0.712717
O O2 0.963101 0.750000 0.721349
O O3 0.962940 0.844507 0.632086
O O4 0.022733 0.893294 0.741035
O O5 0.250000 0.023163 0.600532
O O6 0.020421 0.117075 0.594140
O O7 0.038365 0.023544 0.683051
O O8 0.982771 0.974089 0.574069
O O9 0.750000 0.022246 0.864415
O O10 0.989988 0.103364 0.894560
O O11 0.984132 0.027597 0.794073
O O12 0.995313 0.950356 0.893215
O O13 0.750000 0.017498 0.239489
O O14 0.250000 0.387134 0.444210
O O15 0.986631 0.343787 0.480419
O O16 0.250000 0.671346 0.069809
O O17 0.499779 0.750000 0.069318
O O18 0.457078 0.641776 0.989763
O O19 0.250000 0.954840 0.950555
O O20 0.500000 0.000000 0.000000
O O21 0.250000 0.865995 0.452805
O O22 0.068222 0.750000 0.432979
#
# Coordination Sequence:
#
# PCOD8241345 Si02
#       8
#     8   8   8   8   8   8   8   8
#     4   9  18  33  53  77 103 130 163 206 255 306
#     4  10  21  37  55  74  99 133 172 214 260 309
#     4  10  19  32  53  76 101 136 173 211 253 300
#     4  10  21  36  54  75 100 134 175 214 251 299
#     4  10  19  33  55  79 103 131 164 204 256 318
#     4   8  15  29  50  77 104 130 165 208 252 295
#     4   9  16  28  49  74 101 131 162 200 245 296
#     4  11  23  36  51  74 103 133 168 212 260 311
#
# _framework density 18.235626
#
# number of rings (size 3 to 8) (size 9 to 14) (size 15 to 20)
#    0.000    2.375    0.000    3.750    0.000    3.750 
#    0.000    1.250    0.000   18.000    0.000    0.000 
#    0.000    0.000    0.000    0.000    0.000    0.000 
#
# Total GULP energy -793462.483214 kJ/mol
# GULP energy per Si atom -12397.851300 kJ/mol
# Density = 1.819412 g / cm^3
# Si number density = 18.235626 Si / 1000 Ang^3
#
#
#
# Elastic Constant Matrix: (Units=GPa)
#
#
# Indices 1 2 3 4 5 6 
#
# 1 62.9978 26.4392 27.2619 0.0000 0.0000 0.0000
# 2 26.4392 97.8935 39.3650 0.0000 0.0000 0.0000
# 3 27.2619 39.3650 74.9429 0.0000 0.0000 0.0000
# 4 0.0000 0.0000 0.0000 20.6053 0.0000 0.0000
# 5 0.0000 0.0000 0.0000 0.0000 32.9028 0.0000
# 6 0.0000 0.0000 0.0000 0.0000 0.0000 24.4652
#
#
#
# Elastic Compliance Matrix: (Units=1/GPa)
#
#
# Indices 1 2 3 4 5 6 
#
# 1 0.019539 -0.003067 -0.005497 0.000000 0.000000 0.000000
# 2 -0.003067 0.013432 -0.005940 0.000000 0.000000 0.000000
# 3 -0.005497 -0.005940 0.018463 0.000000 0.000000 0.000000
# 4 0.000000 0.000000 0.000000 0.048531 0.000000 0.000000
# 5 0.000000 0.000000 0.000000 0.000000 0.030393 0.000000
# 6 0.000000 0.000000 0.000000 0.000000 0.000000 0.040874
#
#
# Mechanical properties :
#
#
# Convention : Reuss Voigt Hill
#
# Bulk Modulus (GPa) = 44.58819 46.88515 45.73667
# Shear Modulus (GPa) = 24.07138 25.11252 24.59195
#
# Velocity S-wave (km/s) = 3.63715 3.71497 3.67627
# Velocity P-wave (km/s) = 6.49174 6.64590 6.56927
#
# Compressibility (1/GPa) = 0.02242746
#
# Stress axis : x y z
#
# Youngs Moduli (GPa) = 51.17858 74.44925 54.16219
#
# Poissons Ratio (x) = 0.22832 0.29773
# Poissons Ratio (y) = 0.15695 0.32171
# Poissons Ratio (z) = 0.28133 0.44221
#
# Static dielectric constant tensor:
#      x y z
#    x 3.406190 0.000000 0.000000 
#    y 0.000000 3.507600 0.000000 
#    z 0.000000 0.000000 3.388610 
# 
# 
# High freq. dielectric constant tensor:
#      x y z
#    x 1.708450 0.000000 0.000000 
#    y 0.000000 1.697370 0.000000 
#    z 0.000000 0.000000 1.696310 
# 
# From -- ./inp_files/29482.got.cif
#   From: 2010.03.12/outbox.cif.g09.slc.cpg/sg59_15_cif.got.tgz:29482.got - 2010.04.16 16:29:54.
