data_PCOD8241646
_publ_section_title
;
Structure prediction by ZEFSAII (Michael W. Deem and Ramdas Pophale) SiO2 
 PCOD8241646
Probable space group: P M M N
;
_chemical_formula_sum "Si O2"
_cell_formula_units_Z 40
_cell_length_a 25.394972
_cell_length_b 8.539773
_cell_length_c 9.912555
_cell_angle_alpha 90.000000
_cell_angle_beta 90.000000
_cell_angle_gamma 90.000000
_cell_volume 2149.709001
_symmetry_space_group_name_H-M "P M M N"
_symmetry_group_IT_number 59
_space_group.IT_coordinate_system_code '2'
_symmetry_cell_setting 'orthorhombic'
loop_
_space_group_symop_operation_xyz
x,y,z
1/2-x,1/2-y,z
1/2+x,-y,-z
-x,1/2+y,-z
-x,-y,-z
1/2+x,1/2+y,-z
1/2-x,y,z
x,1/2-y,z
loop_
_atom_site_type_symbol
_atom_site_label
_atom_site_fract_x
_atom_site_fract_y
_atom_site_fract_z
Si Si1 0.862590 0.934720 0.136410
Si Si2 0.560650 0.930650 0.626608
Si Si3 0.250000 0.426543 0.843349
Si Si4 0.440837 0.930612 0.654401
Si Si5 0.750000 0.073215 0.881117
Si Si6 0.134797 0.571350 0.157714
O O1 0.858092 0.750000 0.106523
O O2 0.806666 0.999100 0.201753
O O3 0.909034 0.965238 0.240251
O O4 0.873981 0.023652 0.997294
O O5 0.562669 0.750000 0.584229
O O6 0.501869 0.976564 0.672922
O O7 0.577793 0.032147 0.497467
O O8 0.600002 0.961029 0.748781
O O9 0.250000 0.250000 0.793448
O O10 0.250000 0.440180 0.005465
O O11 0.429955 0.750000 0.685926
O O12 0.750000 0.250000 0.944485
O O13 0.803874 0.051744 0.795989
O O14 0.116139 0.750000 0.175456
#
# Coordination Sequence:
#
# PCOD8241646 Si02
#       6
#     8   8   4   8   4   8
#     4  10  19  33  54  79 106 135 170 210 252 299
#     4  10  21  37  55  75 101 134 171 211 257 306
#     4   8  16  30  49  74 103 134 166 204 250 298
#     4  10  21  37  55  75 101 134 171 211 257 306
#     4   8  16  30  49  74 103 134 166 204 250 298
#     4  10  19  33  54  79 106 135 170 210 252 299
#
# _framework density 18.60717
#
# number of rings (size 3 to 8) (size 9 to 14) (size 15 to 20)
#    0.000    2.400    0.000    2.400    0.000    4.800 
#    0.000    1.000    0.000    0.000    0.000    0.000 
#    0.000    0.000    0.000    0.000    0.000    0.000 
#
# Total GULP energy -495737.950001 kJ/mol
# GULP energy per Si atom -12393.448750 kJ/mol
# Density = 1.856482 g / cm^3
# Si number density = 18.607170 Si / 1000 Ang^3
#
#
#
# Elastic Constant Matrix: (Units=GPa)
#
#
# Indices 1 2 3 4 5 6 
#
# 1 112.5931 23.2744 58.0672 0.0000 0.0000 0.0000
# 2 23.2744 42.8344 9.7692 0.0000 0.0000 0.0000
# 3 58.0672 9.7692 69.7488 0.0000 0.0000 0.0000
# 4 0.0000 0.0000 0.0000 30.8050 0.0000 0.0000
# 5 0.0000 0.0000 0.0000 0.0000 -8.2600 0.0000
# 6 0.0000 0.0000 0.0000 0.0000 0.0000 20.8586
#
#
#
# Elastic Compliance Matrix: (Units=1/GPa)
#
#
# Indices 1 2 3 4 5 6 
#
# 1 0.017029 -0.006218 -0.013306 0.000000 0.000000 0.000000
# 2 -0.006218 0.026387 0.001481 0.000000 0.000000 0.000000
# 3 -0.013306 0.001481 0.025208 0.000000 0.000000 0.000000
# 4 0.000000 0.000000 0.000000 0.032462 0.000000 0.000000
# 5 0.000000 0.000000 0.000000 0.000000 -0.121066 0.000000
# 6 0.000000 0.000000 0.000000 0.000000 0.000000 0.047942
#
#
# Mechanical properties :
#
#
# Convention : Reuss Voigt Hill
#
# Bulk Modulus (GPa) = 30.73477 45.26644 38.00061
# Shear Modulus (GPa) = 66.76066 17.61842 42.18954
#
# Velocity S-wave (km/s) = 5.99641 3.08045 4.76687
# Velocity P-wave (km/s) = 8.03094 6.08543 7.12490
#
# Compressibility (1/GPa) = 0.03253643
#
# Stress axis : x y z
#
# Youngs Moduli (GPa) = 58.72213 37.89793 39.67071
#
# Poissons Ratio (x) = 0.23566 0.52787
# Poissons Ratio (y) = 0.36515 -0.05875
# Poissons Ratio (z) = 0.78138 -0.05613
#
# Static dielectric constant tensor:
#      x y z
#    x 3.720390 0.000000 0.000000 
#    y 0.000000 3.398370 0.000000 
#    z 0.000000 0.000000 3.009180 
# 
# 
# High freq. dielectric constant tensor:
#      x y z
#    x 1.737550 0.000000 0.000000 
#    y 0.000000 1.728710 0.000000 
#    z 0.000000 0.000000 1.685460 
# 
# From -- ./inp_files/5925.got.cif
#   From: 2010.03.12/outbox.cif.g09.slc.cpg/sg59_3_cif.got.tgz:5925.got - 2010.04.16 16:29:54.
