data_PCOD8241743
_publ_section_title
;
Structure prediction by ZEFSAII (Michael W. Deem and Ramdas Pophale) SiO2 
 PCOD8241743
Probable space group: P M M N
;
_chemical_formula_sum "Si O2"
_cell_formula_units_Z 64
_cell_length_a 8.736804
_cell_length_b 25.496038
_cell_length_c 14.716178
_cell_angle_alpha 90.000000
_cell_angle_beta 90.000000
_cell_angle_gamma 90.000000
_cell_volume 3278.085848
_symmetry_space_group_name_H-M "P M M N"
_symmetry_group_IT_number 59
_space_group.IT_coordinate_system_code '2'
_symmetry_cell_setting 'orthorhombic'
loop_
_space_group_symop_operation_xyz
x,y,z
1/2-x,1/2-y,z
1/2+x,-y,-z
-x,1/2+y,-z
-x,-y,-z
1/2+x,1/2+y,-z
1/2-x,y,z
x,1/2-y,z
loop_
_atom_site_type_symbol
_atom_site_label
_atom_site_fract_x
_atom_site_fract_y
_atom_site_fract_z
Si Si1 0.432058 0.192639 0.824817
Si Si2 0.068886 0.442196 0.517803
Si Si3 0.430668 0.407279 0.718567
Si Si4 0.429748 0.341046 0.018223
Si Si5 0.067349 0.607256 0.648801
Si Si6 0.077507 0.983542 0.769735
Si Si7 0.922898 0.447959 0.032395
Si Si8 0.072240 0.189425 0.216078
O O1 0.250000 0.187385 0.826103
O O2 0.481669 0.250000 0.786566
O O3 0.503152 0.146264 0.761160
O O4 0.491655 0.189730 0.929638
O O5 0.250000 0.446892 0.508406
O O6 0.019997 0.418874 0.615475
O O7 0.000000 0.500000 0.500000
O O8 0.004018 0.396816 0.451273
O O9 0.250000 0.400879 0.727646
O O10 0.495059 0.457959 0.776034
O O11 0.250000 0.334437 0.024920
O O12 0.473785 0.400775 0.998202
O O13 0.498845 0.321382 0.114838
O O14 0.250000 0.608877 0.644683
O O15 0.001001 0.554026 0.695169
O O16 0.012961 0.657722 0.704978
O O17 0.250000 0.994006 0.736742
O O18 0.073306 0.949291 0.859592
O O19 0.750000 0.442738 0.995616
O O20 0.000000 0.500000 0.000000
O O21 0.250000 0.173448 0.217206
O O22 0.048181 0.250000 0.239606
#
# Coordination Sequence:
#
# PCOD8241743 Si02
#       8
#     8   8   8   8   8   8   8   8
#     4   9  17  31  54  82 109 142 185 228 271 323
#     4  11  21  35  57  85 114 148 187 234 290 345
#     4   9  17  31  52  78 109 142 180 228 279 331
#     4  10  19  33  55  82 112 145 185 231 276 327
#     4  11  21  37  58  81 111 148 189 232 280 340
#     4   9  17  31  51  75 106 142 178 223 276 328
#     4  11  21  33  50  76 112 151 189 229 276 333
#     4  10  21  37  57  84 117 149 185 233 285 337
#
# _framework density 19.523589999999999
#
# number of rings (size 3 to 8) (size 9 to 14) (size 15 to 20)
#    0.000    2.000    2.500    2.250    0.000    3.750 
#    0.000    0.625    0.000    4.125    0.000    0.000 
#    0.000    0.000    0.000    0.000    0.000    0.000 
#
# Total GULP energy -793004.117393 kJ/mol
# GULP energy per Si atom -12390.689334 kJ/mol
# Density = 1.947915 g / cm^3
# Si number density = 19.523590 Si / 1000 Ang^3
#
#
#
# Elastic Constant Matrix: (Units=GPa)
#
#
# Indices 1 2 3 4 5 6 
#
# 1 28.1681 12.5935 28.2299 0.0000 0.0000 0.0000
# 2 12.5935 129.3198 52.4760 0.0000 0.0000 0.0000
# 3 28.2299 52.4760 90.9670 0.0000 0.0000 0.0000
# 4 0.0000 0.0000 0.0000 28.6464 0.0000 0.0000
# 5 0.0000 0.0000 0.0000 0.0000 18.8312 0.0000
# 6 0.0000 0.0000 0.0000 0.0000 0.0000 24.6879
#
#
#
# Elastic Compliance Matrix: (Units=1/GPa)
#
#
# Indices 1 2 3 4 5 6 
#
# 1 0.051894 0.001934 -0.017220 0.000000 0.000000 0.000000
# 2 0.001934 0.010168 -0.006466 0.000000 0.000000 0.000000
# 3 -0.017220 -0.006466 0.020067 0.000000 0.000000 0.000000
# 4 0.000000 0.000000 0.000000 0.034908 0.000000 0.000000
# 5 0.000000 0.000000 0.000000 0.000000 0.053103 0.000000
# 6 0.000000 0.000000 0.000000 0.000000 0.000000 0.040506
#
#
# Mechanical properties :
#
#
# Convention : Reuss Voigt Hill
#
# Bulk Modulus (GPa) = 25.88962 48.33931 37.11447
# Shear Modulus (GPa) = 18.72474 24.77679 21.75077
#
# Velocity S-wave (km/s) = 3.10027 3.56626 3.34140
# Velocity P-wave (km/s) = 5.10931 6.46304 5.82563
#
# Compressibility (1/GPa) = 0.03862552
#
# Stress axis : x y z
#
# Youngs Moduli (GPa) = 19.26989 98.34581 49.83315
#
# Poissons Ratio (x) = -0.19021 0.85814
# Poissons Ratio (y) = -0.03727 0.32222
# Poissons Ratio (z) = 0.33183 0.63590
#
# Static dielectric constant tensor:
#      x y z
#    x 2.913950 0.000000 0.000000 
#    y 0.000000 3.856140 0.000000 
#    z 0.000000 0.000000 4.268760 
# 
# 
# High freq. dielectric constant tensor:
#      x y z
#    x 1.717370 0.000000 0.000000 
#    y 0.000000 1.766840 0.000000 
#    z 0.000000 0.000000 1.763530 
# 
# From -- ./inp_files/21579.got.cif
#   From: 2010.03.12/outbox.cif.g09.slc.cpg/sg59_11_cif.got.tgz:21579.got - 2010.04.16 16:29:54.
