data_PCOD8241144
_publ_section_title
;
Structure prediction by ZEFSAII (Michael W. Deem and Ramdas Pophale) SiO2 
 PCOD8241144
Probable space group: P M M N
;
_chemical_formula_sum "Si O2"
_cell_formula_units_Z 56
_cell_length_a 9.043873
_cell_length_b 18.928553
_cell_length_c 17.966834
_cell_angle_alpha 90.000000
_cell_angle_beta 90.000000
_cell_angle_gamma 90.000000
_cell_volume 3075.696127
_symmetry_space_group_name_H-M "P M M N"
_symmetry_group_IT_number 59
_space_group.IT_coordinate_system_code '2'
_symmetry_cell_setting 'orthorhombic'
loop_
_space_group_symop_operation_xyz
x,y,z
1/2-x,1/2-y,z
1/2+x,-y,-z
-x,1/2+y,-z
-x,-y,-z
1/2+x,1/2+y,-z
1/2-x,y,z
x,1/2-y,z
loop_
_atom_site_type_symbol
_atom_site_label
_atom_site_fract_x
_atom_site_fract_y
_atom_site_fract_z
Si Si1 0.422287 0.569272 0.085497
Si Si2 0.077334 0.925339 0.493964
Si Si3 0.574549 0.586763 0.350197
Si Si4 0.073881 0.671169 0.786769
Si Si5 0.921679 0.426451 0.342675
Si Si6 0.923672 0.073537 0.081993
Si Si7 0.421225 0.832066 0.219703
O O1 0.250000 0.552144 0.086433
O O2 0.504744 0.498707 0.111435
O O3 0.463025 0.632471 0.141088
O O4 0.473450 0.591459 0.002306
O O5 0.250000 0.933936 0.475912
O O6 0.053972 0.890530 0.575788
O O7 0.998340 0.882789 0.426865
O O8 0.000000 0.000000 0.500000
O O9 0.750000 0.589965 0.358538
O O10 0.514839 0.506526 0.337660
O O11 0.523612 0.635817 0.283248
O O12 0.250000 0.674317 0.780756
O O13 0.007300 0.750000 0.782189
O O14 0.005640 0.624346 0.719340
O O15 0.023851 0.637231 0.865103
O O16 0.750000 0.433516 0.324651
O O17 0.750000 0.062578 0.088024
O O18 0.250000 0.845229 0.239983
O O19 0.457624 0.750000 0.211628
#
# Coordination Sequence:
#
# PCOD8241144 Si02
#       7
#     8   8   8   8   8   8   8
#     4   9  18  32  50  72  97 126 159 195 239 289
#     4   9  16  28  47  72 100 128 163 206 248 289
#     4  10  19  32  51  72  95 125 163 207 252 297
#     4   9  16  26  43  69  98 125 155 192 232 273
#     4   8  15  27  44  68  96 125 158 197 238 280
#     4   9  17  30  50  75  99 124 158 198 236 278
#     4  10  21  35  49  68  97 130 163 202 249 300
#
# _framework density 18.207260000000002
#
# number of rings (size 3 to 8) (size 9 to 14) (size 15 to 20)
#    0.000    2.857    0.000    2.571    0.000    2.571 
#    0.000    3.571    0.000    3.857    0.000    4.000 
#    0.000    0.000    0.000    0.000    0.000    0.000 
#
# Total GULP energy -694102.215591 kJ/mol
# GULP energy per Si atom -12394.682421 kJ/mol
# Density = 1.816582 g / cm^3
# Si number density = 18.207260 Si / 1000 Ang^3
#
#
#
# Elastic Constant Matrix: (Units=GPa)
#
#
# Indices 1 2 3 4 5 6 
#
# 1 48.3847 29.1827 40.7651 0.0000 0.0000 0.0000
# 2 29.1827 109.5541 71.2077 0.0000 0.0000 0.0000
# 3 40.7651 71.2077 135.5235 0.0000 0.0000 0.0000
# 4 0.0000 0.0000 0.0000 10.2213 0.0000 0.0000
# 5 0.0000 0.0000 0.0000 0.0000 22.5267 0.0000
# 6 0.0000 0.0000 0.0000 0.0000 0.0000 19.7745
#
#
#
# Elastic Compliance Matrix: (Units=1/GPa)
#
#
# Indices 1 2 3 4 5 6 
#
# 1 0.028339 -0.003050 -0.006922 0.000000 0.000000 0.000000
# 2 -0.003050 0.014190 -0.006539 0.000000 0.000000 0.000000
# 3 -0.006922 -0.006539 0.012896 0.000000 0.000000 0.000000
# 4 0.000000 0.000000 0.000000 0.097835 0.000000 0.000000
# 5 0.000000 0.000000 0.000000 0.000000 0.044392 0.000000
# 6 0.000000 0.000000 0.000000 0.000000 0.000000 0.050570
#
#
# Mechanical properties :
#
#
# Convention : Reuss Voigt Hill
#
# Bulk Modulus (GPa) = 44.63256 63.97481 54.30368
# Shear Modulus (GPa) = 17.31836 20.65829 18.98832
#
# Velocity S-wave (km/s) = 3.08746 3.37206 3.23290
# Velocity P-wave (km/s) = 6.10547 7.09749 6.62009
#
# Compressibility (1/GPa) = 0.02240517
#
# Stress axis : x y z
#
# Youngs Moduli (GPa) = 35.28717 70.47112 77.54119
#
# Poissons Ratio (x) = 0.21492 0.53673
# Poissons Ratio (y) = 0.10762 0.50701
# Poissons Ratio (z) = 0.24425 0.46078
#
# Static dielectric constant tensor:
#      x y z
#    x 3.161800 0.000000 0.000000 
#    y 0.000000 3.269720 0.000000 
#    z 0.000000 0.000000 3.818520 
# 
# 
# High freq. dielectric constant tensor:
#      x y z
#    x 1.676950 0.000000 0.000000 
#    y 0.000000 1.679340 0.000000 
#    z 0.000000 0.000000 1.725900 
# 
# From -- ./inp_files/29181.got.cif
#   From: 2010.03.12/outbox.cif.g09.slc.cpg/sg59_15_cif.got.tgz:29181.got - 2010.04.16 16:29:54.
