data_PCOD8241867
_publ_section_title
;
Structure prediction by ZEFSAII (Michael W. Deem and Ramdas Pophale) SiO2 
 PCOD8241867
Probable space group: P M M N
;
_chemical_formula_sum "Si O2"
_cell_formula_units_Z 64
_cell_length_a 20.102891
_cell_length_b 8.755506
_cell_length_c 19.971062
_cell_angle_alpha 90.000000
_cell_angle_beta 90.000000
_cell_angle_gamma 90.000000
_cell_volume 3515.126250
_symmetry_space_group_name_H-M "P M M N"
_symmetry_group_IT_number 59
_space_group.IT_coordinate_system_code '2'
_symmetry_cell_setting 'orthorhombic'
loop_
_space_group_symop_operation_xyz
x,y,z
1/2-x,1/2-y,z
1/2+x,-y,-z
-x,1/2+y,-z
-x,-y,-z
1/2+x,1/2+y,-z
1/2-x,y,z
x,1/2-y,z
loop_
_atom_site_type_symbol
_atom_site_label
_atom_site_fract_x
_atom_site_fract_y
_atom_site_fract_z
Si Si1 0.939069 0.070504 0.312505
Si Si2 0.934766 0.430770 0.033013
Si Si3 0.451273 0.423882 0.828791
Si Si4 0.923508 0.068619 0.660928
Si Si5 0.826488 0.572650 0.555117
Si Si6 0.603930 0.077209 0.805046
Si Si7 0.176105 0.932281 0.068552
Si Si8 0.325544 0.925751 0.584537
O O1 0.949000 0.250000 0.305230
O O2 0.874434 0.027666 0.355752
O O3 0.926715 0.000188 0.239639
O O4 0.003529 0.002139 0.350065
O O5 0.941952 0.250000 0.032228
O O6 0.921256 0.486803 0.108244
O O7 0.871565 0.488965 0.990557
O O8 0.000000 0.500000 0.000000
O O9 0.426074 0.250000 0.829888
O O10 0.530414 0.431662 0.835289
O O11 0.932483 0.250000 0.665293
O O12 0.893952 0.001227 0.731160
O O13 0.874126 0.025829 0.601889
O O14 0.750000 0.532124 0.572203
O O15 0.841407 0.750000 0.566481
O O16 0.842671 0.530503 0.478882
O O17 0.627519 0.250000 0.795620
O O18 0.652200 0.997985 0.859571
O O19 0.250000 0.992811 0.053656
O O20 0.173425 0.750000 0.072758
O O21 0.250000 0.954572 0.608944
O O22 0.335885 0.750000 0.563228
#
# Coordination Sequence:
#
# PCOD8241867 Si02
#       8
#     8   8   8   8   8   8   8   8
#     4  10  20  35  56  83 111 138 172 223 278 323
#     4  11  20  32  54  80 103 137 179 219 268 317
#     4  10  19  34  54  78 106 137 177 220 259 316
#     4  10  20  33  53  80 111 145 180 219 265 323
#     4  10  21  36  54  77 107 143 184 229 274 322
#     4   8  15  29  48  73 100 129 170 213 255 305
#     4   9  17  30  49  75 105 134 172 221 264 308
#     4   9  19  37  59  80 104 138 182 227 272 329
#
# _framework density 18.207027
#
# number of rings (size 3 to 8) (size 9 to 14) (size 15 to 20)
#    0.000    2.375    1.250    2.625    0.000    2.750 
#    0.000    1.875    0.000    5.250    0.000    0.000 
#    0.000    0.000    0.000    0.000    0.000    0.000 
#
# Total GULP energy -793495.713124 kJ/mol
# GULP energy per Si atom -12398.370518 kJ/mol
# Density = 1.816559 g / cm^3
# Si number density = 18.207027 Si / 1000 Ang^3
#
#
#
# Elastic Constant Matrix: (Units=GPa)
#
#
# Indices 1 2 3 4 5 6 
#
# 1 119.4782 37.3009 79.7104 0.0000 0.0000 0.0000
# 2 37.3009 67.4207 38.6082 0.0000 0.0000 0.0000
# 3 79.7104 38.6082 122.0075 0.0000 0.0000 0.0000
# 4 0.0000 0.0000 0.0000 29.6231 0.0000 0.0000
# 5 0.0000 0.0000 0.0000 0.0000 33.3288 0.0000
# 6 0.0000 0.0000 0.0000 0.0000 0.0000 20.9870
#
#
#
# Elastic Compliance Matrix: (Units=1/GPa)
#
#
# Indices 1 2 3 4 5 6 
#
# 1 0.015442 -0.003378 -0.009019 0.000000 0.000000 0.000000
# 2 -0.003378 0.018854 -0.003759 0.000000 0.000000 0.000000
# 3 -0.009019 -0.003759 0.015278 0.000000 0.000000 0.000000
# 4 0.000000 0.000000 0.000000 0.033757 0.000000 0.000000
# 5 0.000000 0.000000 0.000000 0.000000 0.030004 0.000000
# 6 0.000000 0.000000 0.000000 0.000000 0.000000 0.047649
#
#
# Mechanical properties :
#
#
# Convention : Reuss Voigt Hill
#
# Bulk Modulus (GPa) = 57.93582 68.90504 63.42043
# Shear Modulus (GPa) = 25.11915 27.00690 26.06303
#
# Velocity S-wave (km/s) = 3.71838 3.85557 3.78760
# Velocity P-wave (km/s) = 7.09400 7.59921 7.35095
#
# Compressibility (1/GPa) = 0.01726048
#
# Stress axis : x y z
#
# Youngs Moduli (GPa) = 64.75920 53.03939 65.45206
#
# Poissons Ratio (x) = 0.17918 0.59034
# Poissons Ratio (y) = 0.21878 0.24603
# Poissons Ratio (z) = 0.58409 0.19938
#
# Static dielectric constant tensor:
#      x y z
#    x 3.345800 0.000000 0.000000 
#    y 0.000000 3.241570 0.000000 
#    z 0.000000 0.000000 3.483040 
# 
# 
# High freq. dielectric constant tensor:
#      x y z
#    x 1.693970 0.000000 0.000000 
#    y 0.000000 1.691600 0.000000 
#    z 0.000000 0.000000 1.714890 
# 
# From -- ./inp_files/28184.got.cif
#   From: 2010.03.12/outbox.cif.g09.slc.cpg/sg59_15_cif.got.tgz:28184.got - 2010.04.16 16:29:54.
