data_PCOD8241414
_publ_section_title
;
Structure prediction by ZEFSAII (Michael W. Deem and Ramdas Pophale) SiO2 
 PCOD8241414
Probable space group: P M M N
;
_chemical_formula_sum "Si O2"
_cell_formula_units_Z 64
_cell_length_a 8.788291
_cell_length_b 19.164103
_cell_length_c 19.998486
_cell_angle_alpha 90.000000
_cell_angle_beta 90.000000
_cell_angle_gamma 90.000000
_cell_volume 3368.139291
_symmetry_space_group_name_H-M "P M M N"
_symmetry_group_IT_number 59
_space_group.IT_coordinate_system_code '2'
_symmetry_cell_setting 'orthorhombic'
loop_
_space_group_symop_operation_xyz
x,y,z
1/2-x,1/2-y,z
1/2+x,-y,-z
-x,1/2+y,-z
-x,-y,-z
1/2+x,1/2+y,-z
1/2-x,y,z
x,1/2-y,z
loop_
_atom_site_type_symbol
_atom_site_label
_atom_site_fract_x
_atom_site_fract_y
_atom_site_fract_z
Si Si1 0.427032 0.669270 0.105653
Si Si2 0.423521 0.830234 0.740613
Si Si3 0.571194 0.426330 0.018073
Si Si4 0.928758 0.929127 0.844633
Si Si5 0.070954 0.429637 0.793222
Si Si6 0.923190 0.892563 0.621672
Si Si7 0.926990 0.571755 0.478524
Si Si8 0.073131 0.554107 0.347253
O O1 0.250000 0.657783 0.122293
O O2 0.467396 0.750000 0.096178
O O3 0.526377 0.639901 0.166701
O O4 0.472678 0.630485 0.037329
O O5 0.250000 0.853263 0.753013
O O6 0.447633 0.750000 0.759377
O O7 0.535118 0.876563 0.784904
O O8 0.465346 0.842481 0.663023
O O9 0.750000 0.435752 0.025057
O O10 0.504363 0.399346 0.088175
O O11 0.500000 0.500000 0.000000
O O12 0.750000 0.934789 0.854659
O O13 0.989436 0.005765 0.828721
O O14 0.250000 0.441921 0.795057
O O15 0.017051 0.420257 0.717370
O O16 0.750000 0.875003 0.640973
O O17 0.949701 0.877282 0.542507
O O18 0.958852 0.972600 0.640629
O O19 0.750000 0.560524 0.462983
O O20 0.000000 0.500000 0.500000
O O21 0.010800 0.598245 0.411205
O O22 0.250000 0.570160 0.337427
#
# Coordination Sequence:
#
# PCOD8241414 Si02
#       8
#     8   8   8   8   8   8   8   8
#     4  10  23  43  65  89 120 157 194 236 291 353
#     4  11  24  39  56  81 114 154 201 249 299 357
#     4  11  22  38  63  92 122 156 194 240 290 344
#     4  12  24  39  60  86 118 155 198 246 294 350
#     4  12  23  36  60  89 119 155 195 244 296 349
#     4   9  18  32  52  77 110 150 191 236 290 348
#     4   9  17  29  47  76 112 145 184 235 290 345
#     4  10  19  32  53  83 115 148 190 239 291 349
#
# _framework density 19.001588999999999
#
# number of rings (size 3 to 8) (size 9 to 14) (size 15 to 20)
#    0.000    1.500    2.500    4.500    0.000    4.750 
#    0.000    1.250    0.000    0.750    0.000    3.500 
#    0.000    0.000    0.000    0.000    0.000    0.000 
#
# Total GULP energy -793722.651140 kJ/mol
# GULP energy per Si atom -12401.916424 kJ/mol
# Density = 1.895834 g / cm^3
# Si number density = 19.001589 Si / 1000 Ang^3
#
#
#
# Elastic Constant Matrix: (Units=GPa)
#
#
# Indices 1 2 3 4 5 6 
#
# 1 104.4077 38.3182 50.6631 0.0000 0.0000 0.0000
# 2 38.3182 78.3235 39.6720 0.0000 0.0000 0.0000
# 3 50.6631 39.6720 140.4193 0.0000 0.0000 0.0000
# 4 0.0000 0.0000 0.0000 19.6089 0.0000 0.0000
# 5 0.0000 0.0000 0.0000 0.0000 39.7103 0.0000
# 6 0.0000 0.0000 0.0000 0.0000 0.0000 23.8744
#
#
#
# Elastic Compliance Matrix: (Units=1/GPa)
#
#
# Indices 1 2 3 4 5 6 
#
# 1 0.012896 -0.004612 -0.003350 0.000000 0.000000 0.000000
# 2 -0.004612 0.016549 -0.003011 0.000000 0.000000 0.000000
# 3 -0.003350 -0.003011 0.009181 0.000000 0.000000 0.000000
# 4 0.000000 0.000000 0.000000 0.050997 0.000000 0.000000
# 5 0.000000 0.000000 0.000000 0.000000 0.025182 0.000000
# 6 0.000000 0.000000 0.000000 0.000000 0.000000 0.041886
#
#
# Mechanical properties :
#
#
# Convention : Reuss Voigt Hill
#
# Bulk Modulus (GPa) = 59.95518 64.49521 62.22520
# Shear Modulus (GPa) = 27.14454 29.60520 28.37487
#
# Velocity S-wave (km/s) = 3.78370 3.95148 3.86850
# Velocity P-wave (km/s) = 7.12108 7.40504 7.26445
#
# Compressibility (1/GPa) = 0.01667912
#
# Stress axis : x y z
#
# Youngs Moduli (GPa) = 77.54303 60.42493 108.92140
#
# Poissons Ratio (x) = 0.27871 0.36486
# Poissons Ratio (y) = 0.35766 0.32801
# Poissons Ratio (z) = 0.25975 0.18197
#
# Static dielectric constant tensor:
#      x y z
#    x 3.589250 0.000000 0.000000 
#    y 0.000000 3.149000 0.000000 
#    z 0.000000 0.000000 3.975800 
# 
# 
# High freq. dielectric constant tensor:
#      x y z
#    x 1.750720 0.000000 0.000000 
#    y 0.000000 1.696920 0.000000 
#    z 0.000000 0.000000 1.759000 
# 
# From -- ./inp_files/29371.got.cif
#   From: 2010.03.12/outbox.cif.g09.slc.cpg/sg59_15_cif.got.tgz:29371.got - 2010.04.16 16:29:54.
