data_PCOD8241063
_publ_section_title
;
Structure prediction by ZEFSAII (Michael W. Deem and Ramdas Pophale) SiO2 
 PCOD8241063
Probable space group: P M M N
;
_chemical_formula_sum "Si O2"
_cell_formula_units_Z 64
_cell_length_a 30.032186
_cell_length_b 8.891149
_cell_length_c 14.825709
_cell_angle_alpha 90.000000
_cell_angle_beta 90.000000
_cell_angle_gamma 90.000000
_cell_volume 3958.770313
_symmetry_space_group_name_H-M "P M M N"
_symmetry_group_IT_number 59
_space_group.IT_coordinate_system_code '2'
_symmetry_cell_setting 'orthorhombic'
loop_
_space_group_symop_operation_xyz
x,y,z
1/2-x,1/2-y,z
1/2+x,-y,-z
-x,1/2+y,-z
-x,-y,-z
1/2+x,1/2+y,-z
1/2-x,y,z
x,1/2-y,z
loop_
_atom_site_type_symbol
_atom_site_label
_atom_site_fract_x
_atom_site_fract_y
_atom_site_fract_z
Si Si1 0.937593 0.422577 0.057907
Si Si2 0.475333 0.923890 0.129443
Si Si3 0.539373 0.924047 0.687611
Si Si4 0.060431 0.574784 0.641749
Si Si5 0.886299 0.572114 0.200258
Si Si6 0.798388 0.928233 0.490618
Si Si7 0.894729 0.572346 0.531317
Si Si8 0.298101 0.071592 0.712462
O O1 0.930645 0.250000 0.083610
O O2 0.896739 0.517764 0.098753
O O3 0.982493 0.475139 0.106544
O O4 0.939114 0.446661 0.950224
O O5 0.490145 0.750000 0.135301
O O6 0.454020 0.976621 0.223064
O O7 0.543937 0.750000 0.714717
O O8 0.492534 0.954405 0.637832
O O9 0.578669 0.974823 0.620514
O O10 0.071757 0.750000 0.646747
O O11 0.077524 0.494759 0.731711
O O12 0.083501 0.506867 0.554242
O O13 0.888625 0.750000 0.206218
O O14 0.837378 0.508566 0.224814
O O15 0.750000 0.987772 0.529110
O O16 0.796227 0.750000 0.489846
O O17 0.842802 0.979544 0.544848
O O18 0.804518 0.989342 0.388941
O O19 0.897801 0.750000 0.513524
O O20 0.250000 0.018079 0.750430
O O21 0.300403 0.250000 0.710356
#
# Coordination Sequence:
#
# PCOD8241063 Si02
#       8
#     8   8   8   8   8   8   8   8
#     4  10  20  33  48  69  95 119 150 194 234 269
#     4  10  20  33  50  68  89 122 158 189 226 275
#     4  10  21  33  46  65  94 126 157 198 236 266
#     4  11  21  31  42  63  96 131 159 190 228 265
#     4  11  19  29  49  72  92 124 160 188 228 283
#     4   8  13  24  44  67  89 114 149 194 234 268
#     4  10  19  32  48  67  90 123 162 193 228 278
#     4   8  14  25  43  68  94 118 150 192 230 270
#
# _framework density 16.166637000000001
#
# number of rings (size 3 to 8) (size 9 to 14) (size 15 to 20)
#    0.000    2.250    2.500    2.625    0.000    2.500 
#    0.000    0.000    0.000    2.625    0.000    0.875 
#    0.000    5.000    0.000    0.000    0.000    0.000 
#
# Total GULP energy -793244.737107 kJ/mol
# GULP energy per Si atom -12394.449017 kJ/mol
# Density = 1.612984 g / cm^3
# Si number density = 16.166637 Si / 1000 Ang^3
#
#
#
# Elastic Constant Matrix: (Units=GPa)
#
#
# Indices 1 2 3 4 5 6 
#
# 1 129.4847 26.9675 48.5714 0.0000 0.0000 0.0000
# 2 26.9675 47.2408 27.3965 0.0000 0.0000 0.0000
# 3 48.5714 27.3965 79.1429 0.0000 0.0000 0.0000
# 4 0.0000 0.0000 0.0000 25.8047 0.0000 0.0000
# 5 0.0000 0.0000 0.0000 0.0000 20.8923 0.0000
# 6 0.0000 0.0000 0.0000 0.0000 0.0000 14.5239
#
#
#
# Elastic Compliance Matrix: (Units=1/GPa)
#
#
# Indices 1 2 3 4 5 6 
#
# 1 0.010315 -0.002774 -0.005370 0.000000 0.000000 0.000000
# 2 -0.002774 0.027231 -0.007724 0.000000 0.000000 0.000000
# 3 -0.005370 -0.007724 0.018605 0.000000 0.000000 0.000000
# 4 0.000000 0.000000 0.000000 0.038753 0.000000 0.000000
# 5 0.000000 0.000000 0.000000 0.000000 0.047865 0.000000
# 6 0.000000 0.000000 0.000000 0.000000 0.000000 0.068852
#
#
# Mechanical properties :
#
#
# Convention : Reuss Voigt Hill
#
# Bulk Modulus (GPa) = 40.95911 51.30436 46.13173
# Shear Modulus (GPa) = 19.88110 22.43972 21.16041
#
# Velocity S-wave (km/s) = 3.51060 3.72966 3.62179
# Velocity P-wave (km/s) = 6.46707 7.09583 6.78873
#
# Compressibility (1/GPa) = 0.02441459
#
# Stress axis : x y z
#
# Youngs Moduli (GPa) = 96.94499 36.72279 53.74902
#
# Poissons Ratio (x) = 0.10187 0.28865
# Poissons Ratio (y) = 0.26892 0.41516
# Poissons Ratio (z) = 0.52063 0.28365
#
# Static dielectric constant tensor:
#      x y z
#    x 3.433460 0.000000 0.000000 
#    y 0.000000 2.923580 0.000000 
#    z 0.000000 0.000000 3.088060 
# 
# 
# High freq. dielectric constant tensor:
#      x y z
#    x 1.616140 0.000000 0.000000 
#    y 0.000000 1.609490 0.000000 
#    z 0.000000 0.000000 1.600050 
# 
# From -- ./inp_files/21902.got.cif
#   From: 2010.03.12/outbox.cif.g09.slc.cpg/sg59_11_cif.got.tgz:21902.got - 2010.04.16 16:29:54.
