data_PCOD8241802
_publ_section_title
;
Structure prediction by ZEFSAII (Michael W. Deem and Ramdas Pophale) SiO2 
 PCOD8241802
Probable space group: P M M N
;
_chemical_formula_sum "Si O2"
_cell_formula_units_Z 48
_cell_length_a 30.768504
_cell_length_b 8.596560
_cell_length_c 9.629137
_cell_angle_alpha 90.000000
_cell_angle_beta 90.000000
_cell_angle_gamma 90.000000
_cell_volume 2546.938424
_symmetry_space_group_name_H-M "P M M N"
_symmetry_group_IT_number 59
_space_group.IT_coordinate_system_code '2'
_symmetry_cell_setting 'orthorhombic'
loop_
_space_group_symop_operation_xyz
x,y,z
1/2-x,1/2-y,z
1/2+x,-y,-z
-x,1/2+y,-z
-x,-y,-z
1/2+x,1/2+y,-z
1/2-x,y,z
x,1/2-y,z
loop_
_atom_site_type_symbol
_atom_site_label
_atom_site_fract_x
_atom_site_fract_y
_atom_site_fract_z
Si Si1 0.862701 0.068345 0.937414
Si Si2 0.627484 0.433092 0.502817
Si Si3 0.482881 0.929303 0.858012
Si Si4 0.701918 0.065998 0.704428
Si Si5 0.427918 0.071809 0.270754
Si Si6 0.891573 0.931136 0.214293
O O1 0.862311 0.250000 0.972778
O O2 0.820236 0.016887 0.850109
O O3 0.905622 0.032248 0.848054
O O4 0.863063 0.972776 0.079806
O O5 0.621687 0.250000 0.521146
O O6 0.671958 0.491509 0.576700
O O7 0.586380 0.515119 0.576759
O O8 0.629452 0.477683 0.342590
O O9 0.469809 0.750000 0.881302
O O10 0.520184 0.946017 0.741379
O O11 0.441479 0.022646 0.805123
O O12 0.500000 0.000000 0.000000
O O13 0.750000 0.990272 0.693774
O O14 0.705676 0.250000 0.698327
O O15 0.413775 0.250000 0.246986
O O16 0.888542 0.750000 0.244775
#
# Coordination Sequence:
#
# PCOD8241802 Si02
#       6
#     8   8   8   8   8   8
#     4  10  19  33  57  83 110 143 182 227 272 328
#     4  10  21  37  58  82 111 148 186 229 279 335
#     4  11  22  35  55  81 111 148 192 235 277 325
#     4   8  16  34  61  89 110 134 176 227 277 333
#     4  10  20  35  55  80 110 146 185 228 275 325
#     4  12  24  37  54  78 113 152 188 234 281 326
#
# _framework density 18.846157000000002
#
# number of rings (size 3 to 8) (size 9 to 14) (size 15 to 20)
#    0.000    1.833    1.667    4.500    0.000    2.667 
#    0.000    0.833    0.000   23.000    0.000    0.000 
#    0.000    0.000    0.000    0.000    0.000    0.000 
#
# Total GULP energy -595274.285952 kJ/mol
# GULP energy per Si atom -12401.547624 kJ/mol
# Density = 1.880326 g / cm^3
# Si number density = 18.846157 Si / 1000 Ang^3
#
#
#
# Elastic Constant Matrix: (Units=GPa)
#
#
# Indices 1 2 3 4 5 6 
#
# 1 118.6931 24.4916 53.1146 0.0000 0.0000 0.0000
# 2 24.4916 54.8996 6.8416 0.0000 0.0000 0.0000
# 3 53.1146 6.8416 117.1648 0.0000 0.0000 0.0000
# 4 0.0000 0.0000 0.0000 34.3283 0.0000 0.0000
# 5 0.0000 0.0000 0.0000 0.0000 22.1550 0.0000
# 6 0.0000 0.0000 0.0000 0.0000 0.0000 18.3880
#
#
#
# Elastic Compliance Matrix: (Units=1/GPa)
#
#
# Indices 1 2 3 4 5 6 
#
# 1 0.011598 -0.004552 -0.004992 0.000000 0.000000 0.000000
# 2 -0.004552 0.020135 0.000888 0.000000 0.000000 0.000000
# 3 -0.004992 0.000888 0.010746 0.000000 0.000000 0.000000
# 4 0.000000 0.000000 0.000000 0.029131 0.000000 0.000000
# 5 0.000000 0.000000 0.000000 0.000000 0.045137 0.000000
# 6 0.000000 0.000000 0.000000 0.000000 0.000000 0.054383
#
#
# Mechanical properties :
#
#
# Convention : Reuss Voigt Hill
#
# Bulk Modulus (GPa) = 39.73444 51.07259 45.40352
# Shear Modulus (GPa) = 25.40243 28.72824 27.06533
#
# Velocity S-wave (km/s) = 3.67534 3.90854 3.79373
# Velocity P-wave (km/s) = 6.25621 6.89401 6.58284
#
# Compressibility (1/GPa) = 0.02516708
#
# Stress axis : x y z
#
# Youngs Moduli (GPa) = 86.21937 49.66429 93.05601
#
# Poissons Ratio (x) = 0.22608 0.46454
# Poissons Ratio (y) = 0.39248 -0.08262
# Poissons Ratio (z) = 0.43041 -0.04409
#
# Static dielectric constant tensor:
#      x y z
#    x 3.669450 0.000000 0.000000 
#    y 0.000000 3.440950 0.000000 
#    z 0.000000 0.000000 3.433820 
# 
# 
# High freq. dielectric constant tensor:
#      x y z
#    x 1.719200 0.000000 0.000000 
#    y 0.000000 1.732150 0.000000 
#    z 0.000000 0.000000 1.730360 
# 
# From -- ./inp_files/6206.got.cif
#   From: 2010.03.12/outbox.cif.g09.slc.cpg/sg59_4_cif.got.tgz:6206.got - 2010.04.16 16:29:54.
