data_PCOD8241819
_publ_section_title
;
Structure prediction by ZEFSAII (Michael W. Deem and Ramdas Pophale) SiO2 
 PCOD8241819
Probable space group: P M M N
;
_chemical_formula_sum "Si O2"
_cell_formula_units_Z 44
_cell_length_a 17.214731
_cell_length_b 7.670621
_cell_length_c 18.212567
_cell_angle_alpha 90.000000
_cell_angle_beta 90.000000
_cell_angle_gamma 90.000000
_cell_volume 2404.927167
_symmetry_space_group_name_H-M "P M M N"
_symmetry_group_IT_number 59
_space_group.IT_coordinate_system_code '2'
_symmetry_cell_setting 'orthorhombic'
loop_
_space_group_symop_operation_xyz
x,y,z
1/2-x,1/2-y,z
1/2+x,-y,-z
-x,1/2+y,-z
-x,-y,-z
1/2+x,1/2+y,-z
1/2-x,y,z
x,1/2-y,z
loop_
_atom_site_type_symbol
_atom_site_label
_atom_site_fract_x
_atom_site_fract_y
_atom_site_fract_z
Si Si1 0.840231 0.250000 0.613488
Si Si2 0.548050 0.950101 0.571038
Si Si3 0.342172 0.440821 0.973893
Si Si4 0.341576 0.750000 0.071338
Si Si5 0.835969 0.046374 0.184005
Si Si6 0.591036 0.250000 0.769921
Si Si7 0.481964 0.550651 0.726597
O O1 0.750000 0.250000 0.593095
O O2 0.877932 0.423631 0.578458
O O3 0.850387 0.250000 0.701215
O O4 0.577348 0.750000 0.567277
O O5 0.490102 0.978887 0.639592
O O6 0.500000 0.000000 0.500000
O O7 0.250000 0.460545 0.971597
O O8 0.368026 0.250000 0.001628
O O9 0.377730 0.580653 0.030697
O O10 0.371919 0.466486 0.890587
O O11 0.250000 0.750000 0.062030
O O12 0.359645 0.750000 0.156649
O O13 0.750000 0.969920 0.202473
O O14 0.829066 0.250000 0.170358
O O15 0.893646 0.002731 0.251222
O O16 0.539786 0.424398 0.769796
O O17 0.502258 0.750000 0.748402
#
# Coordination Sequence:
#
# PCOD8241819 Si02
#       7
#     4   8   8   4   8   4   8
#     4  10  21  38  60  88 115 145 193 238 272 320
#     4  10  19  36  61  86 114 155 186 219 278 341
#     4   9  17  29  48  72  97 131 171 214 268 324
#     4  10  19  34  52  72  99 131 177 226 270 316
#     4   9  16  31  54  75 100 135 175 219 265 317
#     4  10  21  36  55  76 102 144 182 224 271 320
#     4   9  20  35  53  77 108 140 178 217 263 330
#
# _framework density 18.295773000000001
#
# number of rings (size 3 to 8) (size 9 to 14) (size 15 to 20)
#    0.000    2.545    1.818    0.273    1.273    1.091 
#    0.000    1.818    0.000    3.273    0.000    0.000 
#    0.000    0.000    0.000    0.000    0.000    0.000 
#
# Total GULP energy -545465.933304 kJ/mol
# GULP energy per Si atom -12396.953030 kJ/mol
# Density = 1.825413 g / cm^3
# Si number density = 18.295773 Si / 1000 Ang^3
#
#
#
# Elastic Constant Matrix: (Units=GPa)
#
#
# Indices 1 2 3 4 5 6 
#
# 1 80.4514 50.8202 48.6581 0.0000 0.0000 0.0000
# 2 50.8202 130.8201 60.2445 0.0000 0.0000 0.0000
# 3 48.6581 60.2445 103.0800 0.0000 0.0000 0.0000
# 4 0.0000 0.0000 0.0000 18.3959 0.0000 0.0000
# 5 0.0000 0.0000 0.0000 0.0000 26.2936 0.0000
# 6 0.0000 0.0000 0.0000 0.0000 0.0000 17.0973
#
#
#
# Elastic Compliance Matrix: (Units=1/GPa)
#
#
# Indices 1 2 3 4 5 6 
#
# 1 0.019141 -0.004481 -0.006417 0.000000 0.000000 0.000000
# 2 -0.004481 0.011508 -0.004611 0.000000 0.000000 0.000000
# 3 -0.006417 -0.004611 0.015425 0.000000 0.000000 0.000000
# 4 0.000000 0.000000 0.000000 0.054360 0.000000 0.000000
# 5 0.000000 0.000000 0.000000 0.000000 0.038032 0.000000
# 6 0.000000 0.000000 0.000000 0.000000 0.000000 0.058489
#
#
# Mechanical properties :
#
#
# Convention : Reuss Voigt Hill
#
# Bulk Modulus (GPa) = 66.41110 70.42190 68.41650
# Shear Modulus (GPa) = 21.46011 22.66596 22.06303
#
# Velocity S-wave (km/s) = 3.42856 3.52357 3.47639
# Velocity P-wave (km/s) = 7.21462 7.42485 7.32049
#
# Compressibility (1/GPa) = 0.01505772
#
# Stress axis : x y z
#
# Youngs Moduli (GPa) = 52.24308 86.89553 64.83077
#
# Poissons Ratio (x) = 0.38937 0.41600
# Poissons Ratio (y) = 0.23410 0.29891
# Poissons Ratio (z) = 0.33523 0.40064
#
# Static dielectric constant tensor:
#      x y z
#    x 3.115750 0.000000 0.000000 
#    y 0.000000 3.725510 0.000000 
#    z 0.000000 0.000000 3.314080 
# 
# 
# High freq. dielectric constant tensor:
#      x y z
#    x 1.676680 0.000000 0.000000 
#    y 0.000000 1.727490 0.000000 
#    z 0.000000 0.000000 1.703870 
# 
# From -- ./inp_files/27315.got.cif
#   From: 2010.03.12/outbox.cif.g09.slc.cpg/sg59_14_cif.got.tgz:27315.got - 2010.04.16 16:29:54.
