data_PCOD8241703
_publ_section_title
;
Structure prediction by ZEFSAII (Michael W. Deem and Ramdas Pophale) SiO2 
 PCOD8241703
Probable space group: P M M N
;
_chemical_formula_sum "Si O2"
_cell_formula_units_Z 64
_cell_length_a 9.047774
_cell_length_b 19.704775
_cell_length_c 19.001096
_cell_angle_alpha 90.000000
_cell_angle_beta 90.000000
_cell_angle_gamma 90.000000
_cell_volume 3387.598067
_symmetry_space_group_name_H-M "P M M N"
_symmetry_group_IT_number 59
_space_group.IT_coordinate_system_code '2'
_symmetry_cell_setting 'orthorhombic'
loop_
_space_group_symop_operation_xyz
x,y,z
1/2-x,1/2-y,z
1/2+x,-y,-z
-x,1/2+y,-z
-x,-y,-z
1/2+x,1/2+y,-z
1/2-x,y,z
x,1/2-y,z
loop_
_atom_site_type_symbol
_atom_site_label
_atom_site_fract_x
_atom_site_fract_y
_atom_site_fract_z
Si Si1 0.924121 0.946460 0.712301
Si Si2 0.917220 0.171932 0.679263
Si Si3 0.420567 0.568493 0.081335
Si Si4 0.582295 0.172482 0.515778
Si Si5 0.075930 0.427069 0.778813
Si Si6 0.921153 0.589286 0.942016
Si Si7 0.575240 0.825981 0.808636
Si Si8 0.576892 0.553570 0.550733
O O1 0.750000 0.958587 0.722720
O O2 0.969223 0.871587 0.740812
O O3 0.971748 0.956426 0.631459
O O4 0.009673 0.000399 0.759027
O O5 0.750000 0.147690 0.696480
O O6 0.936777 0.250000 0.700392
O O7 0.950255 0.160985 0.597507
O O8 0.036253 0.128137 0.720314
O O9 0.250000 0.588210 0.088097
O O10 0.508228 0.598482 0.147692
O O11 0.445463 0.487973 0.081196
O O12 0.484346 0.604212 0.011652
O O13 0.750000 0.150279 0.498727
O O14 0.556384 0.250000 0.494401
O O15 0.468378 0.129156 0.470572
O O16 0.250000 0.433654 0.785713
O O17 0.750000 0.603254 0.958853
O O18 0.981615 0.638191 0.880245
O O19 0.750000 0.820871 0.813039
O O20 0.506879 0.750000 0.801207
O O21 0.500000 0.500000 0.500000
O O22 0.750000 0.544147 0.542224
#
# Coordination Sequence:
#
# PCOD8241703 Si02
#       8
#     8   8   8   8   8   8   8   8
#     4  10  21  38  56  79 110 148 191 231 277 336
#     4   9  19  37  59  80 105 142 183 223 277 342
#     4  10  19  33  55  79 108 145 181 221 268 323
#     4   9  19  37  59  80 106 143 184 226 279 344
#     4  12  23  34  54  84 114 145 183 230 279 328
#     4   9  17  32  54  81 107 136 179 227 273 321
#     4   9  17  33  58  83 109 143 184 232 283 330
#     4  11  23  36  55  81 113 148 187 237 286 337
#
# _framework density 18.892441999999999
#
# number of rings (size 3 to 8) (size 9 to 14) (size 15 to 20)
#    0.000    2.125    1.250    3.375    0.000    6.000 
#    0.000    3.125    0.000    3.750    0.000    0.000 
#    0.000    0.000    0.000    0.000    0.000    0.000 
#
# Total GULP energy -793672.837081 kJ/mol
# GULP energy per Si atom -12401.138079 kJ/mol
# Density = 1.884944 g / cm^3
# Si number density = 18.892442 Si / 1000 Ang^3
#
#
#
# Elastic Constant Matrix: (Units=GPa)
#
#
# Indices 1 2 3 4 5 6 
#
# 1 68.7336 29.0105 49.4070 0.0000 0.0000 0.0000
# 2 29.0105 75.0438 43.1602 0.0000 0.0000 0.0000
# 3 49.4070 43.1602 110.0256 0.0000 0.0000 0.0000
# 4 0.0000 0.0000 0.0000 31.5747 0.0000 0.0000
# 5 0.0000 0.0000 0.0000 0.0000 30.9328 0.0000
# 6 0.0000 0.0000 0.0000 0.0000 0.0000 25.7880
#
#
#
# Elastic Compliance Matrix: (Units=1/GPa)
#
#
# Indices 1 2 3 4 5 6 
#
# 1 0.022246 -0.003686 -0.008544 0.000000 0.000000 0.000000
# 2 -0.003686 0.017819 -0.005335 0.000000 0.000000 0.000000
# 3 -0.008544 -0.005335 0.015018 0.000000 0.000000 0.000000
# 4 0.000000 0.000000 0.000000 0.031671 0.000000 0.000000
# 5 0.000000 0.000000 0.000000 0.000000 0.032328 0.000000
# 6 0.000000 0.000000 0.000000 0.000000 0.000000 0.038778
#
#
# Mechanical properties :
#
#
# Convention : Reuss Voigt Hill
#
# Bulk Modulus (GPa) = 50.11531 55.21761 52.66646
# Shear Modulus (GPa) = 25.04516 26.47411 25.75963
#
# Velocity S-wave (km/s) = 3.64493 3.74746 3.69655
# Velocity P-wave (km/s) = 6.65569 6.92932 6.79388
#
# Compressibility (1/GPa) = 0.01995398
#
# Stress axis : x y z
#
# Youngs Moduli (GPa) = 44.95172 56.12105 66.58719
#
# Poissons Ratio (x) = 0.20687 0.56890
# Poissons Ratio (y) = 0.16570 0.35521
# Poissons Ratio (z) = 0.38405 0.29938
#
# Static dielectric constant tensor:
#      x y z
#    x 3.290430 0.000000 0.000000 
#    y 0.000000 3.493910 0.000000 
#    z 0.000000 0.000000 3.583230 
# 
# 
# High freq. dielectric constant tensor:
#      x y z
#    x 1.717090 0.000000 0.000000 
#    y 0.000000 1.725680 0.000000 
#    z 0.000000 0.000000 1.742550 
# 
# From -- ./inp_files/26295.got.cif
#   From: 2010.03.12/outbox.cif.g09.slc.cpg/sg59_14_cif.got.tgz:26295.got - 2010.04.16 16:29:54.
