data_PCOD8241248
_publ_section_title
;
Structure prediction by ZEFSAII (Michael W. Deem and Ramdas Pophale) SiO2 
 PCOD8241248
Probable space group: P M M N
;
_chemical_formula_sum "Si O2"
_cell_formula_units_Z 64
_cell_length_a 18.516699
_cell_length_b 8.860960
_cell_length_c 20.616373
_cell_angle_alpha 90.000000
_cell_angle_beta 90.000000
_cell_angle_gamma 90.000000
_cell_volume 3382.646433
_symmetry_space_group_name_H-M "P M M N"
_symmetry_group_IT_number 59
_space_group.IT_coordinate_system_code '2'
_symmetry_cell_setting 'orthorhombic'
loop_
_space_group_symop_operation_xyz
x,y,z
1/2-x,1/2-y,z
1/2+x,-y,-z
-x,1/2+y,-z
-x,-y,-z
1/2+x,1/2+y,-z
1/2-x,y,z
x,1/2-y,z
loop_
_atom_site_type_symbol
_atom_site_label
_atom_site_fract_x
_atom_site_fract_y
_atom_site_fract_z
Si Si1 0.666748 0.075228 0.627818
Si Si2 0.571891 0.073828 0.263701
Si Si3 0.409914 0.071377 0.255277
Si Si4 0.331476 0.930093 0.621039
Si Si5 0.078430 0.928427 0.497610
Si Si6 0.583204 0.071377 0.878547
Si Si7 0.330209 0.929272 0.996824
Si Si8 0.430287 0.927101 0.881359
O O1 0.750000 0.046410 0.610105
O O2 0.652445 0.250000 0.643314
O O3 0.618667 0.019781 0.567643
O O4 0.646296 0.978157 0.690318
O O5 0.569040 0.250000 0.277566
O O6 0.490417 0.010379 0.272712
O O7 0.626782 0.002212 0.316017
O O8 0.599965 0.039577 0.190966
O O9 0.409821 0.250000 0.247846
O O10 0.385271 0.001337 0.186936
O O11 0.250000 0.995027 0.620360
O O12 0.328663 0.750000 0.622544
O O13 0.373906 0.987525 0.557704
O O14 0.070057 0.750000 0.500844
O O15 0.000000 0.000000 0.500000
O O16 0.585731 0.250000 0.871520
O O17 0.631868 0.012712 0.937923
O O18 0.502550 0.019445 0.893746
O O19 0.250000 0.997953 0.994152
O O20 0.327756 0.750000 0.996416
O O21 0.372254 0.986109 0.933051
O O22 0.447803 0.750000 0.889281
#
# Coordination Sequence:
#
# PCOD8241248 Si02
#       8
#     8   8   8   8   8   8   8   8
#     4  10  21  36  53  75 104 137 173 214 261 311
#     4   8  15  27  45  71  99 126 159 202 248 292
#     4  10  20  35  54  76 102 131 168 214 261 311
#     4   9  16  27  46  73 102 129 160 200 244 290
#     4  10  20  34  53  76 102 135 173 211 250 294
#     4  10  19  32  52  75 100 134 174 214 258 309
#     4   9  18  31  48  72 101 133 171 216 262 305
#     4   9  17  31  51  74 101 133 170 212 254 300
#
# _framework density 18.920096999999998
#
# number of rings (size 3 to 8) (size 9 to 14) (size 15 to 20)
#    0.000    2.625    0.000    3.000    0.000    4.250 
#    0.000    4.375    0.000    4.125    0.000    0.000 
#    0.000    0.000    0.000    0.000    0.000    0.000 
#
# Total GULP energy -793556.531420 kJ/mol
# GULP energy per Si atom -12399.320803 kJ/mol
# Density = 1.887703 g / cm^3
# Si number density = 18.920097 Si / 1000 Ang^3
#
#
#
# Elastic Constant Matrix: (Units=GPa)
#
#
# Indices 1 2 3 4 5 6 
#
# 1 117.5428 24.2013 78.5300 0.0000 0.0000 0.0000
# 2 24.2013 34.8746 31.4971 0.0000 0.0000 0.0000
# 3 78.5300 31.4971 160.5427 0.0000 0.0000 0.0000
# 4 0.0000 0.0000 0.0000 17.8748 0.0000 0.0000
# 5 0.0000 0.0000 0.0000 0.0000 28.7389 0.0000
# 6 0.0000 0.0000 0.0000 0.0000 0.0000 24.3879
#
#
#
# Elastic Compliance Matrix: (Units=1/GPa)
#
#
# Indices 1 2 3 4 5 6 
#
# 1 0.013083 -0.004010 -0.005613 0.000000 0.000000 0.000000
# 2 -0.004010 0.036078 -0.005117 0.000000 0.000000 0.000000
# 3 -0.005613 -0.005117 0.009978 0.000000 0.000000 0.000000
# 4 0.000000 0.000000 0.000000 0.055945 0.000000 0.000000
# 5 0.000000 0.000000 0.000000 0.000000 0.034796 0.000000
# 6 0.000000 0.000000 0.000000 0.000000 0.000000 0.041004
#
#
# Mechanical properties :
#
#
# Convention : Reuss Voigt Hill
#
# Bulk Modulus (GPa) = 33.71491 64.60187 49.15839
# Shear Modulus (GPa) = 21.71554 26.11577 23.91565
#
# Velocity S-wave (km/s) = 3.39152 3.71930 3.55918
# Velocity P-wave (km/s) = 5.76150 7.25692 6.55201
#
# Compressibility (1/GPa) = 0.02966047
#
# Stress axis : x y z
#
# Youngs Moduli (GPa) = 76.43436 27.71774 100.21679
#
# Poissons Ratio (x) = 0.11114 0.56252
# Poissons Ratio (y) = 0.30648 0.51279
# Poissons Ratio (z) = 0.42903 0.14183
#
# Static dielectric constant tensor:
#      x y z
#    x 3.628490 0.000000 0.000000 
#    y 0.000000 3.048880 0.000000 
#    z 0.000000 0.000000 3.726190 
# 
# 
# High freq. dielectric constant tensor:
#      x y z
#    x 1.736100 0.000000 0.000000 
#    y 0.000000 1.692430 0.000000 
#    z 0.000000 0.000000 1.753160 
# 
# From -- ./inp_files/30653.got.cif
#   From: 2010.03.12/outbox.cif.g09.slc.cpg/sg59_16_cif.got.tgz:30653.got - 2010.04.16 16:29:54.
