data_PCOD8241015
_publ_section_title
;
Structure prediction by ZEFSAII (Michael W. Deem and Ramdas Pophale) SiO2 
 PCOD8241015
Probable space group: P M M N
;
_chemical_formula_sum "Si O2"
_cell_formula_units_Z 48
_cell_length_a 18.076650
_cell_length_b 9.178187
_cell_length_c 15.563323
_cell_angle_alpha 90.000000
_cell_angle_beta 90.000000
_cell_angle_gamma 90.000000
_cell_volume 2582.124522
_symmetry_space_group_name_H-M "P M M N"
_symmetry_group_IT_number 59
_space_group.IT_coordinate_system_code '2'
_symmetry_cell_setting 'orthorhombic'
loop_
_space_group_symop_operation_xyz
x,y,z
1/2-x,1/2-y,z
1/2+x,-y,-z
-x,1/2+y,-z
-x,-y,-z
1/2+x,1/2+y,-z
1/2-x,y,z
x,1/2-y,z
loop_
_atom_site_type_symbol
_atom_site_label
_atom_site_fract_x
_atom_site_fract_y
_atom_site_fract_z
Si Si1 0.085902 0.579211 0.182595
Si Si2 0.078225 0.077943 0.498855
Si Si3 0.336337 0.580685 0.647583
Si Si4 0.574946 0.083462 0.003043
Si Si5 0.070043 0.919625 0.811130
Si Si6 0.165508 0.082987 0.328378
O O1 0.078068 0.750000 0.199823
O O2 0.118375 0.545927 0.085620
O O3 0.145621 0.515054 0.247195
O O4 0.005596 0.508925 0.197993
O O5 0.067924 0.250000 0.510887
O O6 0.115380 0.038460 0.408604
O O7 0.130211 0.018235 0.573470
O O8 0.000000 0.000000 0.500000
O O9 0.250000 0.547688 0.655386
O O10 0.351701 0.750000 0.626798
O O11 0.373392 0.533250 0.737300
O O12 0.552196 0.250000 0.999295
O O13 0.611741 0.049398 0.096397
O O14 0.500000 0.000000 0.000000
O O15 0.049182 0.750000 0.802338
O O16 0.250000 0.053814 0.354434
O O17 0.152211 0.250000 0.302697
#
# Coordination Sequence:
#
# PCOD8241015 Si02
#       6
#     8   8   8   8   8   8
#     4  10  19  31  51  80 107 132 170 220 264 298
#     4  11  23  39  59  81 104 133 171 214 260 310
#     4  10  21  36  54  78 107 138 173 213 257 306
#     4   8  15  28  47  73 103 134 170 211 254 298
#     4   9  17  32  53  75 103 141 178 210 251 307
#     4  10  22  39  55  72 100 139 175 205 248 310
#
# _framework density 18.589344000000001
#
# number of rings (size 3 to 8) (size 9 to 14) (size 15 to 20)
#    0.000    2.333    0.000    2.500    0.000    8.000 
#    0.000    0.833    0.000    3.000    0.000    0.000 
#    0.000    0.000    0.000    0.000    0.000    0.000 
#
# Total GULP energy -594838.650732 kJ/mol
# GULP energy per Si atom -12392.471890 kJ/mol
# Density = 1.854703 g / cm^3
# Si number density = 18.589344 Si / 1000 Ang^3
#
#
#
# Elastic Constant Matrix: (Units=GPa)
#
#
# Indices 1 2 3 4 5 6 
#
# 1 74.6660 31.9261 37.4998 0.0000 0.0000 0.0000
# 2 31.9261 64.1726 53.7139 0.0000 0.0000 0.0000
# 3 37.4998 53.7139 135.6448 0.0000 0.0000 0.0000
# 4 0.0000 0.0000 0.0000 29.7429 0.0000 0.0000
# 5 0.0000 0.0000 0.0000 0.0000 8.6501 0.0000
# 6 0.0000 0.0000 0.0000 0.0000 0.0000 25.7314
#
#
#
# Elastic Compliance Matrix: (Units=1/GPa)
#
#
# Indices 1 2 3 4 5 6 
#
# 1 0.017391 -0.006922 -0.002067 0.000000 0.000000 0.000000
# 2 -0.006922 0.026064 -0.008407 0.000000 0.000000 0.000000
# 3 -0.002067 -0.008407 0.011273 0.000000 0.000000 0.000000
# 4 0.000000 0.000000 0.000000 0.033621 0.000000 0.000000
# 5 0.000000 0.000000 0.000000 0.000000 0.115606 0.000000
# 6 0.000000 0.000000 0.000000 0.000000 0.000000 0.038863
#
#
# Mechanical properties :
#
#
# Convention : Reuss Voigt Hill
#
# Bulk Modulus (GPa) = 50.16278 57.86254 54.01266
# Shear Modulus (GPa) = 17.58982 22.91446 20.25214
#
# Velocity S-wave (km/s) = 3.07942 3.51474 3.30426
# Velocity P-wave (km/s) = 6.29977 6.90402 6.60880
#
# Compressibility (1/GPa) = 0.01993510
#
# Stress axis : x y z
#
# Youngs Moduli (GPa) = 57.50191 38.36722 88.70935
#
# Poissons Ratio (x) = 0.26558 0.18333
# Poissons Ratio (y) = 0.39803 0.74581
# Poissons Ratio (z) = 0.11884 0.32257
#
# Static dielectric constant tensor:
#      x y z
#    x 3.132040 0.000000 0.000000 
#    y 0.000000 3.442310 0.000000 
#    z 0.000000 0.000000 4.208720 
# 
# 
# High freq. dielectric constant tensor:
#      x y z
#    x 1.694570 0.000000 0.000000 
#    y 0.000000 1.723870 0.000000 
#    z 0.000000 0.000000 1.748480 
# 
# From -- ./inp_files/20472.got.cif
#   From: 2010.03.12/outbox.cif.g09.slc.cpg/sg59_11_cif.got.tgz:20472.got - 2010.04.16 16:29:54.
