data_PCOD8241824
_publ_section_title
;
Structure prediction by ZEFSAII (Michael W. Deem and Ramdas Pophale) SiO2 
 PCOD8241824
Probable space group: P M M N
;
_chemical_formula_sum "Si O2"
_cell_formula_units_Z 56
_cell_length_a 9.202403
_cell_length_b 14.859906
_cell_length_c 21.773351
_cell_angle_alpha 90.000000
_cell_angle_beta 90.000000
_cell_angle_gamma 90.000000
_cell_volume 2977.437023
_symmetry_space_group_name_H-M "P M M N"
_symmetry_group_IT_number 59
_space_group.IT_coordinate_system_code '2'
_symmetry_cell_setting 'orthorhombic'
loop_
_space_group_symop_operation_xyz
x,y,z
1/2-x,1/2-y,z
1/2+x,-y,-z
-x,1/2+y,-z
-x,-y,-z
1/2+x,1/2+y,-z
1/2-x,y,z
x,1/2-y,z
loop_
_atom_site_type_symbol
_atom_site_label
_atom_site_fract_x
_atom_site_fract_y
_atom_site_fract_z
Si Si1 0.411553 0.107589 0.445030
Si Si2 0.081021 0.644374 0.008331
Si Si3 0.079371 0.850277 0.308436
Si Si4 0.911540 0.395284 0.559094
Si Si5 0.079977 0.005641 0.908940
Si Si6 0.918992 0.649739 0.686943
Si Si7 0.423210 0.003052 0.219154
O O1 0.250000 0.149117 0.448574
O O2 0.499589 0.147897 0.502666
O O3 0.488806 0.135630 0.380699
O O4 0.405090 0.001161 0.448750
O O5 0.250000 0.639307 0.026916
O O6 0.034599 0.750000 0.999882
O O7 0.988263 0.595817 0.061335
O O8 0.051541 0.586421 0.946861
O O9 0.250000 0.867281 0.315047
O O10 0.039313 0.750000 0.287932
O O11 0.011968 0.871381 0.375677
O O12 0.021806 0.913844 0.254336
O O13 0.750000 0.353509 0.556759
O O14 0.250000 0.023757 0.900787
O O15 0.004371 0.989170 0.844559
O O16 0.750000 0.626061 0.679234
O O17 0.947518 0.750000 0.710638
O O18 0.982017 0.584691 0.738866
O O19 0.250000 0.005220 0.207979
#
# Coordination Sequence:
#
# PCOD8241824 Si02
#       7
#     8   8   8   8   8   8   8
#     4   9  16  28  46  67  91 121 158 206 262 313
#     4   9  19  38  62  85 111 145 182 213 246 301
#     4   9  17  30  49  70  92 125 170 213 250 296
#     4   9  16  28  46  67  90 119 158 207 259 309
#     4  10  21  36  56  85 116 144 173 214 265 304
#     4   9  17  30  49  71  95 128 172 217 258 305
#     4  10  19  34  53  73 101 137 177 213 247 301
#
# _framework density 18.808121
#
# number of rings (size 3 to 8) (size 9 to 14) (size 15 to 20)
#    0.000    2.714    1.429    0.429    0.000    2.571 
#    0.000    2.857    0.000    1.714    0.000    0.000 
#    0.000    0.000    0.000    0.000    0.000    0.000 
#
# Total GULP energy -694063.677671 kJ/mol
# GULP energy per Si atom -12393.994244 kJ/mol
# Density = 1.876531 g / cm^3
# Si number density = 18.808121 Si / 1000 Ang^3
#
#
#
# Elastic Constant Matrix: (Units=GPa)
#
#
# Indices 1 2 3 4 5 6 
#
# 1 55.2074 31.5060 51.6659 0.0000 0.0000 0.0000
# 2 31.5060 114.7327 54.9375 0.0000 0.0000 0.0000
# 3 51.6659 54.9375 152.8258 0.0000 0.0000 0.0000
# 4 0.0000 0.0000 0.0000 0.0114 0.0000 0.0000
# 5 0.0000 0.0000 0.0000 0.0000 33.1947 0.0000
# 6 0.0000 0.0000 0.0000 0.0000 0.0000 12.1925
#
#
#
# Elastic Compliance Matrix: (Units=1/GPa)
#
#
# Indices 1 2 3 4 5 6 
#
# 1 0.027793 -0.003784 -0.008036 0.000000 0.000000 0.000000
# 2 -0.003784 0.011043 -0.002690 0.000000 0.000000 0.000000
# 3 -0.008036 -0.002690 0.010227 0.000000 0.000000 0.000000
# 4 0.000000 0.000000 0.000000 87.656225 0.000000 0.000000
# 5 0.000000 0.000000 0.000000 0.000000 0.030125 0.000000
# 6 0.000000 0.000000 0.000000 0.000000 0.000000 0.082017
#
#
# Mechanical properties :
#
#
# Convention : Reuss Voigt Hill
#
# Bulk Modulus (GPa) = 49.89314 66.55386 58.22350
# Shear Modulus (GPa) = 0.05691 21.39016 10.72354
#
# Velocity S-wave (km/s) = 0.17414 3.37602 2.39038
# Velocity P-wave (km/s) = 5.15999 7.11753 6.21630
#
# Compressibility (1/GPa) = 0.02004284
#
# Stress axis : x y z
#
# Youngs Moduli (GPa) = 35.97966 90.55180 97.77844
#
# Poissons Ratio (x) = 0.34269 0.78572
# Poissons Ratio (y) = 0.13616 0.26307
# Poissons Ratio (z) = 0.28912 0.24363
#
# Static dielectric constant tensor:
#      x y z
#    x 3.270160 0.000000 0.000000 
#    y 0.000000 3.462540 0.000000 
#    z 0.000000 0.000000 3.520880 
# 
# 
# High freq. dielectric constant tensor:
#      x y z
#    x 1.686100 0.000000 0.000000 
#    y 0.000000 1.737230 0.000000 
#    z 0.000000 0.000000 1.735420 
# 
# From -- ./inp_files/29174.got.cif
#   From: 2010.03.12/outbox.cif.g09.slc.cpg/sg59_15_cif.got.tgz:29174.got - 2010.04.16 16:29:54.
