data_PCOD8241635
_publ_section_title
;
Structure prediction by ZEFSAII (Michael W. Deem and Ramdas Pophale) SiO2 
 PCOD8241635
Probable space group: P M M N
;
_chemical_formula_sum "Si O2"
_cell_formula_units_Z 48
_cell_length_a 8.760823
_cell_length_b 19.196645
_cell_length_c 13.857702
_cell_angle_alpha 90.000000
_cell_angle_beta 90.000000
_cell_angle_gamma 90.000000
_cell_volume 2330.566275
_symmetry_space_group_name_H-M "P M M N"
_symmetry_group_IT_number 59
_space_group.IT_coordinate_system_code '2'
_symmetry_cell_setting 'orthorhombic'
loop_
_space_group_symop_operation_xyz
x,y,z
1/2-x,1/2-y,z
1/2+x,-y,-z
-x,1/2+y,-z
-x,-y,-z
1/2+x,1/2+y,-z
1/2-x,y,z
x,1/2-y,z
loop_
_atom_site_type_symbol
_atom_site_label
_atom_site_fract_x
_atom_site_fract_y
_atom_site_fract_z
Si Si1 0.569316 0.828945 0.924058
Si Si2 0.571016 0.540199 0.589319
Si Si3 0.568802 0.542892 0.803079
Si Si4 0.429530 0.325048 0.510609
Si Si5 0.921999 0.832249 0.277613
Si Si6 0.073105 0.902289 0.104999
O O1 0.750000 0.824317 0.920474
O O2 0.501783 0.750000 0.912012
O O3 0.508288 0.881680 0.840606
O O4 0.525551 0.862814 0.025678
O O5 0.500000 0.500000 0.500000
O O6 0.750000 0.525959 0.585569
O O7 0.502959 0.523897 0.696102
O O8 0.529223 0.621334 0.573366
O O9 0.750000 0.546147 0.793663
O O10 0.521976 0.483239 0.880391
O O11 0.250000 0.315335 0.520876
O O12 0.503929 0.250000 0.484855
O O13 0.484050 0.352313 0.615697
O O14 0.750000 0.861220 0.258646
O O15 0.920958 0.750000 0.264475
O O16 0.044663 0.864977 0.206246
O O17 0.250000 0.896974 0.076692
#
# Coordination Sequence:
#
# PCOD8241635 Si02
#       6
#     8   8   8   8   8   8
#     4  10  21  38  58  77  99 131 172 214 254 299
#     4  10  19  33  54  78 105 135 169 209 250 298
#     4   9  20  36  53  77 106 134 166 207 255 303
#     4   8  15  28  48  74 100 129 169 213 252 292
#     4   9  17  30  48  72 103 136 171 211 252 296
#     4  11  21  33  51  75 105 136 166 206 255 307
#
# _framework density 20.595852000000001
#
# number of rings (size 3 to 8) (size 9 to 14) (size 15 to 20)
#    0.000    2.500    0.000    3.500    0.000    3.333 
#    0.000    5.833    0.000    1.500    0.000    0.000 
#    0.000    0.000    0.000    0.000    0.000    0.000 
#
# Total GULP energy -594772.284392 kJ/mol
# GULP energy per Si atom -12391.089258 kJ/mol
# Density = 2.054898 g / cm^3
# Si number density = 20.595852 Si / 1000 Ang^3
#
#
#
# Elastic Constant Matrix: (Units=GPa)
#
#
# Indices 1 2 3 4 5 6 
#
# 1 15.0927 16.1858 8.3292 0.0000 0.0000 0.0000
# 2 16.1858 103.8951 53.5298 0.0000 0.0000 0.0000
# 3 8.3292 53.5298 95.4387 0.0000 0.0000 0.0000
# 4 0.0000 0.0000 0.0000 15.4587 0.0000 0.0000
# 5 0.0000 0.0000 0.0000 0.0000 20.9832 0.0000
# 6 0.0000 0.0000 0.0000 0.0000 0.0000 19.0453
#
#
#
# Elastic Compliance Matrix: (Units=1/GPa)
#
#
# Indices 1 2 3 4 5 6 
#
# 1 0.079547 -0.012399 0.000012 0.000000 0.000000 0.000000
# 2 -0.012399 0.015470 -0.007595 0.000000 0.000000 0.000000
# 3 0.000012 -0.007595 0.014737 0.000000 0.000000 0.000000
# 4 0.000000 0.000000 0.000000 0.064688 0.000000 0.000000
# 5 0.000000 0.000000 0.000000 0.000000 0.047657 0.000000
# 6 0.000000 0.000000 0.000000 0.000000 0.000000 0.052506
#
#
# Mechanical properties :
#
#
# Convention : Reuss Voigt Hill
#
# Bulk Modulus (GPa) = 14.32858 41.16847 27.74853
# Shear Modulus (GPa) = 14.80027 20.18957 17.49492
#
# Velocity S-wave (km/s) = 2.68359 3.13433 2.91768
# Velocity P-wave (km/s) = 4.07116 5.75594 4.98523
#
# Compressibility (1/GPa) = 0.06979058
#
# Stress axis : x y z
#
# Youngs Moduli (GPa) = 12.57114 64.64270 67.85860
#
# Poissons Ratio (x) = 0.80149 -0.00081
# Poissons Ratio (y) = 0.15587 0.51536
# Poissons Ratio (z) = -0.00015 0.49093
#
# Static dielectric constant tensor:
#      x y z
#    x 3.297020 0.000000 0.000000 
#    y 0.000000 3.893880 0.000000 
#    z 0.000000 0.000000 4.012560 
# 
# 
# High freq. dielectric constant tensor:
#      x y z
#    x 1.753940 0.000000 0.000000 
#    y 0.000000 1.821070 0.000000 
#    z 0.000000 0.000000 1.807690 
# 
# From -- ./inp_files/20456.got.cif
#   From: 2010.03.12/outbox.cif.g09.slc.cpg/sg59_11_cif.got.tgz:20456.got - 2010.04.16 16:29:54.
