data_PCOD8241984
_publ_section_title
;
Structure prediction by ZEFSAII (Michael W. Deem and Ramdas Pophale) SiO2 
 PCOD8241984
Probable space group: P M M N
;
_chemical_formula_sum "Si O2"
_cell_formula_units_Z 56
_cell_length_a 9.108818
_cell_length_b 21.053878
_cell_length_c 13.987675
_cell_angle_alpha 90.000000
_cell_angle_beta 90.000000
_cell_angle_gamma 90.000000
_cell_volume 2682.499562
_symmetry_space_group_name_H-M "P M M N"
_symmetry_group_IT_number 59
_space_group.IT_coordinate_system_code '2'
_symmetry_cell_setting 'orthorhombic'
loop_
_space_group_symop_operation_xyz
x,y,z
1/2-x,1/2-y,z
1/2+x,-y,-z
-x,1/2+y,-z
-x,-y,-z
1/2+x,1/2+y,-z
1/2-x,y,z
x,1/2-y,z
loop_
_atom_site_type_symbol
_atom_site_label
_atom_site_fract_x
_atom_site_fract_y
_atom_site_fract_z
Si Si1 0.576279 0.322354 0.088600
Si Si2 0.925631 0.438205 0.955457
Si Si3 0.576909 0.364595 0.297184
Si Si4 0.090483 0.320858 0.465587
Si Si5 0.087468 0.824558 0.360085
Si Si6 0.581897 0.006878 0.399912
Si Si7 0.079873 0.407034 0.764050
O O1 0.750000 0.318243 0.087854
O O2 0.513790 0.250000 0.072100
O O3 0.522297 0.351620 0.189422
O O4 0.524021 0.372641 0.008005
O O5 0.750000 0.445755 0.958664
O O6 0.985272 0.436463 0.848554
O O7 0.000000 0.500000 0.000000
O O8 0.750000 0.352924 0.304522
O O9 0.491497 0.315724 0.364487
O O10 0.528334 0.433427 0.336162
O O11 0.250000 0.355757 0.458862
O O12 0.119031 0.250000 0.501755
O O13 0.988908 0.354945 0.545089
O O14 0.250000 0.854909 0.350672
O O15 0.102670 0.750000 0.369848
O O16 0.990125 0.839401 0.265733
O O17 0.750000 0.015911 0.426856
O O18 0.500000 0.000000 0.500000
O O19 0.556263 0.947494 0.331443
O O20 0.250000 0.401285 0.794192
#
# Coordination Sequence:
#
# PCOD8241984 Si02
#       7
#     8   8   8   8   8   8   8
#     4   9  19  37  62  90 118 152 201 262 320 371
#     4  11  23  41  65  91 120 157 202 251 306 371
#     4  10  19  34  57  81 108 147 195 242 292 351
#     4  10  20  33  50  77 114 151 186 229 282 338
#     4  10  21  37  57  82 112 148 191 234 278 338
#     4  10  22  37  55  83 118 154 193 239 289 349
#     4  11  23  40  61  86 116 149 188 236 293 352
#
# _framework density 20.876051
#
# number of rings (size 3 to 8) (size 9 to 14) (size 15 to 20)
#    0.000    1.857    0.000    3.857    0.000    9.143 
#    0.000    4.286    0.000    3.000    0.000    0.000 
#    0.000    0.000    0.000    0.000    0.000    0.000 
#
# Total GULP energy -694053.795234 kJ/mol
# GULP energy per Si atom -12393.817772 kJ/mol
# Density = 2.082854 g / cm^3
# Si number density = 20.876051 Si / 1000 Ang^3
#
#
#
# Elastic Constant Matrix: (Units=GPa)
#
#
# Indices 1 2 3 4 5 6 
#
# 1 101.8673 32.9995 48.5615 0.0000 0.0000 0.0000
# 2 32.9995 86.2328 35.0021 0.0000 0.0000 0.0000
# 3 48.5615 35.0021 103.1622 0.0000 0.0000 0.0000
# 4 0.0000 0.0000 0.0000 31.8387 0.0000 0.0000
# 5 0.0000 0.0000 0.0000 0.0000 32.7362 0.0000
# 6 0.0000 0.0000 0.0000 0.0000 0.0000 26.9824
#
#
#
# Elastic Compliance Matrix: (Units=1/GPa)
#
#
# Indices 1 2 3 4 5 6 
#
# 1 0.013274 -0.002950 -0.005248 0.000000 0.000000 0.000000
# 2 -0.002950 0.014104 -0.003397 0.000000 0.000000 0.000000
# 3 -0.005248 -0.003397 0.013316 0.000000 0.000000 0.000000
# 4 0.000000 0.000000 0.000000 0.031408 0.000000 0.000000
# 5 0.000000 0.000000 0.000000 0.000000 0.030547 0.000000
# 6 0.000000 0.000000 0.000000 0.000000 0.000000 0.037061
#
#
# Mechanical properties :
#
#
# Convention : Reuss Voigt Hill
#
# Bulk Modulus (GPa) = 57.12375 58.26538 57.69457
# Shear Modulus (GPa) = 29.63236 29.95807 29.79521
#
# Velocity S-wave (km/s) = 3.77164 3.79231 3.78199
# Velocity P-wave (km/s) = 6.81100 6.86631 6.83871
#
# Compressibility (1/GPa) = 0.01750585
#
# Stress axis : x y z
#
# Youngs Moduli (GPa) = 75.33635 70.90142 75.09637
#
# Poissons Ratio (x) = 0.20913 0.39408
# Poissons Ratio (y) = 0.22221 0.25510
# Poissons Ratio (z) = 0.39533 0.24085
#
# Static dielectric constant tensor:
#      x y z
#    x 3.864290 0.000000 0.000000 
#    y 0.000000 3.948660 0.000000 
#    z 0.000000 0.000000 3.857280 
# 
# 
# High freq. dielectric constant tensor:
#      x y z
#    x 1.808250 0.000000 0.000000 
#    y 0.000000 1.821110 0.000000 
#    z 0.000000 0.000000 1.817850 
# 
# From -- ./inp_files/21032.got.cif
#   From: 2010.03.12/outbox.cif.g09.slc.cpg/sg59_11_cif.got.tgz:21032.got - 2010.04.16 16:29:54.
