data_PCOD8241379
_publ_section_title
;
Structure prediction by ZEFSAII (Michael W. Deem and Ramdas Pophale) SiO2 
 PCOD8241379
Probable space group: P M M N
;
_chemical_formula_sum "Si O2"
_cell_formula_units_Z 56
_cell_length_a 8.791113
_cell_length_b 21.257514
_cell_length_c 16.617516
_cell_angle_alpha 90.000000
_cell_angle_beta 90.000000
_cell_angle_gamma 90.000000
_cell_volume 3105.434989
_symmetry_space_group_name_H-M "P M M N"
_symmetry_group_IT_number 59
_space_group.IT_coordinate_system_code '2'
_symmetry_cell_setting 'orthorhombic'
loop_
_space_group_symop_operation_xyz
x,y,z
1/2-x,1/2-y,z
1/2+x,-y,-z
-x,1/2+y,-z
-x,-y,-z
1/2+x,1/2+y,-z
1/2-x,y,z
x,1/2-y,z
loop_
_atom_site_type_symbol
_atom_site_label
_atom_site_fract_x
_atom_site_fract_y
_atom_site_fract_z
Si Si1 0.926838 0.820719 0.442913
Si Si2 0.072060 0.984155 0.699024
Si Si3 0.424176 0.905090 0.032543
Si Si4 0.574590 0.822564 0.147683
Si Si5 0.425635 0.519481 0.881476
Si Si6 0.071979 0.617470 0.298228
Si Si7 0.929097 0.940477 0.545660
O O1 0.750000 0.828377 0.421194
O O2 0.959516 0.750000 0.476268
O O3 0.978177 0.873756 0.506769
O O4 0.022447 0.829104 0.361206
O O5 0.250000 0.980533 0.682257
O O6 0.017942 0.054465 0.679996
O O7 0.031217 0.963144 0.789991
O O8 0.987722 0.937505 0.637512
O O9 0.250000 0.887622 0.048382
O O10 0.529492 0.846416 0.058389
O O11 0.465679 0.964596 0.087907
O O12 0.452198 0.919780 0.938212
O O13 0.750000 0.836678 0.165904
O O14 0.536020 0.750000 0.154284
O O15 0.470459 0.860685 0.209173
O O16 0.250000 0.496607 0.886979
O O17 0.250000 0.604216 0.303536
O O18 0.750000 0.949244 0.544038
O O19 0.000000 0.000000 0.500000
#
# Coordination Sequence:
#
# PCOD8241379 Si02
#       7
#     8   8   8   8   8   8   8
#     4  10  22  40  59  78 107 149 188 223 274 336
#     4  11  21  35  56  80 113 148 179 221 274 332
#     4  10  19  32  53  79 104 135 178 223 262 310
#     4  11  23  37  52  73 108 151 185 217 268 329
#     4   9  19  34  53  77 106 139 172 213 269 322
#     4  12  23  34  53  82 112 143 183 225 271 327
#     4  11  22  36  57  83 111 144 185 233 279 326
#
# _framework density 18.032900999999999
#
# number of rings (size 3 to 8) (size 9 to 14) (size 15 to 20)
#    0.000    1.429    2.857    3.429    0.000    4.857 
#    0.000    0.000    0.000    0.857    0.000    4.000 
#    0.000    0.000    0.000    0.000    0.000    0.000 
#
# Total GULP energy -694493.865051 kJ/mol
# GULP energy per Si atom -12401.676162 kJ/mol
# Density = 1.799186 g / cm^3
# Si number density = 18.032901 Si / 1000 Ang^3
#
#
#
# Elastic Constant Matrix: (Units=GPa)
#
#
# Indices 1 2 3 4 5 6 
#
# 1 55.7401 31.0573 32.3790 0.0000 0.0000 0.0000
# 2 31.0573 89.1952 46.7339 0.0000 0.0000 0.0000
# 3 32.3790 46.7339 110.8078 0.0000 0.0000 0.0000
# 4 0.0000 0.0000 0.0000 25.7413 0.0000 0.0000
# 5 0.0000 0.0000 0.0000 0.0000 30.5064 0.0000
# 6 0.0000 0.0000 0.0000 0.0000 0.0000 24.6029
#
#
#
# Elastic Compliance Matrix: (Units=1/GPa)
#
#
# Indices 1 2 3 4 5 6 
#
# 1 0.023854 -0.005974 -0.004451 0.000000 0.000000 0.000000
# 2 -0.005974 0.015888 -0.004955 0.000000 0.000000 0.000000
# 3 -0.004451 -0.004955 0.012415 0.000000 0.000000 0.000000
# 4 0.000000 0.000000 0.000000 0.038848 0.000000 0.000000
# 5 0.000000 0.000000 0.000000 0.000000 0.032780 0.000000
# 6 0.000000 0.000000 0.000000 0.000000 0.000000 0.040646
#
#
# Mechanical properties :
#
#
# Convention : Reuss Voigt Hill
#
# Bulk Modulus (GPa) = 46.73482 52.89815 49.81649
# Shear Modulus (GPa) = 24.71294 25.87501 25.29398
#
# Velocity S-wave (km/s) = 3.70596 3.79209 3.74927
# Velocity P-wave (km/s) = 6.65469 6.96930 6.81381
#
# Compressibility (1/GPa) = 0.02139732
#
# Stress axis : x y z
#
# Youngs Moduli (GPa) = 41.92083 62.94191 80.54716
#
# Poissons Ratio (x) = 0.37601 0.35851
# Poissons Ratio (y) = 0.25043 0.39912
# Poissons Ratio (z) = 0.18659 0.31188
#
# Static dielectric constant tensor:
#      x y z
#    x 3.384170 0.000000 0.000000 
#    y 0.000000 3.299220 0.000000 
#    z 0.000000 0.000000 3.572090 
# 
# 
# High freq. dielectric constant tensor:
#      x y z
#    x 1.707880 0.000000 0.000000 
#    y 0.000000 1.674160 0.000000 
#    z 0.000000 0.000000 1.698690 
# 
# From -- ./inp_files/26131.got.cif
#   From: 2010.03.12/outbox.cif.g09.slc.cpg/sg59_14_cif.got.tgz:26131.got - 2010.04.16 16:29:54.
