data_PCOD8241190
_publ_section_title
;
Structure prediction by ZEFSAII (Michael W. Deem and Ramdas Pophale) SiO2 
 PCOD8241190
Probable space group: P M M N
;
_chemical_formula_sum "Si O2"
_cell_formula_units_Z 64
_cell_length_a 9.022341
_cell_length_b 14.117877
_cell_length_c 25.821110
_cell_angle_alpha 90.000000
_cell_angle_beta 90.000000
_cell_angle_gamma 90.000000
_cell_volume 3288.997466
_symmetry_space_group_name_H-M "P M M N"
_symmetry_group_IT_number 59
_space_group.IT_coordinate_system_code '2'
_symmetry_cell_setting 'orthorhombic'
loop_
_space_group_symop_operation_xyz
x,y,z
1/2-x,1/2-y,z
1/2+x,-y,-z
-x,1/2+y,-z
-x,-y,-z
1/2+x,1/2+y,-z
1/2-x,y,z
x,1/2-y,z
loop_
_atom_site_type_symbol
_atom_site_label
_atom_site_fract_x
_atom_site_fract_y
_atom_site_fract_z
Si Si1 0.085382 0.382789 0.461000
Si Si2 0.077458 0.548367 0.924588
Si Si3 0.573947 0.145875 0.673904
Si Si4 0.413725 0.646237 0.639121
Si Si5 0.424681 0.037680 0.274501
Si Si6 0.084585 0.603220 0.440542
Si Si7 0.573458 0.640683 0.827429
Si Si8 0.421173 0.358536 0.980388
O O1 0.250000 0.339533 0.455289
O O2 0.092942 0.494032 0.453905
O O3 0.975869 0.341370 0.418337
O O4 0.021832 0.349753 0.516717
O O5 0.250000 0.567918 0.915859
O O6 0.047595 0.435987 0.935167
O O7 0.988376 0.579560 0.874421
O O8 0.023982 0.614448 0.971528
O O9 0.750000 0.141901 0.670960
O O10 0.516620 0.250000 0.690213
O O11 0.514039 0.119771 0.616502
O O12 0.521043 0.071504 0.718289
O O13 0.250000 0.598438 0.637962
O O14 0.400765 0.750000 0.664079
O O15 0.527588 0.587828 0.673108
O O16 0.250000 0.044731 0.270692
O O17 0.491565 0.088923 0.223893
O O18 0.250000 0.647745 0.443357
O O19 0.750000 0.637325 0.829415
O O20 0.518573 0.750000 0.829090
O O21 0.250000 0.366086 0.998045
O O22 0.456830 0.250000 0.962155
#
# Coordination Sequence:
#
# PCOD8241190 Si02
#       8
#     8   8   8   8   8   8   8   8
#     4  10  19  32  51  75 103 135 170 206 251 312
#     4  10  20  33  53  83 115 147 189 236 273 313
#     4   9  17  32  56  81 102 128 166 213 264 316
#     4  11  23  36  52  76 104 134 168 211 266 320
#     4  10  20  38  59  79 102 134 177 220 263 315
#     4   9  17  31  50  75 104 133 165 203 254 311
#     4  10  21  36  55  79 110 147 181 219 271 326
#     4   9  18  34  55  79 113 156 194 227 273 326
#
# _framework density 19.458817
#
# number of rings (size 3 to 8) (size 9 to 14) (size 15 to 20)
#    0.000    2.250    1.250    1.875    0.000    5.500 
#    0.000    1.875    0.000    1.875    0.000    0.000 
#    0.000    0.000    0.000    0.000    0.000    0.000 
#
# Total GULP energy -793159.797691 kJ/mol
# GULP energy per Si atom -12393.121839 kJ/mol
# Density = 1.941453 g / cm^3
# Si number density = 19.458817 Si / 1000 Ang^3
#
#
#
# Elastic Constant Matrix: (Units=GPa)
#
#
# Indices 1 2 3 4 5 6 
#
# 1 25.5405 21.0411 19.4617 0.0000 0.0000 0.0000
# 2 21.0411 136.6181 59.9822 0.0000 0.0000 0.0000
# 3 19.4617 59.9822 109.6763 0.0000 0.0000 0.0000
# 4 0.0000 0.0000 0.0000 -13.7738 0.0000 0.0000
# 5 0.0000 0.0000 0.0000 0.0000 28.2666 0.0000
# 6 0.0000 0.0000 0.0000 0.0000 0.0000 12.9557
#
#
#
# Elastic Compliance Matrix: (Units=1/GPa)
#
#
# Indices 1 2 3 4 5 6 
#
# 1 0.047516 -0.004759 -0.005829 0.000000 0.000000 0.000000
# 2 -0.004759 0.010109 -0.004684 0.000000 0.000000 0.000000
# 3 -0.005829 -0.004684 0.012714 0.000000 0.000000 0.000000
# 4 0.000000 0.000000 0.000000 -0.072601 0.000000 0.000000
# 5 0.000000 0.000000 0.000000 0.000000 0.035377 0.000000
# 6 0.000000 0.000000 0.000000 0.000000 0.000000 0.077186
#
#
# Mechanical properties :
#
#
# Convention : Reuss Voigt Hill
#
# Bulk Modulus (GPa) = 25.12905 52.53390 38.83147
# Shear Modulus (GPa) = 32.44440 16.91302 24.67871
#
# Velocity S-wave (km/s) = 4.08773 2.95137 3.56512
# Velocity P-wave (km/s) = 5.93476 6.21853 6.07831
#
# Compressibility (1/GPa) = 0.03979458
#
# Stress axis : x y z
#
# Youngs Moduli (GPa) = 21.04576 98.91920 78.65398
#
# Poissons Ratio (x) = 0.47075 0.45846
# Poissons Ratio (y) = 0.10015 0.36844
# Poissons Ratio (z) = 0.12267 0.46337
#
# Static dielectric constant tensor:
#      x y z
#    x 3.497100 0.000000 0.000000 
#    y 0.000000 3.856320 0.000000 
#    z 0.000000 0.000000 3.489050 
# 
# 
# High freq. dielectric constant tensor:
#      x y z
#    x 1.740560 0.000000 0.000000 
#    y 0.000000 1.770240 0.000000 
#    z 0.000000 0.000000 1.736620 
# 
# From -- ./inp_files/31582.got.cif
#   From: 2010.03.12/outbox.cif.g09.slc.cpg/sg59_16_cif.got.tgz:31582.got - 2010.04.16 16:29:54.
