data_PCOD8241021
_publ_section_title
;
Structure prediction by ZEFSAII (Michael W. Deem and Ramdas Pophale) SiO2 
 PCOD8241021
Probable space group: P M M N
;
_chemical_formula_sum "Si O2"
_cell_formula_units_Z 48
_cell_length_a 18.900804
_cell_length_b 9.113622
_cell_length_c 15.218378
_cell_angle_alpha 90.000000
_cell_angle_beta 90.000000
_cell_angle_gamma 90.000000
_cell_volume 2621.438402
_symmetry_space_group_name_H-M "P M M N"
_symmetry_group_IT_number 59
_space_group.IT_coordinate_system_code '2'
_symmetry_cell_setting 'orthorhombic'
loop_
_space_group_symop_operation_xyz
x,y,z
1/2-x,1/2-y,z
1/2+x,-y,-z
-x,1/2+y,-z
-x,-y,-z
1/2+x,1/2+y,-z
1/2-x,y,z
x,1/2-y,z
loop_
_atom_site_type_symbol
_atom_site_label
_atom_site_fract_x
_atom_site_fract_y
_atom_site_fract_z
Si Si1 0.828752 0.923667 0.495455
Si Si2 0.930671 0.920753 0.647883
Si Si3 0.084548 0.417308 0.152557
Si Si4 0.077252 0.922670 0.845206
Si Si5 0.576309 0.576193 0.333623
Si Si6 0.830040 0.076534 0.991727
O O1 0.750000 0.992485 0.498673
O O2 0.824019 0.750000 0.501230
O O3 0.873463 0.981320 0.578716
O O4 0.865708 0.971558 0.405110
O O5 0.949457 0.750000 0.632202
O O6 0.898902 0.943368 0.744978
O O7 0.001485 0.013421 0.634834
O O8 0.098468 0.250000 0.125410
O O9 0.137142 0.517841 0.098015
O O10 0.003691 0.461328 0.131679
O O11 0.085851 0.750000 0.827212
O O12 0.101526 0.007911 0.758338
O O13 0.125636 0.980076 0.924694
O O14 0.569890 0.750000 0.324046
O O15 0.750000 0.019044 0.001247
O O16 0.832916 0.250000 0.987248
#
# Coordination Sequence:
#
# PCOD8241021 Si02
#       6
#     8   8   8   8   8   8
#     4   9  18  32  50  74 104 136 168 202 243 293
#     4   9  18  34  55  75  98 132 169 203 244 296
#     4   9  18  32  52  76  97 125 168 210 243 283
#     4   9  19  36  54  72  98 132 169 204 242 296
#     4  10  19  31  52  79 102 127 164 211 253 286
#     4  10  21  35  51  73 102 134 163 198 250 302
#
# _framework density 18.310558
#
# number of rings (size 3 to 8) (size 9 to 14) (size 15 to 20)
#    0.000    2.667    0.000    2.500    0.000    5.000 
#    0.000    2.500    0.000    4.000    0.000    0.000 
#    0.000    0.000    0.000    0.000    0.000    0.000 
#
# Total GULP energy -595261.313697 kJ/mol
# GULP energy per Si atom -12401.277369 kJ/mol
# Density = 1.826888 g / cm^3
# Si number density = 18.310558 Si / 1000 Ang^3
#
#
#
# Elastic Constant Matrix: (Units=GPa)
#
#
# Indices 1 2 3 4 5 6 
#
# 1 116.8241 31.1282 76.2395 0.0000 0.0000 0.0000
# 2 31.1282 36.5087 35.9726 0.0000 0.0000 0.0000
# 3 76.2395 35.9726 120.4182 0.0000 0.0000 0.0000
# 4 0.0000 0.0000 0.0000 25.0493 0.0000 0.0000
# 5 0.0000 0.0000 0.0000 0.0000 17.6831 0.0000
# 6 0.0000 0.0000 0.0000 0.0000 0.0000 21.9919
#
#
#
# Elastic Compliance Matrix: (Units=1/GPa)
#
#
# Indices 1 2 3 4 5 6 
#
# 1 0.015187 -0.004924 -0.008144 0.000000 0.000000 0.000000
# 2 -0.004924 0.040413 -0.008955 0.000000 0.000000 0.000000
# 3 -0.008144 -0.008955 0.016136 0.000000 0.000000 0.000000
# 4 0.000000 0.000000 0.000000 0.039921 0.000000 0.000000
# 5 0.000000 0.000000 0.000000 0.000000 0.056551 0.000000
# 6 0.000000 0.000000 0.000000 0.000000 0.000000 0.045471
#
#
# Mechanical properties :
#
#
# Convention : Reuss Voigt Hill
#
# Bulk Modulus (GPa) = 36.11565 62.27018 49.19292
# Shear Modulus (GPa) = 18.72977 21.63890 20.18433
#
# Velocity S-wave (km/s) = 3.20174 3.44142 3.32374
# Velocity P-wave (km/s) = 5.78230 7.06207 6.45398
#
# Compressibility (1/GPa) = 0.02768883
#
# Stress axis : x y z
#
# Youngs Moduli (GPa) = 65.84675 24.74476 61.97427
#
# Poissons Ratio (x) = 0.12185 0.50473
# Poissons Ratio (y) = 0.32424 0.55497
# Poissons Ratio (z) = 0.53626 0.22159
#
# Static dielectric constant tensor:
#      x y z
#    x 3.515750 0.000000 0.000000 
#    y 0.000000 3.138810 0.000000 
#    z 0.000000 0.000000 3.490270 
# 
# 
# High freq. dielectric constant tensor:
#      x y z
#    x 1.707060 0.000000 0.000000 
#    y 0.000000 1.688000 0.000000 
#    z 0.000000 0.000000 1.722080 
# 
# From -- ./inp_files/20285.got.cif
#   From: 2010.03.12/outbox.cif.g09.slc.cpg/sg59_11_cif.got.tgz:20285.got - 2010.04.16 16:29:54.
