data_PCOD8241998
_publ_section_title
;
Structure prediction by ZEFSAII (Michael W. Deem and Ramdas Pophale) SiO2 
 PCOD8241998
Probable space group: P M M N
;
_chemical_formula_sum "Si O2"
_cell_formula_units_Z 48
_cell_length_a 8.991932
_cell_length_b 15.604907
_cell_length_c 16.986175
_cell_angle_alpha 90.000000
_cell_angle_beta 90.000000
_cell_angle_gamma 90.000000
_cell_volume 2383.470564
_symmetry_space_group_name_H-M "P M M N"
_symmetry_group_IT_number 59
_space_group.IT_coordinate_system_code '2'
_symmetry_cell_setting 'orthorhombic'
loop_
_space_group_symop_operation_xyz
x,y,z
1/2-x,1/2-y,z
1/2+x,-y,-z
-x,1/2+y,-z
-x,-y,-z
1/2+x,1/2+y,-z
1/2-x,y,z
x,1/2-y,z
loop_
_atom_site_type_symbol
_atom_site_label
_atom_site_fract_x
_atom_site_fract_y
_atom_site_fract_z
Si Si1 0.918672 0.612139 0.333032
Si Si2 0.421255 0.347668 0.494853
Si Si3 0.421316 0.653484 0.178851
Si Si4 0.072570 0.496725 0.915302
Si Si5 0.073257 0.655128 0.811546
Si Si6 0.416685 0.585222 0.650936
O O1 0.750000 0.648259 0.325629
O O2 0.987565 0.634972 0.418483
O O3 0.918876 0.511291 0.318495
O O4 0.022898 0.655769 0.268624
O O5 0.250000 0.373467 0.497813
O O6 0.447862 0.250000 0.469720
O O7 0.493788 0.407779 0.429675
O O8 0.250000 0.623449 0.175988
O O9 0.436799 0.750000 0.144569
O O10 0.521212 0.589426 0.128023
O O11 0.250000 0.495818 0.921991
O O12 0.013510 0.581634 0.869883
O O13 0.000000 0.500000 0.000000
O O14 0.250000 0.648276 0.808527
O O15 0.021975 0.750000 0.840188
O O16 0.012833 0.640403 0.722510
O O17 0.250000 0.616241 0.632472
#
# Coordination Sequence:
#
# PCOD8241998 Si02
#       6
#     8   8   8   8   8   8
#     4  10  20  37  59  83 114 156 203 248 301 359
#     4  10  21  34  49  77 117 157 197 245 301 354
#     4  11  24  41  63  92 124 160 204 253 305 359
#     4  11  23  42  66  93 125 160 198 244 301 365
#     4   9  18  35  60  88 118 153 193 240 295 353
#     4  10  19  34  57  83 111 151 202 246 292 353
#
# _framework density 20.138701000000001
#
# number of rings (size 3 to 8) (size 9 to 14) (size 15 to 20)
#    0.000    1.833    1.667    2.500    0.000    5.000 
#    0.000    1.667    0.000    2.500    0.000    0.000 
#    0.000    0.000    0.000    0.000    0.000    0.000 
#
# Total GULP energy -595211.144615 kJ/mol
# GULP energy per Si atom -12400.232179 kJ/mol
# Density = 2.009286 g / cm^3
# Si number density = 20.138701 Si / 1000 Ang^3
#
#
#
# Elastic Constant Matrix: (Units=GPa)
#
#
# Indices 1 2 3 4 5 6 
#
# 1 65.6445 32.6468 40.6149 0.0000 0.0000 0.0000
# 2 32.6468 106.8986 48.9214 0.0000 0.0000 0.0000
# 3 40.6149 48.9214 138.6081 0.0000 0.0000 0.0000
# 4 0.0000 0.0000 0.0000 21.8193 0.0000 0.0000
# 5 0.0000 0.0000 0.0000 0.0000 37.3359 0.0000
# 6 0.0000 0.0000 0.0000 0.0000 0.0000 22.8801
#
#
#
# Elastic Compliance Matrix: (Units=1/GPa)
#
#
# Indices 1 2 3 4 5 6 
#
# 1 0.019999 -0.004086 -0.004418 0.000000 0.000000 0.000000
# 2 -0.004086 0.011991 -0.003035 0.000000 0.000000 0.000000
# 3 -0.004418 -0.003035 0.009580 0.000000 0.000000 0.000000
# 4 0.000000 0.000000 0.000000 0.045831 0.000000 0.000000
# 5 0.000000 0.000000 0.000000 0.000000 0.026784 0.000000
# 6 0.000000 0.000000 0.000000 0.000000 0.000000 0.043706
#
#
# Mechanical properties :
#
#
# Convention : Reuss Voigt Hill
#
# Bulk Modulus (GPa) = 54.07469 61.72417 57.89943
# Shear Modulus (GPa) = 26.71880 29.00494 27.86187
#
# Velocity S-wave (km/s) = 3.64639 3.79919 3.72358
# Velocity P-wave (km/s) = 6.68114 7.06832 6.87746
#
# Compressibility (1/GPa) = 0.01849294
#
# Stress axis : x y z
#
# Youngs Moduli (GPa) = 50.00239 83.39259 104.37973
#
# Poissons Ratio (x) = 0.34073 0.46115
# Poissons Ratio (y) = 0.20430 0.31681
# Poissons Ratio (z) = 0.22091 0.25311
#
# Static dielectric constant tensor:
#      x y z
#    x 3.437490 0.000000 0.000000 
#    y 0.000000 3.774450 0.000000 
#    z 0.000000 0.000000 3.677790 
# 
# 
# High freq. dielectric constant tensor:
#      x y z
#    x 1.758320 0.000000 0.000000 
#    y 0.000000 1.799250 0.000000 
#    z 0.000000 0.000000 1.789480 
# 
# From -- ./inp_files/25486.got.cif
#   From: 2010.03.12/outbox.cif.g09.slc.cpg/sg59_13_cif.got.tgz:25486.got - 2010.04.16 16:29:54.
