data_PCOD8241653
_publ_section_title
;
Structure prediction by ZEFSAII (Michael W. Deem and Ramdas Pophale) SiO2 
 PCOD8241653
Probable space group: P M M N
;
_chemical_formula_sum "Si O2"
_cell_formula_units_Z 56
_cell_length_a 19.429911
_cell_length_b 9.069158
_cell_length_c 16.238691
_cell_angle_alpha 90.000000
_cell_angle_beta 90.000000
_cell_angle_gamma 90.000000
_cell_volume 2861.467366
_symmetry_space_group_name_H-M "P M M N"
_symmetry_group_IT_number 59
_space_group.IT_coordinate_system_code '2'
_symmetry_cell_setting 'orthorhombic'
loop_
_space_group_symop_operation_xyz
x,y,z
1/2-x,1/2-y,z
1/2+x,-y,-z
-x,1/2+y,-z
-x,-y,-z
1/2+x,1/2+y,-z
1/2-x,y,z
x,1/2-y,z
loop_
_atom_site_type_symbol
_atom_site_label
_atom_site_fract_x
_atom_site_fract_y
_atom_site_fract_z
Si Si1 0.673702 0.424513 0.022084
Si Si2 0.327893 0.576189 0.160902
Si Si3 0.669915 0.581145 0.320549
Si Si4 0.170390 0.578066 0.512767
Si Si5 0.447297 0.081316 0.249548
Si Si6 0.590866 0.422276 0.178135
Si Si7 0.949486 0.577286 0.564076
O O1 0.750000 0.482751 0.047789
O O2 0.676647 0.250000 0.017515
O O3 0.616167 0.474696 0.087846
O O4 0.654511 0.484290 0.931065
O O5 0.250000 0.529833 0.184709
O O6 0.335629 0.750000 0.163889
O O7 0.380578 0.511647 0.226626
O O8 0.750000 0.565542 0.301469
O O9 0.649271 0.750000 0.338538
O O10 0.648784 0.482268 0.398109
O O11 0.630452 0.522340 0.242180
O O12 0.250000 0.547793 0.493417
O O13 0.152148 0.750000 0.510035
O O14 0.126810 0.490481 0.444962
O O15 0.424594 0.250000 0.244021
O O16 0.509613 0.046966 0.186717
O O17 0.472746 0.044427 0.342249
O O18 0.607821 0.250000 0.194069
O O19 0.948394 0.750000 0.544743
O O20 0.000000 0.500000 0.500000
#
# Coordination Sequence:
#
# PCOD8241653 Si02
#       7
#     8   8   8   8   8   8   8
#     4   8  15  30  54  82 109 141 182 225 267 311
#     4   9  19  37  59  81 106 140 185 230 270 321
#     4  10  20  33  51  79 114 147 180 222 273 326
#     4  10  21  37  57  80 105 137 182 232 280 333
#     4  10  23  38  53  80 112 141 176 221 274 326
#     4  10  19  33  54  79 110 147 186 223 263 321
#     4  11  23  39  58  80 111 147 183 227 278 332
#
# _framework density 19.570378999999999
#
# number of rings (size 3 to 8) (size 9 to 14) (size 15 to 20)
#    0.000    2.286    0.000    3.429    0.000    6.571 
#    0.000    3.571    0.000    0.857    0.000    0.000 
#    0.000    0.000    0.000    0.000    0.000    0.000 
#
# Total GULP energy -694383.311768 kJ/mol
# GULP energy per Si atom -12399.701996 kJ/mol
# Density = 1.952584 g / cm^3
# Si number density = 19.570379 Si / 1000 Ang^3
#
#
#
# Elastic Constant Matrix: (Units=GPa)
#
#
# Indices 1 2 3 4 5 6 
#
# 1 101.7812 46.5461 62.3978 0.0000 0.0000 0.0000
# 2 46.5461 70.1449 37.0513 0.0000 0.0000 0.0000
# 3 62.3978 37.0513 89.6525 0.0000 0.0000 0.0000
# 4 0.0000 0.0000 0.0000 25.7291 0.0000 0.0000
# 5 0.0000 0.0000 0.0000 0.0000 39.1174 0.0000
# 6 0.0000 0.0000 0.0000 0.0000 0.0000 32.7410
#
#
#
# Elastic Compliance Matrix: (Units=1/GPa)
#
#
# Indices 1 2 3 4 5 6 
#
# 1 0.019804 -0.007498 -0.010685 0.000000 0.000000 0.000000
# 2 -0.007498 0.021076 -0.003492 0.000000 0.000000 0.000000
# 3 -0.010685 -0.003492 0.020034 0.000000 0.000000 0.000000
# 4 0.000000 0.000000 0.000000 0.038867 0.000000 0.000000
# 5 0.000000 0.000000 0.000000 0.000000 0.025564 0.000000
# 6 0.000000 0.000000 0.000000 0.000000 0.000000 0.030543
#
#
# Mechanical properties :
#
#
# Convention : Reuss Voigt Hill
#
# Bulk Modulus (GPa) = 56.93117 61.50766 59.21941
# Shear Modulus (GPa) = 24.37930 27.22306 25.80118
#
# Velocity S-wave (km/s) = 3.53331 3.73370 3.63489
# Velocity P-wave (km/s) = 6.76752 7.07705 6.92401
#
# Compressibility (1/GPa) = 0.01756507
#
# Stress axis : x y z
#
# Youngs Moduli (GPa) = 50.49381 47.44775 49.91475
#
# Poissons Ratio (x) = 0.35574 0.53335
# Poissons Ratio (y) = 0.37858 0.17430
# Poissons Ratio (z) = 0.53954 0.16568
#
# Static dielectric constant tensor:
#      x y z
#    x 3.697430 0.000000 0.000000 
#    y 0.000000 3.417630 0.000000 
#    z 0.000000 0.000000 3.750620 
# 
# 
# High freq. dielectric constant tensor:
#      x y z
#    x 1.766490 0.000000 0.000000 
#    y 0.000000 1.747660 0.000000 
#    z 0.000000 0.000000 1.761470 
# 
# From -- ./inp_files/24281.got.cif
#   From: 2010.03.12/outbox.cif.g09.slc.cpg/sg59_13_cif.got.tgz:24281.got - 2010.04.16 16:29:54.
