data_PCOD8241848
_publ_section_title
;
Structure prediction by ZEFSAII (Michael W. Deem and Ramdas Pophale) SiO2 
 PCOD8241848
Probable space group: P M M N
;
_chemical_formula_sum "Si O2"
_cell_formula_units_Z 48
_cell_length_a 18.271705
_cell_length_b 12.710250
_cell_length_c 10.641174
_cell_angle_alpha 90.000000
_cell_angle_beta 90.000000
_cell_angle_gamma 90.000000
_cell_volume 2471.284313
_symmetry_space_group_name_H-M "P M M N"
_symmetry_group_IT_number 59
_space_group.IT_coordinate_system_code '2'
_symmetry_cell_setting 'orthorhombic'
loop_
_space_group_symop_operation_xyz
x,y,z
1/2-x,1/2-y,z
1/2+x,-y,-z
-x,1/2+y,-z
-x,-y,-z
1/2+x,1/2+y,-z
1/2-x,y,z
x,1/2-y,z
loop_
_atom_site_type_symbol
_atom_site_label
_atom_site_fract_x
_atom_site_fract_y
_atom_site_fract_z
Si Si1 0.884050 0.015348 0.504433
Si Si2 0.496466 0.373518 0.358648
Si Si3 0.333335 0.627084 0.251014
Si Si4 0.830102 0.627363 0.034402
Si Si5 0.167088 0.364118 0.696282
Si Si6 0.554171 0.984518 0.883771
O O1 0.838020 0.068108 0.615110
O O2 0.927022 0.105939 0.428860
O O3 0.934442 0.920924 0.553051
O O4 0.832870 0.954932 0.406749
O O5 0.484883 0.250000 0.337405
O O6 0.494443 0.435429 0.226998
O O7 0.250000 0.607906 0.199305
O O8 0.347243 0.750000 0.271757
O O9 0.399318 0.587790 0.159861
O O10 0.750000 0.573154 0.016032
O O11 0.820183 0.750000 0.025832
O O12 0.867729 0.597862 0.170088
O O13 0.882701 0.595977 0.921515
O O14 0.250000 0.342204 0.733456
O O15 0.132933 0.250000 0.652886
O O16 0.500000 0.000000 0.000000
#
# Coordination Sequence:
#
# PCOD8241848 Si02
#       6
#     8   8   8   8   8   8
#     4  10  19  34  54  76 105 138 174 219 271 325
#     4  10  21  34  50  75 104 135 173 217 267 324
#     4  10  22  39  58  80 108 146 189 230 275 331
#     4   9  18  33  53  77 106 140 178 221 269 324
#     4   9  17  30  51  78 104 132 170 216 265 317
#     4  11  22  36  55  79 108 143 181 226 276 325
#
# _framework density 19.423098
#
# number of rings (size 3 to 8) (size 9 to 14) (size 15 to 20)
#    0.000    2.167    0.000    4.500    0.000    1.333 
#    0.000    4.167    0.000    8.000    0.000    7.000 
#    0.000    0.000    0.000    0.000    0.000    0.000 
#
# Total GULP energy -594676.133048 kJ/mol
# GULP energy per Si atom -12389.086105 kJ/mol
# Density = 1.937889 g / cm^3
# Si number density = 19.423098 Si / 1000 Ang^3
#
#
#
# Elastic Constant Matrix: (Units=GPa)
#
#
# Indices 1 2 3 4 5 6 
#
# 1 66.6793 24.1082 22.2606 0.0000 0.0000 0.0000
# 2 24.1082 82.5432 16.6471 0.0000 0.0000 0.0000
# 3 22.2606 16.6471 70.6047 0.0000 0.0000 0.0000
# 4 0.0000 0.0000 0.0000 30.0187 0.0000 0.0000
# 5 0.0000 0.0000 0.0000 0.0000 30.7909 0.0000
# 6 0.0000 0.0000 0.0000 0.0000 0.0000 20.9905
#
#
#
# Elastic Compliance Matrix: (Units=1/GPa)
#
#
# Indices 1 2 3 4 5 6 
#
# 1 0.018137 -0.004351 -0.004692 0.000000 0.000000 0.000000
# 2 -0.004351 0.013763 -0.001873 0.000000 0.000000 0.000000
# 3 -0.004692 -0.001873 0.016085 0.000000 0.000000 0.000000
# 4 0.000000 0.000000 0.000000 0.033313 0.000000 0.000000
# 5 0.000000 0.000000 0.000000 0.000000 0.032477 0.000000
# 6 0.000000 0.000000 0.000000 0.000000 0.000000 0.047641
#
#
# Mechanical properties :
#
#
# Convention : Reuss Voigt Hill
#
# Bulk Modulus (GPa) = 38.23875 38.42878 38.33377
# Shear Modulus (GPa) = 26.04638 26.81413 26.43026
#
# Velocity S-wave (km/s) = 3.66594 3.71958 3.69286
# Velocity P-wave (km/s) = 6.13586 6.18668 6.16133
#
# Compressibility (1/GPa) = 0.02615148
#
# Stress axis : x y z
#
# Youngs Moduli (GPa) = 55.13668 72.65645 62.17164
#
# Poissons Ratio (x) = 0.31611 0.29174
# Poissons Ratio (y) = 0.23989 0.11647
# Poissons Ratio (z) = 0.25872 0.13611
#
# Static dielectric constant tensor:
#      x y z
#    x 3.475840 0.000000 0.000000 
#    y 0.000000 3.383330 0.000000 
#    z 0.000000 0.000000 3.790100 
# 
# 
# High freq. dielectric constant tensor:
#      x y z
#    x 1.750850 0.000000 0.000000 
#    y 0.000000 1.748140 0.000000 
#    z 0.000000 0.000000 1.763460 
# 
# From -- ./inp_files/15764.got.cif
#   From: 2010.03.12/outbox.cif.g09.slc.cpg/sg59_8_cif.got.tgz:15764.got - 2010.04.16 16:29:54.
