data_PCOD8241918
_publ_section_title
;
Structure prediction by ZEFSAII (Michael W. Deem and Ramdas Pophale) SiO2 
 PCOD8241918
Probable space group: P M M N
;
_chemical_formula_sum "Si O2"
_cell_formula_units_Z 56
_cell_length_a 23.975492
_cell_length_b 8.569982
_cell_length_c 14.700798
_cell_angle_alpha 90.000000
_cell_angle_beta 90.000000
_cell_angle_gamma 90.000000
_cell_volume 3020.566127
_symmetry_space_group_name_H-M "P M M N"
_symmetry_group_IT_number 59
_space_group.IT_coordinate_system_code '2'
_symmetry_cell_setting 'orthorhombic'
loop_
_space_group_symop_operation_xyz
x,y,z
1/2-x,1/2-y,z
1/2+x,-y,-z
-x,1/2+y,-z
-x,-y,-z
1/2+x,1/2+y,-z
1/2-x,y,z
x,1/2-y,z
loop_
_atom_site_type_symbol
_atom_site_label
_atom_site_fract_x
_atom_site_fract_y
_atom_site_fract_z
Si Si1 0.647369 0.072725 0.211240
Si Si2 0.459945 0.068518 0.130945
Si Si3 0.575983 0.431376 0.044325
Si Si4 0.367429 0.432568 0.459581
Si Si5 0.452744 0.568563 0.324781
Si Si6 0.750000 0.432979 0.493150
Si Si7 0.750000 0.927359 0.299278
Si Si8 0.432003 0.928483 0.624446
O O1 0.669469 0.250000 0.218808
O O2 0.629008 0.034279 0.108288
O O3 0.593836 0.050131 0.275726
O O4 0.695983 0.954896 0.237608
O O5 0.457711 0.250000 0.155420
O O6 0.520989 0.014250 0.098598
O O7 0.443272 0.972986 0.219864
O O8 0.417024 0.027983 0.049136
O O9 0.570989 0.250000 0.019670
O O10 0.369118 0.250000 0.439405
O O11 0.396870 0.524025 0.377977
O O12 0.303941 0.489324 0.462380
O O13 0.397811 0.465224 0.554991
O O14 0.465420 0.750000 0.334855
O O15 0.503641 0.476011 0.370913
O O16 0.750000 0.250000 0.512789
O O17 0.750000 0.457623 0.384711
O O18 0.750000 0.750000 0.334799
O O19 0.428060 0.750000 0.590798
#
# Coordination Sequence:
#
# PCOD8241918 Si02
#       8
#     8   8   8   8   8   4   4   8
#     4  10  20  36  58  81 115 155 192 233 285 342
#     4  10  19  34  55  83 115 147 185 231 282 339
#     4   9  18  34  55  82 112 147 186 227 280 340
#     4  12  25  41  60  84 114 151 195 242 289 343
#     4  12  24  38  57  84 118 157 196 238 288 346
#     4  12  24  42  62  83 112 149 194 240 288 340
#     4  12  24  36  56  85 116 149 196 240 284 340
#     4  11  21  37  58  84 118 155 191 235 287 345
#
# _framework density 18.539570000000001
#
# number of rings (size 3 to 8) (size 9 to 14) (size 15 to 20)
#    0.000    1.143    2.857    5.143    0.000    1.714 
#    0.000    0.000    0.000    0.857    0.000    3.000 
#    0.000    0.000    0.000    0.000    0.000    0.000 
#
# Total GULP energy -694716.939021 kJ/mol
# GULP energy per Si atom -12405.659625 kJ/mol
# Density = 1.849737 g / cm^3
# Si number density = 18.539570 Si / 1000 Ang^3
#
#
#
# Elastic Constant Matrix: (Units=GPa)
#
#
# Indices 1 2 3 4 5 6 
#
# 1 98.6170 19.4645 38.1590 0.0000 0.0000 0.0000
# 2 19.4645 74.0314 21.2936 0.0000 0.0000 0.0000
# 3 38.1590 21.2936 85.1349 0.0000 0.0000 0.0000
# 4 0.0000 0.0000 0.0000 31.1076 0.0000 0.0000
# 5 0.0000 0.0000 0.0000 0.0000 14.5268 0.0000
# 6 0.0000 0.0000 0.0000 0.0000 0.0000 28.9737
#
#
#
# Elastic Compliance Matrix: (Units=1/GPa)
#
#
# Indices 1 2 3 4 5 6 
#
# 1 0.012487 -0.001803 -0.005146 0.000000 0.000000 0.000000
# 2 -0.001803 0.014815 -0.002897 0.000000 0.000000 0.000000
# 3 -0.005146 -0.002897 0.014777 0.000000 0.000000 0.000000
# 4 0.000000 0.000000 0.000000 0.032146 0.000000 0.000000
# 5 0.000000 0.000000 0.000000 0.000000 0.068838 0.000000
# 6 0.000000 0.000000 0.000000 0.000000 0.000000 0.034514
#
#
# Mechanical properties :
#
#
# Convention : Reuss Voigt Hill
#
# Bulk Modulus (GPa) = 44.66898 46.17970 45.42434
# Shear Modulus (GPa) = 24.42191 26.84603 25.63397
#
# Velocity S-wave (km/s) = 3.63338 3.80944 3.72245
# Velocity P-wave (km/s) = 6.46128 6.65672 6.55973
#
# Compressibility (1/GPa) = 0.02238690
#
# Stress axis : x y z
#
# Youngs Moduli (GPa) = 80.08105 67.49820 67.67130
#
# Poissons Ratio (x) = 0.12170 0.34824
# Poissons Ratio (y) = 0.14439 0.19607
# Poissons Ratio (z) = 0.41210 0.19557
#
# Static dielectric constant tensor:
#      x y z
#    x 3.298130 0.000000 0.000000 
#    y 0.000000 3.442940 0.000000 
#    z 0.000000 0.000000 3.433950 
# 
# 
# High freq. dielectric constant tensor:
#      x y z
#    x 1.701100 0.000000 0.000000 
#    y 0.000000 1.728700 0.000000 
#    z 0.000000 0.000000 1.716540 
# 
# From -- ./inp_files/24353.got.cif
#   From: 2010.03.12/outbox.cif.g09.slc.cpg/sg59_13_cif.got.tgz:24353.got - 2010.04.16 16:29:54.
