data_PCOD8241659
_publ_section_title
;
Structure prediction by ZEFSAII (Michael W. Deem and Ramdas Pophale) SiO2 
 PCOD8241659
Probable space group: P M M N
;
_chemical_formula_sum "Si O2"
_cell_formula_units_Z 56
_cell_length_a 9.354266
_cell_length_b 23.413996
_cell_length_c 13.623943
_cell_angle_alpha 90.000000
_cell_angle_beta 90.000000
_cell_angle_gamma 90.000000
_cell_volume 2983.926169
_symmetry_space_group_name_H-M "P M M N"
_symmetry_group_IT_number 59
_space_group.IT_coordinate_system_code '2'
_symmetry_cell_setting 'orthorhombic'
loop_
_space_group_symop_operation_xyz
x,y,z
1/2-x,1/2-y,z
1/2+x,-y,-z
-x,1/2+y,-z
-x,-y,-z
1/2+x,1/2+y,-z
1/2-x,y,z
x,1/2-y,z
loop_
_atom_site_type_symbol
_atom_site_label
_atom_site_fract_x
_atom_site_fract_y
_atom_site_fract_z
Si Si1 0.091399 0.311894 0.263190
Si Si2 0.915150 0.417732 0.743897
Si Si3 0.413974 0.389247 0.451579
Si Si4 0.091408 0.893904 0.840467
Si Si5 0.585263 0.316434 0.609361
Si Si6 0.089974 0.948847 0.041273
Si Si7 0.920325 0.477868 0.330518
O O1 0.250000 0.307044 0.221483
O O2 0.029476 0.250000 0.291322
O O3 0.085283 0.350434 0.357287
O O4 0.000441 0.337868 0.175662
O O5 0.750000 0.437057 0.732810
O O6 0.932078 0.351437 0.711528
O O7 0.968206 0.422559 0.856890
O O8 0.012764 0.458547 0.675053
O O9 0.250000 0.405827 0.480845
O O10 0.486556 0.350600 0.534085
O O11 0.506797 0.445465 0.423516
O O12 0.250000 0.880509 0.803697
O O13 0.038849 0.947645 0.773700
O O14 0.084636 0.901767 0.956692
O O15 0.750000 0.318303 0.573616
O O16 0.536413 0.250000 0.622465
O O17 0.250000 0.971728 0.057319
O O18 0.000000 0.000000 0.000000
O O19 0.750000 0.481854 0.347795
#
# Coordination Sequence:
#
# PCOD8241659 Si02
#       7
#     8   8   8   8   8   8   8
#     4   9  18  32  50  74 104 137 174 216 264 318
#     4  10  21  36  56  81 110 143 182 226 274 325
#     4  10  20  35  57  82 108 141 182 226 273 328
#     4   9  18  31  48  76 109 137 172 215 261 316
#     4  10  22  40  58  77 105 144 188 230 270 316
#     4  10  19  33  54  80 108 139 178 219 267 326
#     4  10  19  33  54  83 116 143 173 219 274 328
#
# _framework density 18.767219999999998
#
# number of rings (size 3 to 8) (size 9 to 14) (size 15 to 20)
#    0.000    2.286    1.429    1.286    0.000    4.000 
#    0.000    0.714    0.000    2.571    0.000    0.000 
#    0.000    0.000    0.000    0.000    0.000    0.000 
#
# Total GULP energy -694022.561533 kJ/mol
# GULP energy per Si atom -12393.260027 kJ/mol
# Density = 1.872451 g / cm^3
# Si number density = 18.767220 Si / 1000 Ang^3
#
#
#
# Elastic Constant Matrix: (Units=GPa)
#
#
# Indices 1 2 3 4 5 6 
#
# 1 81.1610 45.2113 44.2339 0.0000 0.0000 0.0000
# 2 45.2113 106.6378 42.9001 0.0000 0.0000 0.0000
# 3 44.2339 42.9001 79.5400 0.0000 0.0000 0.0000
# 4 0.0000 0.0000 0.0000 6.5369 0.0000 0.0000
# 5 0.0000 0.0000 0.0000 0.0000 23.0162 0.0000
# 6 0.0000 0.0000 0.0000 0.0000 0.0000 27.8627
#
#
#
# Elastic Compliance Matrix: (Units=1/GPa)
#
#
# Indices 1 2 3 4 5 6 
#
# 1 0.019569 -0.005004 -0.008184 0.000000 0.000000 0.000000
# 2 -0.005004 0.013256 -0.004367 0.000000 0.000000 0.000000
# 3 -0.008184 -0.004367 0.019479 0.000000 0.000000 0.000000
# 4 0.000000 0.000000 0.000000 0.152977 0.000000 0.000000
# 5 0.000000 0.000000 0.000000 0.000000 0.043448 0.000000
# 6 0.000000 0.000000 0.000000 0.000000 0.000000 0.035890
#
#
# Mechanical properties :
#
#
# Convention : Reuss Voigt Hill
#
# Bulk Modulus (GPa) = 58.15890 59.11439 58.63664
# Shear Modulus (GPa) = 15.36291 20.48274 17.92283
#
# Velocity S-wave (km/s) = 2.86423 3.30723 3.09367
# Velocity P-wave (km/s) = 6.48038 6.79344 6.63876
#
# Compressibility (1/GPa) = 0.01719427
#
# Stress axis : x y z
#
# Youngs Moduli (GPa) = 51.10069 75.43792 51.33863
#
# Poissons Ratio (x) = 0.37753 0.42014
# Poissons Ratio (y) = 0.25573 0.22417
# Poissons Ratio (z) = 0.41819 0.32940
#
# Static dielectric constant tensor:
#      x y z
#    x 3.645370 0.000000 0.000000 
#    y 0.000000 3.569460 0.000000 
#    z 0.000000 0.000000 3.621200 
# 
# 
# High freq. dielectric constant tensor:
#      x y z
#    x 1.731500 0.000000 0.000000 
#    y 0.000000 1.720420 0.000000 
#    z 0.000000 0.000000 1.721810 
# 
# From -- ./inp_files/21040.got.cif
#   From: 2010.03.12/outbox.cif.g09.slc.cpg/sg59_11_cif.got.tgz:21040.got - 2010.04.16 16:29:54.
