data_PCOD8241383
_publ_section_title
;
Structure prediction by ZEFSAII (Michael W. Deem and Ramdas Pophale) SiO2 
 PCOD8241383
Probable space group: P M M N
;
_chemical_formula_sum "Si O2"
_cell_formula_units_Z 48
_cell_length_a 18.060549
_cell_length_b 8.967842
_cell_length_c 16.199276
_cell_angle_alpha 90.000000
_cell_angle_beta 90.000000
_cell_angle_gamma 90.000000
_cell_volume 2623.701966
_symmetry_space_group_name_H-M "P M M N"
_symmetry_group_IT_number 59
_space_group.IT_coordinate_system_code '2'
_symmetry_cell_setting 'orthorhombic'
loop_
_space_group_symop_operation_xyz
x,y,z
1/2-x,1/2-y,z
1/2+x,-y,-z
-x,1/2+y,-z
-x,-y,-z
1/2+x,1/2+y,-z
1/2-x,y,z
x,1/2-y,z
loop_
_atom_site_type_symbol
_atom_site_label
_atom_site_fract_x
_atom_site_fract_y
_atom_site_fract_z
Si Si1 0.834205 0.576455 0.839212
Si Si2 0.093144 0.075335 0.330389
Si Si3 0.532119 0.422953 0.920129
Si Si4 0.664759 0.423975 0.341464
Si Si5 0.420340 0.574642 0.492790
Si Si6 0.042580 0.423736 0.749697
O O1 0.750000 0.531842 0.858606
O O2 0.849085 0.750000 0.855196
O O3 0.850988 0.536956 0.743909
O O4 0.886395 0.484826 0.900328
O O5 0.088454 0.250000 0.348528
O O6 0.121325 0.990821 0.412103
O O7 0.011193 0.018008 0.309031
O O8 0.540362 0.250000 0.938535
O O9 0.476082 0.455485 0.845062
O O10 0.500000 0.500000 0.000000
O O11 0.750000 0.471398 0.341964
O O12 0.654741 0.250000 0.322148
O O13 0.630297 0.466903 0.429591
O O14 0.625186 0.518767 0.269141
O O15 0.500000 0.500000 0.500000
O O16 0.430677 0.750000 0.483121
O O17 0.033884 0.250000 0.728595
#
# Coordination Sequence:
#
# PCOD8241383 Si02
#       6
#     8   8   8   8   8   8
#     4   9  19  36  57  82 114 148 181 224 277 327
#     4  10  19  32  53  79 107 143 183 221 267 324
#     4  10  21  37  59  87 113 142 181 223 270 330
#     4  10  22  38  54  75 106 144 184 227 275 321
#     4  11  21  33  52  77 107 144 187 230 272 320
#     4  10  20  35  56  80 105 136 178 222 266 319
#
# _framework density 18.294761000000001
#
# number of rings (size 3 to 8) (size 9 to 14) (size 15 to 20)
#    0.000    2.000    1.667    2.000    0.000    4.667 
#    0.000    0.833    0.000    1.000    0.000    0.000 
#    0.000    0.000    0.000    0.000    0.000    0.000 
#
# Total GULP energy -595358.229758 kJ/mol
# GULP energy per Si atom -12403.296453 kJ/mol
# Density = 1.825312 g / cm^3
# Si number density = 18.294761 Si / 1000 Ang^3
#
#
#
# Elastic Constant Matrix: (Units=GPa)
#
#
# Indices 1 2 3 4 5 6 
#
# 1 131.8709 59.8345 66.2557 0.0000 0.0000 0.0000
# 2 59.8345 88.2610 61.8163 0.0000 0.0000 0.0000
# 3 66.2557 61.8163 115.4376 0.0000 0.0000 0.0000
# 4 0.0000 0.0000 0.0000 36.1787 0.0000 0.0000
# 5 0.0000 0.0000 0.0000 0.0000 23.7403 0.0000
# 6 0.0000 0.0000 0.0000 0.0000 0.0000 27.3677
#
#
#
# Elastic Compliance Matrix: (Units=1/GPa)
#
#
# Indices 1 2 3 4 5 6 
#
# 1 0.012035 -0.005314 -0.004062 0.000000 0.000000 0.000000
# 2 -0.005314 0.020476 -0.007915 0.000000 0.000000 0.000000
# 3 -0.004062 -0.007915 0.015232 0.000000 0.000000 0.000000
# 4 0.000000 0.000000 0.000000 0.027641 0.000000 0.000000
# 5 0.000000 0.000000 0.000000 0.000000 0.042123 0.000000
# 6 0.000000 0.000000 0.000000 0.000000 0.000000 0.036539
#
#
# Mechanical properties :
#
#
# Convention : Reuss Voigt Hill
#
# Bulk Modulus (GPa) = 75.97666 79.04250 77.50958
# Shear Modulus (GPa) = 25.90474 27.30153 26.60313
#
# Velocity S-wave (km/s) = 3.76701 3.86724 3.81745
# Velocity P-wave (km/s) = 7.78074 7.95233 7.86700
#
# Compressibility (1/GPa) = 0.01316194
#
# Stress axis : x y z
#
# Youngs Moduli (GPa) = 83.08958 48.83789 65.64967
#
# Poissons Ratio (x) = 0.25953 0.26667
# Poissons Ratio (y) = 0.44154 0.51960
# Poissons Ratio (z) = 0.33751 0.38654
#
# Static dielectric constant tensor:
#      x y z
#    x 3.444890 0.000000 0.000000 
#    y 0.000000 3.437240 0.000000 
#    z 0.000000 0.000000 3.482630 
# 
# 
# High freq. dielectric constant tensor:
#      x y z
#    x 1.698030 0.000000 0.000000 
#    y 0.000000 1.718520 0.000000 
#    z 0.000000 0.000000 1.706490 
# 
# From -- ./inp_files/20291.got.cif
#   From: 2010.03.12/outbox.cif.g09.slc.cpg/sg59_11_cif.got.tgz:20291.got - 2010.04.16 16:29:54.
