data_PCOD8241086
_publ_section_title
;
Structure prediction by ZEFSAII (Michael W. Deem and Ramdas Pophale) SiO2 
 PCOD8241086
Probable space group: P M M N
;
_chemical_formula_sum "Si O2"
_cell_formula_units_Z 64
_cell_length_a 9.040835
_cell_length_b 28.092086
_cell_length_c 15.431920
_cell_angle_alpha 90.000000
_cell_angle_beta 90.000000
_cell_angle_gamma 90.000000
_cell_volume 3919.335992
_symmetry_space_group_name_H-M "P M M N"
_symmetry_group_IT_number 59
_space_group.IT_coordinate_system_code '2'
_symmetry_cell_setting 'orthorhombic'
loop_
_space_group_symop_operation_xyz
x,y,z
1/2-x,1/2-y,z
1/2+x,-y,-z
-x,1/2+y,-z
-x,-y,-z
1/2+x,1/2+y,-z
1/2-x,y,z
x,1/2-y,z
loop_
_atom_site_type_symbol
_atom_site_label
_atom_site_fract_x
_atom_site_fract_y
_atom_site_fract_z
Si Si1 0.080438 0.693865 0.497524
Si Si2 0.419160 0.543174 0.399810
Si Si3 0.421572 0.551960 0.599223
Si Si4 0.578484 0.143233 0.675726
Si Si5 0.413764 0.193597 0.018950
Si Si6 0.580619 0.306364 0.187055
Si Si7 0.425177 0.196430 0.827442
Si Si8 0.074721 0.144470 0.344725
O O1 0.250000 0.677714 0.514637
O O2 0.066610 0.750000 0.490737
O O3 0.020720 0.671618 0.408297
O O4 0.980768 0.675711 0.575299
O O5 0.250000 0.525850 0.393699
O O6 0.453668 0.559917 0.497607
O O7 0.524159 0.500094 0.371196
O O8 0.450907 0.587168 0.336426
O O9 0.250000 0.556973 0.621883
O O10 0.511328 0.591240 0.652174
O O11 0.750000 0.154450 0.689865
O O12 0.491373 0.159626 0.759730
O O13 0.250000 0.172162 0.037164
O O14 0.401329 0.250000 0.019768
O O15 0.471609 0.178393 0.923601
O O16 0.527727 0.176059 0.092225
O O17 0.750000 0.321924 0.200300
O O18 0.562393 0.250000 0.197385
O O19 0.477737 0.331313 0.256781
O O20 0.250000 0.196328 0.819305
O O21 0.485447 0.250000 0.809934
O O22 0.250000 0.142508 0.346461
#
# Coordination Sequence:
#
# PCOD8241086 Si02
#       8
#     8   8   8   8   8   8   8   8
#     4  10  20  34  48  64  94 134 170 202 238 279
#     4   9  18  33  51  71  95 122 159 204 249 290
#     4  10  19  34  53  70  93 123 160 204 249 290
#     4  10  19  32  49  70  97 130 164 200 241 287
#     4   8  15  30  49  68  94 127 161 201 246 284
#     4  10  20  33  50  72  98 128 163 203 244 288
#     4   9  18  31  47  70 101 133 165 203 242 282
#     4  12  23  33  48  70  97 129 165 200 241 291
#
# _framework density 16.329297
#
# number of rings (size 3 to 8) (size 9 to 14) (size 15 to 20)
#    0.000    2.250    1.250    3.375    0.000    5.250 
#    0.000    1.250    0.000    0.000    0.000    0.875 
#    0.000    0.000    0.000    0.000    0.000    0.000 
#
# Total GULP energy -793661.663471 kJ/mol
# GULP energy per Si atom -12400.963492 kJ/mol
# Density = 1.629213 g / cm^3
# Si number density = 16.329297 Si / 1000 Ang^3
#
#
#
# Elastic Constant Matrix: (Units=GPa)
#
#
# Indices 1 2 3 4 5 6 
#
# 1 81.7444 38.7961 47.1586 0.0000 0.0000 0.0000
# 2 38.7961 63.9400 40.7209 0.0000 0.0000 0.0000
# 3 47.1586 40.7209 109.0098 0.0000 0.0000 0.0000
# 4 0.0000 0.0000 0.0000 6.5725 0.0000 0.0000
# 5 0.0000 0.0000 0.0000 0.0000 27.0965 0.0000
# 6 0.0000 0.0000 0.0000 0.0000 0.0000 27.0871
#
#
#
# Elastic Compliance Matrix: (Units=1/GPa)
#
#
# Indices 1 2 3 4 5 6 
#
# 1 0.019180 -0.008337 -0.005183 0.000000 0.000000 0.000000
# 2 -0.008337 0.024145 -0.005413 0.000000 0.000000 0.000000
# 3 -0.005183 -0.005413 0.013438 0.000000 0.000000 0.000000
# 4 0.000000 0.000000 0.000000 0.152150 0.000000 0.000000
# 5 0.000000 0.000000 0.000000 0.000000 0.036905 0.000000
# 6 0.000000 0.000000 0.000000 0.000000 0.000000 0.036918
#
#
# Mechanical properties :
#
#
# Convention : Reuss Voigt Hill
#
# Bulk Modulus (GPa) = 52.91749 56.44948 54.68348
# Shear Modulus (GPa) = 15.29512 20.68578 17.99045
#
# Velocity S-wave (km/s) = 3.06382 3.56306 3.32283
# Velocity P-wave (km/s) = 6.70767 7.18134 6.94854
#
# Compressibility (1/GPa) = 0.01889735
#
# Stress axis : x y z
#
# Youngs Moduli (GPa) = 52.13738 41.41588 74.41637
#
# Poissons Ratio (x) = 0.34527 0.38572
# Poissons Ratio (y) = 0.43465 0.40282
# Poissons Ratio (z) = 0.27024 0.22419
#
# Static dielectric constant tensor:
#      x y z
#    x 3.163800 0.000000 0.000000 
#    y 0.000000 2.953630 0.000000 
#    z 0.000000 0.000000 3.181330 
# 
# 
# High freq. dielectric constant tensor:
#      x y z
#    x 1.631650 0.000000 0.000000 
#    y 0.000000 1.609960 0.000000 
#    z 0.000000 0.000000 1.617740 
# 
# From -- ./inp_files/21888.got.cif
#   From: 2010.03.12/outbox.cif.g09.slc.cpg/sg59_11_cif.got.tgz:21888.got - 2010.04.16 16:29:54.
