data_PCOD8241506
_publ_section_title
;
Structure prediction by ZEFSAII (Michael W. Deem and Ramdas Pophale) SiO2 
 PCOD8241506
Probable space group: P M M N
;
_chemical_formula_sum "Si O2"
_cell_formula_units_Z 64
_cell_length_a 15.570616
_cell_length_b 12.983431
_cell_length_c 16.822402
_cell_angle_alpha 90.000000
_cell_angle_beta 90.000000
_cell_angle_gamma 90.000000
_cell_volume 3400.817099
_symmetry_space_group_name_H-M "P M M N"
_symmetry_group_IT_number 59
_space_group.IT_coordinate_system_code '2'
_symmetry_cell_setting 'orthorhombic'
loop_
_space_group_symop_operation_xyz
x,y,z
1/2-x,1/2-y,z
1/2+x,-y,-z
-x,1/2+y,-z
-x,-y,-z
1/2+x,1/2+y,-z
1/2-x,y,z
x,1/2-y,z
loop_
_atom_site_type_symbol
_atom_site_label
_atom_site_fract_x
_atom_site_fract_y
_atom_site_fract_z
Si Si1 0.560351 0.490223 0.144048
Si Si2 0.104572 0.368200 0.144806
Si Si3 0.848925 0.987437 0.697792
Si Si4 0.654423 0.635108 0.028073
Si Si5 0.148906 0.047305 0.619028
Si Si6 0.150644 0.636998 0.724603
Si Si7 0.500926 0.867615 0.277990
Si Si8 0.649279 0.863206 0.546278
O O1 0.488923 0.408237 0.118553
O O2 0.601584 0.541770 0.066564
O O3 0.627727 0.427197 0.197049
O O4 0.519015 0.582908 0.193030
O O5 0.099288 0.250000 0.172388
O O6 0.144065 0.432705 0.217066
O O7 0.162182 0.381713 0.066613
O O8 0.750000 0.023051 0.684599
O O9 0.881581 0.909448 0.629714
O O10 0.913552 0.082792 0.687590
O O11 0.750000 0.630211 0.063810
O O12 0.615401 0.750000 0.045439
O O13 0.250000 0.074286 0.636419
O O14 0.125673 0.060377 0.526342
O O15 0.085529 0.122530 0.667027
O O16 0.127347 0.930058 0.646076
O O17 0.250000 0.657506 0.728331
O O18 0.104532 0.750000 0.720333
O O19 0.479472 0.750000 0.264478
O O20 0.750000 0.848898 0.549292
O O21 0.606847 0.750000 0.533907
#
# Coordination Sequence:
#
# PCOD8241506 Si02
#       8
#     8   8   8   8   8   8   8   8
#     4  10  19  33  51  74 103 134 170 210 259 315
#     4  10  20  34  54  78 103 133 171 218 269 315
#     4  10  21  36  54  76 104 140 181 222 264 310
#     4  10  20  33  51  76 104 134 170 213 261 312
#     4   9  18  33  53  78 107 137 171 214 265 317
#     4   9  17  30  49  73 104 140 173 208 253 309
#     4  10  21  35  52  75 103 136 175 216 261 316
#     4   9  17  31  53  79 106 137 175 220 267 313
#
# _framework density 18.819006000000002
#
# number of rings (size 3 to 8) (size 9 to 14) (size 15 to 20)
#    0.000    2.375    0.000    2.625    0.000    3.250 
#    0.000    1.250    0.000    3.000    0.000    0.000 
#    0.000    0.000    0.000    0.000    0.000    0.000 
#
# Total GULP energy -793183.905929 kJ/mol
# GULP energy per Si atom -12393.498530 kJ/mol
# Density = 1.877617 g / cm^3
# Si number density = 18.819006 Si / 1000 Ang^3
#
#
#
# Elastic Constant Matrix: (Units=GPa)
#
#
# Indices 1 2 3 4 5 6 
#
# 1 59.6159 22.7006 16.4525 0.0000 0.0000 0.0000
# 2 22.7006 122.0993 39.7689 0.0000 0.0000 0.0000
# 3 16.4525 39.7689 84.9474 0.0000 0.0000 0.0000
# 4 0.0000 0.0000 0.0000 20.4608 0.0000 0.0000
# 5 0.0000 0.0000 0.0000 0.0000 20.9320 0.0000
# 6 0.0000 0.0000 0.0000 0.0000 0.0000 23.3774
#
#
#
# Elastic Compliance Matrix: (Units=1/GPa)
#
#
# Indices 1 2 3 4 5 6 
#
# 1 0.018431 -0.002671 -0.002319 0.000000 0.000000 0.000000
# 2 -0.002671 0.010051 -0.004188 0.000000 0.000000 0.000000
# 3 -0.002319 -0.004188 0.014182 0.000000 0.000000 0.000000
# 4 0.000000 0.000000 0.000000 0.048874 0.000000 0.000000
# 5 0.000000 0.000000 0.000000 0.000000 0.047774 0.000000
# 6 0.000000 0.000000 0.000000 0.000000 0.000000 0.042776
#
#
# Mechanical properties :
#
#
# Convention : Reuss Voigt Hill
#
# Bulk Modulus (GPa) = 41.14056 47.16740 44.15398
# Shear Modulus (GPa) = 23.97539 25.47008 24.72274
#
# Velocity S-wave (km/s) = 3.57318 3.68288 3.62845
# Velocity P-wave (km/s) = 6.23956 6.57289 6.40840
#
# Compressibility (1/GPa) = 0.02430691
#
# Stress axis : x y z
#
# Youngs Moduli (GPa) = 54.25560 99.49481 70.51295
#
# Poissons Ratio (x) = 0.26579 0.16353
# Poissons Ratio (y) = 0.14494 0.29531
# Poissons Ratio (z) = 0.12583 0.41668
#
# Static dielectric constant tensor:
#      x y z
#    x 3.410110 0.000000 0.000000 
#    y 0.000000 3.569870 0.000000 
#    z 0.000000 0.000000 3.403820 
# 
# 
# High freq. dielectric constant tensor:
#      x y z
#    x 1.723780 0.000000 0.000000 
#    y 0.000000 1.729510 0.000000 
#    z 0.000000 0.000000 1.726510 
# 
# From -- ./inp_files/27676.got.cif
#   From: 2010.03.12/outbox.cif.g09.slc.cpg/sg59_14_cif.got.tgz:27676.got - 2010.04.16 16:29:54.
