data_PCOD8241268
_publ_section_title
;
Structure prediction by ZEFSAII (Michael W. Deem and Ramdas Pophale) SiO2 
 PCOD8241268
Probable space group: P M M N
;
_chemical_formula_sum "Si O2"
_cell_formula_units_Z 64
_cell_length_a 9.222934
_cell_length_b 15.795893
_cell_length_c 23.434339
_cell_angle_alpha 90.000000
_cell_angle_beta 90.000000
_cell_angle_gamma 90.000000
_cell_volume 3414.019459
_symmetry_space_group_name_H-M "P M M N"
_symmetry_group_IT_number 59
_space_group.IT_coordinate_system_code '2'
_symmetry_cell_setting 'orthorhombic'
loop_
_space_group_symop_operation_xyz
x,y,z
1/2-x,1/2-y,z
1/2+x,-y,-z
-x,1/2+y,-z
-x,-y,-z
1/2+x,1/2+y,-z
1/2-x,y,z
x,1/2-y,z
loop_
_atom_site_type_symbol
_atom_site_label
_atom_site_fract_x
_atom_site_fract_y
_atom_site_fract_z
Si Si1 0.580088 0.569116 0.835856
Si Si2 0.581888 0.101402 0.767948
Si Si3 0.590914 0.152916 0.253999
Si Si4 0.917416 0.847476 0.637703
Si Si5 0.910504 0.658537 0.131973
Si Si6 0.080395 0.504327 0.440699
Si Si7 0.922309 0.152695 0.643396
Si Si8 0.577302 0.997503 0.060208
O O1 0.750000 0.583107 0.847445
O O2 0.548974 0.492034 0.792113
O O3 0.506853 0.646701 0.802882
O O4 0.496929 0.563308 0.896225
O O5 0.750000 0.122293 0.768541
O O6 0.507541 0.165316 0.811736
O O7 0.519698 0.117879 0.704499
O O8 0.750000 0.109045 0.246887
O O9 0.615288 0.250000 0.266576
O O10 0.507356 0.116494 0.308843
O O11 0.750000 0.852978 0.655843
O O12 0.956370 0.750000 0.619855
O O13 0.952366 0.913222 0.587584
O O14 0.750000 0.630815 0.151666
O O15 0.910995 0.750000 0.102125
O O16 0.966049 0.594218 0.084375
O O17 0.250000 0.516095 0.451501
O O18 0.022010 0.585500 0.404180
O O19 0.000000 0.500000 0.500000
O O20 0.750000 0.151912 0.643990
O O21 0.977257 0.250000 0.632074
O O22 0.750000 0.013572 0.054820
O O23 0.500000 0.000000 0.000000
#
# Coordination Sequence:
#
# PCOD8241268 Si02
#       8
#     8   8   8   8   8   8   8   8
#     4  10  19  32  52  76 102 135 171 207 252 306
#     4   9  17  30  51  77 101 127 162 200 240 295
#     4  10  20  33  51  78 108 133 163 208 259 310
#     4   9  18  34  55  75  98 132 171 212 259 309
#     4   9  18  32  50  74 103 131 159 197 248 301
#     4  10  21  36  52  72  98 130 171 213 251 298
#     4   9  17  30  49  73 101 131 160 195 243 297
#     4  10  20  35  53  72  98 134 176 219 258 301
#
# _framework density 18.746233
#
# number of rings (size 3 to 8) (size 9 to 14) (size 15 to 20)
#    0.000    2.500    0.000    2.250    0.000    5.500 
#    0.000    1.250    0.000    3.000    0.000    0.000 
#    0.000    0.000    0.000    0.000    0.000    0.000 
#
# Total GULP energy -793110.252755 kJ/mol
# GULP energy per Si atom -12392.347699 kJ/mol
# Density = 1.870357 g / cm^3
# Si number density = 18.746233 Si / 1000 Ang^3
#
#
#
# Elastic Constant Matrix: (Units=GPa)
#
#
# Indices 1 2 3 4 5 6 
#
# 1 82.5239 26.5937 64.5351 0.0000 0.0000 0.0000
# 2 26.5937 67.5989 53.8547 0.0000 0.0000 0.0000
# 3 64.5351 53.8547 165.0767 0.0000 0.0000 0.0000
# 4 0.0000 0.0000 0.0000 20.9876 0.0000 0.0000
# 5 0.0000 0.0000 0.0000 0.0000 36.3571 0.0000
# 6 0.0000 0.0000 0.0000 0.0000 0.0000 18.1857
#
#
#
# Elastic Compliance Matrix: (Units=1/GPa)
#
#
# Indices 1 2 3 4 5 6 
#
# 1 0.017643 -0.001954 -0.006260 0.000000 0.000000 0.000000
# 2 -0.001954 0.020205 -0.005828 0.000000 0.000000 0.000000
# 3 -0.006260 -0.005828 0.010406 0.000000 0.000000 0.000000
# 4 0.000000 0.000000 0.000000 0.047647 0.000000 0.000000
# 5 0.000000 0.000000 0.000000 0.000000 0.027505 0.000000
# 6 0.000000 0.000000 0.000000 0.000000 0.000000 0.054988
#
#
# Mechanical properties :
#
#
# Convention : Reuss Voigt Hill
#
# Bulk Modulus (GPa) = 49.57623 67.24072 58.40847
# Shear Modulus (GPa) = 23.45217 26.45381 24.95299
#
# Velocity S-wave (km/s) = 3.54083 3.76061 3.65237
# Velocity P-wave (km/s) = 6.57419 7.40291 7.00082
#
# Compressibility (1/GPa) = 0.02017096
#
# Stress axis : x y z
#
# Youngs Moduli (GPa) = 56.68120 49.49371 96.09567
#
# Poissons Ratio (x) = 0.09669 0.60154
# Poissons Ratio (y) = 0.11073 0.56003
# Poissons Ratio (z) = 0.35482 0.28844
#
# Static dielectric constant tensor:
#      x y z
#    x 3.564860 0.000000 0.000000 
#    y 0.000000 3.618510 0.000000 
#    z 0.000000 0.000000 3.348220 
# 
# 
# High freq. dielectric constant tensor:
#      x y z
#    x 1.719020 0.000000 0.000000 
#    y 0.000000 1.726300 0.000000 
#    z 0.000000 0.000000 1.719000 
# 
# From -- ./inp_files/29496.got.cif
#   From: 2010.03.12/outbox.cif.g09.slc.cpg/sg59_15_cif.got.tgz:29496.got - 2010.04.16 16:29:54.
