data_PCOD8241337
_publ_section_title
;
Structure prediction by ZEFSAII (Michael W. Deem and Ramdas Pophale) SiO2 
 PCOD8241337
Probable space group: P M M N
;
_chemical_formula_sum "Si O2"
_cell_formula_units_Z 56
_cell_length_a 9.166630
_cell_length_b 22.158463
_cell_length_c 14.781431
_cell_angle_alpha 90.000000
_cell_angle_beta 90.000000
_cell_angle_gamma 90.000000
_cell_volume 3002.381083
_symmetry_space_group_name_H-M "P M M N"
_symmetry_group_IT_number 59
_space_group.IT_coordinate_system_code '2'
_symmetry_cell_setting 'orthorhombic'
loop_
_space_group_symop_operation_xyz
x,y,z
1/2-x,1/2-y,z
1/2+x,-y,-z
-x,1/2+y,-z
-x,-y,-z
1/2+x,1/2+y,-z
1/2-x,y,z
x,1/2-y,z
loop_
_atom_site_type_symbol
_atom_site_label
_atom_site_fract_x
_atom_site_fract_y
_atom_site_fract_z
Si Si1 0.919868 0.645974 0.620922
Si Si2 0.087590 0.179542 0.576486
Si Si3 0.580757 0.443811 0.902111
Si Si4 0.920246 0.181543 0.203672
Si Si5 0.917560 0.510286 0.591898
Si Si6 0.578843 0.581721 0.918064
Si Si7 0.420012 0.900634 0.291092
O O1 0.750000 0.664872 0.630207
O O2 0.980687 0.662874 0.521203
O O3 0.943665 0.575135 0.636378
O O4 0.013455 0.680559 0.695565
O O5 0.250000 0.151653 0.580077
O O6 0.090988 0.250000 0.589247
O O7 0.997622 0.154919 0.660905
O O8 0.750000 0.437372 0.930233
O O9 0.547016 0.514301 0.880556
O O10 0.542198 0.403779 0.814742
O O11 0.480480 0.416058 0.979934
O O12 0.750000 0.164923 0.207912
O O13 0.941916 0.250000 0.166119
O O14 0.000168 0.132861 0.140719
O O15 0.750000 0.500250 0.568488
O O16 0.975370 0.462659 0.664620
O O17 0.000000 0.500000 0.500000
O O18 0.750000 0.596323 0.917084
O O19 0.250000 0.891646 0.305990
#
# Coordination Sequence:
#
# PCOD8241337 Si02
#       7
#     8   8   8   8   8   8   8
#     4  10  20  36  57  79 108 147 187 227 276 331
#     4  10  21  36  53  74 104 144 188 230 267 312
#     4   9  19  37  60  86 115 144 178 224 279 337
#     4  11  24  39  56  82 115 150 189 233 280 334
#     4  10  19  32  52  80 111 142 179 223 271 322
#     4  10  20  37  62  88 113 142 179 226 279 338
#     4  10  20  34  54  80 111 144 178 220 269 322
#
# _framework density 18.651862999999999
#
# number of rings (size 3 to 8) (size 9 to 14) (size 15 to 20)
#    0.000    2.000    1.429    2.143    0.000    6.571 
#    0.000    2.143    0.000    0.857    0.000    0.000 
#    0.000    0.000    0.000    0.000    0.000    0.000 
#
# Total GULP energy -694399.829490 kJ/mol
# GULP energy per Si atom -12399.996955 kJ/mol
# Density = 1.860941 g / cm^3
# Si number density = 18.651863 Si / 1000 Ang^3
#
#
#
# Elastic Constant Matrix: (Units=GPa)
#
#
# Indices 1 2 3 4 5 6 
#
# 1 78.6447 34.8962 56.7066 0.0000 0.0000 0.0000
# 2 34.8962 67.0310 42.1676 0.0000 0.0000 0.0000
# 3 56.7066 42.1676 111.7199 0.0000 0.0000 0.0000
# 4 0.0000 0.0000 0.0000 27.4724 0.0000 0.0000
# 5 0.0000 0.0000 0.0000 0.0000 33.5652 0.0000
# 6 0.0000 0.0000 0.0000 0.0000 0.0000 29.6138
#
#
#
# Elastic Compliance Matrix: (Units=1/GPa)
#
#
# Indices 1 2 3 4 5 6 
#
# 1 0.021598 -0.005701 -0.008811 0.000000 0.000000 0.000000
# 2 -0.005701 0.021069 -0.005058 0.000000 0.000000 0.000000
# 3 -0.008811 -0.005058 0.015332 0.000000 0.000000 0.000000
# 4 0.000000 0.000000 0.000000 0.036400 0.000000 0.000000
# 5 0.000000 0.000000 0.000000 0.000000 0.029793 0.000000
# 6 0.000000 0.000000 0.000000 0.000000 0.000000 0.033768
#
#
# Mechanical properties :
#
#
# Convention : Reuss Voigt Hill
#
# Bulk Modulus (GPa) = 53.02710 58.32626 55.67668
# Shear Modulus (GPa) = 24.58364 26.37196 25.47780
#
# Velocity S-wave (km/s) = 3.63440 3.76427 3.69991
# Velocity P-wave (km/s) = 6.78995 7.08745 6.94029
#
# Compressibility (1/GPa) = 0.01885828
#
# Stress axis : x y z
#
# Youngs Moduli (GPa) = 46.30006 47.46399 65.22141
#
# Poissons Ratio (x) = 0.27060 0.57466
# Poissons Ratio (y) = 0.26397 0.32991
# Poissons Ratio (z) = 0.40795 0.24009
#
# Static dielectric constant tensor:
#      x y z
#    x 3.425780 0.000000 0.000000 
#    y 0.000000 3.420640 0.000000 
#    z 0.000000 0.000000 3.522600 
# 
# 
# High freq. dielectric constant tensor:
#      x y z
#    x 1.720230 0.000000 0.000000 
#    y 0.000000 1.722630 0.000000 
#    z 0.000000 0.000000 1.724150 
# 
# From -- ./inp_files/21001.got.cif
#   From: 2010.03.12/outbox.cif.g09.slc.cpg/sg59_11_cif.got.tgz:21001.got - 2010.04.16 16:29:54.
