data_PCOD8241931
_publ_section_title
;
Structure prediction by ZEFSAII (Michael W. Deem and Ramdas Pophale) SiO2 
 PCOD8241931
Probable space group: P M M N
;
_chemical_formula_sum "Si O2"
_cell_formula_units_Z 64
_cell_length_a 9.351422
_cell_length_b 18.967086
_cell_length_c 19.049150
_cell_angle_alpha 90.000000
_cell_angle_beta 90.000000
_cell_angle_gamma 90.000000
_cell_volume 3378.732978
_symmetry_space_group_name_H-M "P M M N"
_symmetry_group_IT_number 59
_space_group.IT_coordinate_system_code '2'
_symmetry_cell_setting 'orthorhombic'
loop_
_space_group_symop_operation_xyz
x,y,z
1/2-x,1/2-y,z
1/2+x,-y,-z
-x,1/2+y,-z
-x,-y,-z
1/2+x,1/2+y,-z
1/2-x,y,z
x,1/2-y,z
loop_
_atom_site_type_symbol
_atom_site_label
_atom_site_fract_x
_atom_site_fract_y
_atom_site_fract_z
Si Si1 0.918060 0.570494 0.143702
Si Si2 0.085171 0.450034 0.552657
Si Si3 0.588531 0.827147 0.801870
Si Si4 0.911458 0.367343 0.321186
Si Si5 0.083201 0.831609 0.046107
Si Si6 0.089161 0.027851 0.705571
Si Si7 0.915248 0.081900 0.092024
Si Si8 0.587973 0.669668 0.549104
O O1 0.750000 0.586070 0.145863
O O2 0.980639 0.558972 0.222979
O O3 0.946945 0.501804 0.094394
O O4 0.997203 0.638637 0.112646
O O5 0.250000 0.477296 0.556339
O O6 0.015656 0.450243 0.631296
O O7 0.076832 0.370101 0.525167
O O8 0.000000 0.500000 0.500000
O O9 0.750000 0.852947 0.788438
O O10 0.586713 0.750000 0.838021
O O11 0.507742 0.818101 0.727809
O O12 0.511351 0.883317 0.849411
O O13 0.750000 0.338078 0.325559
O O14 0.914261 0.444124 0.286951
O O15 0.979397 0.368461 0.398251
O O16 0.250000 0.836949 0.063124
O O17 0.039821 0.750000 0.031446
O O18 0.042148 0.882175 0.981282
O O19 0.250000 0.056587 0.703021
O O20 0.750000 0.097311 0.110093
O O21 0.750000 0.664554 0.578547
O O22 0.541411 0.750000 0.536805
#
# Coordination Sequence:
#
# PCOD8241931 Si02
#       8
#     8   8   8   8   8   8   8   8
#     4  10  20  37  60  85 112 143 187 237 279 325
#     4  10  19  34  56  79 108 143 180 224 272 322
#     4  11  23  35  49  77 117 153 186 226 271 327
#     4  11  20  34  55  77 108 148 186 226 273 331
#     4  10  22  39  58  83 115 150 188 230 280 337
#     4   9  18  34  55  82 111 137 179 234 276 323
#     4  10  20  37  60  84 112 148 186 227 277 335
#     4  10  21  35  51  77 112 145 180 226 279 333
#
# _framework density 18.942012999999999
#
# number of rings (size 3 to 8) (size 9 to 14) (size 15 to 20)
#    0.000    1.875    2.500    1.875    0.000    4.500 
#    0.000    1.250    0.000    2.250    0.000    0.000 
#    0.000    0.000    0.000    0.000    0.000    0.000 
#
# Total GULP energy -793375.803103 kJ/mol
# GULP energy per Si atom -12396.496923 kJ/mol
# Density = 1.889890 g / cm^3
# Si number density = 18.942013 Si / 1000 Ang^3
#
#
#
# Elastic Constant Matrix: (Units=GPa)
#
#
# Indices 1 2 3 4 5 6 
#
# 1 65.8235 31.7565 42.5191 0.0000 0.0000 0.0000
# 2 31.7565 72.7351 49.0951 0.0000 0.0000 0.0000
# 3 42.5191 49.0951 128.4734 0.0000 0.0000 0.0000
# 4 0.0000 0.0000 0.0000 25.1821 0.0000 0.0000
# 5 0.0000 0.0000 0.0000 0.0000 27.4157 0.0000
# 6 0.0000 0.0000 0.0000 0.0000 0.0000 23.4479
#
#
#
# Elastic Compliance Matrix: (Units=1/GPa)
#
#
# Indices 1 2 3 4 5 6 
#
# 1 0.021144 -0.006075 -0.004676 0.000000 0.000000 0.000000
# 2 -0.006075 0.020273 -0.005737 0.000000 0.000000 0.000000
# 3 -0.004676 -0.005737 0.011523 0.000000 0.000000 0.000000
# 4 0.000000 0.000000 0.000000 0.039711 0.000000 0.000000
# 5 0.000000 0.000000 0.000000 0.000000 0.036475 0.000000
# 6 0.000000 0.000000 0.000000 0.000000 0.000000 0.042648
#
#
# Mechanical properties :
#
#
# Convention : Reuss Voigt Hill
#
# Bulk Modulus (GPa) = 50.08868 57.08596 53.58732
# Shear Modulus (GPa) = 23.65133 24.78655 24.21894
#
# Velocity S-wave (km/s) = 3.53741 3.62131 3.57961
# Velocity P-wave (km/s) = 6.57153 6.90564 6.74065
#
# Compressibility (1/GPa) = 0.01996459
#
# Stress axis : x y z
#
# Youngs Moduli (GPa) = 47.29563 49.32649 86.77944
#
# Poissons Ratio (x) = 0.29967 0.40578
# Poissons Ratio (y) = 0.28733 0.49782
# Poissons Ratio (z) = 0.22116 0.28297
#
# Static dielectric constant tensor:
#      x y z
#    x 3.376940 0.000000 0.000000 
#    y 0.000000 3.391010 0.000000 
#    z 0.000000 0.000000 3.638720 
# 
# 
# High freq. dielectric constant tensor:
#      x y z
#    x 1.721400 0.000000 0.000000 
#    y 0.000000 1.727620 0.000000 
#    z 0.000000 0.000000 1.736910 
# 
# From -- ./inp_files/26191.got.cif
#   From: 2010.03.12/outbox.cif.g09.slc.cpg/sg59_14_cif.got.tgz:26191.got - 2010.04.16 16:29:54.
