data_PCOD8241135
_publ_section_title
;
Structure prediction by ZEFSAII (Michael W. Deem and Ramdas Pophale) SiO2 
 PCOD8241135
Probable space group: P M M N
;
_chemical_formula_sum "Si O2"
_cell_formula_units_Z 56
_cell_length_a 18.744488
_cell_length_b 9.519340
_cell_length_c 17.982289
_cell_angle_alpha 90.000000
_cell_angle_beta 90.000000
_cell_angle_gamma 90.000000
_cell_volume 3208.672514
_symmetry_space_group_name_H-M "P M M N"
_symmetry_group_IT_number 59
_space_group.IT_coordinate_system_code '2'
_symmetry_cell_setting 'orthorhombic'
loop_
_space_group_symop_operation_xyz
x,y,z
1/2-x,1/2-y,z
1/2+x,-y,-z
-x,1/2+y,-z
-x,-y,-z
1/2+x,1/2+y,-z
1/2-x,y,z
x,1/2-y,z
loop_
_atom_site_type_symbol
_atom_site_label
_atom_site_fract_x
_atom_site_fract_y
_atom_site_fract_z
Si Si1 0.926301 0.413883 0.698224
Si Si2 0.829267 0.916565 0.969418
Si Si3 0.164964 0.089227 0.190641
Si Si4 0.168979 0.416827 0.870731
Si Si5 0.565330 0.411394 0.529779
Si Si6 0.087811 0.083992 0.726980
Si Si7 0.667783 0.088615 0.397621
O O1 0.912558 0.250000 0.709690
O O2 0.868265 0.494832 0.745866
O O3 0.915083 0.459441 0.612897
O O4 0.005107 0.457054 0.724898
O O5 0.750000 0.979343 0.972381
O O6 0.824890 0.750000 0.966242
O O7 0.864805 0.964279 0.890979
O O8 0.864667 0.964224 0.048459
O O9 0.250000 0.073649 0.192413
O O10 0.142412 0.250000 0.204873
O O11 0.250000 0.473572 0.860535
O O12 0.170467 0.250000 0.867196
O O13 0.119390 0.474733 0.804709
O O14 0.500000 0.500000 0.500000
O O15 0.540198 0.250000 0.530255
O O16 0.634626 0.435026 0.479096
O O17 0.098999 0.250000 0.717608
O O18 0.128470 0.010437 0.660152
O O19 0.750000 0.044560 0.402184
O O20 0.658651 0.250000 0.372349
#
# Coordination Sequence:
#
# PCOD8241135 Si02
#       7
#     8   8   8   8   8   8   8
#     4  10  21  34  50  74 103 134 164 199 251 307
#     4   7  11  23  44  69  95 124 162 206 248 289
#     4   9  18  33  53  75  97 125 168 216 252 290
#     4   8  13  23  44  72  98 127 164 206 248 287
#     4  10  20  36  55  73  97 133 171 204 244 298
#     4  10  19  32  50  75 104 133 168 205 244 294
#     4  10  21  35  52  75 101 131 167 207 252 299
#
# _framework density 17.4527
#
# number of rings (size 3 to 8) (size 9 to 14) (size 15 to 20)
#    0.000    2.857    1.429    2.143    0.000    2.857 
#    0.000    2.143    0.000    0.857    0.000    2.000 
#    0.000    0.000    0.000    0.000    0.000    0.000 
#
# Total GULP energy -693890.495167 kJ/mol
# GULP energy per Si atom -12390.901699 kJ/mol
# Density = 1.741298 g / cm^3
# Si number density = 17.452700 Si / 1000 Ang^3
#
#
#
# Elastic Constant Matrix: (Units=GPa)
#
#
# Indices 1 2 3 4 5 6 
#
# 1 58.1161 26.3526 47.5971 0.0000 0.0000 0.0000
# 2 26.3526 34.0128 41.7463 0.0000 0.0000 0.0000
# 3 47.5971 41.7463 171.9888 0.0000 0.0000 0.0000
# 4 0.0000 0.0000 0.0000 20.3150 0.0000 0.0000
# 5 0.0000 0.0000 0.0000 0.0000 20.2321 0.0000
# 6 0.0000 0.0000 0.0000 0.0000 0.0000 18.9813
#
#
#
# Elastic Compliance Matrix: (Units=1/GPa)
#
#
# Indices 1 2 3 4 5 6 
#
# 1 0.027955 -0.017325 -0.003531 0.000000 0.000000 0.000000
# 2 -0.017325 0.052613 -0.007976 0.000000 0.000000 0.000000
# 3 -0.003531 -0.007976 0.008728 0.000000 0.000000 0.000000
# 4 0.000000 0.000000 0.000000 0.049225 0.000000 0.000000
# 5 0.000000 0.000000 0.000000 0.000000 0.049426 0.000000
# 6 0.000000 0.000000 0.000000 0.000000 0.000000 0.052684
#
#
# Mechanical properties :
#
#
# Convention : Reuss Voigt Hill
#
# Bulk Modulus (GPa) = 31.61406 55.05663 43.33535
# Shear Modulus (GPa) = 16.18967 21.80046 18.99507
#
# Velocity S-wave (km/s) = 3.04901 3.53812 3.30263
# Velocity P-wave (km/s) = 5.52709 6.95023 6.27911
#
# Compressibility (1/GPa) = 0.03163149
#
# Stress axis : x y z
#
# Youngs Moduli (GPa) = 35.77194 19.00654 114.57936
#
# Poissons Ratio (x) = 0.32929 0.40460
# Poissons Ratio (y) = 0.61975 0.91390
# Poissons Ratio (z) = 0.12632 0.15160
#
# Static dielectric constant tensor:
#      x y z
#    x 3.147000 0.000000 0.000000 
#    y 0.000000 2.956640 0.000000 
#    z 0.000000 0.000000 3.770780 
# 
# 
# High freq. dielectric constant tensor:
#      x y z
#    x 1.654040 0.000000 0.000000 
#    y 0.000000 1.639640 0.000000 
#    z 0.000000 0.000000 1.699070 
# 
# From -- ./inp_files/28101.got.cif
#   From: 2010.03.12/outbox.cif.g09.slc.cpg/sg59_15_cif.got.tgz:28101.got - 2010.04.16 16:29:54.
