data_PCOD8241948
_publ_section_title
;
Structure prediction by ZEFSAII (Michael W. Deem and Ramdas Pophale) SiO2 
 PCOD8241948
Probable space group: P M M N
;
_chemical_formula_sum "Si O2"
_cell_formula_units_Z 48
_cell_length_a 31.174965
_cell_length_b 8.879395
_cell_length_c 8.983851
_cell_angle_alpha 90.000000
_cell_angle_beta 90.000000
_cell_angle_gamma 90.000000
_cell_volume 2486.863172
_symmetry_space_group_name_H-M "P M M N"
_symmetry_group_IT_number 59
_space_group.IT_coordinate_system_code '2'
_symmetry_cell_setting 'orthorhombic'
loop_
_space_group_symop_operation_xyz
x,y,z
1/2-x,1/2-y,z
1/2+x,-y,-z
-x,1/2+y,-z
-x,-y,-z
1/2+x,1/2+y,-z
1/2-x,y,z
x,1/2-y,z
loop_
_atom_site_type_symbol
_atom_site_label
_atom_site_fract_x
_atom_site_fract_y
_atom_site_fract_z
Si Si1 0.750000 0.929916 0.668964
Si Si2 0.084714 0.928161 0.664244
Si Si3 0.750000 0.571121 0.332935
Si Si4 0.665793 0.928602 0.834279
Si Si5 0.835469 0.929315 0.171058
Si Si6 0.917737 0.571979 0.655638
Si Si7 0.999209 0.426843 0.159972
O O1 0.750000 0.750000 0.668667
O O2 0.750000 0.992602 0.500776
O O3 0.708007 0.993017 0.752796
O O4 0.089647 0.750000 0.667285
O O5 0.042508 0.982584 0.751510
O O6 0.125303 0.002648 0.740249
O O7 0.080744 0.983165 0.496872
O O8 0.750000 0.750000 0.335640
O O9 0.708123 0.512115 0.247185
O O10 0.668131 0.750000 0.838380
O O11 0.623964 0.982565 0.745865
O O12 0.663786 0.990478 0.002314
O O13 0.838897 0.750000 0.177249
O O14 0.916664 0.750000 0.624033
O O15 0.958988 0.522441 0.749476
O O16 0.998883 0.250000 0.137160
O O17 0.000000 0.500000 0.000000
#
# Coordination Sequence:
#
# PCOD8241948 Si02
#       7
#     4   8   4   8   8   8   8
#     4   9  15  25  43  75 112 135 160 214 272 313
#     4  11  23  37  53  79 111 142 176 221 274 326
#     4   9  17  29  52  83 110 139 180 224 266 311
#     4   9  17  29  50  78 106 134 171 218 266 313
#     4  10  19  34  56  81 108 142 181 222 267 319
#     4  10  20  36  56  78 104 141 185 225 265 317
#     4  10  22  38  57  81 109 140 180 226 273 323
#
# _framework density 19.301424000000001
#
# number of rings (size 3 to 8) (size 9 to 14) (size 15 to 20)
#    0.000    2.167    0.000    3.500    0.000    8.000 
#    0.000    1.250    0.000    0.000    0.000    1.167 
#    0.000    0.000    0.000    0.000    0.000    0.000 
#
# Total GULP energy -595324.306613 kJ/mol
# GULP energy per Si atom -12402.589721 kJ/mol
# Density = 1.925749 g / cm^3
# Si number density = 19.301424 Si / 1000 Ang^3
#
#
#
# Elastic Constant Matrix: (Units=GPa)
#
#
# Indices 1 2 3 4 5 6 
#
# 1 207.0808 30.1302 101.3665 0.0000 0.0000 0.0000
# 2 30.1302 20.9826 29.4376 0.0000 0.0000 0.0000
# 3 101.3665 29.4376 189.5001 0.0000 0.0000 0.0000
# 4 0.0000 0.0000 0.0000 25.8597 0.0000 0.0000
# 5 0.0000 0.0000 0.0000 0.0000 42.8900 0.0000
# 6 0.0000 0.0000 0.0000 0.0000 0.0000 16.2867
#
#
#
# Elastic Compliance Matrix: (Units=1/GPa)
#
#
# Indices 1 2 3 4 5 6 
#
# 1 0.007130 -0.006250 -0.002843 0.000000 0.000000 0.000000
# 2 -0.006250 0.066418 -0.006974 0.000000 0.000000 0.000000
# 3 -0.002843 -0.006974 0.007881 0.000000 0.000000 0.000000
# 4 0.000000 0.000000 0.000000 0.038670 0.000000 0.000000
# 5 0.000000 0.000000 0.000000 0.000000 0.023315 0.000000
# 6 0.000000 0.000000 0.000000 0.000000 0.000000 0.061400
#
#
# Mechanical properties :
#
#
# Convention : Reuss Voigt Hill
#
# Bulk Modulus (GPa) = 20.28625 82.15913 51.22269
# Shear Modulus (GPa) = 19.73314 34.11590 26.92452
#
# Velocity S-wave (km/s) = 3.20092 4.20876 3.73895
# Velocity P-wave (km/s) = 4.91876 8.14107 6.72574
#
# Compressibility (1/GPa) = 0.04929448
#
# Stress axis : x y z
#
# Youngs Moduli (GPa) = 140.25059 15.05620 126.88228
#
# Poissons Ratio (x) = 0.09410 0.36074
# Poissons Ratio (y) = 0.87653 0.88494
# Poissons Ratio (z) = 0.39875 0.10501
#
# Static dielectric constant tensor:
#      x y z
#    x 4.215870 0.000000 0.000000 
#    y 0.000000 3.090490 0.000000 
#    z 0.000000 0.000000 3.724210 
# 
# 
# High freq. dielectric constant tensor:
#      x y z
#    x 1.774260 0.000000 0.000000 
#    y 0.000000 1.704050 0.000000 
#    z 0.000000 0.000000 1.772380 
# 
# From -- ./inp_files/12999.got.cif
#   From: 2010.03.12/outbox.cif.g09.slc.cpg/sg59_7_cif.got.tgz:12999.got - 2010.04.16 16:29:54.
