data_PCOD8241083
_publ_section_title
;
Structure prediction by ZEFSAII (Michael W. Deem and Ramdas Pophale) SiO2 
 PCOD8241083
Probable space group: P M M N
;
_chemical_formula_sum "Si O2"
_cell_formula_units_Z 64
_cell_length_a 9.040677
_cell_length_b 28.171306
_cell_length_c 15.434146
_cell_angle_alpha 90.000000
_cell_angle_beta 90.000000
_cell_angle_gamma 90.000000
_cell_volume 3930.886810
_symmetry_space_group_name_H-M "P M M N"
_symmetry_group_IT_number 59
_space_group.IT_coordinate_system_code '2'
_symmetry_cell_setting 'orthorhombic'
loop_
_space_group_symop_operation_xyz
x,y,z
1/2-x,1/2-y,z
1/2+x,-y,-z
-x,1/2+y,-z
-x,-y,-z
1/2+x,1/2+y,-z
1/2-x,y,z
x,1/2-y,z
loop_
_atom_site_type_symbol
_atom_site_label
_atom_site_fract_x
_atom_site_fract_y
_atom_site_fract_z
Si Si1 0.076391 0.148535 0.163391
Si Si2 0.577447 0.694981 0.659378
Si Si3 0.078382 0.452481 0.095927
Si Si4 0.916586 0.193622 0.511759
Si Si5 0.078150 0.194073 0.683971
Si Si6 0.925816 0.361087 0.838043
Si Si7 0.077595 0.452350 0.894863
Si Si8 0.078830 0.804420 0.994151
O O1 0.250000 0.155055 0.152558
O O2 0.023553 0.164764 0.258128
O O3 0.030337 0.093873 0.149620
O O4 0.004894 0.182575 0.092956
O O5 0.750000 0.687807 0.640526
O O6 0.541068 0.750000 0.677357
O O7 0.489028 0.674721 0.576945
O O8 0.250000 0.465285 0.108677
O O9 0.980779 0.495722 0.131647
O O10 0.043245 0.442527 0.995495
O O11 0.750000 0.173720 0.519980
O O12 0.916918 0.250000 0.509783
O O13 0.013672 0.175821 0.592548
O O14 0.250000 0.180649 0.688364
O O15 0.052708 0.250000 0.695538
O O16 0.989415 0.167654 0.758083
O O17 0.750000 0.362542 0.830524
O O18 0.990542 0.414105 0.837451
O O19 0.979857 0.335395 0.925681
O O20 0.250000 0.448910 0.873456
O O21 0.250000 0.814506 0.977750
O O22 0.047784 0.750000 0.017633
#
# Coordination Sequence:
#
# PCOD8241083 Si02
#       8
#     8   8   8   8   8   8   8   8
#     4  10  19  32  49  70  95 127 165 202 239 284
#     4   9  17  29  46  69  97 128 161 197 237 280
#     4   9  18  32  49  69  94 123 160 204 249 290
#     4   9  17  30  48  69  94 125 160 199 241 282
#     4  10  20  33  50  72  98 128 163 202 241 284
#     4  11  21  33  49  69  97 130 164 200 243 290
#     4  10  19  32  50  70  93 122 162 206 248 290
#     4  10  21  33  44  63  95 132 165 196 232 278
#
# _framework density 16.281313999999998
#
# number of rings (size 3 to 8) (size 9 to 14) (size 15 to 20)
#    0.000    2.250    1.250    2.250    0.000    5.500 
#    0.000    1.250    0.000    0.000    0.000    0.875 
#    0.000    0.000    0.000    0.000    0.000    0.000 
#
# Total GULP energy -793766.525872 kJ/mol
# GULP energy per Si atom -12402.601967 kJ/mol
# Density = 1.624426 g / cm^3
# Si number density = 16.281314 Si / 1000 Ang^3
#
#
#
# Elastic Constant Matrix: (Units=GPa)
#
#
# Indices 1 2 3 4 5 6 
#
# 1 73.9761 38.2178 45.3152 0.0000 0.0000 0.0000
# 2 38.2178 67.3209 38.8958 0.0000 0.0000 0.0000
# 3 45.3152 38.8958 99.3187 0.0000 0.0000 0.0000
# 4 0.0000 0.0000 0.0000 10.0386 0.0000 0.0000
# 5 0.0000 0.0000 0.0000 0.0000 28.8225 0.0000
# 6 0.0000 0.0000 0.0000 0.0000 0.0000 25.6623
#
#
#
# Elastic Compliance Matrix: (Units=1/GPa)
#
#
# Indices 1 2 3 4 5 6 
#
# 1 0.022097 -0.008684 -0.006681 0.000000 0.000000 0.000000
# 2 -0.008684 0.022611 -0.004893 0.000000 0.000000 0.000000
# 3 -0.006681 -0.004893 0.015033 0.000000 0.000000 0.000000
# 4 0.000000 0.000000 0.000000 0.099616 0.000000 0.000000
# 5 0.000000 0.000000 0.000000 0.000000 0.034695 0.000000
# 6 0.000000 0.000000 0.000000 0.000000 0.000000 0.038968
#
#
# Mechanical properties :
#
#
# Convention : Reuss Voigt Hill
#
# Bulk Modulus (GPa) = 52.01571 53.94147 52.97859
# Shear Modulus (GPa) = 17.86072 20.78380 19.32226
#
# Velocity S-wave (km/s) = 3.31570 3.57675 3.44870
# Velocity P-wave (km/s) = 6.83198 7.08945 6.96191
#
# Compressibility (1/GPa) = 0.01922496
#
# Stress axis : x y z
#
# Youngs Moduli (GPa) = 45.25522 44.22589 66.52022
#
# Poissons Ratio (x) = 0.38407 0.44442
# Poissons Ratio (y) = 0.39301 0.32547
# Poissons Ratio (z) = 0.30235 0.21639
#
# Static dielectric constant tensor:
#      x y z
#    x 3.136910 0.000000 0.000000 
#    y 0.000000 2.979160 0.000000 
#    z 0.000000 0.000000 3.079980 
# 
# 
# High freq. dielectric constant tensor:
#      x y z
#    x 1.635340 0.000000 0.000000 
#    y 0.000000 1.606120 0.000000 
#    z 0.000000 0.000000 1.615090 
# 
# From -- ./inp_files/21882.got.cif
#   From: 2010.03.12/outbox.cif.g09.slc.cpg/sg59_11_cif.got.tgz:21882.got - 2010.04.16 16:29:54.
