data_PCOD8241391
_publ_section_title
;
Structure prediction by ZEFSAII (Michael W. Deem and Ramdas Pophale) SiO2 
 PCOD8241391
Probable space group: P M M N
;
_chemical_formula_sum "Si O2"
_cell_formula_units_Z 32
_cell_length_a 8.947331
_cell_length_b 17.565806
_cell_length_c 11.573595
_cell_angle_alpha 90.000000
_cell_angle_beta 90.000000
_cell_angle_gamma 90.000000
_cell_volume 1818.988138
_symmetry_space_group_name_H-M "P M M N"
_symmetry_group_IT_number 59
_space_group.IT_coordinate_system_code '2'
_symmetry_cell_setting 'orthorhombic'
loop_
_space_group_symop_operation_xyz
x,y,z
1/2-x,1/2-y,z
1/2+x,-y,-z
-x,1/2+y,-z
-x,-y,-z
1/2+x,1/2+y,-z
1/2-x,y,z
x,1/2-y,z
loop_
_atom_site_type_symbol
_atom_site_label
_atom_site_fract_x
_atom_site_fract_y
_atom_site_fract_z
Si Si1 0.074932 0.555628 0.159535
Si Si2 0.427220 0.750000 0.786367
Si Si3 0.919468 0.666074 0.336763
Si Si4 0.927685 0.250000 0.476522
Si Si5 0.574397 0.404240 0.098896
O O1 0.250000 0.552142 0.181122
O O2 0.002353 0.605657 0.258590
O O3 0.009510 0.470954 0.167087
O O4 0.035256 0.593205 0.036536
O O5 0.250000 0.750000 0.790502
O O6 0.484257 0.750000 0.654942
O O7 0.487495 0.824650 0.851868
O O8 0.750000 0.638790 0.358862
O O9 0.921609 0.750000 0.276194
O O10 0.005720 0.674469 0.460050
O O11 0.750000 0.250000 0.486035
O O12 0.750000 0.414580 0.120352
#
# Coordination Sequence:
#
# PCOD8241391 Si02
#       5
#     8   4   8   4   8
#     4  10  19  32  53  80 107 135 171 210 253 302
#     4   9  18  34  55  76  98 137 174 205 256 309
#     4   9  19  33  52  75 102 134 168 210 259 299
#     4   9  17  32  53  76 100 127 174 219 250 301
#     4   9  19  34  53  76 108 138 167 208 257 309
#
# _framework density 17.592198
#
# number of rings (size 3 to 8) (size 9 to 14) (size 15 to 20)
#    0.750    2.000    0.000    1.500    1.750    1.000 
#    0.000    4.375    0.000    0.000    0.000    0.000 
#    0.000    0.000    0.000    0.000    0.000    0.000 
#
# Total GULP energy -396654.585835 kJ/mol
# GULP energy per Si atom -12395.455807 kJ/mol
# Density = 1.755216 g / cm^3
# Si number density = 17.592198 Si / 1000 Ang^3
#
#
#
# Elastic Constant Matrix: (Units=GPa)
#
#
# Indices 1 2 3 4 5 6 
#
# 1 67.6234 47.9626 38.3731 0.0000 0.0000 0.0000
# 2 47.9626 138.3293 78.9118 0.0000 0.0000 0.0000
# 3 38.3731 78.9118 103.2348 0.0000 0.0000 0.0000
# 4 0.0000 0.0000 0.0000 10.0968 0.0000 0.0000
# 5 0.0000 0.0000 0.0000 0.0000 17.4006 0.0000
# 6 0.0000 0.0000 0.0000 0.0000 0.0000 27.1112
#
#
#
# Elastic Compliance Matrix: (Units=1/GPa)
#
#
# Indices 1 2 3 4 5 6 
#
# 1 0.020446 -0.004883 -0.003867 0.000000 0.000000 0.000000
# 2 -0.004883 0.013985 -0.008875 0.000000 0.000000 0.000000
# 3 -0.003867 -0.008875 0.017908 0.000000 0.000000 0.000000
# 4 0.000000 0.000000 0.000000 0.099041 0.000000 0.000000
# 5 0.000000 0.000000 0.000000 0.000000 0.057469 0.000000
# 6 0.000000 0.000000 0.000000 0.000000 0.000000 0.036885
#
#
# Mechanical properties :
#
#
# Convention : Reuss Voigt Hill
#
# Bulk Modulus (GPa) = 58.51968 71.07583 64.79775
# Shear Modulus (GPa) = 17.44098 20.51771 18.97934
#
# Velocity S-wave (km/s) = 3.15207 3.41881 3.28815
# Velocity P-wave (km/s) = 6.82526 7.48826 7.16443
#
# Compressibility (1/GPa) = 0.01708827
#
# Stress axis : x y z
#
# Youngs Moduli (GPa) = 48.91043 71.50488 55.84027
#
# Poissons Ratio (x) = 0.34915 0.21595
# Poissons Ratio (y) = 0.23882 0.49559
# Poissons Ratio (z) = 0.18915 0.63461
#
# Static dielectric constant tensor:
#      x y z
#    x 3.209360 0.000000 0.000000 
#    y 0.000000 3.311440 0.000000 
#    z 0.000000 0.000000 3.168560 
# 
# 
# High freq. dielectric constant tensor:
#      x y z
#    x 1.680300 0.000000 0.000000 
#    y 0.000000 1.672880 0.000000 
#    z 0.000000 0.000000 1.668000 
# 
# From -- ./inp_files/13764.got.cif
#   From: 2010.03.12/outbox.cif.g09.slc.cpg/sg59_7_cif.got.tgz:13764.got - 2010.04.16 16:29:54.
