data_PCOD8241747
_publ_section_title
;
Structure prediction by ZEFSAII (Michael W. Deem and Ramdas Pophale) SiO2 
 PCOD8241747
Probable space group: P M M N
;
_chemical_formula_sum "Si O2"
_cell_formula_units_Z 48
_cell_length_a 8.919093
_cell_length_b 18.749268
_cell_length_c 14.890038
_cell_angle_alpha 90.000000
_cell_angle_beta 90.000000
_cell_angle_gamma 90.000000
_cell_volume 2490.008418
_symmetry_space_group_name_H-M "P M M N"
_symmetry_group_IT_number 59
_space_group.IT_coordinate_system_code '2'
_symmetry_cell_setting 'orthorhombic'
loop_
_space_group_symop_operation_xyz
x,y,z
1/2-x,1/2-y,z
1/2+x,-y,-z
-x,1/2+y,-z
-x,-y,-z
1/2+x,1/2+y,-z
1/2-x,y,z
x,1/2-y,z
loop_
_atom_site_type_symbol
_atom_site_label
_atom_site_fract_x
_atom_site_fract_y
_atom_site_fract_z
Si Si1 0.073182 0.832498 0.541678
Si Si2 0.575916 0.900902 0.047917
Si Si3 0.920415 0.168978 0.797532
Si Si4 0.572520 0.418023 0.629826
Si Si5 0.575175 0.444549 0.125123
Si Si6 0.427461 0.073272 0.315394
O O1 0.250000 0.842824 0.552963
O O2 0.031770 0.750000 0.525634
O O3 0.008614 0.879423 0.458906
O O4 0.993553 0.859487 0.631772
O O5 0.750000 0.892005 0.026461
O O6 0.519090 0.838440 0.112884
O O7 0.539660 0.974238 0.099348
O O8 0.486523 0.894770 0.954653
O O9 0.750000 0.145032 0.819013
O O10 0.925550 0.250000 0.764285
O O11 0.991378 0.121319 0.718083
O O12 0.750000 0.409302 0.630114
O O13 0.522253 0.500527 0.633593
O O14 0.750000 0.430109 0.138631
O O15 0.489541 0.424688 0.215252
O O16 0.250000 0.079071 0.310802
#
# Coordination Sequence:
#
# PCOD8241747 Si02
#       6
#     8   8   8   8   8   8
#     4  10  21  38  58  80 111 151 192 232 277 335
#     4  10  20  34  54  81 113 146 181 228 279 329
#     4  10  19  33  55  82 115 153 191 230 276 336
#     4   9  18  34  57  84 111 146 190 232 276 331
#     4  10  20  35  57  82 109 144 186 228 273 331
#     4  11  21  35  58  86 115 145 184 238 286 331
#
# _framework density 19.277044
#
# number of rings (size 3 to 8) (size 9 to 14) (size 15 to 20)
#    0.000    2.000    1.667    2.500    0.000    4.000 
#    0.000    2.500    0.000    7.000    0.000    0.000 
#    0.000    0.000    0.000    0.000    0.000    0.000 
#
# Total GULP energy -595348.863328 kJ/mol
# GULP energy per Si atom -12403.101319 kJ/mol
# Density = 1.923317 g / cm^3
# Si number density = 19.277044 Si / 1000 Ang^3
#
#
#
# Elastic Constant Matrix: (Units=GPa)
#
#
# Indices 1 2 3 4 5 6 
#
# 1 54.2725 32.3140 38.5387 0.0000 0.0000 0.0000
# 2 32.3140 62.9888 45.8942 0.0000 0.0000 0.0000
# 3 38.5387 45.8942 134.8327 0.0000 0.0000 0.0000
# 4 0.0000 0.0000 0.0000 26.6427 0.0000 0.0000
# 5 0.0000 0.0000 0.0000 0.0000 29.6006 0.0000
# 6 0.0000 0.0000 0.0000 0.0000 0.0000 24.7634
#
#
#
# Elastic Compliance Matrix: (Units=1/GPa)
#
#
# Indices 1 2 3 4 5 6 
#
# 1 0.028187 -0.011423 -0.004168 0.000000 0.000000 0.000000
# 2 -0.011423 0.025741 -0.005497 0.000000 0.000000 0.000000
# 3 -0.004168 -0.005497 0.010479 0.000000 0.000000 0.000000
# 4 0.000000 0.000000 0.000000 0.037534 0.000000 0.000000
# 5 0.000000 0.000000 0.000000 0.000000 0.033783 0.000000
# 6 0.000000 0.000000 0.000000 0.000000 0.000000 0.040382
#
#
# Mechanical properties :
#
#
# Convention : Reuss Voigt Hill
#
# Bulk Modulus (GPa) = 44.98320 53.95422 49.46871
# Shear Modulus (GPa) = 22.15410 25.22449 23.68929
#
# Velocity S-wave (km/s) = 3.39373 3.62128 3.50935
# Velocity P-wave (km/s) = 6.22433 6.74792 6.49141
#
# Compressibility (1/GPa) = 0.02223052
#
# Stress axis : x y z
#
# Youngs Moduli (GPa) = 35.47764 38.84868 95.42926
#
# Poissons Ratio (x) = 0.44377 0.39778
# Poissons Ratio (y) = 0.40526 0.52454
# Poissons Ratio (z) = 0.14788 0.21354
#
# Static dielectric constant tensor:
#      x y z
#    x 3.301840 0.000000 0.000000 
#    y 0.000000 3.388940 0.000000 
#    z 0.000000 0.000000 3.585580 
# 
# 
# High freq. dielectric constant tensor:
#      x y z
#    x 1.734920 0.000000 0.000000 
#    y 0.000000 1.734760 0.000000 
#    z 0.000000 0.000000 1.760770 
# 
# From -- ./inp_files/20407.got.cif
#   From: 2010.03.12/outbox.cif.g09.slc.cpg/sg59_11_cif.got.tgz:20407.got - 2010.04.16 16:29:54.
