data_PCOD8241882
_publ_section_title
;
Structure prediction by ZEFSAII (Michael W. Deem and Ramdas Pophale) SiO2 
 PCOD8241882
Probable space group: P M M N
;
_chemical_formula_sum "Si O2"
_cell_formula_units_Z 64
_cell_length_a 9.020157
_cell_length_b 19.044923
_cell_length_c 20.343718
_cell_angle_alpha 90.000000
_cell_angle_beta 90.000000
_cell_angle_gamma 90.000000
_cell_volume 3494.810605
_symmetry_space_group_name_H-M "P M M N"
_symmetry_group_IT_number 59
_space_group.IT_coordinate_system_code '2'
_symmetry_cell_setting 'orthorhombic'
loop_
_space_group_symop_operation_xyz
x,y,z
1/2-x,1/2-y,z
1/2+x,-y,-z
-x,1/2+y,-z
-x,-y,-z
1/2+x,1/2+y,-z
1/2-x,y,z
x,1/2-y,z
loop_
_atom_site_type_symbol
_atom_site_label
_atom_site_fract_x
_atom_site_fract_y
_atom_site_fract_z
Si Si1 0.423154 0.443016 0.820387
Si Si2 0.578019 0.332631 0.323368
Si Si3 0.083153 0.333481 0.454938
Si Si4 0.925682 0.828081 0.921332
Si Si5 0.426235 0.087546 0.205293
Si Si6 0.577632 0.829999 0.286944
Si Si7 0.423859 0.067096 0.969691
Si Si8 0.917015 0.166362 0.582751
O O1 0.250000 0.462054 0.816289
O O2 0.516296 0.508397 0.794536
O O3 0.463613 0.376088 0.776177
O O4 0.470763 0.422669 0.894243
O O5 0.750000 0.353227 0.320592
O O6 0.553934 0.250000 0.313644
O O7 0.512931 0.358450 0.392841
O O8 0.489141 0.371949 0.267319
O O9 0.250000 0.363236 0.449111
O O10 0.085856 0.250000 0.458285
O O11 0.007987 0.364173 0.520876
O O12 0.750000 0.823060 0.917037
O O13 0.995452 0.750000 0.918963
O O14 0.985429 0.873469 0.860110
O O15 0.975519 0.864561 0.989381
O O16 0.250000 0.087400 0.209021
O O17 0.750000 0.834769 0.304476
O O18 0.531302 0.750000 0.270864
O O19 0.490192 0.860178 0.349716
O O20 0.250000 0.055574 0.977258
O O21 0.500000 0.000000 0.000000
O O22 0.750000 0.137499 0.578905
O O23 0.919872 0.250000 0.580706
#
# Coordination Sequence:
#
# PCOD8241882 Si02
#       8
#     8   8   8   8   8   8   8   8
#     4  10  21  35  54  78 105 138 176 220 267 320
#     4  10  20  33  50  75 108 142 177 222 270 313
#     4   9  16  27  46  73 104 139 178 218 261 312
#     4   9  18  32  52  79 106 134 173 219 264 310
#     4  11  21  34  53  75 104 143 182 220 261 317
#     4   9  18  33  52  76 105 136 173 219 269 319
#     4  10  19  34  55  77 103 136 173 216 263 315
#     4   9  16  27  46  73 104 137 173 216 265 315
#
# _framework density 18.312866
#
# number of rings (size 3 to 8) (size 9 to 14) (size 15 to 20)
#    0.000    2.375    1.250    1.875    0.000    5.250 
#    0.000    2.500    0.000    1.875    0.000    1.750 
#    0.000    0.000    0.000    0.000    0.000    0.000 
#
# Total GULP energy -793646.674784 kJ/mol
# GULP energy per Si atom -12400.729293 kJ/mol
# Density = 1.827119 g / cm^3
# Si number density = 18.312866 Si / 1000 Ang^3
#
#
#
# Elastic Constant Matrix: (Units=GPa)
#
#
# Indices 1 2 3 4 5 6 
#
# 1 75.5735 31.8940 54.6509 0.0000 0.0000 0.0000
# 2 31.8940 73.9835 48.8332 0.0000 0.0000 0.0000
# 3 54.6509 48.8332 160.3327 0.0000 0.0000 0.0000
# 4 0.0000 0.0000 0.0000 12.2971 0.0000 0.0000
# 5 0.0000 0.0000 0.0000 0.0000 25.4652 0.0000
# 6 0.0000 0.0000 0.0000 0.0000 0.0000 20.8060
#
#
#
# Elastic Compliance Matrix: (Units=1/GPa)
#
#
# Indices 1 2 3 4 5 6 
#
# 1 0.018864 -0.004866 -0.004948 0.000000 0.000000 0.000000
# 2 -0.004866 0.018173 -0.003876 0.000000 0.000000 0.000000
# 3 -0.004948 -0.003876 0.009104 0.000000 0.000000 0.000000
# 4 0.000000 0.000000 0.000000 0.081320 0.000000 0.000000
# 5 0.000000 0.000000 0.000000 0.000000 0.039269 0.000000
# 6 0.000000 0.000000 0.000000 0.000000 0.000000 0.048063
#
#
# Mechanical properties :
#
#
# Convention : Reuss Voigt Hill
#
# Bulk Modulus (GPa) = 53.30440 64.51622 58.91031
# Shear Modulus (GPa) = 20.12662 23.34776 21.73719
#
# Velocity S-wave (km/s) = 3.31878 3.57450 3.44901
# Velocity P-wave (km/s) = 6.62243 7.23481 6.93538
#
# Compressibility (1/GPa) = 0.01876018
#
# Stress axis : x y z
#
# Youngs Moduli (GPa) = 53.01148 55.02683 109.84017
#
# Poissons Ratio (x) = 0.26778 0.54346
# Poissons Ratio (y) = 0.25797 0.42577
# Poissons Ratio (z) = 0.26229 0.21330
#
# Static dielectric constant tensor:
#      x y z
#    x 3.357210 0.000000 0.000000 
#    y 0.000000 3.105190 0.000000 
#    z 0.000000 0.000000 3.604520 
# 
# 
# High freq. dielectric constant tensor:
#      x y z
#    x 1.703870 0.000000 0.000000 
#    y 0.000000 1.678940 0.000000 
#    z 0.000000 0.000000 1.726090 
# 
# From -- ./inp_files/29568.got.cif
#   From: 2010.03.12/outbox.cif.g09.slc.cpg/sg59_15_cif.got.tgz:29568.got - 2010.04.16 16:29:54.
