data_PCOD8241185
_publ_section_title
;
Structure prediction by ZEFSAII (Michael W. Deem and Ramdas Pophale) SiO2 
 PCOD8241185
Probable space group: P M M N
;
_chemical_formula_sum "Si O2"
_cell_formula_units_Z 56
_cell_length_a 9.593729
_cell_length_b 19.446233
_cell_length_c 17.455824
_cell_angle_alpha 90.000000
_cell_angle_beta 90.000000
_cell_angle_gamma 90.000000
_cell_volume 3256.591508
_symmetry_space_group_name_H-M "P M M N"
_symmetry_group_IT_number 59
_space_group.IT_coordinate_system_code '2'
_symmetry_cell_setting 'orthorhombic'
loop_
_space_group_symop_operation_xyz
x,y,z
1/2-x,1/2-y,z
1/2+x,-y,-z
-x,1/2+y,-z
-x,-y,-z
1/2+x,1/2+y,-z
1/2-x,y,z
x,1/2-y,z
loop_
_atom_site_type_symbol
_atom_site_label
_atom_site_fract_x
_atom_site_fract_y
_atom_site_fract_z
Si Si1 0.913582 0.085041 0.691547
Si Si2 0.589751 0.827518 0.192483
Si Si3 0.412107 0.428879 0.275527
Si Si4 0.584761 0.173889 0.550218
Si Si5 0.592704 0.917535 0.056225
Si Si6 0.088951 0.457404 0.106737
Si Si7 0.910390 0.169684 0.379367
O O1 0.750000 0.098476 0.704162
O O2 0.966816 0.117399 0.611251
O O3 0.994970 0.121397 0.759584
O O4 0.948124 0.004422 0.691846
O O5 0.750000 0.835090 0.219036
O O6 0.536291 0.750000 0.203507
O O7 0.575069 0.846328 0.102234
O O8 0.250000 0.412271 0.286869
O O9 0.456903 0.422346 0.186272
O O10 0.498976 0.372551 0.320023
O O11 0.750000 0.177621 0.548107
O O12 0.527098 0.250000 0.572755
O O13 0.533469 0.153366 0.465192
O O14 0.750000 0.945930 0.064563
O O15 0.492573 0.972441 0.094799
O O16 0.559656 0.906661 0.965592
O O17 0.250000 0.478421 0.113694
O O18 0.750000 0.147231 0.370685
O O19 0.928088 0.250000 0.361326
#
# Coordination Sequence:
#
# PCOD8241185 Si02
#       7
#     8   8   8   8   8   8   8
#     4  10  19  32  51  75 102 132 167 203 244 298
#     4  10  20  32  46  70 104 135 167 208 249 292
#     4  10  20  32  49  77 107 128 158 207 254 296
#     4   8  15  30  51  72  95 129 171 206 239 289
#     4   9  17  30  49  69  93 130 169 200 239 288
#     4   9  17  31  49  71  98 126 161 204 244 288
#     4   9  19  36  55  72  93 127 170 209 247 298
#
# _framework density 17.195893000000002
#
# number of rings (size 3 to 8) (size 9 to 14) (size 15 to 20)
#    0.000    2.714    1.429    1.286    0.000    2.857 
#    0.000    1.429    0.000    3.429    0.000    0.000 
#    0.000    0.000    0.000    0.000    0.000    0.000 
#
# Total GULP energy -694135.283110 kJ/mol
# GULP energy per Si atom -12395.272913 kJ/mol
# Density = 1.715675 g / cm^3
# Si number density = 17.195893 Si / 1000 Ang^3
#
#
#
# Elastic Constant Matrix: (Units=GPa)
#
#
# Indices 1 2 3 4 5 6 
#
# 1 42.9449 34.8079 43.3418 0.0000 0.0000 0.0000
# 2 34.8079 74.0673 62.0060 0.0000 0.0000 0.0000
# 3 43.3418 62.0060 142.1188 0.0000 0.0000 0.0000
# 4 0.0000 0.0000 0.0000 24.5518 0.0000 0.0000
# 5 0.0000 0.0000 0.0000 0.0000 24.2208 0.0000
# 6 0.0000 0.0000 0.0000 0.0000 0.0000 22.8946
#
#
#
# Elastic Compliance Matrix: (Units=1/GPa)
#
#
# Indices 1 2 3 4 5 6 
#
# 1 0.041066 -0.013887 -0.006465 0.000000 0.000000 0.000000
# 2 -0.013887 0.025966 -0.007094 0.000000 0.000000 0.000000
# 3 -0.006465 -0.007094 0.012103 0.000000 0.000000 0.000000
# 4 0.000000 0.000000 0.000000 0.040730 0.000000 0.000000
# 5 0.000000 0.000000 0.000000 0.000000 0.041287 0.000000
# 6 0.000000 0.000000 0.000000 0.000000 0.000000 0.043678
#
#
# Mechanical properties :
#
#
# Convention : Reuss Voigt Hill
#
# Bulk Modulus (GPa) = 41.24780 59.93805 50.59293
# Shear Modulus (GPa) = 18.67045 22.26513 20.46779
#
# Velocity S-wave (km/s) = 3.29865 3.60223 3.45377
# Velocity P-wave (km/s) = 6.20864 7.22725 6.73722
#
# Compressibility (1/GPa) = 0.02424372
#
# Stress axis : x y z
#
# Youngs Moduli (GPa) = 24.35108 38.51196 82.62360
#
# Poissons Ratio (x) = 0.53480 0.53417
# Poissons Ratio (y) = 0.33815 0.58612
# Poissons Ratio (z) = 0.15743 0.27320
#
# Static dielectric constant tensor:
#      x y z
#    x 3.069240 0.000000 0.000000 
#    y 0.000000 3.104640 0.000000 
#    z 0.000000 0.000000 3.520730 
# 
# 
# High freq. dielectric constant tensor:
#      x y z
#    x 1.649090 0.000000 0.000000 
#    y 0.000000 1.645440 0.000000 
#    z 0.000000 0.000000 1.676980 
# 
# From -- ./inp_files/26019.got.cif
#   From: 2010.03.12/outbox.cif.g09.slc.cpg/sg59_14_cif.got.tgz:26019.got - 2010.04.16 16:29:54.
