data_PCOD8241672
_publ_section_title
;
Structure prediction by ZEFSAII (Michael W. Deem and Ramdas Pophale) SiO2 
 PCOD8241672
Probable space group: P M M N
;
_chemical_formula_sum "Si O2"
_cell_formula_units_Z 56
_cell_length_a 8.832072
_cell_length_b 14.783461
_cell_length_c 21.614651
_cell_angle_alpha 90.000000
_cell_angle_beta 90.000000
_cell_angle_gamma 90.000000
_cell_volume 2822.194547
_symmetry_space_group_name_H-M "P M M N"
_symmetry_group_IT_number 59
_space_group.IT_coordinate_system_code '2'
_symmetry_cell_setting 'orthorhombic'
loop_
_space_group_symop_operation_xyz
x,y,z
1/2-x,1/2-y,z
1/2+x,-y,-z
-x,1/2+y,-z
-x,-y,-z
1/2+x,1/2+y,-z
1/2-x,y,z
x,1/2-y,z
loop_
_atom_site_type_symbol
_atom_site_label
_atom_site_fract_x
_atom_site_fract_y
_atom_site_fract_z
Si Si1 0.427725 0.849501 0.306485
Si Si2 0.428766 0.145946 0.995388
Si Si3 0.428465 0.011228 0.224442
Si Si4 0.079275 0.605843 0.439666
Si Si5 0.428266 0.983638 0.908584
Si Si6 0.079497 0.852343 0.686913
Si Si7 0.080155 0.391459 0.437907
O O1 0.250000 0.867989 0.312989
O O2 0.464968 0.750000 0.280493
O O3 0.496204 0.860217 0.375436
O O4 0.493079 0.921183 0.257839
O O5 0.250000 0.145919 0.004349
O O6 0.486059 0.250000 0.985027
O O7 0.500918 0.102574 0.056585
O O8 0.476769 0.080718 0.938167
O O9 0.250000 0.007128 0.211607
O O10 0.516042 0.020485 0.160937
O O11 0.464789 0.094444 0.269091
O O12 0.250000 0.642711 0.447084
O O13 0.077622 0.498624 0.437837
O O14 0.982420 0.644801 0.496579
O O15 0.250000 0.971802 0.911052
O O16 0.250000 0.892345 0.690850
O O17 0.078619 0.750000 0.710671
O O18 0.025110 0.854715 0.616321
O O19 0.250000 0.354503 0.428579
#
# Coordination Sequence:
#
# PCOD8241672 Si02
#       7
#     8   8   8   8   8   8   8
#     4   9  18  34  56  81 109 143 186 233 280 335
#     4   9  19  38  63  90 121 156 193 232 273 320
#     4  11  22  39  60  84 115 152 192 232 279 334
#     4   9  17  32  53  79 109 144 183 227 283 343
#     4  10  21  37  59  89 121 155 190 230 279 328
#     4  11  24  40  58  80 107 145 192 240 293 347
#     4  10  19  33  54  81 109 141 183 233 289 347
#
# _framework density 19.842714999999998
#
# number of rings (size 3 to 8) (size 9 to 14) (size 15 to 20)
#    0.000    2.143    1.429    1.714    0.000    4.286 
#    0.000    1.429    0.000    3.000    0.000    0.000 
#    0.000    0.000    0.000    0.000    0.000    0.000 
#
# Total GULP energy -694340.438571 kJ/mol
# GULP energy per Si atom -12398.936403 kJ/mol
# Density = 1.979755 g / cm^3
# Si number density = 19.842715 Si / 1000 Ang^3
#
#
#
# Elastic Constant Matrix: (Units=GPa)
#
#
# Indices 1 2 3 4 5 6 
#
# 1 27.2448 15.6915 -2.5433 0.0000 0.0000 0.0000
# 2 15.6915 98.3415 25.7099 0.0000 0.0000 0.0000
# 3 -2.5433 25.7099 85.8679 0.0000 0.0000 0.0000
# 4 0.0000 0.0000 0.0000 -17.7784 0.0000 0.0000
# 5 0.0000 0.0000 0.0000 0.0000 20.2206 0.0000
# 6 0.0000 0.0000 0.0000 0.0000 0.0000 21.0157
#
#
#
# Elastic Compliance Matrix: (Units=1/GPa)
#
#
# Indices 1 2 3 4 5 6 
#
# 1 0.041351 -0.007506 0.003472 0.000000 0.000000 0.000000
# 2 -0.007506 0.012395 -0.003933 0.000000 0.000000 0.000000
# 3 0.003472 -0.003933 0.012926 0.000000 0.000000 0.000000
# 4 0.000000 0.000000 0.000000 -0.056248 0.000000 0.000000
# 5 0.000000 0.000000 0.000000 0.000000 0.049455 0.000000
# 6 0.000000 0.000000 0.000000 0.000000 0.000000 0.047584
#
#
# Mechanical properties :
#
#
# Convention : Reuss Voigt Hill
#
# Bulk Modulus (GPa) = 19.70907 32.13005 25.91956
# Shear Modulus (GPa) = 35.63560 16.19799 25.91680
#
# Velocity S-wave (km/s) = 4.24241 2.86023 3.61794
# Velocity P-wave (km/s) = 5.82680 5.20917 5.52662
#
# Compressibility (1/GPa) = 0.05073807
#
# Stress axis : x y z
#
# Youngs Moduli (GPa) = 24.18301 80.68013 77.36135
#
# Poissons Ratio (x) = 0.60557 -0.26861
# Poissons Ratio (y) = 0.18151 0.30429
# Poissons Ratio (z) = -0.08397 0.31735
#
# Static dielectric constant tensor:
#      x y z
#    x 3.555940 0.000000 0.000000 
#    y 0.000000 3.702760 0.000000 
#    z 0.000000 0.000000 3.621550 
# 
# 
# High freq. dielectric constant tensor:
#      x y z
#    x 1.760630 0.000000 0.000000 
#    y 0.000000 1.778190 0.000000 
#    z 0.000000 0.000000 1.772230 
# 
# From -- ./inp_files/29134.got.cif
#   From: 2010.03.12/outbox.cif.g09.slc.cpg/sg59_15_cif.got.tgz:29134.got - 2010.04.16 16:29:54.
