data_PCOD8241973
_publ_section_title
;
Structure prediction by ZEFSAII (Michael W. Deem and Ramdas Pophale) SiO2 
 PCOD8241973
Probable space group: P M M N
;
_chemical_formula_sum "Si O2"
_cell_formula_units_Z 64
_cell_length_a 30.846868
_cell_length_b 8.930393
_cell_length_c 11.943765
_cell_angle_alpha 90.000000
_cell_angle_beta 90.000000
_cell_angle_gamma 90.000000
_cell_volume 3290.204532
_symmetry_space_group_name_H-M "P M M N"
_symmetry_group_IT_number 59
_space_group.IT_coordinate_system_code '2'
_symmetry_cell_setting 'orthorhombic'
loop_
_space_group_symop_operation_xyz
x,y,z
1/2-x,1/2-y,z
1/2+x,-y,-z
-x,1/2+y,-z
-x,-y,-z
1/2+x,1/2+y,-z
1/2-x,y,z
x,1/2-y,z
loop_
_atom_site_type_symbol
_atom_site_label
_atom_site_fract_x
_atom_site_fract_y
_atom_site_fract_z
Si Si1 0.924233 0.425242 0.493348
Si Si2 0.323837 0.575199 0.496246
Si Si3 0.374301 0.073469 0.880577
Si Si4 0.549460 0.073578 0.734227
Si Si5 0.546686 0.574360 0.270763
Si Si6 0.871228 0.072046 0.879732
Si Si7 0.299565 0.422504 0.269203
Si Si8 0.798281 0.920132 0.284204
O O1 0.932533 0.250000 0.481794
O O2 0.873877 0.465440 0.489394
O O3 0.943136 0.490669 0.609440
O O4 0.948592 0.503840 0.392300
O O5 0.316436 0.750000 0.473710
O O6 0.303844 0.484702 0.393971
O O7 0.299708 0.527019 0.608772
O O8 0.375854 0.250000 0.904466
O O9 0.417221 0.015972 0.815811
O O10 0.332352 0.026905 0.808900
O O11 0.371399 0.985392 0.994929
O O12 0.556200 0.250000 0.727863
O O13 0.501086 0.031760 0.776311
O O14 0.585409 0.008408 0.819027
O O15 0.551933 0.750000 0.286923
O O16 0.870154 0.250000 0.879154
O O17 0.828936 0.014373 0.816363
O O18 0.250000 0.439936 0.229543
O O19 0.314068 0.250000 0.267875
O O20 0.750000 0.930692 0.232236
O O21 0.809125 0.750000 0.321365
#
# Coordination Sequence:
#
# PCOD8241973 Si02
#       8
#     8   8   8   8   8   8   8   8
#     4  10  19  34  56  84 120 152 185 234 292 343
#     4  11  21  35  59  89 121 154 188 232 287 346
#     4  10  22  39  57  83 114 151 200 247 288 337
#     4   9  19  37  58  84 117 152 187 235 291 341
#     4  10  20  36  60  85 114 152 195 237 283 344
#     4  11  23  41  62  84 114 153 194 240 292 345
#     4  11  24  41  62  88 118 152 191 236 286 342
#     4  10  21  38  59  83 115 154 193 236 288 344
#
# _framework density 19.451678000000001
#
# number of rings (size 3 to 8) (size 9 to 14) (size 15 to 20)
#    0.000    1.750    2.500    1.875    0.000    5.250 
#    0.000    2.500    0.000    0.000    0.000    0.000 
#    0.000    0.000    0.000    0.000    0.000    0.000 
#
# Total GULP energy -793751.517469 kJ/mol
# GULP energy per Si atom -12402.367460 kJ/mol
# Density = 1.940741 g / cm^3
# Si number density = 19.451678 Si / 1000 Ang^3
#
#
#
# Elastic Constant Matrix: (Units=GPa)
#
#
# Indices 1 2 3 4 5 6 
#
# 1 143.5407 40.0476 75.4157 0.0000 0.0000 0.0000
# 2 40.0476 50.4079 42.0751 0.0000 0.0000 0.0000
# 3 75.4157 42.0751 147.6548 0.0000 0.0000 0.0000
# 4 0.0000 0.0000 0.0000 33.2192 0.0000 0.0000
# 5 0.0000 0.0000 0.0000 0.0000 30.0082 0.0000
# 6 0.0000 0.0000 0.0000 0.0000 0.0000 18.2919
#
#
#
# Elastic Compliance Matrix: (Units=1/GPa)
#
#
# Indices 1 2 3 4 5 6 
#
# 1 0.010410 -0.005029 -0.003884 0.000000 0.000000 0.000000
# 2 -0.005029 0.028458 -0.005541 0.000000 0.000000 0.000000
# 3 -0.003884 -0.005541 0.010335 0.000000 0.000000 0.000000
# 4 0.000000 0.000000 0.000000 0.030103 0.000000 0.000000
# 5 0.000000 0.000000 0.000000 0.000000 0.033324 0.000000
# 6 0.000000 0.000000 0.000000 0.000000 0.000000 0.054669
#
#
# Mechanical properties :
#
#
# Convention : Reuss Voigt Hill
#
# Bulk Modulus (GPa) = 49.26978 72.96445 61.11712
# Shear Modulus (GPa) = 24.63378 28.57487 26.60432
#
# Velocity S-wave (km/s) = 3.56252 3.83694 3.70227
# Velocity P-wave (km/s) = 6.50434 7.56449 7.05436
#
# Compressibility (1/GPa) = 0.02029642
#
# Stress axis : x y z
#
# Youngs Moduli (GPa) = 96.05771 35.13921 96.75500
#
# Poissons Ratio (x) = 0.17670 0.37582
# Poissons Ratio (y) = 0.48304 0.53611
# Poissons Ratio (z) = 0.37311 0.19470
#
# Static dielectric constant tensor:
#      x y z
#    x 3.902930 0.000000 0.000000 
#    y 0.000000 3.397830 0.000000 
#    z 0.000000 0.000000 3.492200 
# 
# 
# High freq. dielectric constant tensor:
#      x y z
#    x 1.776750 0.000000 0.000000 
#    y 0.000000 1.743230 0.000000 
#    z 0.000000 0.000000 1.752480 
# 
# From -- ./inp_files/15063.got.cif
#   From: 2010.03.12/outbox.cif.g09.slc.cpg/sg59_8_cif.got.tgz:15063.got - 2010.04.16 16:29:54.
