data_PCOD8241031
_publ_section_title
;
Structure prediction by ZEFSAII (Michael W. Deem and Ramdas Pophale) SiO2 
 PCOD8241031
Probable space group: P M M N
;
_chemical_formula_sum "Si O2"
_cell_formula_units_Z 64
_cell_length_a 9.452635
_cell_length_b 28.908901
_cell_length_c 12.210684
_cell_angle_alpha 90.000000
_cell_angle_beta 90.000000
_cell_angle_gamma 90.000000
_cell_volume 3336.756097
_symmetry_space_group_name_H-M "P M M N"
_symmetry_group_IT_number 59
_space_group.IT_coordinate_system_code '2'
_symmetry_cell_setting 'orthorhombic'
loop_
_space_group_symop_operation_xyz
x,y,z
1/2-x,1/2-y,z
1/2+x,-y,-z
-x,1/2+y,-z
-x,-y,-z
1/2+x,1/2+y,-z
1/2-x,y,z
x,1/2-y,z
loop_
_atom_site_type_symbol
_atom_site_label
_atom_site_fract_x
_atom_site_fract_y
_atom_site_fract_z
Si Si1 0.408378 0.699719 0.626744
Si Si2 0.087531 0.538567 0.742933
Si Si3 0.584510 0.803623 0.003817
Si Si4 0.087163 0.548193 0.260914
Si Si5 0.915845 0.138682 0.173718
Si Si6 0.409227 0.926366 0.505152
Si Si7 0.912544 0.839617 0.457313
Si Si8 0.412168 0.137864 0.785283
O O1 0.250000 0.687766 0.588624
O O2 0.415464 0.750000 0.683328
O O3 0.462717 0.662329 0.713233
O O4 0.506782 0.701471 0.519180
O O5 0.250000 0.525376 0.765301
O O6 0.047595 0.584525 0.812011
O O7 0.062561 0.542997 0.612343
O O8 0.988710 0.497347 0.787310
O O9 0.750000 0.806122 0.976158
O O10 0.532625 0.750000 0.998207
O O11 0.502744 0.837278 0.922017
O O12 0.551695 0.824222 0.123380
O O13 0.250000 0.548653 0.223276
O O14 0.073016 0.545250 0.392652
O O15 0.013665 0.593385 0.208720
O O16 0.750000 0.146516 0.151092
O O17 0.250000 0.905541 0.511571
O O18 0.523929 0.886423 0.506228
O O19 0.750000 0.837765 0.489325
O O20 0.937543 0.835236 0.328154
O O21 0.250000 0.120394 0.793784
#
# Coordination Sequence:
#
# PCOD8241031 Si02
#       8
#     8   8   8   8   8   8   8   8
#     4  10  20  35  54  76 109 149 182 220 280 346
#     4  10  19  33  54  78 112 155 190 222 272 337
#     4  10  22  41  64  86 108 140 185 239 292 336
#     4  10  20  32  53  85 116 147 188 236 275 320
#     4  10  21  38  59  82 110 147 189 230 276 335
#     4   9  17  32  51  74 111 154 188 221 266 325
#     4  10  19  31  52  81 111 143 181 227 273 327
#     4   9  20  39  59  80 112 151 186 226 282 341
#
# _framework density 19.180304
#
# number of rings (size 3 to 8) (size 9 to 14) (size 15 to 20)
#    0.000    2.250    1.250    1.500    0.000    4.500 
#    0.000    1.875    0.000    0.000    0.000    0.000 
#    0.000    0.000    0.000    0.000    0.000    0.000 
#
# Total GULP energy -793383.267191 kJ/mol
# GULP energy per Si atom -12396.613550 kJ/mol
# Density = 1.913665 g / cm^3
# Si number density = 19.180304 Si / 1000 Ang^3
#
#
#
# Elastic Constant Matrix: (Units=GPa)
#
#
# Indices 1 2 3 4 5 6 
#
# 1 80.5903 37.9449 47.2735 0.0000 0.0000 0.0000
# 2 37.9449 89.8601 34.8377 0.0000 0.0000 0.0000
# 3 47.2735 34.8377 76.1049 0.0000 0.0000 0.0000
# 4 0.0000 0.0000 0.0000 18.8449 0.0000 0.0000
# 5 0.0000 0.0000 0.0000 0.0000 28.8605 0.0000
# 6 0.0000 0.0000 0.0000 0.0000 0.0000 29.2049
#
#
#
# Elastic Compliance Matrix: (Units=1/GPa)
#
#
# Indices 1 2 3 4 5 6 
#
# 1 0.020996 -0.004632 -0.010922 0.000000 0.000000 0.000000
# 2 -0.004632 0.014551 -0.003784 0.000000 0.000000 0.000000
# 3 -0.010922 -0.003784 0.021656 0.000000 0.000000 0.000000
# 4 0.000000 0.000000 0.000000 0.053065 0.000000 0.000000
# 5 0.000000 0.000000 0.000000 0.000000 0.034649 0.000000
# 6 0.000000 0.000000 0.000000 0.000000 0.000000 0.034241
#
#
# Mechanical properties :
#
#
# Convention : Reuss Voigt Hill
#
# Bulk Modulus (GPa) = 53.97072 54.07417 54.02245
# Shear Modulus (GPa) = 22.32062 23.81534 23.06798
#
# Velocity S-wave (km/s) = 3.41504 3.52754 3.47175
# Velocity P-wave (km/s) = 6.61436 6.69665 6.65563
#
# Compressibility (1/GPa) = 0.01852856
#
# Stress axis : x y z
#
# Youngs Moduli (GPa) = 47.62893 68.72299 46.17665
#
# Poissons Ratio (x) = 0.31830 0.50432
# Poissons Ratio (y) = 0.22060 0.17473
# Poissons Ratio (z) = 0.52018 0.26005
#
# Static dielectric constant tensor:
#      x y z
#    x 3.569760 0.000000 0.000000 
#    y 0.000000 3.435090 0.000000 
#    z 0.000000 0.000000 3.463760 
# 
# 
# High freq. dielectric constant tensor:
#      x y z
#    x 1.745810 0.000000 0.000000 
#    y 0.000000 1.746680 0.000000 
#    z 0.000000 0.000000 1.727910 
# 
# From -- ./inp_files/15032.got.cif
#   From: 2010.03.12/outbox.cif.g09.slc.cpg/sg59_8_cif.got.tgz:15032.got - 2010.04.16 16:29:54.
