data_PCOD8241530
_publ_section_title
;
Structure prediction by ZEFSAII (Michael W. Deem and Ramdas Pophale) SiO2 
 PCOD8241530
Probable space group: P M M N
;
_chemical_formula_sum "Si O2"
_cell_formula_units_Z 64
_cell_length_a 9.412475
_cell_length_b 18.746088
_cell_length_c 19.843805
_cell_angle_alpha 90.000000
_cell_angle_beta 90.000000
_cell_angle_gamma 90.000000
_cell_volume 3501.381541
_symmetry_space_group_name_H-M "P M M N"
_symmetry_group_IT_number 59
_space_group.IT_coordinate_system_code '2'
_symmetry_cell_setting 'orthorhombic'
loop_
_space_group_symop_operation_xyz
x,y,z
1/2-x,1/2-y,z
1/2+x,-y,-z
-x,1/2+y,-z
-x,-y,-z
1/2+x,1/2+y,-z
1/2-x,y,z
x,1/2-y,z
loop_
_atom_site_type_symbol
_atom_site_label
_atom_site_fract_x
_atom_site_fract_y
_atom_site_fract_z
Si Si1 0.083749 0.552422 0.134832
Si Si2 0.917019 0.440126 0.710657
Si Si3 0.417695 0.407052 0.341745
Si Si4 0.581511 0.670970 0.526851
Si Si5 0.587383 0.666168 0.377532
Si Si6 0.582258 0.082381 0.095300
Si Si7 0.583097 0.329194 0.968034
Si Si8 0.412347 0.832368 0.771844
O O1 0.250000 0.533926 0.129439
O O2 0.033427 0.555257 0.212062
O O3 0.047999 0.628242 0.100505
O O4 0.997482 0.492790 0.094477
O O5 0.750000 0.427510 0.705408
O O6 0.964983 0.512083 0.672462
O O7 0.992920 0.373400 0.677130
O O8 0.250000 0.397918 0.333085
O O9 0.469163 0.385592 0.416929
O O10 0.489282 0.353001 0.290212
O O11 0.750000 0.676003 0.524756
O O12 0.520826 0.750000 0.544064
O O13 0.529938 0.646611 0.452627
O O14 0.750000 0.641673 0.368861
O O15 0.572167 0.750000 0.364913
O O16 0.750000 0.068626 0.089529
O O17 0.540510 0.123611 0.163041
O O18 0.523397 0.128360 0.032636
O O19 0.750000 0.321221 0.977758
O O20 0.514207 0.250000 0.963586
O O21 0.250000 0.849110 0.752341
O O22 0.434046 0.750000 0.789451
#
# Coordination Sequence:
#
# PCOD8241530 Si02
#       8
#     8   8   8   8   8   8   8   8
#     4  10  20  35  54  77 106 138 172 213 257 308
#     4  10  21  34  50  77 109 137 170 214 259 308
#     4  10  19  33  52  75 105 139 174 210 252 309
#     4   8  15  30  52  75  99 132 174 215 256 305
#     4   9  19  36  56  76  98 130 175 220 260 309
#     4  10  19  33  54  77 102 136 173 213 257 305
#     4   9  18  33  54  78 102 134 177 217 256 305
#     4  10  20  32  48  74 106 137 171 212 256 302
#
# _framework density 18.278500000000001
#
# number of rings (size 3 to 8) (size 9 to 14) (size 15 to 20)
#    0.000    2.500    1.250    1.875    0.000    4.500 
#    0.000    1.875    0.000    3.000    0.000    0.000 
#    0.000    0.000    0.000    0.000    0.000    0.000 
#
# Total GULP energy -793601.461103 kJ/mol
# GULP energy per Si atom -12400.022830 kJ/mol
# Density = 1.823690 g / cm^3
# Si number density = 18.278500 Si / 1000 Ang^3
#
#
#
# Elastic Constant Matrix: (Units=GPa)
#
#
# Indices 1 2 3 4 5 6 
#
# 1 27.8050 31.6798 28.8022 0.0000 0.0000 0.0000
# 2 31.6798 116.6783 71.1818 0.0000 0.0000 0.0000
# 3 28.8022 71.1818 114.3027 0.0000 0.0000 0.0000
# 4 0.0000 0.0000 0.0000 36.2146 0.0000 0.0000
# 5 0.0000 0.0000 0.0000 0.0000 14.7237 0.0000
# 6 0.0000 0.0000 0.0000 0.0000 0.0000 26.0940
#
#
#
# Elastic Compliance Matrix: (Units=1/GPa)
#
#
# Indices 1 2 3 4 5 6 
#
# 1 0.055752 -0.010590 -0.007453 0.000000 0.000000 0.000000
# 2 -0.010590 0.015833 -0.007192 0.000000 0.000000 0.000000
# 3 -0.007453 -0.007192 0.015105 0.000000 0.000000 0.000000
# 4 0.000000 0.000000 0.000000 0.027613 0.000000 0.000000
# 5 0.000000 0.000000 0.000000 0.000000 0.067918 0.000000
# 6 0.000000 0.000000 0.000000 0.000000 0.000000 0.038323
#
#
# Mechanical properties :
#
#
# Convention : Reuss Voigt Hill
#
# Bulk Modulus (GPa) = 27.60917 58.01263 42.81090
# Shear Modulus (GPa) = 17.66234 23.88127 20.77180
#
# Velocity S-wave (km/s) = 3.11189 3.61851 3.37472
# Velocity P-wave (km/s) = 5.29616 7.01892 6.21750
#
# Compressibility (1/GPa) = 0.03621985
#
# Stress axis : x y z
#
# Youngs Moduli (GPa) = 17.93669 63.15758 66.20161
#
# Poissons Ratio (x) = 0.66886 0.49342
# Poissons Ratio (y) = 0.18996 0.47610
# Poissons Ratio (z) = 0.13369 0.45421
#
# Static dielectric constant tensor:
#      x y z
#    x 3.036280 0.000000 0.000000 
#    y 0.000000 3.431610 0.000000 
#    z 0.000000 0.000000 3.550630 
# 
# 
# High freq. dielectric constant tensor:
#      x y z
#    x 1.673710 0.000000 0.000000 
#    y 0.000000 1.713140 0.000000 
#    z 0.000000 0.000000 1.719600 
# 
# From -- ./inp_files/29395.got.cif
#   From: 2010.03.12/outbox.cif.g09.slc.cpg/sg59_15_cif.got.tgz:29395.got - 2010.04.16 16:29:54.
