data_PCOD8241678
_publ_section_title
;
Structure prediction by ZEFSAII (Michael W. Deem and Ramdas Pophale) SiO2 
 PCOD8241678
Probable space group: P M M N
;
_chemical_formula_sum "Si O2"
_cell_formula_units_Z 56
_cell_length_a 8.980986
_cell_length_b 19.380354
_cell_length_c 17.584961
_cell_angle_alpha 90.000000
_cell_angle_beta 90.000000
_cell_angle_gamma 90.000000
_cell_volume 3060.744899
_symmetry_space_group_name_H-M "P M M N"
_symmetry_group_IT_number 59
_space_group.IT_coordinate_system_code '2'
_symmetry_cell_setting 'orthorhombic'
loop_
_space_group_symop_operation_xyz
x,y,z
1/2-x,1/2-y,z
1/2+x,-y,-z
-x,1/2+y,-z
-x,-y,-z
1/2+x,1/2+y,-z
1/2-x,y,z
x,1/2-y,z
loop_
_atom_site_type_symbol
_atom_site_label
_atom_site_fract_x
_atom_site_fract_y
_atom_site_fract_z
Si Si1 0.576277 0.926742 0.649975
Si Si2 0.073341 0.064846 0.040216
Si Si3 0.426699 0.174006 0.918590
Si Si4 0.081414 0.557881 0.803024
Si Si5 0.575559 0.670521 0.512208
Si Si6 0.918784 0.601690 0.230156
Si Si7 0.924861 0.418435 0.618008
O O1 0.750000 0.930232 0.669885
O O2 0.488540 0.909422 0.727045
O O3 0.537996 0.864817 0.592724
O O4 0.526271 0.000777 0.614240
O O5 0.250000 0.054321 0.042423
O O6 0.014142 0.080170 0.124348
O O7 0.021870 0.129697 0.990242
O O8 0.000000 0.000000 0.000000
O O9 0.250000 0.172640 0.912543
O O10 0.490977 0.250000 0.931612
O O11 0.488790 0.145924 0.838427
O O12 0.250000 0.584924 0.811786
O O13 0.077347 0.476126 0.798151
O O14 0.750000 0.667903 0.495758
O O15 0.518703 0.750000 0.512697
O O16 0.496734 0.625248 0.448767
O O17 0.750000 0.623710 0.250929
O O18 0.021743 0.614344 0.302849
O O19 0.750000 0.410509 0.610854
#
# Coordination Sequence:
#
# PCOD8241678 Si02
#       7
#     8   8   8   8   8   8   8
#     4   9  19  36  56  80 107 137 176 223 270 312
#     4  11  20  33  55  81 107 138 179 223 266 312
#     4   9  18  33  52  75 104 139 179 219 260 310
#     4  10  19  33  54  82 107 135 176 219 267 317
#     4  10  21  37  56  77 104 142 185 222 261 316
#     4   9  17  32  52  76 104 135 174 215 258 314
#     4  10  20  33  53  81 110 137 171 218 271 320
#
# _framework density 18.296199999999999
#
# number of rings (size 3 to 8) (size 9 to 14) (size 15 to 20)
#    0.000    2.286    1.429    1.714    0.000    2.571 
#    0.000    2.143    0.000    7.714    0.000    0.000 
#    0.000    0.000    0.000    0.000    0.000    0.000 
#
# Total GULP energy -694373.519529 kJ/mol
# GULP energy per Si atom -12399.527134 kJ/mol
# Density = 1.825456 g / cm^3
# Si number density = 18.296200 Si / 1000 Ang^3
#
#
#
# Elastic Constant Matrix: (Units=GPa)
#
#
# Indices 1 2 3 4 5 6 
#
# 1 59.6134 39.2000 55.1213 0.0000 0.0000 0.0000
# 2 39.2000 80.5679 58.0990 0.0000 0.0000 0.0000
# 3 55.1213 58.0990 134.5613 0.0000 0.0000 0.0000
# 4 0.0000 0.0000 0.0000 25.7380 0.0000 0.0000
# 5 0.0000 0.0000 0.0000 0.0000 35.0283 0.0000
# 6 0.0000 0.0000 0.0000 0.0000 0.0000 19.7434
#
#
#
# Elastic Compliance Matrix: (Units=1/GPa)
#
#
# Indices 1 2 3 4 5 6 
#
# 1 0.030526 -0.008473 -0.008846 0.000000 0.000000 0.000000
# 2 -0.008473 0.020376 -0.005327 0.000000 0.000000 0.000000
# 3 -0.008846 -0.005327 0.013355 0.000000 0.000000 0.000000
# 4 0.000000 0.000000 0.000000 0.038853 0.000000 0.000000
# 5 0.000000 0.000000 0.000000 0.000000 0.028548 0.000000
# 6 0.000000 0.000000 0.000000 0.000000 0.000000 0.050650
#
#
# Mechanical properties :
#
#
# Convention : Reuss Voigt Hill
#
# Bulk Modulus (GPa) = 52.72897 64.39813 58.56355
# Shear Modulus (GPa) = 21.37471 24.25677 22.81574
#
# Velocity S-wave (km/s) = 3.42169 3.64508 3.53515
# Velocity P-wave (km/s) = 6.67029 7.27938 6.98148
#
# Compressibility (1/GPa) = 0.01896491
#
# Stress axis : x y z
#
# Youngs Moduli (GPa) = 32.75887 49.07845 74.87781
#
# Poissons Ratio (x) = 0.41585 0.66238
# Poissons Ratio (y) = 0.27757 0.39884
# Poissons Ratio (z) = 0.28979 0.26142
#
# Static dielectric constant tensor:
#      x y z
#    x 3.314990 0.000000 0.000000 
#    y 0.000000 3.505000 0.000000 
#    z 0.000000 0.000000 3.585230 
# 
# 
# High freq. dielectric constant tensor:
#      x y z
#    x 1.698310 0.000000 0.000000 
#    y 0.000000 1.692980 0.000000 
#    z 0.000000 0.000000 1.722300 
# 
# From -- ./inp_files/20909.got.cif
#   From: 2010.03.12/outbox.cif.g09.slc.cpg/sg59_11_cif.got.tgz:20909.got - 2010.04.16 16:29:54.
