data_PCOD8241604
_publ_section_title
;
Structure prediction by ZEFSAII (Michael W. Deem and Ramdas Pophale) SiO2 
 PCOD8241604
Probable space group: P M M N
;
_chemical_formula_sum "Si O2"
_cell_formula_units_Z 64
_cell_length_a 9.296793
_cell_length_b 14.999093
_cell_length_c 24.008142
_cell_angle_alpha 90.000000
_cell_angle_beta 90.000000
_cell_angle_gamma 90.000000
_cell_volume 3347.778456
_symmetry_space_group_name_H-M "P M M N"
_symmetry_group_IT_number 59
_space_group.IT_coordinate_system_code '2'
_symmetry_cell_setting 'orthorhombic'
loop_
_space_group_symop_operation_xyz
x,y,z
1/2-x,1/2-y,z
1/2+x,-y,-z
-x,1/2+y,-z
-x,-y,-z
1/2+x,1/2+y,-z
1/2-x,y,z
x,1/2-y,z
loop_
_atom_site_type_symbol
_atom_site_label
_atom_site_fract_x
_atom_site_fract_y
_atom_site_fract_z
Si Si1 0.920714 0.152856 0.780046
Si Si2 0.582232 0.008657 0.579033
Si Si3 0.909480 0.411650 0.894830
Si Si4 0.920205 0.509032 0.706649
Si Si5 0.087152 0.351555 0.995127
Si Si6 0.410966 0.384669 0.118071
Si Si7 0.088150 0.849446 0.775815
Si Si8 0.918888 0.854434 0.494512
O O1 0.750000 0.143255 0.783455
O O2 0.967416 0.250000 0.757465
O O3 0.980305 0.142519 0.843355
O O4 0.980519 0.078996 0.737746
O O5 0.750000 0.030293 0.572838
O O6 0.499156 0.095519 0.555947
O O7 0.534982 0.997572 0.642593
O O8 0.544176 0.914392 0.549035
O O9 0.750000 0.375480 0.909232
O O10 0.901765 0.510886 0.871774
O O11 0.000991 0.410019 0.950982
O O12 0.750000 0.520475 0.713898
O O13 0.995522 0.594249 0.732740
O O14 0.250000 0.387638 0.995590
O O15 0.077747 0.250000 0.975199
O O16 0.023832 0.362116 0.057201
O O17 0.250000 0.343084 0.123614
O O18 0.516470 0.344023 0.163464
O O19 0.250000 0.888266 0.781181
O O20 0.092734 0.750000 0.751330
O O21 0.750000 0.856261 0.481977
O O22 0.969140 0.750000 0.501494
#
# Coordination Sequence:
#
# PCOD8241604 Si02
#       8
#     8   8   8   8   8   8   8   8
#     4   9  17  31  52  78 107 138 176 224 275 325
#     4   9  19  34  56  85 114 148 194 238 274 321
#     4  10  19  33  54  76 100 135 178 220 271 334
#     4  10  20  37  59  83 112 148 189 231 273 320
#     4  10  21  34  49  74 105 134 170 221 278 333
#     4  10  20  37  58  77 100 136 182 226 273 332
#     4  11  24  39  56  81 112 145 182 228 281 333
#     4   9  18  34  55  81 117 156 190 229 279 330
#
# _framework density 19.117153999999999
#
# number of rings (size 3 to 8) (size 9 to 14) (size 15 to 20)
#    0.000    2.250    1.250    1.500    0.000    5.000 
#    0.000    2.500    0.000    0.375    0.000    0.000 
#    0.000    0.000    0.000    0.000    0.000    0.000 
#
# Total GULP energy -793409.233662 kJ/mol
# GULP energy per Si atom -12397.019276 kJ/mol
# Density = 1.907364 g / cm^3
# Si number density = 19.117154 Si / 1000 Ang^3
#
#
#
# Elastic Constant Matrix: (Units=GPa)
#
#
# Indices 1 2 3 4 5 6 
#
# 1 55.0880 32.1858 48.9410 0.0000 0.0000 0.0000
# 2 32.1858 120.4721 54.4722 0.0000 0.0000 0.0000
# 3 48.9410 54.4722 147.8366 0.0000 0.0000 0.0000
# 4 0.0000 0.0000 0.0000 11.4226 0.0000 0.0000
# 5 0.0000 0.0000 0.0000 0.0000 28.0649 0.0000
# 6 0.0000 0.0000 0.0000 0.0000 0.0000 23.3349
#
#
#
# Elastic Compliance Matrix: (Units=1/GPa)
#
#
# Indices 1 2 3 4 5 6 
#
# 1 0.027107 -0.003821 -0.007566 0.000000 0.000000 0.000000
# 2 -0.003821 0.010499 -0.002603 0.000000 0.000000 0.000000
# 3 -0.007566 -0.002603 0.010228 0.000000 0.000000 0.000000
# 4 0.000000 0.000000 0.000000 0.087546 0.000000 0.000000
# 5 0.000000 0.000000 0.000000 0.000000 0.035632 0.000000
# 6 0.000000 0.000000 0.000000 0.000000 0.000000 0.042854
#
#
# Mechanical properties :
#
#
# Convention : Reuss Voigt Hill
#
# Bulk Modulus (GPa) = 50.36984 66.06607 58.21795
# Shear Modulus (GPa) = 20.12367 25.08433 22.60400
#
# Velocity S-wave (km/s) = 3.24798 3.62627 3.44233
# Velocity P-wave (km/s) = 6.36168 7.22265 6.80579
#
# Compressibility (1/GPa) = 0.01985315
#
# Stress axis : x y z
#
# Youngs Moduli (GPa) = 36.89119 95.25012 97.76989
#
# Poissons Ratio (x) = 0.36396 0.73970
# Poissons Ratio (y) = 0.14096 0.25454
# Poissons Ratio (z) = 0.27911 0.24798
#
# Static dielectric constant tensor:
#      x y z
#    x 3.316810 0.000000 0.000000 
#    y 0.000000 3.587080 0.000000 
#    z 0.000000 0.000000 3.456860 
# 
# 
# High freq. dielectric constant tensor:
#      x y z
#    x 1.717150 0.000000 0.000000 
#    y 0.000000 1.753490 0.000000 
#    z 0.000000 0.000000 1.740460 
# 
# From -- ./inp_files/31429.got.cif
#   From: 2010.03.12/outbox.cif.g09.slc.cpg/sg59_16_cif.got.tgz:31429.got - 2010.04.16 16:29:54.
