data_PCOD8241567
_publ_section_title
;
Structure prediction by ZEFSAII (Michael W. Deem and Ramdas Pophale) SiO2 
 PCOD8241567
Probable space group: P M M N
;
_chemical_formula_sum "Si O2"
_cell_formula_units_Z 64
_cell_length_a 26.590764
_cell_length_b 8.943200
_cell_length_c 13.317081
_cell_angle_alpha 90.000000
_cell_angle_beta 90.000000
_cell_angle_gamma 90.000000
_cell_volume 3166.888697
_symmetry_space_group_name_H-M "P M M N"
_symmetry_group_IT_number 59
_space_group.IT_coordinate_system_code '2'
_symmetry_cell_setting 'orthorhombic'
loop_
_space_group_symop_operation_xyz
x,y,z
1/2-x,1/2-y,z
1/2+x,-y,-z
-x,1/2+y,-z
-x,-y,-z
1/2+x,1/2+y,-z
1/2-x,y,z
x,1/2-y,z
loop_
_atom_site_type_symbol
_atom_site_label
_atom_site_fract_x
_atom_site_fract_y
_atom_site_fract_z
Si Si1 0.457795 0.926057 0.064617
Si Si2 0.848673 0.072001 0.994304
Si Si3 0.807441 0.580883 0.804468
Si Si4 0.971254 0.585036 0.225435
Si Si5 0.530313 0.416918 0.581975
Si Si6 0.192792 0.427644 0.592784
Si Si7 0.365262 0.427895 0.393277
Si Si8 0.860271 0.570787 0.201358
O O1 0.454939 0.750000 0.048005
O O2 0.403318 0.991011 0.039007
O O3 0.477485 0.977635 0.174267
O O4 0.500000 0.000000 0.000000
O O5 0.845396 0.250000 0.004274
O O6 0.812506 0.019046 0.904703
O O7 0.834032 0.999096 0.101976
O O8 0.750000 0.577646 0.770362
O O9 0.824804 0.750000 0.829355
O O10 0.837593 0.516410 0.708257
O O11 0.962537 0.750000 0.180324
O O12 0.917606 0.503931 0.206296
O O13 0.984731 0.589244 0.340189
O O14 0.500000 0.500000 0.500000
O O15 0.547199 0.250000 0.551178
O O16 0.579024 0.507669 0.614464
O O17 0.250000 0.488091 0.587953
O O18 0.192362 0.250000 0.591316
O O19 0.162593 0.487343 0.494560
O O20 0.167683 0.484476 0.697114
O O21 0.367488 0.250000 0.396311
O O22 0.858066 0.750000 0.195301
#
# Coordination Sequence:
#
# PCOD8241567 Si02
#       8
#     8   8   8   8   8   8   8   8
#     4  10  19  33  53  77 106 143 186 227 274 331
#     4  11  23  37  55  84 120 156 193 239 294 348
#     4  10  22  40  63  89 116 152 200 250 296 350
#     4   9  18  33  53  76 107 147 187 229 278 329
#     4  11  22  37  57  84 120 157 191 229 278 341
#     4   9  18  34  59  87 111 141 186 239 292 344
#     4  10  20  38  63  89 116 147 190 243 296 346
#     4  10  19  34  57  81 110 151 196 236 278 337
#
# _framework density 20.209109000000002
#
# number of rings (size 3 to 8) (size 9 to 14) (size 15 to 20)
#    0.000    2.000    1.250    2.625    0.000    6.250 
#    0.000    5.625    0.000    1.875    0.000    0.000 
#    0.000    0.000    0.000    0.000    0.000    0.000 
#
# Total GULP energy -792929.430115 kJ/mol
# GULP energy per Si atom -12389.522346 kJ/mol
# Density = 2.016311 g / cm^3
# Si number density = 20.209109 Si / 1000 Ang^3
#
#
#
# Elastic Constant Matrix: (Units=GPa)
#
#
# Indices 1 2 3 4 5 6 
#
# 1 89.7512 16.2407 36.8838 0.0000 0.0000 0.0000
# 2 16.2407 33.7959 33.1462 0.0000 0.0000 0.0000
# 3 36.8838 33.1462 146.4210 0.0000 0.0000 0.0000
# 4 0.0000 0.0000 0.0000 22.0101 0.0000 0.0000
# 5 0.0000 0.0000 0.0000 0.0000 36.9988 0.0000
# 6 0.0000 0.0000 0.0000 0.0000 0.0000 22.6044
#
#
#
# Elastic Compliance Matrix: (Units=1/GPa)
#
#
# Indices 1 2 3 4 5 6 
#
# 1 0.012805 -0.003843 -0.002356 0.000000 0.000000 0.000000
# 2 -0.003843 0.039187 -0.007903 0.000000 0.000000 0.000000
# 3 -0.002356 -0.007903 0.009212 0.000000 0.000000 0.000000
# 4 0.000000 0.000000 0.000000 0.045434 0.000000 0.000000
# 5 0.000000 0.000000 0.000000 0.000000 0.027028 0.000000
# 6 0.000000 0.000000 0.000000 0.000000 0.000000 0.044239
#
#
# Mechanical properties :
#
#
# Convention : Reuss Voigt Hill
#
# Bulk Modulus (GPa) = 30.30208 49.16771 39.73489
# Shear Modulus (GPa) = 23.02984 28.56917 25.79950
#
# Velocity S-wave (km/s) = 3.37942 3.76397 3.57687
# Velocity P-wave (km/s) = 5.50038 6.57816 6.06327
#
# Compressibility (1/GPa) = 0.03300103
#
# Stress axis : x y z
#
# Youngs Moduli (GPa) = 78.09176 25.51845 108.55337
#
# Poissons Ratio (x) = 0.09807 0.25572
# Poissons Ratio (y) = 0.30013 0.85789
# Poissons Ratio (z) = 0.18396 0.20167
#
# Static dielectric constant tensor:
#      x y z
#    x 3.588420 0.000000 0.000000 
#    y 0.000000 3.249680 0.000000 
#    z 0.000000 0.000000 3.682400 
# 
# 
# High freq. dielectric constant tensor:
#      x y z
#    x 1.795560 0.000000 0.000000 
#    y 0.000000 1.751390 0.000000 
#    z 0.000000 0.000000 1.805690 
# 
# From -- ./inp_files/19256.got.cif
#   From: 2010.03.12/outbox.cif.g09.slc.cpg/sg59_10_cif.got.tgz:19256.got - 2010.04.16 16:29:54.
