data_PCOD8241030
_publ_section_title
;
Structure prediction by ZEFSAII (Michael W. Deem and Ramdas Pophale) SiO2 
 PCOD8241030
Probable space group: P M M N
;
_chemical_formula_sum "Si O2"
_cell_formula_units_Z 64
_cell_length_a 18.073887
_cell_length_b 8.987134
_cell_length_c 21.535909
_cell_angle_alpha 90.000000
_cell_angle_beta 90.000000
_cell_angle_gamma 90.000000
_cell_volume 3498.130341
_symmetry_space_group_name_H-M "P M M N"
_symmetry_group_IT_number 59
_space_group.IT_coordinate_system_code '2'
_symmetry_cell_setting 'orthorhombic'
loop_
_space_group_symop_operation_xyz
x,y,z
1/2-x,1/2-y,z
1/2+x,-y,-z
-x,1/2+y,-z
-x,-y,-z
1/2+x,1/2+y,-z
1/2-x,y,z
x,1/2-y,z
loop_
_atom_site_type_symbol
_atom_site_label
_atom_site_fract_x
_atom_site_fract_y
_atom_site_fract_z
Si Si1 0.663269 0.921802 0.733662
Si Si2 0.332664 0.573390 0.507764
Si Si3 0.088809 0.573513 0.382789
Si Si4 0.666694 0.576395 0.135797
Si Si5 0.026539 0.078559 0.938563
Si Si6 0.948633 0.423646 0.812942
Si Si7 0.088150 0.921002 0.758978
Si Si8 0.932498 0.421290 0.379807
O O1 0.750000 0.943476 0.740581
O O2 0.640303 0.750000 0.728717
O O3 0.635275 0.005448 0.673066
O O4 0.626960 0.992930 0.795345
O O5 0.250000 0.505624 0.509106
O O6 0.328552 0.750000 0.508083
O O7 0.374233 0.516368 0.446403
O O8 0.376635 0.516863 0.568240
O O9 0.091555 0.750000 0.376877
O O10 0.004928 0.521089 0.381415
O O11 0.750000 0.546593 0.111666
O O12 0.652569 0.750000 0.149568
O O13 0.607466 0.520678 0.084253
O O14 0.654567 0.488771 0.200108
O O15 0.032455 0.250000 0.955011
O O16 0.966346 0.047336 0.885089
O O17 0.000000 0.000000 0.000000
O O18 0.941091 0.250000 0.798316
O O19 0.013194 0.488246 0.769953
O O20 0.075648 0.750000 0.778175
O O21 0.108596 0.935726 0.686531
O O22 0.954860 0.250000 0.392577
#
# Coordination Sequence:
#
# PCOD8241030 Si02
#       8
#     8   8   8   8   8   8   8   8
#     4  11  23  37  55  81 111 141 178 228 282 330
#     4   9  19  35  52  73 103 140 182 228 278 330
#     4  11  21  34  56  79 103 140 185 228 272 333
#     4   9  19  36  56  79 111 148 186 229 274 321
#     4   9  19  35  57  84 111 146 186 223 267 317
#     4  10  20  36  57  80 110 144 180 220 264 321
#     4  10  19  31  52  81 110 140 178 223 271 324
#     4  10  20  34  54  78 106 139 177 226 277 329
#
# _framework density 18.295487000000001
#
# number of rings (size 3 to 8) (size 9 to 14) (size 15 to 20)
#    0.000    2.125    1.250    3.000    0.000    5.250 
#    0.000    2.500    0.000    4.125    0.000    0.000 
#    0.000    0.000    0.000    0.000    0.000    0.000 
#
# Total GULP energy -793656.181835 kJ/mol
# GULP energy per Si atom -12400.877841 kJ/mol
# Density = 1.825385 g / cm^3
# Si number density = 18.295487 Si / 1000 Ang^3
#
#
#
# Elastic Constant Matrix: (Units=GPa)
#
#
# Indices 1 2 3 4 5 6 
#
# 1 107.4331 47.3352 66.0823 0.0000 0.0000 0.0000
# 2 47.3352 80.4120 52.7658 0.0000 0.0000 0.0000
# 3 66.0823 52.7658 132.8108 0.0000 0.0000 0.0000
# 4 0.0000 0.0000 0.0000 27.2079 0.0000 0.0000
# 5 0.0000 0.0000 0.0000 0.0000 25.2428 0.0000
# 6 0.0000 0.0000 0.0000 0.0000 0.0000 24.4009
#
#
#
# Elastic Compliance Matrix: (Units=1/GPa)
#
#
# Indices 1 2 3 4 5 6 
#
# 1 0.014908 -0.005287 -0.005317 0.000000 0.000000 0.000000
# 2 -0.005287 0.018696 -0.004798 0.000000 0.000000 0.000000
# 3 -0.005317 -0.004798 0.012081 0.000000 0.000000 0.000000
# 4 0.000000 0.000000 0.000000 0.036754 0.000000 0.000000
# 5 0.000000 0.000000 0.000000 0.000000 0.039615 0.000000
# 6 0.000000 0.000000 0.000000 0.000000 0.000000 0.040982
#
#
# Mechanical properties :
#
#
# Convention : Reuss Voigt Hill
#
# Bulk Modulus (GPa) = 67.19310 72.55807 69.87558
# Shear Modulus (GPa) = 25.15081 25.66850 25.40966
#
# Velocity S-wave (km/s) = 3.71172 3.74972 3.73077
# Velocity P-wave (km/s) = 7.42802 7.64803 7.53883
#
# Compressibility (1/GPa) = 0.01488248
#
# Stress axis : x y z
#
# Youngs Moduli (GPa) = 67.07740 53.48732 82.77211
#
# Poissons Ratio (x) = 0.28276 0.44014
# Poissons Ratio (y) = 0.35461 0.39710
# Poissons Ratio (z) = 0.35668 0.25661
#
# Static dielectric constant tensor:
#      x y z
#    x 3.558530 0.000000 0.000000 
#    y 0.000000 3.372020 0.000000 
#    z 0.000000 0.000000 3.489780 
# 
# 
# High freq. dielectric constant tensor:
#      x y z
#    x 1.707100 0.000000 0.000000 
#    y 0.000000 1.704800 0.000000 
#    z 0.000000 0.000000 1.708530 
# 
# From -- ./inp_files/30787.got.cif
#   From: 2010.03.12/outbox.cif.g09.slc.cpg/sg59_16_cif.got.tgz:30787.got - 2010.04.16 16:29:54.
