data_PCOD8241878
_publ_section_title
;
Structure prediction by ZEFSAII (Michael W. Deem and Ramdas Pophale) SiO2 
 PCOD8241878
Probable space group: P M M N
;
_chemical_formula_sum "Si O2"
_cell_formula_units_Z 56
_cell_length_a 9.299422
_cell_length_b 15.555654
_cell_length_c 19.543036
_cell_angle_alpha 90.000000
_cell_angle_beta 90.000000
_cell_angle_gamma 90.000000
_cell_volume 2827.068052
_symmetry_space_group_name_H-M "P M M N"
_symmetry_group_IT_number 59
_space_group.IT_coordinate_system_code '2'
_symmetry_cell_setting 'orthorhombic'
loop_
_space_group_symop_operation_xyz
x,y,z
1/2-x,1/2-y,z
1/2+x,-y,-z
-x,1/2+y,-z
-x,-y,-z
1/2+x,1/2+y,-z
1/2-x,y,z
x,1/2-y,z
loop_
_atom_site_type_symbol
_atom_site_label
_atom_site_fract_x
_atom_site_fract_y
_atom_site_fract_z
Si Si1 0.582687 0.151921 0.324343
Si Si2 0.578327 0.931934 0.950996
Si Si3 0.584028 0.930951 0.793019
Si Si4 0.910582 0.155939 0.621454
Si Si5 0.420306 0.501798 0.571732
Si Si6 0.908286 0.750000 0.993403
Si Si7 0.408075 0.879937 0.227411
Si Si8 0.093139 0.250000 0.846608
O O1 0.750000 0.137264 0.310684
O O2 0.551376 0.250000 0.348871
O O3 0.504643 0.137892 0.251318
O O4 0.530398 0.084793 0.383191
O O5 0.750000 0.939766 0.963076
O O6 0.535369 0.943024 0.871652
O O7 0.515127 0.837540 0.969467
O O8 0.500000 0.000000 0.000000
O O9 0.750000 0.902955 0.789269
O O10 0.551600 0.021740 0.756986
O O11 0.750000 0.125442 0.597213
O O12 0.945194 0.250000 0.588478
O O13 0.909671 0.171491 0.702325
O O14 0.033711 0.087478 0.606149
O O15 0.500000 0.500000 0.500000
O O16 0.250000 0.502885 0.560735
O O17 0.750000 0.750000 0.959296
O O18 0.895024 0.750000 0.073551
O O19 0.250000 0.876331 0.193060
O O20 0.515289 0.837274 0.174372
O O21 0.250000 0.250000 0.812198
#
# Coordination Sequence:
#
# PCOD8241878 Si02
#       8
#     8   8   8   8   8   4   8   4
#     4  10  23  42  63  90 124 160 198 245 303 359
#     4  10  21  38  58  83 116 157 201 249 303 359
#     4  10  21  36  61  89 114 152 204 253 301 355
#     4  10  20  37  60  86 120 158 191 235 296 352
#     4  11  24  42  65  92 124 161 200 241 289 351
#     4   9  20  37  53  75 115 156 193 238 299 359
#     4  10  19  34  54  82 117 149 187 241 301 350
#     4  11  21  31  51  81 111 154 201 240 291 359
#
# _framework density 19.808508
#
# number of rings (size 3 to 8) (size 9 to 14) (size 15 to 20)
#    0.000    1.857    2.143    1.500    1.000    3.429 
#    0.000    2.500    0.000    0.000    0.000    0.000 
#    0.000    0.000    0.000    0.000    0.000    0.000 
#
# Total GULP energy -694082.157065 kJ/mol
# GULP energy per Si atom -12394.324233 kJ/mol
# Density = 1.976342 g / cm^3
# Si number density = 19.808508 Si / 1000 Ang^3
#
#
#
# Elastic Constant Matrix: (Units=GPa)
#
#
# Indices 1 2 3 4 5 6 
#
# 1 76.6399 50.4647 42.8797 0.0000 0.0000 0.0000
# 2 50.4647 144.8161 51.3513 0.0000 0.0000 0.0000
# 3 42.8797 51.3513 103.1412 0.0000 0.0000 0.0000
# 4 0.0000 0.0000 0.0000 20.3610 0.0000 0.0000
# 5 0.0000 0.0000 0.0000 0.0000 29.5148 0.0000
# 6 0.0000 0.0000 0.0000 0.0000 0.0000 24.3123
#
#
#
# Elastic Compliance Matrix: (Units=1/GPa)
#
#
# Indices 1 2 3 4 5 6 
#
# 1 0.019341 -0.004722 -0.005690 0.000000 0.000000 0.000000
# 2 -0.004722 0.009539 -0.002786 0.000000 0.000000 0.000000
# 3 -0.005690 -0.002786 0.013448 0.000000 0.000000 0.000000
# 4 0.000000 0.000000 0.000000 0.049113 0.000000 0.000000
# 5 0.000000 0.000000 0.000000 0.000000 0.033881 0.000000
# 6 0.000000 0.000000 0.000000 0.000000 0.000000 0.041131
#
#
# Mechanical properties :
#
#
# Convention : Reuss Voigt Hill
#
# Bulk Modulus (GPa) = 62.76711 68.22095 65.49403
# Shear Modulus (GPa) = 25.23218 26.83106 26.03162
#
# Velocity S-wave (km/s) = 3.57291 3.68438 3.62907
# Velocity P-wave (km/s) = 6.98403 7.25358 7.12008
#
# Compressibility (1/GPa) = 0.01593191
#
# Stress axis : x y z
#
# Youngs Moduli (GPa) = 51.70423 104.83543 74.36134
#
# Poissons Ratio (x) = 0.49506 0.42309
# Poissons Ratio (y) = 0.24416 0.20716
# Poissons Ratio (z) = 0.29418 0.29206
#
# Static dielectric constant tensor:
#      x y z
#    x -1.286490 0.000000 0.000000 
#    y 0.000000 4.595030 0.000000 
#    z 0.000000 0.000000 3.537530 
# 
# 
# High freq. dielectric constant tensor:
#      x y z
#    x 1.755530 0.000000 0.000000 
#    y 0.000000 1.788100 0.000000 
#    z 0.000000 0.000000 1.766740 
# 
# From -- ./inp_files/29254.got.cif
#   From: 2010.03.12/outbox.cif.g09.slc.cpg/sg59_15_cif.got.tgz:29254.got - 2010.04.16 16:29:54.
