data_PCOD8241451
_publ_section_title
;
Structure prediction by ZEFSAII (Michael W. Deem and Ramdas Pophale) SiO2 
 PCOD8241451
Probable space group: P M M N
;
_chemical_formula_sum "Si O2"
_cell_formula_units_Z 40
_cell_length_a 8.629029
_cell_length_b 15.135656
_cell_length_c 15.601315
_cell_angle_alpha 90.000000
_cell_angle_beta 90.000000
_cell_angle_gamma 90.000000
_cell_volume 2037.625574
_symmetry_space_group_name_H-M "P M M N"
_symmetry_group_IT_number 59
_space_group.IT_coordinate_system_code '2'
_symmetry_cell_setting 'orthorhombic'
loop_
_space_group_symop_operation_xyz
x,y,z
1/2-x,1/2-y,z
1/2+x,-y,-z
-x,1/2+y,-z
-x,-y,-z
1/2+x,1/2+y,-z
1/2-x,y,z
x,1/2-y,z
loop_
_atom_site_type_symbol
_atom_site_label
_atom_site_fract_x
_atom_site_fract_y
_atom_site_fract_z
Si Si1 0.920888 0.653596 0.827091
Si Si2 0.567336 0.578224 0.268952
Si Si3 0.067822 0.889302 0.657417
Si Si4 0.432686 0.250000 0.463951
Si Si5 0.068762 0.750000 0.351641
Si Si6 0.574817 0.002518 0.091983
O O1 0.750000 0.608380 0.833794
O O2 0.911244 0.750000 0.868220
O O3 0.972274 0.662331 0.729149
O O4 0.053137 0.602775 0.878504
O O5 0.750000 0.599291 0.269774
O O6 0.533135 0.494784 0.332840
O O7 0.470250 0.662613 0.297535
O O8 0.509796 0.556961 0.171096
O O9 0.250000 0.872403 0.667851
O O10 0.008469 0.841978 0.570662
O O11 0.250000 0.250000 0.446090
O O12 0.463113 0.250000 0.564672
O O13 0.250000 0.750000 0.374966
O O14 0.750000 0.976481 0.078300
O O15 0.500000 0.000000 0.000000
#
# Coordination Sequence:
#
# PCOD8241451 Si02
#       6
#     8   8   8   4   4   8
#     4  10  19  32  54  85 119 153 188 231 291 351
#     4   9  21  42  64  86 118 160 197 242 302 356
#     4  10  20  36  61  90 120 154 195 245 297 349
#     4  12  24  38  60  89 124 161 198 246 298 355
#     4  12  26  42  62  87 116 159 206 250 294 351
#     4  10  21  38  61  87 116 152 194 243 294 349
#
# _framework density 19.630690999999999
#
# number of rings (size 3 to 8) (size 9 to 14) (size 15 to 20)
#    0.000    1.800    1.000    4.800    0.000    6.800 
#    1.800    0.000    0.000    0.000    0.000    0.000 
#    0.000    0.000    0.000    0.000    0.000    0.000 
#
# Total GULP energy -495587.717961 kJ/mol
# GULP energy per Si atom -12389.692949 kJ/mol
# Density = 1.958601 g / cm^3
# Si number density = 19.630691 Si / 1000 Ang^3
#
#
#
# Elastic Constant Matrix: (Units=GPa)
#
#
# Indices 1 2 3 4 5 6 
#
# 1 69.6619 34.8439 22.0127 0.0000 0.0000 0.0000
# 2 34.8439 119.0477 48.0779 0.0000 0.0000 0.0000
# 3 22.0127 48.0779 116.0681 0.0000 0.0000 0.0000
# 4 0.0000 0.0000 0.0000 13.4791 0.0000 0.0000
# 5 0.0000 0.0000 0.0000 0.0000 35.7157 0.0000
# 6 0.0000 0.0000 0.0000 0.0000 0.0000 31.1668
#
#
#
# Elastic Compliance Matrix: (Units=1/GPa)
#
#
# Indices 1 2 3 4 5 6 
#
# 1 0.017004 -0.004413 -0.001397 0.000000 0.000000 0.000000
# 2 -0.004413 0.011233 -0.003816 0.000000 0.000000 0.000000
# 3 -0.001397 -0.003816 0.010461 0.000000 0.000000 0.000000
# 4 0.000000 0.000000 0.000000 0.074189 0.000000 0.000000
# 5 0.000000 0.000000 0.000000 0.000000 0.027999 0.000000
# 6 0.000000 0.000000 0.000000 0.000000 0.000000 0.032085
#
#
# Mechanical properties :
#
#
# Convention : Reuss Voigt Hill
#
# Bulk Modulus (GPa) = 51.42343 57.18299 54.30321
# Shear Modulus (GPa) = 25.16310 29.39521 27.27915
#
# Velocity S-wave (km/s) = 3.58414 3.87384 3.73180
# Velocity P-wave (km/s) = 6.58638 7.01437 6.80374
#
# Compressibility (1/GPa) = 0.01944639
#
# Stress axis : x y z
#
# Youngs Moduli (GPa) = 58.81111 89.02682 95.59122
#
# Poissons Ratio (x) = 0.39284 0.13354
# Poissons Ratio (y) = 0.25951 0.36477
# Poissons Ratio (z) = 0.08216 0.33972
#
# Static dielectric constant tensor:
#      x y z
#    x 3.637910 0.000000 0.000000 
#    y 0.000000 3.444340 0.000000 
#    z 0.000000 0.000000 4.159810 
# 
# 
# High freq. dielectric constant tensor:
#      x y z
#    x 1.772280 0.000000 0.000000 
#    y 0.000000 1.762000 0.000000 
#    z 0.000000 0.000000 1.754520 
# 
# From -- ./inp_files/19925.got.cif
#   From: 2010.03.12/outbox.cif.g09.slc.cpg/sg59_10_cif.got.tgz:19925.got - 2010.04.16 16:29:54.
