data_PCOD8241660
_publ_section_title
;
Structure prediction by ZEFSAII (Michael W. Deem and Ramdas Pophale) SiO2 
 PCOD8241660
Probable space group: P M M N
;
_chemical_formula_sum "Si O2"
_cell_formula_units_Z 56
_cell_length_a 8.898397
_cell_length_b 19.462122
_cell_length_c 16.399485
_cell_angle_alpha 90.000000
_cell_angle_beta 90.000000
_cell_angle_gamma 90.000000
_cell_volume 2840.090495
_symmetry_space_group_name_H-M "P M M N"
_symmetry_group_IT_number 59
_space_group.IT_coordinate_system_code '2'
_symmetry_cell_setting 'orthorhombic'
loop_
_space_group_symop_operation_xyz
x,y,z
1/2-x,1/2-y,z
1/2+x,-y,-z
-x,1/2+y,-z
-x,-y,-z
1/2+x,1/2+y,-z
1/2-x,y,z
x,1/2-y,z
loop_
_atom_site_type_symbol
_atom_site_label
_atom_site_fract_x
_atom_site_fract_y
_atom_site_fract_z
Si Si1 0.576400 0.419739 0.167977
Si Si2 0.427439 0.827317 0.688607
Si Si3 0.071411 0.328362 0.858485
Si Si4 0.578023 0.555403 0.259231
Si Si5 0.572421 0.574874 0.995207
Si Si6 0.427671 0.824455 0.509760
Si Si7 0.926506 0.041669 0.573417
O O1 0.750000 0.400372 0.151307
O O2 0.506392 0.379216 0.244957
O O3 0.561294 0.501159 0.185251
O O4 0.476728 0.395288 0.092034
O O5 0.250000 0.836578 0.687279
O O6 0.473261 0.750000 0.712258
O O7 0.492688 0.845858 0.598860
O O8 0.250000 0.324984 0.861995
O O9 0.005706 0.250000 0.856356
O O10 0.022022 0.371035 0.777000
O O11 0.012522 0.370799 0.937182
O O12 0.750000 0.560074 0.288046
O O13 0.485565 0.526433 0.336195
O O14 0.750000 0.566259 0.002248
O O15 0.500000 0.500000 0.000000
O O16 0.250000 0.819554 0.519186
O O17 0.492571 0.750000 0.483556
O O18 0.472427 0.879043 0.441609
O O19 0.750000 0.028238 0.570093
O O20 0.000000 0.000000 0.500000
#
# Coordination Sequence:
#
# PCOD8241660 Si02
#       7
#     8   8   8   8   8   8   8
#     4  10  19  33  54  80 108 140 179 219 271 330
#     4   8  14  26  47  74 103 135 172 215 263 318
#     4   9  19  37  59  82 110 148 191 231 278 337
#     4  10  20  36  56  78 106 145 186 228 277 330
#     4  11  21  36  58  82 108 143 184 226 273 327
#     4   8  15  30  51  73 100 138 180 221 268 321
#     4  11  22  35  54  82 113 145 185 233 281 330
#
# _framework density 19.717682
#
# number of rings (size 3 to 8) (size 9 to 14) (size 15 to 20)
#    0.000    2.429    1.429    2.571    0.000    4.000 
#    0.000    0.000    0.000    4.286    0.000    4.000 
#    0.000    0.000    0.000    0.000    0.000    0.000 
#
# Total GULP energy -693991.123139 kJ/mol
# GULP energy per Si atom -12392.698627 kJ/mol
# Density = 1.967280 g / cm^3
# Si number density = 19.717682 Si / 1000 Ang^3
#
#
#
# Elastic Constant Matrix: (Units=GPa)
#
#
# Indices 1 2 3 4 5 6 
#
# 1 51.1045 24.2193 33.0371 0.0000 0.0000 0.0000
# 2 24.2193 78.7790 34.2788 0.0000 0.0000 0.0000
# 3 33.0371 34.2788 102.5397 0.0000 0.0000 0.0000
# 4 0.0000 0.0000 0.0000 34.7811 0.0000 0.0000
# 5 0.0000 0.0000 0.0000 0.0000 30.6948 0.0000
# 6 0.0000 0.0000 0.0000 0.0000 0.0000 15.0213
#
#
#
# Elastic Compliance Matrix: (Units=1/GPa)
#
#
# Indices 1 2 3 4 5 6 
#
# 1 0.026398 -0.005166 -0.006778 0.000000 0.000000 0.000000
# 2 -0.005166 0.015866 -0.003639 0.000000 0.000000 0.000000
# 3 -0.006778 -0.003639 0.013153 0.000000 0.000000 0.000000
# 4 0.000000 0.000000 0.000000 0.028751 0.000000 0.000000
# 5 0.000000 0.000000 0.000000 0.000000 0.032579 0.000000
# 6 0.000000 0.000000 0.000000 0.000000 0.000000 0.066572
#
#
# Mechanical properties :
#
#
# Convention : Reuss Voigt Hill
#
# Bulk Modulus (GPa) = 41.23890 46.16595 43.70243
# Shear Modulus (GPa) = 22.46498 25.49197 23.97847
#
# Velocity S-wave (km/s) = 3.37906 3.59952 3.49103
# Velocity P-wave (km/s) = 6.01533 6.38277 6.20177
#
# Compressibility (1/GPa) = 0.02424895
#
# Stress axis : x y z
#
# Youngs Moduli (GPa) = 37.88186 63.02952 76.02989
#
# Poissons Ratio (x) = 0.32563 0.51533
# Poissons Ratio (y) = 0.19571 0.27670
# Poissons Ratio (z) = 0.25676 0.22938
#
# Static dielectric constant tensor:
#      x y z
#    x 3.125000 0.000000 0.000000 
#    y 0.000000 4.297130 0.000000 
#    z 0.000000 0.000000 3.926880 
# 
# 
# High freq. dielectric constant tensor:
#      x y z
#    x 1.716630 0.000000 0.000000 
#    y 0.000000 1.776010 0.000000 
#    z 0.000000 0.000000 1.776200 
# 
# From -- ./inp_files/20991.got.cif
#   From: 2010.03.12/outbox.cif.g09.slc.cpg/sg59_11_cif.got.tgz:20991.got - 2010.04.16 16:29:54.
