data_PCOD8241080
_publ_section_title
;
Structure prediction by ZEFSAII (Michael W. Deem and Ramdas Pophale) SiO2 
 PCOD8241080
Probable space group: P M M N
;
_chemical_formula_sum "Si O2"
_cell_formula_units_Z 64
_cell_length_a 9.006316
_cell_length_b 18.997228
_cell_length_c 19.932802
_cell_angle_alpha 90.000000
_cell_angle_beta 90.000000
_cell_angle_gamma 90.000000
_cell_volume 3410.403525
_symmetry_space_group_name_H-M "P M M N"
_symmetry_group_IT_number 59
_space_group.IT_coordinate_system_code '2'
_symmetry_cell_setting 'orthorhombic'
loop_
_space_group_symop_operation_xyz
x,y,z
1/2-x,1/2-y,z
1/2+x,-y,-z
-x,1/2+y,-z
-x,-y,-z
1/2+x,1/2+y,-z
1/2-x,y,z
x,1/2-y,z
loop_
_atom_site_type_symbol
_atom_site_label
_atom_site_fract_x
_atom_site_fract_y
_atom_site_fract_z
Si Si1 0.574032 0.035376 0.778544
Si Si2 0.575252 0.573289 0.587986
Si Si3 0.082766 0.172614 0.290119
Si Si4 0.923823 0.392547 0.178445
Si Si5 0.076408 0.061988 0.640964
Si Si6 0.423336 0.171122 0.530786
Si Si7 0.914892 0.907376 0.951826
Si Si8 0.085722 0.927591 0.077630
O O1 0.750000 0.027938 0.768791
O O2 0.503568 0.069851 0.712640
O O3 0.536524 0.082698 0.844595
O O4 0.507612 0.958745 0.789678
O O5 0.750000 0.558055 0.579218
O O6 0.538908 0.615458 0.655193
O O7 0.489361 0.499620 0.593909
O O8 0.510298 0.619583 0.526489
O O9 0.250000 0.158946 0.263759
O O10 0.071049 0.250000 0.323093
O O11 0.967815 0.170592 0.228034
O O12 0.750000 0.406958 0.176175
O O13 0.979105 0.372757 0.103912
O O14 0.250000 0.047189 0.652118
O O15 0.048364 0.135854 0.603183
O O16 0.250000 0.178274 0.515836
O O17 0.494657 0.250000 0.529387
O O18 0.750000 0.875592 0.945907
O O19 0.912613 0.990218 0.939349
O O20 0.974850 0.888815 0.026375
O O21 0.250000 0.896115 0.066974
#
# Coordination Sequence:
#
# PCOD8241080 Si02
#       8
#     8   8   8   8   8   8   8   8
#     4  10  19  32  49  70 101 137 172 211 258 314
#     4  10  19  34  57  78 102 138 175 214 259 314
#     4  10  20  33  50  72  99 136 180 219 261 318
#     4  11  20  30  46  68  99 135 172 216 262 307
#     4  11  21  32  52  81 109 137 171 218 268 312
#     4   9  19  36  56  79 106 138 177 215 256 313
#     4   9  16  26  42  64  94 131 167 205 252 307
#     4   8  15  26  41  64  93 126 165 208 253 299
#
# _framework density 18.766107999999999
#
# number of rings (size 3 to 8) (size 9 to 14) (size 15 to 20)
#    0.000    2.250    1.250    3.750    0.000    5.250 
#    0.000    0.625    0.000    4.125    0.000    0.875 
#    0.000    3.000    0.000    0.000    0.000    0.000 
#
# Total GULP energy -793335.129089 kJ/mol
# GULP energy per Si atom -12395.861392 kJ/mol
# Density = 1.872340 g / cm^3
# Si number density = 18.766108 Si / 1000 Ang^3
#
#
#
# Elastic Constant Matrix: (Units=GPa)
#
#
# Indices 1 2 3 4 5 6 
#
# 1 98.9780 24.5116 57.6842 0.0000 0.0000 0.0000
# 2 24.5116 56.7165 33.7488 0.0000 0.0000 0.0000
# 3 57.6842 33.7488 136.0779 0.0000 0.0000 0.0000
# 4 0.0000 0.0000 0.0000 9.8058 0.0000 0.0000
# 5 0.0000 0.0000 0.0000 0.0000 28.8191 0.0000
# 6 0.0000 0.0000 0.0000 0.0000 0.0000 15.5533
#
#
#
# Elastic Compliance Matrix: (Units=1/GPa)
#
#
# Indices 1 2 3 4 5 6 
#
# 1 0.013818 -0.002917 -0.005134 0.000000 0.000000 0.000000
# 2 -0.002917 0.021300 -0.004046 0.000000 0.000000 0.000000
# 3 -0.005134 -0.004046 0.010529 0.000000 0.000000 0.000000
# 4 0.000000 0.000000 0.000000 0.101980 0.000000 0.000000
# 5 0.000000 0.000000 0.000000 0.000000 0.034699 0.000000
# 6 0.000000 0.000000 0.000000 0.000000 0.000000 0.064295
#
#
# Mechanical properties :
#
#
# Convention : Reuss Voigt Hill
#
# Bulk Modulus (GPa) = 46.61530 58.18461 52.39995
# Shear Modulus (GPa) = 17.98789 22.55750 20.27270
#
# Velocity S-wave (km/s) = 3.09937 3.47080 3.29033
# Velocity P-wave (km/s) = 6.14021 6.86545 6.51293
#
# Compressibility (1/GPa) = 0.02145219
#
# Stress axis : x y z
#
# Youngs Moduli (GPa) = 72.37116 46.94899 94.97978
#
# Poissons Ratio (x) = 0.13694 0.48763
# Poissons Ratio (y) = 0.21109 0.38430
# Poissons Ratio (z) = 0.37155 0.18996
#
# Static dielectric constant tensor:
#      x y z
#    x 3.373360 0.000000 0.000000 
#    y 0.000000 3.077030 0.000000 
#    z 0.000000 0.000000 3.734290 
# 
# 
# High freq. dielectric constant tensor:
#      x y z
#    x 1.718810 0.000000 0.000000 
#    y 0.000000 1.679060 0.000000 
#    z 0.000000 0.000000 1.743860 
# 
# From -- ./inp_files/29598.got.cif
#   From: 2010.03.12/outbox.cif.g09.slc.cpg/sg59_15_cif.got.tgz:29598.got - 2010.04.16 16:29:54.
