data_PCOD8241887
_publ_section_title
;
Structure prediction by ZEFSAII (Michael W. Deem and Ramdas Pophale) SiO2 
 PCOD8241887
Probable space group: P M M N
;
_chemical_formula_sum "Si O2"
_cell_formula_units_Z 56
_cell_length_a 9.472552
_cell_length_b 20.345235
_cell_length_c 15.930634
_cell_angle_alpha 90.000000
_cell_angle_beta 90.000000
_cell_angle_gamma 90.000000
_cell_volume 3070.172438
_symmetry_space_group_name_H-M "P M M N"
_symmetry_group_IT_number 59
_space_group.IT_coordinate_system_code '2'
_symmetry_cell_setting 'orthorhombic'
loop_
_space_group_symop_operation_xyz
x,y,z
1/2-x,1/2-y,z
1/2+x,-y,-z
-x,1/2+y,-z
-x,-y,-z
1/2+x,1/2+y,-z
1/2-x,y,z
x,1/2-y,z
loop_
_atom_site_type_symbol
_atom_site_label
_atom_site_fract_x
_atom_site_fract_y
_atom_site_fract_z
Si Si1 0.091133 0.491614 0.918151
Si Si2 0.409690 0.072205 0.434568
Si Si3 0.085639 0.045096 0.620684
Si Si4 0.411104 0.322859 0.305030
Si Si5 0.082471 0.121056 0.788095
Si Si6 0.078868 0.750000 0.156427
Si Si7 0.083443 0.750000 0.964987
Si Si8 0.909843 0.134788 0.154516
O O1 0.250000 0.477059 0.947083
O O2 0.038647 0.432326 0.858741
O O3 0.081158 0.559500 0.869698
O O4 0.000000 0.500000 0.000000
O O5 0.250000 0.045759 0.428142
O O6 0.454136 0.079146 0.531905
O O7 0.426186 0.144329 0.396012
O O8 0.504367 0.023838 0.378407
O O9 0.250000 0.028658 0.629241
O O10 0.039865 0.091946 0.697144
O O11 0.250000 0.322937 0.274333
O O12 0.472054 0.250000 0.313878
O O13 0.499939 0.361976 0.237671
O O14 0.250000 0.137291 0.792113
O O15 0.988166 0.185830 0.800178
O O16 0.250000 0.750000 0.165709
O O17 0.025923 0.750000 0.059829
O O18 0.250000 0.750000 0.971087
O O19 0.029267 0.684344 0.916949
O O20 0.750000 0.156137 0.174221
#
# Coordination Sequence:
#
# PCOD8241887 Si02
#       8
#     8   8   8   8   8   4   4   8
#     4  10  21  35  54  80 111 141 178 227 271 318
#     4   9  18  33  54  81 109 139 174 216 263 311
#     4   9  18  35  58  81 104 138 180 217 262 316
#     4  10  20  33  48  75 112 141 171 212 260 313
#     4  10  21  38  56  80 110 142 182 227 273 323
#     4  11  23  39  59  78 101 138 182 229 277 325
#     4   9  18  33  53  76 103 138 180 221 261 311
#     4  10  19  34  55  78 105 141 181 217 258 315
#
# _framework density 18.240017999999999
#
# number of rings (size 3 to 8) (size 9 to 14) (size 15 to 20)
#    0.000    2.286    0.714    1.929    0.000    4.571 
#    1.286    1.429    0.000    0.000    0.000    0.000 
#    0.000    0.000    0.000    0.000    0.000    0.000 
#
# Total GULP energy -694276.493839 kJ/mol
# GULP energy per Si atom -12397.794533 kJ/mol
# Density = 1.819850 g / cm^3
# Si number density = 18.240018 Si / 1000 Ang^3
#
#
#
# Elastic Constant Matrix: (Units=GPa)
#
#
# Indices 1 2 3 4 5 6 
#
# 1 58.7496 45.4046 49.1141 0.0000 0.0000 0.0000
# 2 45.4046 105.1424 55.5229 0.0000 0.0000 0.0000
# 3 49.1141 55.5229 121.2342 0.0000 0.0000 0.0000
# 4 0.0000 0.0000 0.0000 28.9884 0.0000 0.0000
# 5 0.0000 0.0000 0.0000 0.0000 29.5169 0.0000
# 6 0.0000 0.0000 0.0000 0.0000 0.0000 24.7407
#
#
#
# Elastic Compliance Matrix: (Units=1/GPa)
#
#
# Indices 1 2 3 4 5 6 
#
# 1 0.030991 -0.008907 -0.008476 0.000000 0.000000 0.000000
# 2 -0.008907 0.015105 -0.003309 0.000000 0.000000 0.000000
# 3 -0.008476 -0.003309 0.013198 0.000000 0.000000 0.000000
# 4 0.000000 0.000000 0.000000 0.034497 0.000000 0.000000
# 5 0.000000 0.000000 0.000000 0.000000 0.033879 0.000000
# 6 0.000000 0.000000 0.000000 0.000000 0.000000 0.040419
#
#
# Mechanical properties :
#
#
# Convention : Reuss Voigt Hill
#
# Bulk Modulus (GPa) = 55.83721 65.02326 60.43024
# Shear Modulus (GPa) = 23.20805 25.65484 24.43145
#
# Velocity S-wave (km/s) = 3.57090 3.75442 3.66381
# Velocity P-wave (km/s) = 6.90512 7.38379 7.14846
#
# Compressibility (1/GPa) = 0.01790920
#
# Stress axis : x y z
#
# Youngs Moduli (GPa) = 32.26746 66.20321 75.77097
#
# Poissons Ratio (x) = 0.58970 0.64220
# Poissons Ratio (y) = 0.28742 0.25074
# Poissons Ratio (z) = 0.27348 0.21908
#
# Static dielectric constant tensor:
#      x y z
#    x 3.282020 0.000000 0.000000 
#    y 0.000000 3.302140 0.000000 
#    z 0.000000 0.000000 3.480560 
# 
# 
# High freq. dielectric constant tensor:
#      x y z
#    x 1.696790 0.000000 0.000000 
#    y 0.000000 1.710250 0.000000 
#    z 0.000000 0.000000 1.712030 
# 
# From -- ./inp_files/21154.got.cif
#   From: 2010.03.12/outbox.cif.g09.slc.cpg/sg59_11_cif.got.tgz:21154.got - 2010.04.16 16:29:54.
