data_PCOD8241400
_publ_section_title
;
Structure prediction by ZEFSAII (Michael W. Deem and Ramdas Pophale) SiO2 
 PCOD8241400
Probable space group: P M M N
;
_chemical_formula_sum "Si O2"
_cell_formula_units_Z 64
_cell_length_a 8.828040
_cell_length_b 20.411970
_cell_length_c 19.374317
_cell_angle_alpha 90.000000
_cell_angle_beta 90.000000
_cell_angle_gamma 90.000000
_cell_volume 3491.207123
_symmetry_space_group_name_H-M "P M M N"
_symmetry_group_IT_number 59
_space_group.IT_coordinate_system_code '2'
_symmetry_cell_setting 'orthorhombic'
loop_
_space_group_symop_operation_xyz
x,y,z
1/2-x,1/2-y,z
1/2+x,-y,-z
-x,1/2+y,-z
-x,-y,-z
1/2+x,1/2+y,-z
1/2-x,y,z
x,1/2-y,z
loop_
_atom_site_type_symbol
_atom_site_label
_atom_site_fract_x
_atom_site_fract_y
_atom_site_fract_z
Si Si1 0.427999 0.060735 0.540086
Si Si2 0.575720 0.121598 0.317221
Si Si3 0.922199 0.324045 0.463026
Si Si4 0.423630 0.824309 0.958200
Si Si5 0.928471 0.483221 0.672278
Si Si6 0.925103 0.866613 0.822465
Si Si7 0.922582 0.020714 0.827364
Si Si8 0.927498 0.560934 0.039269
O O1 0.250000 0.049535 0.544112
O O2 0.462899 0.128624 0.502294
O O3 0.496477 0.065684 0.617253
O O4 0.500000 0.000000 0.500000
O O5 0.750000 0.107617 0.298573
O O6 0.558104 0.171332 0.380571
O O7 0.493953 0.153499 0.251264
O O8 0.497316 0.054505 0.340075
O O9 0.750000 0.343110 0.483155
O O10 0.959633 0.250000 0.485377
O O11 0.250000 0.847578 0.957448
O O12 0.438741 0.750000 0.985252
O O13 0.487727 0.827034 0.880959
O O14 0.516967 0.870427 0.009148
O O15 0.750000 0.488369 0.660046
O O16 0.963994 0.457479 0.749514
O O17 0.750000 0.846750 0.823562
O O18 0.947888 0.943476 0.835759
O O19 0.750000 0.039191 0.845065
O O20 0.031320 0.058850 0.879830
O O21 0.750000 0.556379 0.028627
O O22 0.000000 0.500000 0.000000
#
# Coordination Sequence:
#
# PCOD8241400 Si02
#       8
#     8   8   8   8   8   8   8   8
#     4  12  23  36  58  85 114 148 190 237 285 336
#     4  10  19  32  53  80 114 153 191 232 276 332
#     4  10  22  39  57  80 113 152 192 234 283 337
#     4  11  24  40  58  81 112 151 194 238 285 339
#     4  10  20  35  57  84 115 147 185 234 285 337
#     4  10  20  34  54  80 114 153 190 232 278 333
#     4   9  19  35  56  84 115 146 184 230 280 333
#     4  12  23  36  59  86 115 149 188 234 282 335
#
# _framework density 18.331769000000001
#
# number of rings (size 3 to 8) (size 9 to 14) (size 15 to 20)
#    0.000    1.500    2.500    4.500    0.000    4.750 
#    0.000    1.250    0.000    0.750    0.000    5.250 
#    0.000    0.000    0.000    0.000    0.000    0.000 
#
# Total GULP energy -793846.656947 kJ/mol
# GULP energy per Si atom -12403.854015 kJ/mol
# Density = 1.829004 g / cm^3
# Si number density = 18.331769 Si / 1000 Ang^3
#
#
#
# Elastic Constant Matrix: (Units=GPa)
#
#
# Indices 1 2 3 4 5 6 
#
# 1 136.2101 39.9690 53.7955 0.0000 0.0000 0.0000
# 2 39.9690 71.8792 39.9127 0.0000 0.0000 0.0000
# 3 53.7955 39.9127 103.8976 0.0000 0.0000 0.0000
# 4 0.0000 0.0000 0.0000 21.5779 0.0000 0.0000
# 5 0.0000 0.0000 0.0000 0.0000 35.7178 0.0000
# 6 0.0000 0.0000 0.0000 0.0000 0.0000 25.6605
#
#
#
# Elastic Compliance Matrix: (Units=1/GPa)
#
#
# Indices 1 2 3 4 5 6 
#
# 1 0.009826 -0.003354 -0.003799 0.000000 0.000000 0.000000
# 2 -0.003354 0.018830 -0.005497 0.000000 0.000000 0.000000
# 3 -0.003799 -0.005497 0.013704 0.000000 0.000000 0.000000
# 4 0.000000 0.000000 0.000000 0.046344 0.000000 0.000000
# 5 0.000000 0.000000 0.000000 0.000000 0.027997 0.000000
# 6 0.000000 0.000000 0.000000 0.000000 0.000000 0.038970
#
#
# Mechanical properties :
#
#
# Convention : Reuss Voigt Hill
#
# Bulk Modulus (GPa) = 58.62016 64.37125 61.49570
# Shear Modulus (GPa) = 26.78697 28.47856 27.63276
#
# Velocity S-wave (km/s) = 3.82675 3.94573 3.88670
# Velocity P-wave (km/s) = 7.18138 7.47992 7.33217
#
# Compressibility (1/GPa) = 0.01705898
#
# Stress axis : x y z
#
# Youngs Moduli (GPa) = 101.76669 53.10778 72.97367
#
# Poissons Ratio (x) = 0.17815 0.27724
# Poissons Ratio (y) = 0.34137 0.40111
# Poissons Ratio (z) = 0.38664 0.29192
#
# Static dielectric constant tensor:
#      x y z
#    x 3.504450 0.000000 0.000000 
#    y 0.000000 3.077290 0.000000 
#    z 0.000000 0.000000 3.550010 
# 
# 
# High freq. dielectric constant tensor:
#      x y z
#    x 1.724940 0.000000 0.000000 
#    y 0.000000 1.680280 0.000000 
#    z 0.000000 0.000000 1.716360 
# 
# From -- ./inp_files/26323.got.cif
#   From: 2010.03.12/outbox.cif.g09.slc.cpg/sg59_14_cif.got.tgz:26323.got - 2010.04.16 16:29:54.
