data_PCOD8241916
_publ_section_title
;
Structure prediction by ZEFSAII (Michael W. Deem and Ramdas Pophale) SiO2 
 PCOD8241916
Probable space group: P M M N
;
_chemical_formula_sum "Si O2"
_cell_formula_units_Z 64
_cell_length_a 17.976120
_cell_length_b 22.938229
_cell_length_c 8.045695
_cell_angle_alpha 90.000000
_cell_angle_beta 90.000000
_cell_angle_gamma 90.000000
_cell_volume 3317.564749
_symmetry_space_group_name_H-M "P M M N"
_symmetry_group_IT_number 59
_space_group.IT_coordinate_system_code '2'
_symmetry_cell_setting 'orthorhombic'
loop_
_space_group_symop_operation_xyz
x,y,z
1/2-x,1/2-y,z
1/2+x,-y,-z
-x,1/2+y,-z
-x,-y,-z
1/2+x,1/2+y,-z
1/2-x,y,z
x,1/2-y,z
loop_
_atom_site_type_symbol
_atom_site_label
_atom_site_fract_x
_atom_site_fract_y
_atom_site_fract_z
Si Si1 0.457926 0.683738 0.911613
Si Si2 0.957975 0.588263 0.481080
Si Si3 0.025666 0.186370 0.749365
Si Si4 0.603026 0.028853 0.420492
Si Si5 0.335272 0.592526 0.891585
Si Si6 0.168649 0.184077 0.940256
Si Si7 0.338129 0.513875 0.209136
Si Si8 0.601050 0.888450 0.802821
O O1 0.461790 0.750000 0.833325
O O2 0.380501 0.652644 0.868058
O O3 0.523470 0.639797 0.861448
O O4 0.463896 0.690772 0.109295
O O5 0.000295 0.637262 0.376661
O O6 0.913338 0.539159 0.378557
O O7 0.897864 0.618765 0.603519
O O8 0.023258 0.560133 0.591574
O O9 0.033777 0.250000 0.663736
O O10 0.106564 0.163312 0.811068
O O11 0.654595 0.052155 0.272087
O O12 0.638712 0.036615 0.605871
O O13 0.250000 0.611169 0.900466
O O14 0.357905 0.560417 0.064250
O O15 0.250000 0.178376 0.858100
O O16 0.149532 0.250000 0.992789
O O17 0.167394 0.146521 0.109266
O O18 0.250000 0.499722 0.209385
O O19 0.387032 0.457197 0.159949
#
# Coordination Sequence:
#
# PCOD8241916 Si02
#       8
#     8   8   8   8   8   8   8   8
#     4  10  21  38  58  83 112 148 195 245 287 339
#     4  10  20  35  54  82 113 147 185 241 291 342
#     4   9  19  34  55  82 110 147 194 238 283 336
#     4  10  21  38  55  85 120 147 190 240 295 347
#     4  11  23  39  62  87 114 157 197 238 302 357
#     4   9  18  33  51  74 109 151 192 233 278 334
#     4  10  22  37  57  88 122 153 190 236 289 355
#     4  10  19  34  55  82 113 145 186 235 284 342
#
# _framework density 19.291259
#
# number of rings (size 3 to 8) (size 9 to 14) (size 15 to 20)
#    0.000    2.125    1.250    2.625    3.500    1.750 
#    0.000    3.125    0.000    1.500    0.000    1.750 
#    0.000    0.000    0.000    0.000    0.000    0.000 
#
# Total GULP energy -792880.074320 kJ/mol
# GULP energy per Si atom -12388.751161 kJ/mol
# Density = 1.924735 g / cm^3
# Si number density = 19.291259 Si / 1000 Ang^3
#
#
#
# Elastic Constant Matrix: (Units=GPa)
#
#
# Indices 1 2 3 4 5 6 
#
# 1 73.3418 32.5073 7.4536 0.0000 0.0000 0.0000
# 2 32.5073 103.6858 39.1507 0.0000 0.0000 0.0000
# 3 7.4536 39.1507 71.4230 0.0000 0.0000 0.0000
# 4 0.0000 0.0000 0.0000 26.1061 0.0000 0.0000
# 5 0.0000 0.0000 0.0000 0.0000 22.3981 0.0000
# 6 0.0000 0.0000 0.0000 0.0000 0.0000 27.6118
#
#
#
# Elastic Compliance Matrix: (Units=1/GPa)
#
#
# Indices 1 2 3 4 5 6 
#
# 1 0.015939 -0.005509 0.001357 0.000000 0.000000 0.000000
# 2 -0.005509 0.014066 -0.007135 0.000000 0.000000 0.000000
# 3 0.001357 -0.007135 0.017771 0.000000 0.000000 0.000000
# 4 0.000000 0.000000 0.000000 0.038305 0.000000 0.000000
# 5 0.000000 0.000000 0.000000 0.000000 0.044647 0.000000
# 6 0.000000 0.000000 0.000000 0.000000 0.000000 0.036216
#
#
# Mechanical properties :
#
#
# Convention : Reuss Voigt Hill
#
# Bulk Modulus (GPa) = 39.68344 45.18597 42.43470
# Shear Modulus (GPa) = 25.26274 26.51247 25.88761
#
# Velocity S-wave (km/s) = 3.62269 3.71121 3.66722
# Velocity P-wave (km/s) = 6.17364 6.46823 6.32265
#
# Compressibility (1/GPa) = 0.02519943
#
# Stress axis : x y z
#
# Youngs Moduli (GPa) = 62.73984 71.09315 56.27205
#
# Poissons Ratio (x) = 0.39168 -0.07634
# Poissons Ratio (y) = 0.34566 0.40152
# Poissons Ratio (z) = -0.08511 0.50728
#
# Static dielectric constant tensor:
#      x y z
#    x 3.476780 0.000000 0.000000 
#    y 0.000000 3.721800 0.000000 
#    z 0.000000 0.000000 3.439200 
# 
# 
# High freq. dielectric constant tensor:
#      x y z
#    x 1.740670 0.000000 0.000000 
#    y 0.000000 1.754920 0.000000 
#    z 0.000000 0.000000 1.737180 
# 
# From -- ./inp_files/10710.got.cif
#   From: 2010.03.12/outbox.cif.g09.slc.cpg/sg59_6_cif.got.tgz:10710.got - 2010.04.16 16:29:54.
