data_PCOD8241278
_publ_section_title
;
Structure prediction by ZEFSAII (Michael W. Deem and Ramdas Pophale) SiO2 
 PCOD8241278
Probable space group: P M M N
;
_chemical_formula_sum "Si O2"
_cell_formula_units_Z 64
_cell_length_a 23.160690
_cell_length_b 9.222138
_cell_length_c 17.243017
_cell_angle_alpha 90.000000
_cell_angle_beta 90.000000
_cell_angle_gamma 90.000000
_cell_volume 3682.954612
_symmetry_space_group_name_H-M "P M M N"
_symmetry_group_IT_number 59
_space_group.IT_coordinate_system_code '2'
_symmetry_cell_setting 'orthorhombic'
loop_
_space_group_symop_operation_xyz
x,y,z
1/2-x,1/2-y,z
1/2+x,-y,-z
-x,1/2+y,-z
-x,-y,-z
1/2+x,1/2+y,-z
1/2-x,y,z
x,1/2-y,z
loop_
_atom_site_type_symbol
_atom_site_label
_atom_site_fract_x
_atom_site_fract_y
_atom_site_fract_z
Si Si1 0.990788 0.078446 0.919523
Si Si2 0.098653 0.412391 0.174638
Si Si3 0.184776 0.578963 0.552049
Si Si4 0.106635 0.582852 0.411688
Si Si5 0.017612 0.412258 0.322825
Si Si6 0.432100 0.417545 0.776438
Si Si7 0.315596 0.915106 0.262863
Si Si8 0.814218 0.917221 0.291278
O O1 0.986440 0.250000 0.931930
O O2 0.042766 0.035882 0.860309
O O3 0.930584 0.017904 0.887493
O O4 0.000000 0.000000 0.000000
O O5 0.106156 0.250000 0.140547
O O6 0.061367 0.408503 0.251919
O O7 0.160551 0.480416 0.195395
O O8 0.250000 0.535207 0.526833
O O9 0.180166 0.750000 0.561690
O O10 0.138534 0.523974 0.488664
O O11 0.168725 0.507893 0.633466
O O12 0.088693 0.750000 0.420546
O O13 0.048172 0.492388 0.395404
O O14 0.151661 0.560967 0.342848
O O15 0.000460 0.250000 0.349030
O O16 0.960408 0.495240 0.294833
O O17 0.447373 0.250000 0.762144
O O18 0.362888 0.446646 0.774668
O O19 0.250000 0.957790 0.278225
O O20 0.322474 0.750000 0.234277
O O21 0.750000 0.960575 0.260028
O O22 0.814988 0.750000 0.315901
#
# Coordination Sequence:
#
# PCOD8241278 Si02
#       8
#     8   8   8   8   8   8   8   8
#     4  10  19  32  52  76  98 120 147 182 226 276
#     4   9  17  29  44  65  94 123 152 188 227 268
#     4   9  17  29  45  66  92 123 161 204 246 285
#     4   9  16  27  43  63  91 126 162 200 241 283
#     4   9  17  28  44  67  93 121 155 196 237 275
#     4   9  18  33  52  72  95 123 153 185 227 283
#     4   9  16  26  42  64  90 124 163 196 228 270
#     4   9  18  33  52  72  93 119 153 193 235 278
#
# _framework density 17.377351999999998
#
# number of rings (size 3 to 8) (size 9 to 14) (size 15 to 20)
#    0.000    2.875    0.000    1.500    0.000    6.250 
#    0.000    0.625    0.000    3.000    0.000    1.750 
#    0.000    0.000    0.000    0.000    0.000    0.000 
#
# Total GULP energy -793345.148725 kJ/mol
# GULP energy per Si atom -12396.017949 kJ/mol
# Density = 1.733780 g / cm^3
# Si number density = 17.377352 Si / 1000 Ang^3
#
#
#
# Elastic Constant Matrix: (Units=GPa)
#
#
# Indices 1 2 3 4 5 6 
#
# 1 92.4513 35.8635 37.5572 0.0000 0.0000 0.0000
# 2 35.8635 71.1431 32.7643 0.0000 0.0000 0.0000
# 3 37.5572 32.7643 68.8088 0.0000 0.0000 0.0000
# 4 0.0000 0.0000 0.0000 25.8405 0.0000 0.0000
# 5 0.0000 0.0000 0.0000 0.0000 21.2720 0.0000
# 6 0.0000 0.0000 0.0000 0.0000 0.0000 22.5396
#
#
#
# Elastic Compliance Matrix: (Units=1/GPa)
#
#
# Indices 1 2 3 4 5 6 
#
# 1 0.015121 -0.004895 -0.005923 0.000000 0.000000 0.000000
# 2 -0.004895 0.019589 -0.006656 0.000000 0.000000 0.000000
# 3 -0.005923 -0.006656 0.020935 0.000000 0.000000 0.000000
# 4 0.000000 0.000000 0.000000 0.038699 0.000000 0.000000
# 5 0.000000 0.000000 0.000000 0.000000 0.047010 0.000000
# 6 0.000000 0.000000 0.000000 0.000000 0.000000 0.044366
#
#
# Mechanical properties :
#
#
# Convention : Reuss Voigt Hill
#
# Bulk Modulus (GPa) = 48.31308 49.41924 48.86616
# Shear Modulus (GPa) = 21.97150 22.34497 22.15823
#
# Velocity S-wave (km/s) = 3.55966 3.58979 3.57476
# Velocity P-wave (km/s) = 6.69011 6.75890 6.72459
#
# Compressibility (1/GPa) = 0.02069833
#
# Stress axis : x y z
#
# Youngs Moduli (GPa) = 66.13134 51.04887 47.76696
#
# Poissons Ratio (x) = 0.24989 0.28291
# Poissons Ratio (y) = 0.32372 0.31793
# Poissons Ratio (z) = 0.39168 0.33977
#
# Static dielectric constant tensor:
#      x y z
#    x 3.375760 0.000000 0.000000 
#    y 0.000000 3.383560 0.000000 
#    z 0.000000 0.000000 3.038920 
# 
# 
# High freq. dielectric constant tensor:
#      x y z
#    x 1.668050 0.000000 0.000000 
#    y 0.000000 1.674890 0.000000 
#    z 0.000000 0.000000 1.637520 
# 
# From -- ./inp_files/24803.got.cif
#   From: 2010.03.12/outbox.cif.g09.slc.cpg/sg59_13_cif.got.tgz:24803.got - 2010.04.16 16:29:54.
