data_PCOD8241211
_publ_section_title
;
Structure prediction by ZEFSAII (Michael W. Deem and Ramdas Pophale) SiO2 
 PCOD8241211
Probable space group: P M M N
;
_chemical_formula_sum "Si O2"
_cell_formula_units_Z 48
_cell_length_a 19.402944
_cell_length_b 8.930163
_cell_length_c 15.074778
_cell_angle_alpha 90.000000
_cell_angle_beta 90.000000
_cell_angle_gamma 90.000000
_cell_volume 2612.028682
_symmetry_space_group_name_H-M "P M M N"
_symmetry_group_IT_number 59
_space_group.IT_coordinate_system_code '2'
_symmetry_cell_setting 'orthorhombic'
loop_
_space_group_symop_operation_xyz
x,y,z
1/2-x,1/2-y,z
1/2+x,-y,-z
-x,1/2+y,-z
-x,-y,-z
1/2+x,1/2+y,-z
1/2-x,y,z
x,1/2-y,z
loop_
_atom_site_type_symbol
_atom_site_label
_atom_site_fract_x
_atom_site_fract_y
_atom_site_fract_z
Si Si1 0.826260 0.927810 0.871092
Si Si2 0.173111 0.572561 0.605583
Si Si3 0.090907 0.573128 0.774628
Si Si4 0.063164 0.427766 0.270262
Si Si5 0.932973 0.427424 0.542216
Si Si6 0.671261 0.574552 0.070343
O O1 0.750000 0.986563 0.843963
O O2 0.826017 0.750000 0.870801
O O3 0.882555 0.988567 0.802182
O O4 0.844384 0.982081 0.970487
O O5 0.250000 0.504333 0.600546
O O6 0.176080 0.750000 0.613289
O O7 0.134839 0.507400 0.692422
O O8 0.132109 0.525348 0.517667
O O9 0.096906 0.750000 0.778147
O O10 0.118685 0.509527 0.866285
O O11 0.012135 0.522896 0.762328
O O12 0.067667 0.250000 0.284622
O O13 0.081915 0.509043 0.361092
O O14 0.943299 0.250000 0.544981
O O15 0.000000 0.500000 0.500000
O O16 0.750000 0.535286 0.096108
O O17 0.658045 0.750000 0.079008
#
# Coordination Sequence:
#
# PCOD8241211 Si02
#       6
#     8   8   8   8   8   8
#     4   8  16  33  55  76 104 142 177 213 260 310
#     4   9  18  33  52  74 102 137 173 206 251 312
#     4  10  19  32  51  76 105 138 173 211 258 313
#     4  10  20  35  55  79 104 136 177 215 257 313
#     4  11  21  36  56  77 104 139 174 212 259 309
#     4   9  18  33  52  75 104 139 177 216 259 306
#
# _framework density 18.376522000000001
#
# number of rings (size 3 to 8) (size 9 to 14) (size 15 to 20)
#    0.000    2.500    1.667    2.000    0.000    3.000 
#    0.000    0.833    0.000    3.500    0.000    0.000 
#    0.000    0.000    0.000    0.000    0.000    0.000 
#
# Total GULP energy -595164.663321 kJ/mol
# GULP energy per Si atom -12399.263819 kJ/mol
# Density = 1.833470 g / cm^3
# Si number density = 18.376522 Si / 1000 Ang^3
#
#
#
# Elastic Constant Matrix: (Units=GPa)
#
#
# Indices 1 2 3 4 5 6 
#
# 1 174.1851 30.3248 108.8872 0.0000 0.0000 0.0000
# 2 30.3248 24.2547 31.1033 0.0000 0.0000 0.0000
# 3 108.8872 31.1033 169.8253 0.0000 0.0000 0.0000
# 4 0.0000 0.0000 0.0000 31.3838 0.0000 0.0000
# 5 0.0000 0.0000 0.0000 0.0000 41.8211 0.0000
# 6 0.0000 0.0000 0.0000 0.0000 0.0000 13.2035
#
#
#
# Elastic Compliance Matrix: (Units=1/GPa)
#
#
# Indices 1 2 3 4 5 6 
#
# 1 0.010146 -0.005676 -0.005466 0.000000 0.000000 0.000000
# 2 -0.005676 0.057060 -0.006811 0.000000 0.000000 0.000000
# 3 -0.005466 -0.006811 0.010640 0.000000 0.000000 0.000000
# 4 0.000000 0.000000 0.000000 0.031864 0.000000 0.000000
# 5 0.000000 0.000000 0.000000 0.000000 0.023911 0.000000
# 6 0.000000 0.000000 0.000000 0.000000 0.000000 0.075737
#
#
# Mechanical properties :
#
#
# Convention : Reuss Voigt Hill
#
# Bulk Modulus (GPa) = 23.84334 78.76620 51.30477
# Shear Modulus (GPa) = 19.28680 30.47834 24.88257
#
# Velocity S-wave (km/s) = 3.24317 4.07695 3.68372
# Velocity P-wave (km/s) = 5.19877 8.06954 6.78766
#
# Compressibility (1/GPa) = 0.04194043
#
# Stress axis : x y z
#
# Youngs Moduli (GPa) = 98.56131 17.52540 93.98208
#
# Poissons Ratio (x) = 0.09948 0.51368
# Poissons Ratio (y) = 0.55945 0.64012
# Poissons Ratio (z) = 0.53871 0.11937
#
# Static dielectric constant tensor:
#      x y z
#    x 3.728340 0.000000 0.000000 
#    y 0.000000 3.001340 0.000000 
#    z 0.000000 0.000000 3.698280 
# 
# 
# High freq. dielectric constant tensor:
#      x y z
#    x 1.721370 0.000000 0.000000 
#    y 0.000000 1.675060 0.000000 
#    z 0.000000 0.000000 1.724330 
# 
# From -- ./inp_files/17623.got.cif
#   From: 2010.03.12/outbox.cif.g09.slc.cpg/sg59_9_cif.got.tgz:17623.got - 2010.04.16 16:29:54.
