data_PCOD8241643
_publ_section_title
;
Structure prediction by ZEFSAII (Michael W. Deem and Ramdas Pophale) SiO2 
 PCOD8241643
Probable space group: P M M N
;
_chemical_formula_sum "Si O2"
_cell_formula_units_Z 64
_cell_length_a 19.257603
_cell_length_b 8.926052
_cell_length_c 20.180327
_cell_angle_alpha 90.000000
_cell_angle_beta 90.000000
_cell_angle_gamma 90.000000
_cell_volume 3468.884511
_symmetry_space_group_name_H-M "P M M N"
_symmetry_group_IT_number 59
_space_group.IT_coordinate_system_code '2'
_symmetry_cell_setting 'orthorhombic'
loop_
_space_group_symop_operation_xyz
x,y,z
1/2-x,1/2-y,z
1/2+x,-y,-z
-x,1/2+y,-z
-x,-y,-z
1/2+x,1/2+y,-z
1/2-x,y,z
x,1/2-y,z
loop_
_atom_site_type_symbol
_atom_site_label
_atom_site_fract_x
_atom_site_fract_y
_atom_site_fract_z
Si Si1 0.170578 0.426779 0.341349
Si Si2 0.332480 0.581429 0.474349
Si Si3 0.899337 0.422091 0.039570
Si Si4 0.054947 0.076902 0.087023
Si Si5 0.330757 0.420860 0.845437
Si Si6 0.060956 0.072530 0.234942
Si Si7 0.091143 0.927035 0.728014
Si Si8 0.830044 0.926616 0.392668
O O1 0.250000 0.474697 0.327403
O O2 0.164069 0.250000 0.350639
O O3 0.140402 0.501320 0.407965
O O4 0.124465 0.485252 0.280027
O O5 0.250000 0.578072 0.473841
O O6 0.361519 0.750000 0.476388
O O7 0.359622 0.494078 0.538887
O O8 0.875979 0.250000 0.039431
O O9 0.844063 0.519516 0.080471
O O10 0.973698 0.444249 0.073639
O O11 0.899900 0.480965 0.964336
O O12 0.076508 0.250000 0.079809
O O13 0.070611 0.011488 0.160232
O O14 0.250000 0.429469 0.828916
O O15 0.357356 0.250000 0.838762
O O16 0.370370 0.528443 0.795096
O O17 0.059824 0.250000 0.230400
O O18 0.988532 0.019060 0.266807
O O19 0.098014 0.750000 0.717868
O O20 0.124514 0.010602 0.666451
O O21 0.750000 0.973498 0.381200
O O22 0.838096 0.750000 0.395961
#
# Coordination Sequence:
#
# PCOD8241643 Si02
#       8
#     8   8   8   8   8   8   8   8
#     4   9  17  32  56  81 103 132 170 213 263 317
#     4   9  17  31  52  77 104 135 173 216 261 312
#     4  10  19  33  54  79 103 135 178 220 264 311
#     4   9  17  33  54  76 105 138 173 216 262 311
#     4  11  23  37  53  76 108 144 181 223 269 317
#     4   9  18  34  54  78 108 140 175 216 260 313
#     4  11  21  35  53  76 106 142 181 219 263 314
#     4  10  20  34  52  76 106 139 177 220 263 310
#
# _framework density 18.449733999999999
#
# number of rings (size 3 to 8) (size 9 to 14) (size 15 to 20)
#    0.000    2.250    1.250    2.250    0.000    5.250 
#    0.000    3.125    0.000    2.250    0.000    0.000 
#    0.000    0.000    0.000    0.000    0.000    0.000 
#
# Total GULP energy -793695.496101 kJ/mol
# GULP energy per Si atom -12401.492127 kJ/mol
# Density = 1.840774 g / cm^3
# Si number density = 18.449734 Si / 1000 Ang^3
#
#
#
# Elastic Constant Matrix: (Units=GPa)
#
#
# Indices 1 2 3 4 5 6 
#
# 1 66.4739 25.0608 52.5855 0.0000 0.0000 0.0000
# 2 25.0608 61.2221 37.4391 0.0000 0.0000 0.0000
# 3 52.5855 37.4391 161.4274 0.0000 0.0000 0.0000
# 4 0.0000 0.0000 0.0000 34.0660 0.0000 0.0000
# 5 0.0000 0.0000 0.0000 0.0000 30.5542 0.0000
# 6 0.0000 0.0000 0.0000 0.0000 0.0000 17.6275
#
#
#
# Elastic Compliance Matrix: (Units=1/GPa)
#
#
# Indices 1 2 3 4 5 6 
#
# 1 0.021648 -0.005301 -0.005822 0.000000 0.000000 0.000000
# 2 -0.005301 0.020331 -0.002989 0.000000 0.000000 0.000000
# 3 -0.005822 -0.002989 0.008785 0.000000 0.000000 0.000000
# 4 0.000000 0.000000 0.000000 0.029355 0.000000 0.000000
# 5 0.000000 0.000000 0.000000 0.000000 0.032729 0.000000
# 6 0.000000 0.000000 0.000000 0.000000 0.000000 0.056729
#
#
# Mechanical properties :
#
#
# Convention : Reuss Voigt Hill
#
# Bulk Modulus (GPa) = 44.36535 57.69936 51.03235
# Shear Modulus (GPa) = 24.35295 28.05209 26.20252
#
# Velocity S-wave (km/s) = 3.63707 3.90354 3.77266
# Velocity P-wave (km/s) = 6.46038 7.18739 6.83356
#
# Compressibility (1/GPa) = 0.02254011
#
# Stress axis : x y z
#
# Youngs Moduli (GPa) = 46.19387 49.18492 113.83601
#
# Poissons Ratio (x) = 0.26072 0.66281
# Poissons Ratio (y) = 0.24486 0.34021
# Poissons Ratio (z) = 0.26896 0.14700
#
# Static dielectric constant tensor:
#      x y z
#    x 3.223040 0.000000 0.000000 
#    y 0.000000 3.375790 0.000000 
#    z 0.000000 0.000000 3.655970 
# 
# 
# High freq. dielectric constant tensor:
#      x y z
#    x 1.685670 0.000000 0.000000 
#    y 0.000000 1.712140 0.000000 
#    z 0.000000 0.000000 1.729390 
# 
# From -- ./inp_files/28197.got.cif
#   From: 2010.03.12/outbox.cif.g09.slc.cpg/sg59_15_cif.got.tgz:28197.got - 2010.04.16 16:29:54.
