data_PCOD8241413
_publ_section_title
;
Structure prediction by ZEFSAII (Michael W. Deem and Ramdas Pophale) SiO2 
 PCOD8241413
Probable space group: P M M N
;
_chemical_formula_sum "Si O2"
_cell_formula_units_Z 56
_cell_length_a 20.743798
_cell_length_b 14.539286
_cell_length_c 9.010767
_cell_angle_alpha 90.000000
_cell_angle_beta 90.000000
_cell_angle_gamma 90.000000
_cell_volume 2717.647434
_symmetry_space_group_name_H-M "P M M N"
_symmetry_group_IT_number 59
_space_group.IT_coordinate_system_code '2'
_symmetry_cell_setting 'orthorhombic'
loop_
_space_group_symop_operation_xyz
x,y,z
1/2-x,1/2-y,z
1/2+x,-y,-z
-x,1/2+y,-z
-x,-y,-z
1/2+x,1/2+y,-z
1/2-x,y,z
x,1/2-y,z
loop_
_atom_site_type_symbol
_atom_site_label
_atom_site_fract_x
_atom_site_fract_y
_atom_site_fract_z
Si Si1 0.677121 0.352885 0.364620
Si Si2 0.325233 0.144734 0.563867
Si Si3 0.366737 0.853530 0.947528
Si Si4 0.181440 0.473973 0.076548
Si Si5 0.131027 0.984070 0.385380
Si Si6 0.606029 0.854122 0.136313
Si Si7 0.537854 0.356307 0.793277
O O1 0.750000 0.365034 0.303932
O O2 0.665089 0.250000 0.422098
O O3 0.627075 0.375270 0.229385
O O4 0.668294 0.416934 0.505155
O O5 0.250000 0.117568 0.538125
O O6 0.337966 0.250000 0.514598
O O7 0.339957 0.132792 0.738132
O O8 0.376707 0.080126 0.475992
O O9 0.340401 0.750000 0.967162
O O10 0.433097 0.867371 0.040115
O O11 0.314830 0.922887 0.013479
O O12 0.250000 0.425215 0.043711
O O13 0.175184 0.483371 0.251458
O O14 0.123332 0.416852 0.004378
O O15 0.068207 0.930017 0.323101
O O16 0.603216 0.750000 0.078193
O O17 0.536726 0.883364 0.199597
O O18 0.547587 0.250000 0.738741
#
# Coordination Sequence:
#
# PCOD8241413 Si02
#       7
#     8   8   8   8   8   8   8
#     4  10  19  32  53  82 115 151 189 228 277 341
#     4  10  21  38  59  83 114 153 195 239 289 343
#     4   9  19  35  56  82 114 151 190 234 283 340
#     4  11  22  35  57  86 112 144 188 238 292 344
#     4  11  22  36  57  84 119 152 185 232 290 345
#     4  10  22  41  63  84 111 151 198 245 289 340
#     4   9  20  40  62  86 117 152 192 238 290 345
#
# _framework density 20.606055999999999
#
# number of rings (size 3 to 8) (size 9 to 14) (size 15 to 20)
#    0.000    2.000    0.000    3.429    0.000    5.714 
#    0.000    1.429    0.000    6.000    0.000    0.000 
#    0.000    0.000    0.000    0.000    0.000    0.000 
#
# Total GULP energy -693881.573756 kJ/mol
# GULP energy per Si atom -12390.742388 kJ/mol
# Density = 2.055916 g / cm^3
# Si number density = 20.606056 Si / 1000 Ang^3
#
#
#
# Elastic Constant Matrix: (Units=GPa)
#
#
# Indices 1 2 3 4 5 6 
#
# 1 84.8157 36.6922 26.4454 0.0000 0.0000 0.0000
# 2 36.6922 102.9996 55.9740 0.0000 0.0000 0.0000
# 3 26.4454 55.9740 110.2334 0.0000 0.0000 0.0000
# 4 0.0000 0.0000 0.0000 32.2892 0.0000 0.0000
# 5 0.0000 0.0000 0.0000 0.0000 19.7161 0.0000
# 6 0.0000 0.0000 0.0000 0.0000 0.0000 20.8990
#
#
#
# Elastic Compliance Matrix: (Units=1/GPa)
#
#
# Indices 1 2 3 4 5 6 
#
# 1 0.014042 -0.004380 -0.001145 0.000000 0.000000 0.000000
# 2 -0.004380 0.014775 -0.006452 0.000000 0.000000 0.000000
# 3 -0.001145 -0.006452 0.012622 0.000000 0.000000 0.000000
# 4 0.000000 0.000000 0.000000 0.030970 0.000000 0.000000
# 5 0.000000 0.000000 0.000000 0.000000 0.050720 0.000000
# 6 0.000000 0.000000 0.000000 0.000000 0.000000 0.047849
#
#
# Mechanical properties :
#
#
# Convention : Reuss Voigt Hill
#
# Bulk Modulus (GPa) = 57.18676 59.58577 58.38626
# Shear Modulus (GPa) = 24.90522 26.50999 25.70760
#
# Velocity S-wave (km/s) = 3.48032 3.59069 3.53593
# Velocity P-wave (km/s) = 6.63044 6.79486 6.71316
#
# Compressibility (1/GPa) = 0.01748657
#
# Stress axis : x y z
#
# Youngs Moduli (GPa) = 71.21439 67.68032 79.22502
#
# Poissons Ratio (x) = 0.29646 0.09067
# Poissons Ratio (y) = 0.31194 0.51114
# Poissons Ratio (z) = 0.08151 0.43666
#
# Static dielectric constant tensor:
#      x y z
#    x 3.518110 0.000000 0.000000 
#    y 0.000000 4.005710 0.000000 
#    z 0.000000 0.000000 3.703540 
# 
# 
# High freq. dielectric constant tensor:
#      x y z
#    x 1.781990 0.000000 0.000000 
#    y 0.000000 1.818980 0.000000 
#    z 0.000000 0.000000 1.803900 
# 
# From -- ./inp_files/9325.got.cif
#   From: 2010.03.12/outbox.cif.g09.slc.cpg/sg59_5_cif.got.tgz:9325.got - 2010.04.16 16:29:54.
