data_PCOD8241815
_publ_section_title
;
Structure prediction by ZEFSAII (Michael W. Deem and Ramdas Pophale) SiO2 
 PCOD8241815
Probable space group: P M M N
;
_chemical_formula_sum "Si O2"
_cell_formula_units_Z 64
_cell_length_a 25.707075
_cell_length_b 16.372207
_cell_length_c 9.494545
_cell_angle_alpha 90.000000
_cell_angle_beta 90.000000
_cell_angle_gamma 90.000000
_cell_volume 3996.078847
_symmetry_space_group_name_H-M "P M M N"
_symmetry_group_IT_number 59
_space_group.IT_coordinate_system_code '2'
_symmetry_cell_setting 'orthorhombic'
loop_
_space_group_symop_operation_xyz
x,y,z
1/2-x,1/2-y,z
1/2+x,-y,-z
-x,1/2+y,-z
-x,-y,-z
1/2+x,1/2+y,-z
1/2-x,y,z
x,1/2-y,z
loop_
_atom_site_type_symbol
_atom_site_label
_atom_site_fract_x
_atom_site_fract_y
_atom_site_fract_z
Si Si1 0.530638 0.431403 0.677866
Si Si2 0.607129 0.573464 0.050832
Si Si3 0.457419 0.559808 0.831170
Si Si4 0.189702 0.155316 0.452377
Si Si5 0.997671 0.344246 0.393807
Si Si6 0.899922 0.573533 0.716881
Si Si7 0.810207 0.842897 0.225573
Si Si8 0.995033 0.658000 0.077311
O O1 0.489469 0.493468 0.744047
O O2 0.511415 0.401477 0.527457
O O3 0.585318 0.480580 0.669242
O O4 0.531588 0.354252 0.784764
O O5 0.594799 0.481561 0.108883
O O6 0.661991 0.597037 0.116926
O O7 0.565382 0.639314 0.110436
O O8 0.609724 0.575950 0.883154
O O9 0.451762 0.635296 0.720824
O O10 0.490768 0.590729 0.962248
O O11 0.250000 0.131386 0.428324
O O12 0.181193 0.250000 0.412410
O O13 0.153855 0.098325 0.356252
O O14 0.172956 0.140074 0.613707
O O15 0.994547 0.250000 0.437163
O O16 0.054192 0.363583 0.326640
O O17 0.750000 0.861110 0.207893
O O18 0.823263 0.750000 0.185092
O O19 0.002469 0.750000 0.022229
#
# Coordination Sequence:
#
# PCOD8241815 Si02
#       8
#     8   8   8   8   8   8   8   8
#     4  10  20  34  45  69 100 133 165 205 244 286
#     4  11  20  32  50  72  97 132 169 196 242 293
#     4  10  19  34  47  68 100 133 163 201 244 284
#     4   9  20  36  51  70  97 128 164 205 244 283
#     4  11  22  32  47  73 101 132 170 206 240 288
#     4  11  20  33  49  70  99 133 166 201 242 288
#     4   9  20  36  51  71  98 127 164 207 244 285
#     4  11  19  31  49  70 101 135 167 199 237 291
#
# _framework density 16.015699999999999
#
# number of rings (size 3 to 8) (size 9 to 14) (size 15 to 20)
#    0.000    1.750    3.750    4.500    5.250    2.000 
#    0.000    1.250    0.000    0.000    0.000    0.000 
#    0.000    6.000    0.000    0.000    0.000    0.000 
#
# Total GULP energy -793161.227892 kJ/mol
# GULP energy per Si atom -12393.144186 kJ/mol
# Density = 1.597925 g / cm^3
# Si number density = 16.015700 Si / 1000 Ang^3
#
#
#
# Elastic Constant Matrix: (Units=GPa)
#
#
# Indices 1 2 3 4 5 6 
#
# 1 66.5982 36.4548 46.9788 0.0000 0.0000 0.0000
# 2 36.4548 69.4035 30.7155 0.0000 0.0000 0.0000
# 3 46.9788 30.7155 105.7636 0.0000 0.0000 0.0000
# 4 0.0000 0.0000 0.0000 29.0015 0.0000 0.0000
# 5 0.0000 0.0000 0.0000 0.0000 28.9299 0.0000
# 6 0.0000 0.0000 0.0000 0.0000 0.0000 26.4501
#
#
#
# Elastic Compliance Matrix: (Units=1/GPa)
#
#
# Indices 1 2 3 4 5 6 
#
# 1 0.026934 -0.010158 -0.009014 0.000000 0.000000 0.000000
# 2 -0.010158 0.020365 -0.001402 0.000000 0.000000 0.000000
# 3 -0.009014 -0.001402 0.013866 0.000000 0.000000 0.000000
# 4 0.000000 0.000000 0.000000 0.034481 0.000000 0.000000
# 5 0.000000 0.000000 0.000000 0.000000 0.034566 0.000000
# 6 0.000000 0.000000 0.000000 0.000000 0.000000 0.037807
#
#
# Mechanical properties :
#
#
# Convention : Reuss Voigt Hill
#
# Bulk Modulus (GPa) = 49.95795 52.22927 51.09361
# Shear Modulus (GPa) = 23.16532 25.38404 24.27468
#
# Velocity S-wave (km/s) = 3.80730 3.98546 3.89740
# Velocity P-wave (km/s) = 7.11254 7.33898 7.22665
#
# Compressibility (1/GPa) = 0.02001683
#
# Stress axis : x y z
#
# Youngs Moduli (GPa) = 37.12740 49.10451 72.11883
#
# Poissons Ratio (x) = 0.49882 0.65006
# Poissons Ratio (y) = 0.37715 0.10111
# Poissons Ratio (z) = 0.33466 0.06885
#
# Static dielectric constant tensor:
#      x y z
#    x 2.814490 0.000000 0.000000 
#    y 0.000000 3.213930 0.000000 
#    z 0.000000 0.000000 3.287980 
# 
# 
# High freq. dielectric constant tensor:
#      x y z
#    x 1.574040 0.000000 0.000000 
#    y 0.000000 1.605650 0.000000 
#    z 0.000000 0.000000 1.637340 
# 
# From -- ./inp_files/12703.got.cif
#   From: 2010.03.12/outbox.cif.g09.slc.cpg/sg59_7_cif.got.tgz:12703.got - 2010.04.16 16:29:54.
