data_PCOD8241804
_publ_section_title
;
Structure prediction by ZEFSAII (Michael W. Deem and Ramdas Pophale) SiO2 
 PCOD8241804
Probable space group: P M M N
;
_chemical_formula_sum "Si O2"
_cell_formula_units_Z 64
_cell_length_a 9.254353
_cell_length_b 16.171354
_cell_length_c 21.952795
_cell_angle_alpha 90.000000
_cell_angle_beta 90.000000
_cell_angle_gamma 90.000000
_cell_volume 3285.354721
_symmetry_space_group_name_H-M "P M M N"
_symmetry_group_IT_number 59
_space_group.IT_coordinate_system_code '2'
_symmetry_cell_setting 'orthorhombic'
loop_
_space_group_symop_operation_xyz
x,y,z
1/2-x,1/2-y,z
1/2+x,-y,-z
-x,1/2+y,-z
-x,-y,-z
1/2+x,1/2+y,-z
1/2-x,y,z
x,1/2-y,z
loop_
_atom_site_type_symbol
_atom_site_label
_atom_site_fract_x
_atom_site_fract_y
_atom_site_fract_z
Si Si1 0.917221 0.901449 0.246276
Si Si2 0.577612 0.086109 0.996983
Si Si3 0.582212 0.842953 0.642618
Si Si4 0.082470 0.910611 0.752085
Si Si5 0.082685 0.842321 0.357530
Si Si6 0.921087 0.499572 0.563727
Si Si7 0.912405 0.653794 0.115432
Si Si8 0.578973 0.340961 0.123212
O O1 0.750000 0.876696 0.250424
O O2 0.970255 0.889755 0.176878
O O3 0.003528 0.843901 0.292626
O O4 0.945377 0.995295 0.266723
O O5 0.750000 0.077279 0.993910
O O6 0.520922 0.130737 0.057868
O O7 0.523350 0.136152 0.938580
O O8 0.500000 0.000000 0.000000
O O9 0.750000 0.855381 0.655975
O O10 0.551775 0.750000 0.616126
O O11 0.501412 0.850606 0.706687
O O12 0.529295 0.915775 0.597426
O O13 0.250000 0.886359 0.748064
O O14 0.025408 0.898501 0.821284
O O15 0.250000 0.857255 0.344321
O O16 0.056280 0.750000 0.386024
O O17 0.026533 0.916137 0.401314
O O18 0.750000 0.498186 0.553398
O O19 0.000000 0.500000 0.500000
O O20 0.750000 0.621276 0.099287
O O21 0.908152 0.750000 0.128829
O O22 0.750000 0.341955 0.119807
O O23 0.518365 0.250000 0.136380
#
# Coordination Sequence:
#
# PCOD8241804 Si02
#       8
#     8   8   8   8   8   8   8   8
#     4  10  20  35  57  85 116 151 191 236 288 345
#     4  11  22  37  56  77 106 145 190 238 291 351
#     4  10  21  38  59  84 117 154 188 228 283 339
#     4  10  19  33  57  85 111 143 187 235 281 335
#     4  10  21  38  60  86 117 153 192 238 289 337
#     4  10  22  40  60  85 119 153 189 233 278 334
#     4  10  21  37  56  80 112 147 186 237 292 345
#     4   9  18  33  53  77 105 138 179 230 283 334
#
# _framework density 19.480392999999999
#
# number of rings (size 3 to 8) (size 9 to 14) (size 15 to 20)
#    0.000    2.000    1.250    2.250    0.000    6.250 
#    0.000    2.500    0.000    3.000    0.000    0.000 
#    0.000    0.000    0.000    0.000    0.000    0.000 
#
# Total GULP energy -793485.668781 kJ/mol
# GULP energy per Si atom -12398.213575 kJ/mol
# Density = 1.943605 g / cm^3
# Si number density = 19.480393 Si / 1000 Ang^3
#
#
#
# Elastic Constant Matrix: (Units=GPa)
#
#
# Indices 1 2 3 4 5 6 
#
# 1 45.9056 31.1956 43.9790 0.0000 0.0000 0.0000
# 2 31.1956 123.5282 57.5171 0.0000 0.0000 0.0000
# 3 43.9790 57.5171 139.0034 0.0000 0.0000 0.0000
# 4 0.0000 0.0000 0.0000 28.6555 0.0000 0.0000
# 5 0.0000 0.0000 0.0000 0.0000 35.9768 0.0000
# 6 0.0000 0.0000 0.0000 0.0000 0.0000 24.5102
#
#
#
# Elastic Compliance Matrix: (Units=1/GPa)
#
#
# Indices 1 2 3 4 5 6 
#
# 1 0.033006 -0.004302 -0.008663 0.000000 0.000000 0.000000
# 2 -0.004302 0.010588 -0.003020 0.000000 0.000000 0.000000
# 3 -0.008663 -0.003020 0.011185 0.000000 0.000000 0.000000
# 4 0.000000 0.000000 0.000000 0.034897 0.000000 0.000000
# 5 0.000000 0.000000 0.000000 0.000000 0.027796 0.000000
# 6 0.000000 0.000000 0.000000 0.000000 0.000000 0.040799
#
#
# Mechanical properties :
#
#
# Convention : Reuss Voigt Hill
#
# Bulk Modulus (GPa) = 43.84139 63.75784 53.79961
# Shear Modulus (GPa) = 25.27246 29.54484 27.40865
#
# Velocity S-wave (km/s) = 3.60575 3.89864 3.75505
# Velocity P-wave (km/s) = 6.31581 7.28465 6.81746
#
# Compressibility (1/GPa) = 0.02280950
#
# Stress axis : x y z
#
# Youngs Moduli (GPa) = 30.29711 94.44766 89.40939
#
# Poissons Ratio (x) = 0.40630 0.77454
# Poissons Ratio (y) = 0.13033 0.27002
# Poissons Ratio (z) = 0.26246 0.28523
#
# Static dielectric constant tensor:
#      x y z
#    x 3.238770 0.000000 0.000000 
#    y 0.000000 3.860500 0.000000 
#    z 0.000000 0.000000 3.117690 
# 
# 
# High freq. dielectric constant tensor:
#      x y z
#    x 1.735490 0.000000 0.000000 
#    y 0.000000 1.775930 0.000000 
#    z 0.000000 0.000000 1.757750 
# 
# From -- ./inp_files/29472.got.cif
#   From: 2010.03.12/outbox.cif.g09.slc.cpg/sg59_15_cif.got.tgz:29472.got - 2010.04.16 16:29:54.
