data_PCOD8241307
_publ_section_title
;
Structure prediction by ZEFSAII (Michael W. Deem and Ramdas Pophale) SiO2 
 PCOD8241307
Probable space group: P M M N
;
_chemical_formula_sum "Si O2"
_cell_formula_units_Z 64
_cell_length_a 8.857229
_cell_length_b 18.727263
_cell_length_c 21.337722
_cell_angle_alpha 90.000000
_cell_angle_beta 90.000000
_cell_angle_gamma 90.000000
_cell_volume 3539.323303
_symmetry_space_group_name_H-M "P M M N"
_symmetry_group_IT_number 59
_space_group.IT_coordinate_system_code '2'
_symmetry_cell_setting 'orthorhombic'
loop_
_space_group_symop_operation_xyz
x,y,z
1/2-x,1/2-y,z
1/2+x,-y,-z
-x,1/2+y,-z
-x,-y,-z
1/2+x,1/2+y,-z
1/2-x,y,z
x,1/2-y,z
loop_
_atom_site_type_symbol
_atom_site_label
_atom_site_fract_x
_atom_site_fract_y
_atom_site_fract_z
Si Si1 0.428413 0.424349 0.484806
Si Si2 0.923617 0.334269 0.591370
Si Si3 0.582034 0.872281 0.761545
Si Si4 0.071511 0.975719 0.935676
Si Si5 0.425780 0.078243 0.696376
Si Si6 0.419558 0.970202 0.184390
Si Si7 0.075544 0.579370 0.644415
Si Si8 0.923097 0.327797 0.119744
O O1 0.500000 0.500000 0.500000
O O2 0.250000 0.431564 0.488952
O O3 0.482212 0.365683 0.533980
O O4 0.478107 0.399907 0.415941
O O5 0.750000 0.358460 0.585461
O O6 0.940988 0.250000 0.589671
O O7 0.989190 0.361562 0.657071
O O8 0.750000 0.845435 0.744979
O O9 0.478462 0.868390 0.699889
O O10 0.513865 0.822880 0.815496
O O11 0.586107 0.952135 0.786377
O O12 0.250000 0.984261 0.939041
O O13 0.009183 0.027127 0.881074
O O14 0.021810 0.892866 0.924310
O O15 0.000000 0.000000 0.000000
O O16 0.250000 0.096461 0.700573
O O17 0.493108 0.080359 0.766657
O O18 0.453242 0.002769 0.662405
O O19 0.250000 0.941024 0.172769
O O20 0.250000 0.594056 0.630274
O O21 0.750000 0.342366 0.137620
O O22 0.943276 0.250000 0.086186
#
# Coordination Sequence:
#
# PCOD8241307 Si02
#       8
#     8   8   8   8   8   8   8   8
#     4  12  23  36  56  80 107 140 182 231 277 331
#     4  11  24  40  57  78 107 142 180 226 282 339
#     4   9  17  29  47  74 104 133 166 210 259 308
#     4  10  19  32  52  79 111 144 181 223 268 318
#     4  10  19  32  54  80 105 135 172 218 267 318
#     4   9  17  30  50  76 106 135 168 212 259 308
#     4  10  19  32  52  78 105 135 173 219 266 316
#     4   9  18  33  52  74 103 141 181 219 262 317
#
# _framework density 18.082552
#
# number of rings (size 3 to 8) (size 9 to 14) (size 15 to 20)
#    0.000    2.000    1.250    3.375    0.000    5.750 
#    0.000    0.625    0.000    4.500    0.000    1.750 
#    0.000    0.000    0.000    0.000    0.000    0.000 
#
# Total GULP energy -793619.019492 kJ/mol
# GULP energy per Si atom -12400.297180 kJ/mol
# Density = 1.804140 g / cm^3
# Si number density = 18.082552 Si / 1000 Ang^3
#
#
#
# Elastic Constant Matrix: (Units=GPa)
#
#
# Indices 1 2 3 4 5 6 
#
# 1 139.2751 42.8779 68.3848 0.0000 0.0000 0.0000
# 2 42.8779 65.1758 46.3866 0.0000 0.0000 0.0000
# 3 68.3848 46.3866 146.0745 0.0000 0.0000 0.0000
# 4 0.0000 0.0000 0.0000 19.9852 0.0000 0.0000
# 5 0.0000 0.0000 0.0000 0.0000 38.4004 0.0000
# 6 0.0000 0.0000 0.0000 0.0000 0.0000 20.5104
#
#
#
# Elastic Compliance Matrix: (Units=1/GPa)
#
#
# Indices 1 2 3 4 5 6 
#
# 1 0.010164 -0.004264 -0.003404 0.000000 0.000000 0.000000
# 2 -0.004264 0.021612 -0.004867 0.000000 0.000000 0.000000
# 3 -0.003404 -0.004867 0.009985 0.000000 0.000000 0.000000
# 4 0.000000 0.000000 0.000000 0.050037 0.000000 0.000000
# 5 0.000000 0.000000 0.000000 0.000000 0.026041 0.000000
# 6 0.000000 0.000000 0.000000 0.000000 0.000000 0.048756
#
#
# Mechanical properties :
#
#
# Convention : Reuss Voigt Hill
#
# Bulk Modulus (GPa) = 59.91213 73.98045 66.94629
# Shear Modulus (GPa) = 25.35113 28.63760 26.99436
#
# Velocity S-wave (km/s) = 3.74835 3.98391 3.86792
# Velocity P-wave (km/s) = 7.20680 7.88438 7.55319
#
# Compressibility (1/GPa) = 0.01669111
#
# Stress axis : x y z
#
# Youngs Moduli (GPa) = 98.38326 46.27039 100.14950
#
# Poissons Ratio (x) = 0.19730 0.34095
# Poissons Ratio (y) = 0.41950 0.48741
# Poissons Ratio (z) = 0.33494 0.22519
#
# Static dielectric constant tensor:
#      x y z
#    x 3.585830 0.000000 0.000000 
#    y 0.000000 3.167310 0.000000 
#    z 0.000000 0.000000 3.457090 
# 
# 
# High freq. dielectric constant tensor:
#      x y z
#    x 1.718780 0.000000 0.000000 
#    y 0.000000 1.666940 0.000000 
#    z 0.000000 0.000000 1.696690 
# 
# From -- ./inp_files/29509.got.cif
#   From: 2010.03.12/outbox.cif.g09.slc.cpg/sg59_15_cif.got.tgz:29509.got - 2010.04.16 16:29:54.
