data_PCOD8241786
_publ_section_title
;
Structure prediction by ZEFSAII (Michael W. Deem and Ramdas Pophale) SiO2 
 PCOD8241786
Probable space group: P M M N
;
_chemical_formula_sum "Si O2"
_cell_formula_units_Z 40
_cell_length_a 9.232135
_cell_length_b 7.630632
_cell_length_c 29.184928
_cell_angle_alpha 90.000000
_cell_angle_beta 90.000000
_cell_angle_gamma 90.000000
_cell_volume 2055.991345
_symmetry_space_group_name_H-M "P M M N"
_symmetry_group_IT_number 59
_space_group.IT_coordinate_system_code '2'
_symmetry_cell_setting 'orthorhombic'
loop_
_space_group_symop_operation_xyz
x,y,z
1/2-x,1/2-y,z
1/2+x,-y,-z
-x,1/2+y,-z
-x,-y,-z
1/2+x,1/2+y,-z
1/2-x,y,z
x,1/2-y,z
loop_
_atom_site_type_symbol
_atom_site_label
_atom_site_fract_x
_atom_site_fract_y
_atom_site_fract_z
Si Si1 0.077149 0.250000 0.783792
Si Si2 0.580492 0.449377 0.046015
Si Si3 0.914741 0.043674 0.630892
Si Si4 0.089357 0.044166 0.544746
Si Si5 0.417099 0.447939 0.268588
Si Si6 0.921266 0.750000 0.112846
O O1 0.250000 0.250000 0.780931
O O2 0.017415 0.250000 0.835774
O O3 0.018936 0.425076 0.760196
O O4 0.750000 0.477373 0.037088
O O5 0.545397 0.250000 0.060339
O O6 0.524052 0.575803 0.086540
O O7 0.500000 0.500000 0.000000
O O8 0.750000 0.995731 0.618590
O O9 0.935343 0.250000 0.637056
O O10 0.011922 0.965770 0.589806
O O11 0.962813 0.953736 0.678164
O O12 0.250000 0.962149 0.540553
O O13 0.098622 0.250000 0.550633
O O14 0.000000 0.000000 0.500000
O O15 0.250000 0.508493 0.263547
O O16 0.438944 0.250000 0.250498
O O17 0.750000 0.750000 0.115155
#
# Coordination Sequence:
#
# PCOD8241786 Si02
#       6
#     4   8   8   8   8   4
#     4  11  23  39  61  87 121 159 199 249 298 349
#     4  10  19  33  56  83 112 149 193 239 287 342
#     4   9  17  33  56  79 106 143 186 231 285 346
#     4  10  21  35  52  77 110 145 182 226 277 334
#     4  10  21  39  63  88 116 153 196 243 299 358
#     4   9  20  37  55  81 117 157 193 235 294 349
#
# _framework density 19.455335999999999
#
# number of rings (size 3 to 8) (size 9 to 14) (size 15 to 20)
#    0.000    2.200    2.000    0.900    0.000    4.000 
#    0.000    6.000    0.000    0.000    0.000    0.000 
#    0.000    0.000    0.000    0.000    0.000    0.000 
#
# Total GULP energy -496008.296694 kJ/mol
# GULP energy per Si atom -12400.207417 kJ/mol
# Density = 1.941105 g / cm^3
# Si number density = 19.455336 Si / 1000 Ang^3
#
#
#
# Elastic Constant Matrix: (Units=GPa)
#
#
# Indices 1 2 3 4 5 6 
#
# 1 96.6827 43.3610 71.8218 0.0000 0.0000 0.0000
# 2 43.3610 108.8481 65.6712 0.0000 0.0000 0.0000
# 3 71.8218 65.6712 149.6904 0.0000 0.0000 0.0000
# 4 0.0000 0.0000 0.0000 20.6379 0.0000 0.0000
# 5 0.0000 0.0000 0.0000 0.0000 32.8888 0.0000
# 6 0.0000 0.0000 0.0000 0.0000 0.0000 22.7587
#
#
#
# Elastic Compliance Matrix: (Units=1/GPa)
#
#
# Indices 1 2 3 4 5 6 
#
# 1 0.016538 -0.002449 -0.006861 0.000000 0.000000 0.000000
# 2 -0.002449 0.012857 -0.004465 0.000000 0.000000 0.000000
# 3 -0.006861 -0.004465 0.011931 0.000000 0.000000 0.000000
# 4 0.000000 0.000000 0.000000 0.048454 0.000000 0.000000
# 5 0.000000 0.000000 0.000000 0.000000 0.030405 0.000000
# 6 0.000000 0.000000 0.000000 0.000000 0.000000 0.043939
#
#
# Mechanical properties :
#
#
# Convention : Reuss Voigt Hill
#
# Bulk Modulus (GPa) = 72.58965 79.65880 76.12422
# Shear Modulus (GPa) = 25.47551 26.88156 26.17854
#
# Velocity S-wave (km/s) = 3.62254 3.72116 3.67218
# Velocity P-wave (km/s) = 7.40871 7.71337 7.56257
#
# Compressibility (1/GPa) = 0.01377607
#
# Stress axis : x y z
#
# Youngs Moduli (GPa) = 60.46744 77.77982 83.81370
#
# Poissons Ratio (x) = 0.19047 0.57501
# Poissons Ratio (y) = 0.14808 0.37427
# Poissons Ratio (z) = 0.41484 0.34732
#
# Static dielectric constant tensor:
#      x y z
#    x 3.579990 0.000000 0.000000 
#    y 0.000000 3.655310 0.000000 
#    z 0.000000 0.000000 7.468580 
# 
# 
# High freq. dielectric constant tensor:
#      x y z
#    x 1.744560 0.000000 0.000000 
#    y 0.000000 1.762720 0.000000 
#    z 0.000000 0.000000 1.756180 
# 
# From -- ./inp_files/32445.got.cif
#   From: 2010.03.12/outbox.cif.g09.slc.cpg/sg59_17_cif.got.tgz:32445.got - 2010.04.16 16:29:54.
