data_PCOD8241224
_publ_section_title
;
Structure prediction by ZEFSAII (Michael W. Deem and Ramdas Pophale) SiO2 
 PCOD8241224
Probable space group: P M M N
;
_chemical_formula_sum "Si O2"
_cell_formula_units_Z 64
_cell_length_a 8.993224
_cell_length_b 19.471576
_cell_length_c 19.855507
_cell_angle_alpha 90.000000
_cell_angle_beta 90.000000
_cell_angle_gamma 90.000000
_cell_volume 3476.942398
_symmetry_space_group_name_H-M "P M M N"
_symmetry_group_IT_number 59
_space_group.IT_coordinate_system_code '2'
_symmetry_cell_setting 'orthorhombic'
loop_
_space_group_symop_operation_xyz
x,y,z
1/2-x,1/2-y,z
1/2+x,-y,-z
-x,1/2+y,-z
-x,-y,-z
1/2+x,1/2+y,-z
1/2-x,y,z
x,1/2-y,z
loop_
_atom_site_type_symbol
_atom_site_label
_atom_site_fract_x
_atom_site_fract_y
_atom_site_fract_z
Si Si1 0.924400 0.085807 0.850126
Si Si2 0.919635 0.609661 0.387578
Si Si3 0.924373 0.828570 0.035056
Si Si4 0.922004 0.170379 0.105894
Si Si5 0.423327 0.067107 0.471248
Si Si6 0.574237 0.457837 0.342949
Si Si7 0.924483 0.936505 0.799457
Si Si8 0.580839 0.326875 0.726955
O O1 0.750000 0.101921 0.860867
O O2 0.986892 0.121955 0.782542
O O3 0.955871 0.004906 0.843290
O O4 0.016650 0.116674 0.911498
O O5 0.750000 0.617729 0.367646
O O6 0.943176 0.622191 0.467823
O O7 0.973880 0.534782 0.362748
O O8 0.005783 0.666986 0.345824
O O9 0.750000 0.840178 0.023817
O O10 0.957306 0.750000 0.058167
O O11 0.008421 0.845373 0.966381
O O12 0.750000 0.148029 0.104967
O O13 0.939807 0.250000 0.124829
O O14 0.010964 0.128129 0.161364
O O15 0.250000 0.052936 0.457313
O O16 0.504069 0.090682 0.402086
O O17 0.500000 0.000000 0.500000
O O18 0.750000 0.446597 0.340837
O O19 0.504978 0.438529 0.271974
O O20 0.750000 0.926961 0.787139
O O21 0.750000 0.346962 0.715614
O O22 0.560345 0.250000 0.754304
#
# Coordination Sequence:
#
# PCOD8241224 Si02
#       8
#     8   8   8   8   8   8   8   8
#     4  10  21  36  54  79 111 147 185 225 273 325
#     4   9  18  31  48  72 103 138 178 224 269 315
#     4  10  21  37  58  83 110 144 187 231 271 318
#     4  10  22  41  63  84 108 141 178 220 274 335
#     4   9  17  29  47  73 102 135 176 221 270 322
#     4  10  19  32  51  78 109 141 176 220 273 325
#     4  11  22  36  58  85 113 146 180 225 276 324
#     4  10  20  33  50  73 105 147 190 228 268 321
#
# _framework density 18.406977000000001
#
# number of rings (size 3 to 8) (size 9 to 14) (size 15 to 20)
#    0.000    2.125    1.250    3.000    0.000    6.750 
#    0.000    0.000    0.000    0.750    0.000    3.500 
#    0.000    0.000    0.000    0.000    0.000    0.000 
#
# Total GULP energy -793466.008957 kJ/mol
# GULP energy per Si atom -12397.906390 kJ/mol
# Density = 1.836508 g / cm^3
# Si number density = 18.406977 Si / 1000 Ang^3
#
#
#
# Elastic Constant Matrix: (Units=GPa)
#
#
# Indices 1 2 3 4 5 6 
#
# 1 90.6819 36.9458 57.0725 0.0000 0.0000 0.0000
# 2 36.9458 55.7494 46.3377 0.0000 0.0000 0.0000
# 3 57.0725 46.3377 122.9530 0.0000 0.0000 0.0000
# 4 0.0000 0.0000 0.0000 21.2344 0.0000 0.0000
# 5 0.0000 0.0000 0.0000 0.0000 39.7316 0.0000
# 6 0.0000 0.0000 0.0000 0.0000 0.0000 26.6806
#
#
#
# Elastic Compliance Matrix: (Units=1/GPa)
#
#
# Indices 1 2 3 4 5 6 
#
# 1 0.017252 -0.006956 -0.005386 0.000000 0.000000 0.000000
# 2 -0.006956 0.028924 -0.007672 0.000000 0.000000 0.000000
# 3 -0.005386 -0.007672 0.013525 0.000000 0.000000 0.000000
# 4 0.000000 0.000000 0.000000 0.047093 0.000000 0.000000
# 5 0.000000 0.000000 0.000000 0.000000 0.025169 0.000000
# 6 0.000000 0.000000 0.000000 0.000000 0.000000 0.037480
#
#
# Mechanical properties :
#
#
# Convention : Reuss Voigt Hill
#
# Bulk Modulus (GPa) = 50.83353 61.12182 55.97767
# Shear Modulus (GPa) = 23.14512 26.13119 24.63816
#
# Velocity S-wave (km/s) = 3.54984 3.77189 3.66255
# Velocity P-wave (km/s) = 6.66920 7.22824 6.95434
#
# Compressibility (1/GPa) = 0.01967205
#
# Stress axis : x y z
#
# Youngs Moduli (GPa) = 57.96590 34.57364 73.93828
#
# Poissons Ratio (x) = 0.24048 0.39826
# Poissons Ratio (y) = 0.40319 0.56725
# Poissons Ratio (z) = 0.31223 0.26525
#
# Static dielectric constant tensor:
#      x y z
#    x 3.477330 0.000000 0.000000 
#    y 0.000000 3.172670 0.000000 
#    z 0.000000 0.000000 3.519630 
# 
# 
# High freq. dielectric constant tensor:
#      x y z
#    x 1.724100 0.000000 0.000000 
#    y 0.000000 1.680920 0.000000 
#    z 0.000000 0.000000 1.724550 
# 
# From -- ./inp_files/26322.got.cif
#   From: 2010.03.12/outbox.cif.g09.slc.cpg/sg59_14_cif.got.tgz:26322.got - 2010.04.16 16:29:54.
