data_PCOD8241450
_publ_section_title
;
Structure prediction by ZEFSAII (Michael W. Deem and Ramdas Pophale) SiO2 
 PCOD8241450
Probable space group: P M M N
;
_chemical_formula_sum "Si O2"
_cell_formula_units_Z 56
_cell_length_a 8.761702
_cell_length_b 20.595508
_cell_length_c 15.375435
_cell_angle_alpha 90.000000
_cell_angle_beta 90.000000
_cell_angle_gamma 90.000000
_cell_volume 2774.523440
_symmetry_space_group_name_H-M "P M M N"
_symmetry_group_IT_number 59
_space_group.IT_coordinate_system_code '2'
_symmetry_cell_setting 'orthorhombic'
loop_
_space_group_symop_operation_xyz
x,y,z
1/2-x,1/2-y,z
1/2+x,-y,-z
-x,1/2+y,-z
-x,-y,-z
1/2+x,1/2+y,-z
1/2-x,y,z
x,1/2-y,z
loop_
_atom_site_type_symbol
_atom_site_label
_atom_site_fract_x
_atom_site_fract_y
_atom_site_fract_z
Si Si1 0.427799 0.943989 0.439761
Si Si2 0.927006 0.511111 0.275390
Si Si3 0.917530 0.676492 0.875483
Si Si4 0.069730 0.040940 0.918403
Si Si5 0.924556 0.677051 0.521063
Si Si6 0.924805 0.883152 0.698321
Si Si7 0.072708 0.676198 0.049986
O O1 0.250000 0.958046 0.438702
O O2 0.488158 0.939342 0.340069
O O3 0.461724 0.872796 0.476324
O O4 0.500000 0.000000 0.500000
O O5 0.750000 0.527579 0.278243
O O6 0.984001 0.511352 0.174550
O O7 0.963633 0.442712 0.321359
O O8 0.750000 0.649051 0.905776
O O9 0.894178 0.750000 0.849459
O O10 0.980838 0.642315 0.790642
O O11 0.046453 0.667227 0.947555
O O12 0.250000 0.037190 0.930194
O O13 0.020417 0.116747 0.908295
O O14 0.000000 0.000000 0.000000
O O15 0.750000 0.661400 0.494192
O O16 0.969487 0.750000 0.493614
O O17 0.943247 0.671453 0.625175
O O18 0.750000 0.907771 0.702595
O O19 0.250000 0.667955 0.071725
O O20 0.017916 0.750000 0.078091
#
# Coordination Sequence:
#
# PCOD8241450 Si02
#       7
#     8   8   8   8   8   8   8
#     4  12  24  41  65  91 121 160 206 253 302 361
#     4  11  24  40  60  88 119 157 205 254 307 367
#     4   9  17  30  50  78 113 154 199 243 295 364
#     4  11  24  41  63  92 126 162 206 259 313 371
#     4  10  21  38  61  90 125 163 203 250 306 365
#     4  10  19  32  54  84 118 156 196 242 300 366
#     4  10  21  37  57  82 115 158 206 256 312 368
#
# _framework density 20.183644999999999
#
# number of rings (size 3 to 8) (size 9 to 14) (size 15 to 20)
#    0.000    1.571    1.429    3.857    0.000    8.000 
#    0.000    0.714    0.000    3.429    0.000    0.000 
#    0.000    0.000    0.000    0.000    0.000    0.000 
#
# Total GULP energy -693942.966676 kJ/mol
# GULP energy per Si atom -12391.838691 kJ/mol
# Density = 2.013771 g / cm^3
# Si number density = 20.183645 Si / 1000 Ang^3
#
#
#
# Elastic Constant Matrix: (Units=GPa)
#
#
# Indices 1 2 3 4 5 6 
#
# 1 85.6823 32.6782 42.6452 0.0000 0.0000 0.0000
# 2 32.6782 80.5793 39.0382 0.0000 0.0000 0.0000
# 3 42.6452 39.0382 102.5662 0.0000 0.0000 0.0000
# 4 0.0000 0.0000 0.0000 31.5399 0.0000 0.0000
# 5 0.0000 0.0000 0.0000 0.0000 25.1061 0.0000
# 6 0.0000 0.0000 0.0000 0.0000 0.0000 32.6296
#
#
#
# Elastic Compliance Matrix: (Units=1/GPa)
#
#
# Indices 1 2 3 4 5 6 
#
# 1 0.015665 -0.003920 -0.005021 0.000000 0.000000 0.000000
# 2 -0.003920 0.016197 -0.004535 0.000000 0.000000 0.000000
# 3 -0.005021 -0.004535 0.013564 0.000000 0.000000 0.000000
# 4 0.000000 0.000000 0.000000 0.031706 0.000000 0.000000
# 5 0.000000 0.000000 0.000000 0.000000 0.039831 0.000000
# 6 0.000000 0.000000 0.000000 0.000000 0.000000 0.030647
#
#
# Mechanical properties :
#
#
# Convention : Reuss Voigt Hill
#
# Bulk Modulus (GPa) = 54.13265 55.28345 54.70805
# Shear Modulus (GPa) = 27.66711 28.15288 27.90999
#
# Velocity S-wave (km/s) = 3.70641 3.73880 3.72264
# Velocity P-wave (km/s) = 6.72271 6.78880 6.75584
#
# Compressibility (1/GPa) = 0.01847314
#
# Stress axis : x y z
#
# Youngs Moduli (GPa) = 63.83535 61.73998 73.72704
#
# Poissons Ratio (x) = 0.24204 0.37020
# Poissons Ratio (y) = 0.25025 0.33434
# Poissons Ratio (z) = 0.32053 0.27998
#
# Static dielectric constant tensor:
#      x y z
#    x 3.558100 0.000000 0.000000 
#    y 0.000000 3.936630 0.000000 
#    z 0.000000 0.000000 3.784560 
# 
# 
# High freq. dielectric constant tensor:
#      x y z
#    x 1.781810 0.000000 0.000000 
#    y 0.000000 1.788960 0.000000 
#    z 0.000000 0.000000 1.781280 
# 
# From -- ./inp_files/20983.got.cif
#   From: 2010.03.12/outbox.cif.g09.slc.cpg/sg59_11_cif.got.tgz:20983.got - 2010.04.16 16:29:54.
