data_PCOD8241903
_publ_section_title
;
Structure prediction by ZEFSAII (Michael W. Deem and Ramdas Pophale) SiO2 
 PCOD8241903
Probable space group: P M M N
;
_chemical_formula_sum "Si O2"
_cell_formula_units_Z 56
_cell_length_a 8.744398
_cell_length_b 24.014478
_cell_length_c 14.781825
_cell_angle_alpha 90.000000
_cell_angle_beta 90.000000
_cell_angle_gamma 90.000000
_cell_volume 3104.067263
_symmetry_space_group_name_H-M "P M M N"
_symmetry_group_IT_number 59
_space_group.IT_coordinate_system_code '2'
_symmetry_cell_setting 'orthorhombic'
loop_
_space_group_symop_operation_xyz
x,y,z
1/2-x,1/2-y,z
1/2+x,-y,-z
-x,1/2+y,-z
-x,-y,-z
1/2+x,1/2+y,-z
1/2-x,y,z
x,1/2-y,z
loop_
_atom_site_type_symbol
_atom_site_label
_atom_site_fract_x
_atom_site_fract_y
_atom_site_fract_z
Si Si1 0.427530 0.555699 0.324951
Si Si2 0.073196 0.080830 0.054823
Si Si3 0.928875 0.750000 0.709065
Si Si4 0.572970 0.042700 0.881763
Si Si5 0.069863 0.750000 0.512057
Si Si6 0.928475 0.569777 0.641992
Si Si7 0.071282 0.136173 0.536873
Si Si8 0.928328 0.142873 0.209190
O O1 0.250000 0.570273 0.337167
O O2 0.475259 0.556964 0.220048
O O3 0.463697 0.495551 0.368447
O O4 0.527719 0.602032 0.374122
O O5 0.250000 0.096839 0.063533
O O6 0.972100 0.126339 0.107080
O O7 0.036726 0.021688 0.100375
O O8 0.025528 0.080811 0.949568
O O9 0.750000 0.750000 0.688141
O O10 0.014718 0.750000 0.614480
O O11 0.973012 0.696350 0.765979
O O12 0.750000 0.055272 0.899584
O O13 0.250000 0.750000 0.510907
O O14 0.012092 0.695338 0.460299
O O15 0.750000 0.579443 0.665024
O O16 0.979269 0.600962 0.550906
O O17 0.029361 0.592709 0.723807
O O18 0.250000 0.147568 0.535477
O O19 0.750000 0.156870 0.215824
#
# Coordination Sequence:
#
# PCOD8241903 Si02
#       8
#     8   8   4   8   4   8   8   8
#     4  10  20  36  56  81 117 155 192 234 282 336
#     4  10  19  34  55  80 113 149 183 228 280 333
#     4  12  24  40  60  81 112 149 188 234 286 336
#     4   9  18  33  54  81 112 148 187 230 277 331
#     4  12  24  40  60  83 108 145 194 238 282 334
#     4  10  20  36  55  79 116 156 187 229 283 335
#     4  11  23  37  57  82 113 152 192 237 285 335
#     4  12  23  35  56  85 115 149 190 232 277 340
#
# _framework density 18.040845999999998
#
# number of rings (size 3 to 8) (size 9 to 14) (size 15 to 20)
#    0.000    1.429    2.857    3.857    0.000    2.286 
#    0.000    0.000    0.000    0.857    0.000    1.000 
#    0.000    0.000    0.000    0.000    0.000    0.000 
#
# Total GULP energy -694685.544141 kJ/mol
# GULP energy per Si atom -12405.099003 kJ/mol
# Density = 1.799978 g / cm^3
# Si number density = 18.040846 Si / 1000 Ang^3
#
#
#
# Elastic Constant Matrix: (Units=GPa)
#
#
# Indices 1 2 3 4 5 6 
#
# 1 73.9492 41.9834 37.9629 0.0000 0.0000 0.0000
# 2 41.9834 103.8461 50.5830 0.0000 0.0000 0.0000
# 3 37.9629 50.5830 98.8837 0.0000 0.0000 0.0000
# 4 0.0000 0.0000 0.0000 58.3244 0.0000 0.0000
# 5 0.0000 0.0000 0.0000 0.0000 32.1810 0.0000
# 6 0.0000 0.0000 0.0000 0.0000 0.0000 19.1972
#
#
#
# Elastic Compliance Matrix: (Units=1/GPa)
#
#
# Indices 1 2 3 4 5 6 
#
# 1 0.018923 -0.005476 -0.004464 0.000000 0.000000 0.000000
# 2 -0.005476 0.014410 -0.005269 0.000000 0.000000 0.000000
# 3 -0.004464 -0.005269 0.014522 0.000000 0.000000 0.000000
# 4 0.000000 0.000000 0.000000 0.017145 0.000000 0.000000
# 5 0.000000 0.000000 0.000000 0.000000 0.031074 0.000000
# 6 0.000000 0.000000 0.000000 0.000000 0.000000 0.052091
#
#
# Mechanical properties :
#
#
# Convention : Reuss Voigt Hill
#
# Bulk Modulus (GPa) = 57.34719 59.74862 58.54790
# Shear Modulus (GPa) = 27.11556 31.68382 29.39969
#
# Velocity S-wave (km/s) = 3.88107 4.19528 4.04123
# Velocity P-wave (km/s) = 7.20694 7.52713 7.36877
#
# Compressibility (1/GPa) = 0.01743765
#
# Stress axis : x y z
#
# Youngs Moduli (GPa) = 52.84500 69.39598 68.86191
#
# Poissons Ratio (x) = 0.38002 0.30737
# Poissons Ratio (y) = 0.28939 0.36283
# Poissons Ratio (z) = 0.23588 0.36564
#
# Static dielectric constant tensor:
#      x y z
#    x 3.342610 0.000000 0.000000 
#    y 0.000000 3.344170 0.000000 
#    z 0.000000 0.000000 3.367190 
# 
# 
# High freq. dielectric constant tensor:
#      x y z
#    x 1.704400 0.000000 0.000000 
#    y 0.000000 1.684370 0.000000 
#    z 0.000000 0.000000 1.695940 
# 
# From -- ./inp_files/21181.got.cif
#   From: 2010.03.12/outbox.cif.g09.slc.cpg/sg59_11_cif.got.tgz:21181.got - 2010.04.16 16:29:54.
