data_PCOD8241612
_publ_section_title
;
Structure prediction by ZEFSAII (Michael W. Deem and Ramdas Pophale) SiO2 
 PCOD8241612
Probable space group: P M M N
;
_chemical_formula_sum "Si O2"
_cell_formula_units_Z 64
_cell_length_a 22.968918
_cell_length_b 9.118157
_cell_length_c 17.455684
_cell_angle_alpha 90.000000
_cell_angle_beta 90.000000
_cell_angle_gamma 90.000000
_cell_volume 3655.817222
_symmetry_space_group_name_H-M "P M M N"
_symmetry_group_IT_number 59
_space_group.IT_coordinate_system_code '2'
_symmetry_cell_setting 'orthorhombic'
loop_
_space_group_symop_operation_xyz
x,y,z
1/2-x,1/2-y,z
1/2+x,-y,-z
-x,1/2+y,-z
-x,-y,-z
1/2+x,1/2+y,-z
1/2-x,y,z
x,1/2-y,z
loop_
_atom_site_type_symbol
_atom_site_label
_atom_site_fract_x
_atom_site_fract_y
_atom_site_fract_z
Si Si1 0.001116 0.924866 0.918434
Si Si2 0.102420 0.409775 0.183607
Si Si3 0.184454 0.576369 0.552759
Si Si4 0.104744 0.577837 0.415041
Si Si5 0.015188 0.414287 0.323519
Si Si6 0.431817 0.421727 0.785623
Si Si7 0.313800 0.920491 0.273941
Si Si8 0.815165 0.917873 0.291909
O O1 0.011637 0.750000 0.922867
O O2 0.937432 0.964079 0.885981
O O3 0.050217 0.994784 0.863371
O O4 0.000000 0.000000 0.000000
O O5 0.128367 0.250000 0.165311
O O6 0.063202 0.402192 0.258646
O O7 0.155824 0.518614 0.197175
O O8 0.250000 0.524617 0.529023
O O9 0.182927 0.750000 0.556086
O O10 0.135387 0.521477 0.492906
O O11 0.167626 0.515088 0.635359
O O12 0.090360 0.750000 0.417530
O O13 0.044376 0.491387 0.398255
O O14 0.150812 0.539533 0.349349
O O15 0.993222 0.250000 0.345817
O O16 0.962540 0.511646 0.290146
O O17 0.448343 0.250000 0.792411
O O18 0.362294 0.444895 0.775281
O O19 0.250000 0.991256 0.282285
O O20 0.308894 0.750000 0.261772
O O21 0.750000 0.957903 0.261706
O O22 0.817506 0.750000 0.319139
#
# Coordination Sequence:
#
# PCOD8241612 Si02
#       8
#     8   8   8   8   8   8   8   8
#     4  10  20  34  54  80 105 125 150 186 229 278
#     4   8  16  29  43  63  92 122 151 185 223 266
#     4   9  17  29  46  68  94 126 166 213 260 301
#     4   9  16  27  43  64  93 127 164 206 251 295
#     4   9  17  29  45  67  95 125 160 201 243 287
#     4  10  19  33  54  76  99 128 161 196 239 291
#     4   9  16  25  40  63  90 123 161 196 230 271
#     4   9  19  35  53  73  97 126 162 204 248 294
#
# _framework density 17.506346000000001
#
# number of rings (size 3 to 8) (size 9 to 14) (size 15 to 20)
#    0.000    2.875    0.000    2.250    0.000    6.750 
#    0.000    0.625    0.000    3.000    0.000    1.750 
#    0.000    0.000    0.000    0.000    0.000    0.000 
#
# Total GULP energy -793179.676193 kJ/mol
# GULP energy per Si atom -12393.432441 kJ/mol
# Density = 1.746650 g / cm^3
# Si number density = 17.506346 Si / 1000 Ang^3
#
#
#
# Elastic Constant Matrix: (Units=GPa)
#
#
# Indices 1 2 3 4 5 6 
#
# 1 84.4966 38.5591 41.8754 0.0000 0.0000 0.0000
# 2 38.5591 62.9420 33.8553 0.0000 0.0000 0.0000
# 3 41.8754 33.8553 79.0973 0.0000 0.0000 0.0000
# 4 0.0000 0.0000 0.0000 26.2591 0.0000 0.0000
# 5 0.0000 0.0000 0.0000 0.0000 13.1263 0.0000
# 6 0.0000 0.0000 0.0000 0.0000 0.0000 22.8843
#
#
#
# Elastic Compliance Matrix: (Units=1/GPa)
#
#
# Indices 1 2 3 4 5 6 
#
# 1 0.018678 -0.007955 -0.006484 0.000000 0.000000 0.000000
# 2 -0.007955 0.024027 -0.006073 0.000000 0.000000 0.000000
# 3 -0.006484 -0.006073 0.018674 0.000000 0.000000 0.000000
# 4 0.000000 0.000000 0.000000 0.038082 0.000000 0.000000
# 5 0.000000 0.000000 0.000000 0.000000 0.076183 0.000000
# 6 0.000000 0.000000 0.000000 0.000000 0.000000 0.043698
#
#
# Mechanical properties :
#
#
# Convention : Reuss Voigt Hill
#
# Bulk Modulus (GPa) = 49.12249 50.56840 49.84545
# Shear Modulus (GPa) = 18.71598 19.93702 19.32650
#
# Velocity S-wave (km/s) = 3.27325 3.37834 3.32621
# Velocity P-wave (km/s) = 6.51201 6.64575 6.57922
#
# Compressibility (1/GPa) = 0.02035727
#
# Stress axis : x y z
#
# Youngs Moduli (GPa) = 53.53837 41.61916 53.54925
#
# Poissons Ratio (x) = 0.33108 0.34719
# Poissons Ratio (y) = 0.42590 0.32519
# Poissons Ratio (z) = 0.34712 0.25274
#
# Static dielectric constant tensor:
#      x y z
#    x 3.915570 0.000000 0.000000 
#    y 0.000000 3.411750 0.000000 
#    z 0.000000 0.000000 3.064560 
# 
# 
# High freq. dielectric constant tensor:
#      x y z
#    x 1.672350 0.000000 0.000000 
#    y 0.000000 1.680010 0.000000 
#    z 0.000000 0.000000 1.645220 
# 
# From -- ./inp_files/24802.got.cif
#   From: 2010.03.12/outbox.cif.g09.slc.cpg/sg59_13_cif.got.tgz:24802.got - 2010.04.16 16:29:54.
