data_PCOD8241577
_publ_section_title
;
Structure prediction by ZEFSAII (Michael W. Deem and Ramdas Pophale) SiO2 
 PCOD8241577
Probable space group: P M M N
;
_chemical_formula_sum "Si O2"
_cell_formula_units_Z 56
_cell_length_a 15.160906
_cell_length_b 13.761650
_cell_length_c 12.646592
_cell_angle_alpha 90.000000
_cell_angle_beta 90.000000
_cell_angle_gamma 90.000000
_cell_volume 2638.573346
_symmetry_space_group_name_H-M "P M M N"
_symmetry_group_IT_number 59
_space_group.IT_coordinate_system_code '2'
_symmetry_cell_setting 'orthorhombic'
loop_
_space_group_symop_operation_xyz
x,y,z
1/2-x,1/2-y,z
1/2+x,-y,-z
-x,1/2+y,-z
-x,-y,-z
1/2+x,1/2+y,-z
1/2-x,y,z
x,1/2-y,z
loop_
_atom_site_type_symbol
_atom_site_label
_atom_site_fract_x
_atom_site_fract_y
_atom_site_fract_z
Si Si1 0.653703 0.135026 0.164224
Si Si2 0.651954 0.865457 0.924056
Si Si3 0.649211 0.134781 0.794854
Si Si4 0.471764 0.634211 0.016089
Si Si5 0.114448 0.141409 0.312226
Si Si6 0.584426 0.358955 0.378148
Si Si7 0.348094 0.955747 0.423301
O O1 0.750000 0.106150 0.120347
O O2 0.641341 0.250000 0.169299
O O3 0.580724 0.092738 0.085243
O O4 0.644990 0.096752 0.284674
O O5 0.750000 0.897024 0.964755
O O6 0.643760 0.750000 0.920444
O O7 0.573392 0.903984 0.002521
O O8 0.638545 0.902321 0.803432
O O9 0.750000 0.099426 0.819093
O O10 0.646518 0.250000 0.795552
O O11 0.615984 0.097713 0.681289
O O12 0.579718 0.092585 0.881178
O O13 0.469504 0.750000 0.020758
O O14 0.154068 0.250000 0.326435
O O15 0.010742 0.143625 0.325987
O O16 0.154669 0.071368 0.401974
O O17 0.613276 0.250000 0.412863
O O18 0.588506 0.429467 0.479209
O O19 0.250000 0.918749 0.451401
#
# Coordination Sequence:
#
# PCOD8241577 Si02
#       7
#     8   8   8   8   8   8   8
#     4   9  15  24  44  74 105 138 174 213 263 321
#     4   9  16  28  49  75 101 132 177 231 276 311
#     4   9  18  32  50  75 111 151 182 212 261 328
#     4   9  15  27  47  74 106 138 177 221 267 317
#     4  10  20  36  55  76 103 138 183 233 277 317
#     4  10  19  33  53  78 109 142 176 221 274 329
#     4  11  22  34  51  79 113 146 183 222 268 329
#
# _framework density 21.223590999999999
#
# number of rings (size 3 to 8) (size 9 to 14) (size 15 to 20)
#    0.000    2.429    1.429    2.143    0.000    4.000 
#    0.000    0.714    0.000    0.000    0.000    5.000 
#    0.000   16.000    0.000    0.286    0.000    0.000 
#
# Total GULP energy -694045.689406 kJ/mol
# GULP energy per Si atom -12393.673025 kJ/mol
# Density = 2.117529 g / cm^3
# Si number density = 21.223591 Si / 1000 Ang^3
#
#
#
# Elastic Constant Matrix: (Units=GPa)
#
#
# Indices 1 2 3 4 5 6 
#
# 1 138.9961 9.0343 61.5247 0.0000 0.0000 0.0000
# 2 9.0343 32.3235 21.2503 0.0000 0.0000 0.0000
# 3 61.5247 21.2503 116.3170 0.0000 0.0000 0.0000
# 4 0.0000 0.0000 0.0000 20.1331 0.0000 0.0000
# 5 0.0000 0.0000 0.0000 0.0000 16.6440 0.0000
# 6 0.0000 0.0000 0.0000 0.0000 0.0000 7.4958
#
#
#
# Elastic Compliance Matrix: (Units=1/GPa)
#
#
# Indices 1 2 3 4 5 6 
#
# 1 0.009409 0.000730 -0.005110 0.000000 0.000000 0.000000
# 2 0.000730 0.035217 -0.006820 0.000000 0.000000 0.000000
# 3 -0.005110 -0.006820 0.012546 0.000000 0.000000 0.000000
# 4 0.000000 0.000000 0.000000 0.049669 0.000000 0.000000
# 5 0.000000 0.000000 0.000000 0.000000 0.060082 0.000000
# 6 0.000000 0.000000 0.000000 0.000000 0.000000 0.133408
#
#
# Mechanical properties :
#
#
# Convention : Reuss Voigt Hill
#
# Bulk Modulus (GPa) = 28.75923 52.36168 40.56046
# Shear Modulus (GPa) = 14.95563 21.90972 18.43268
#
# Velocity S-wave (km/s) = 2.65744 3.21647 2.95023
# Velocity P-wave (km/s) = 4.79542 6.20639 5.54596
#
# Compressibility (1/GPa) = 0.03477144
#
# Stress axis : x y z
#
# Youngs Moduli (GPa) = 106.28215 28.39551 79.70642
#
# Poissons Ratio (x) = -0.02072 0.40730
# Poissons Ratio (y) = -0.07756 0.54358
# Poissons Ratio (z) = 0.54311 0.19365
#
# Static dielectric constant tensor:
#      x y z
#    x 4.035290 0.000000 0.000000 
#    y 0.000000 3.617970 0.000000 
#    z 0.000000 0.000000 3.704910 
# 
# 
# High freq. dielectric constant tensor:
#      x y z
#    x 1.837180 0.000000 0.000000 
#    y 0.000000 1.814450 0.000000 
#    z 0.000000 0.000000 1.814130 
# 
# From -- ./inp_files/16944.got.cif
#   From: 2010.03.12/outbox.cif.g09.slc.cpg/sg59_9_cif.got.tgz:16944.got - 2010.04.16 16:29:54.
