data_PCOD8241161
_publ_section_title
;
Structure prediction by ZEFSAII (Michael W. Deem and Ramdas Pophale) SiO2 
 PCOD8241161
Probable space group: P M M N
;
_chemical_formula_sum "Si O2"
_cell_formula_units_Z 48
_cell_length_a 8.981280
_cell_length_b 18.164947
_cell_length_c 15.592743
_cell_angle_alpha 90.000000
_cell_angle_beta 90.000000
_cell_angle_gamma 90.000000
_cell_volume 2543.869874
_symmetry_space_group_name_H-M "P M M N"
_symmetry_group_IT_number 59
_space_group.IT_coordinate_system_code '2'
_symmetry_cell_setting 'orthorhombic'
loop_
_space_group_symop_operation_xyz
x,y,z
1/2-x,1/2-y,z
1/2+x,-y,-z
-x,1/2+y,-z
-x,-y,-z
1/2+x,1/2+y,-z
1/2-x,y,z
x,1/2-y,z
loop_
_atom_site_type_symbol
_atom_site_label
_atom_site_fract_x
_atom_site_fract_y
_atom_site_fract_z
Si Si1 0.573837 0.093679 0.669392
Si Si2 0.925859 0.578689 0.005545
Si Si3 0.072379 0.332709 0.159635
Si Si4 0.575917 0.921530 0.496679
Si Si5 0.423468 0.072887 0.315593
Si Si6 0.579043 0.834933 0.174006
O O1 0.750000 0.096261 0.659267
O O2 0.501529 0.124137 0.580234
O O3 0.523727 0.146636 0.745392
O O4 0.513103 0.010666 0.686886
O O5 0.750000 0.568944 0.000887
O O6 0.975686 0.617616 0.093249
O O7 0.983373 0.628264 0.926862
O O8 0.000000 0.500000 0.000000
O O9 0.250000 0.330547 0.163323
O O10 0.008124 0.250000 0.162036
O O11 0.004435 0.377448 0.240823
O O12 0.750000 0.929396 0.477181
O O13 0.549285 0.887402 0.591900
O O14 0.500000 0.000000 0.500000
O O15 0.250000 0.065793 0.296735
O O16 0.750000 0.852715 0.196990
O O17 0.558945 0.750000 0.149333
#
# Coordination Sequence:
#
# PCOD8241161 Si02
#       6
#     8   8   8   8   8   8
#     4  10  19  32  51  74 100 133 174 218 262 309
#     4  10  20  34  54  79 103 130 165 204 248 299
#     4   9  16  28  48  73 100 129 162 201 243 290
#     4   9  16  28  47  73 104 136 172 215 259 302
#     4   8  15  27  45  71 100 130 167 209 250 293
#     4  10  21  36  52  73 103 136 170 211 259 310
#
# _framework density 18.86889
#
# number of rings (size 3 to 8) (size 9 to 14) (size 15 to 20)
#    0.000    2.667    0.000    3.500    0.000    4.333 
#    0.000    0.833    0.000    5.500    0.000    0.000 
#    0.000    0.000    0.000    0.000    0.000    0.000 
#
# Total GULP energy -594984.467475 kJ/mol
# GULP energy per Si atom -12395.509739 kJ/mol
# Density = 1.882594 g / cm^3
# Si number density = 18.868890 Si / 1000 Ang^3
#
#
#
# Elastic Constant Matrix: (Units=GPa)
#
#
# Indices 1 2 3 4 5 6 
#
# 1 53.1178 19.9868 41.8341 0.0000 0.0000 0.0000
# 2 19.9868 83.1066 42.0765 0.0000 0.0000 0.0000
# 3 41.8341 42.0765 148.5373 0.0000 0.0000 0.0000
# 4 0.0000 0.0000 0.0000 17.2306 0.0000 0.0000
# 5 0.0000 0.0000 0.0000 0.0000 22.0682 0.0000
# 6 0.0000 0.0000 0.0000 0.0000 0.0000 22.3246
#
#
#
# Elastic Compliance Matrix: (Units=1/GPa)
#
#
# Indices 1 2 3 4 5 6 
#
# 1 0.024749 -0.002829 -0.006169 0.000000 0.000000 0.000000
# 2 -0.002829 0.014371 -0.003274 0.000000 0.000000 0.000000
# 3 -0.006169 -0.003274 0.009397 0.000000 0.000000 0.000000
# 4 0.000000 0.000000 0.000000 0.058036 0.000000 0.000000
# 5 0.000000 0.000000 0.000000 0.000000 0.045314 0.000000
# 6 0.000000 0.000000 0.000000 0.000000 0.000000 0.044794
#
#
# Mechanical properties :
#
#
# Convention : Reuss Voigt Hill
#
# Bulk Modulus (GPa) = 41.71322 54.72852 48.22087
# Shear Modulus (GPa) = 21.81543 24.38230 23.09887
#
# Velocity S-wave (km/s) = 3.40392 3.59861 3.50262
# Velocity P-wave (km/s) = 6.13219 6.80693 6.47835
#
# Compressibility (1/GPa) = 0.02397322
#
# Stress axis : x y z
#
# Youngs Moduli (GPa) = 40.40566 69.58590 106.41412
#
# Poissons Ratio (x) = 0.19684 0.65647
# Poissons Ratio (y) = 0.11429 0.34842
# Poissons Ratio (z) = 0.24926 0.22784
#
# Static dielectric constant tensor:
#      x y z
#    x 3.187260 0.000000 0.000000 
#    y 0.000000 3.359320 0.000000 
#    z 0.000000 0.000000 3.978070 
# 
# 
# High freq. dielectric constant tensor:
#      x y z
#    x 1.698850 0.000000 0.000000 
#    y 0.000000 1.710860 0.000000 
#    z 0.000000 0.000000 1.756770 
# 
# From -- ./inp_files/20289.got.cif
#   From: 2010.03.12/outbox.cif.g09.slc.cpg/sg59_11_cif.got.tgz:20289.got - 2010.04.16 16:29:54.
