data_PCOD8241300
_publ_section_title
;
Structure prediction by ZEFSAII (Michael W. Deem and Ramdas Pophale) SiO2 
 PCOD8241300
Probable space group: P M M N
;
_chemical_formula_sum "Si O2"
_cell_formula_units_Z 48
_cell_length_a 8.849934
_cell_length_b 23.067144
_cell_length_c 12.994370
_cell_angle_alpha 90.000000
_cell_angle_beta 90.000000
_cell_angle_gamma 90.000000
_cell_volume 2652.705802
_symmetry_space_group_name_H-M "P M M N"
_symmetry_group_IT_number 59
_space_group.IT_coordinate_system_code '2'
_symmetry_cell_setting 'orthorhombic'
loop_
_space_group_symop_operation_xyz
x,y,z
1/2-x,1/2-y,z
1/2+x,-y,-z
-x,1/2+y,-z
-x,-y,-z
1/2+x,1/2+y,-z
1/2-x,y,z
x,1/2-y,z
loop_
_atom_site_type_symbol
_atom_site_label
_atom_site_fract_x
_atom_site_fract_y
_atom_site_fract_z
Si Si1 0.427758 0.683886 0.932689
Si Si2 0.080916 0.374164 0.256768
Si Si3 0.071086 0.108728 0.661806
Si Si4 0.928358 0.115715 0.457300
Si Si5 0.926064 0.816349 0.143591
Si Si6 0.422051 0.012292 0.365243
O O1 0.250000 0.678171 0.930160
O O2 0.480696 0.750000 0.913361
O O3 0.494309 0.642921 0.845485
O O4 0.486066 0.661895 0.042839
O O5 0.250000 0.348426 0.254009
O O6 0.083398 0.444169 0.266597
O O7 0.995318 0.349385 0.359062
O O8 0.250000 0.106890 0.648258
O O9 0.020803 0.144888 0.761084
O O10 0.997430 0.140844 0.562884
O O11 0.005668 0.044487 0.674252
O O12 0.750000 0.121016 0.457069
O O13 0.982838 0.047359 0.454260
O O14 0.750000 0.824052 0.121281
O O15 0.967107 0.750000 0.169405
O O16 0.250000 0.998823 0.402743
#
# Coordination Sequence:
#
# PCOD8241300 Si02
#       6
#     8   8   8   8   8   8
#     4  10  20  35  57  81 103 132 173 219 265 313
#     4   9  19  34  53  77 105 137 173 214 257 307
#     4  11  20  32  53  79 106 141 180 215 260 313
#     4  10  19  32  52  77 108 140 171 211 259 307
#     4   9  20  38  57  76 101 136 178 219 257 307
#     4   9  19  33  51  78 108 139 176 214 257 311
#
# _framework density 18.094732
#
# number of rings (size 3 to 8) (size 9 to 14) (size 15 to 20)
#    1.000    1.333    0.000    3.500    0.000    2.333 
#    0.000    1.667    0.000    3.000    0.000    0.000 
#    0.000    0.000    0.000    0.000    0.000    0.000 
#
# Total GULP energy -594989.250205 kJ/mol
# GULP energy per Si atom -12395.609379 kJ/mol
# Density = 1.805355 g / cm^3
# Si number density = 18.094732 Si / 1000 Ang^3
#
#
#
# Elastic Constant Matrix: (Units=GPa)
#
#
# Indices 1 2 3 4 5 6 
#
# 1 105.0720 24.1214 69.8320 0.0000 0.0000 0.0000
# 2 24.1214 33.3134 42.7669 0.0000 0.0000 0.0000
# 3 69.8320 42.7669 150.9126 0.0000 0.0000 0.0000
# 4 0.0000 0.0000 0.0000 17.9264 0.0000 0.0000
# 5 0.0000 0.0000 0.0000 0.0000 30.9706 0.0000
# 6 0.0000 0.0000 0.0000 0.0000 0.0000 21.2110
#
#
#
# Elastic Compliance Matrix: (Units=1/GPa)
#
#
# Indices 1 2 3 4 5 6 
#
# 1 0.013913 -0.002844 -0.005632 0.000000 0.000000 0.000000
# 2 -0.002844 0.047765 -0.012220 0.000000 0.000000 0.000000
# 3 -0.005632 -0.012220 0.012696 0.000000 0.000000 0.000000
# 4 0.000000 0.000000 0.000000 0.055784 0.000000 0.000000
# 5 0.000000 0.000000 0.000000 0.000000 0.032289 0.000000
# 6 0.000000 0.000000 0.000000 0.000000 0.000000 0.047145
#
#
# Mechanical properties :
#
#
# Convention : Reuss Voigt Hill
#
# Bulk Modulus (GPa) = 30.31990 62.52650 46.42320
# Shear Modulus (GPa) = 19.08557 24.19343 21.63950
#
# Velocity S-wave (km/s) = 3.25123 3.66053 3.46193
# Velocity P-wave (km/s) = 5.55757 7.24542 6.45688
#
# Compressibility (1/GPa) = 0.03298164
#
# Stress axis : x y z
#
# Youngs Moduli (GPa) = 71.87312 20.93585 78.76715
#
# Poissons Ratio (x) = 0.05954 0.44364
# Poissons Ratio (y) = 0.20439 0.96255
# Poissons Ratio (z) = 0.40481 0.25584
#
# Static dielectric constant tensor:
#      x y z
#    x 3.384150 0.000000 0.000000 
#    y 0.000000 3.102010 0.000000 
#    z 0.000000 0.000000 3.358270 
# 
# 
# High freq. dielectric constant tensor:
#      x y z
#    x 1.716610 0.000000 0.000000 
#    y 0.000000 1.669110 0.000000 
#    z 0.000000 0.000000 1.702780 
# 
# From -- ./inp_files/14528.got.cif
#   From: 2010.03.12/outbox.cif.g09.slc.cpg/sg59_8_cif.got.tgz:14528.got - 2010.04.16 16:29:54.
