data_PCOD8241397
_publ_section_title
;
Structure prediction by ZEFSAII (Michael W. Deem and Ramdas Pophale) SiO2 
 PCOD8241397
Probable space group: P M M N
;
_chemical_formula_sum "Si O2"
_cell_formula_units_Z 48
_cell_length_a 20.631716
_cell_length_b 9.104801
_cell_length_c 13.976663
_cell_angle_alpha 90.000000
_cell_angle_beta 90.000000
_cell_angle_gamma 90.000000
_cell_volume 2625.483558
_symmetry_space_group_name_H-M "P M M N"
_symmetry_group_IT_number 59
_space_group.IT_coordinate_system_code '2'
_symmetry_cell_setting 'orthorhombic'
loop_
_space_group_symop_operation_xyz
x,y,z
1/2-x,1/2-y,z
1/2+x,-y,-z
-x,1/2+y,-z
-x,-y,-z
1/2+x,1/2+y,-z
1/2-x,y,z
x,1/2-y,z
loop_
_atom_site_type_symbol
_atom_site_label
_atom_site_fract_x
_atom_site_fract_y
_atom_site_fract_z
Si Si1 0.250000 0.076053 0.107833
Si Si2 0.922885 0.078456 0.401122
Si Si3 0.997376 0.077043 0.898995
Si Si4 0.876275 0.922762 0.219663
Si Si5 0.750000 0.924553 0.107599
Si Si6 0.928474 0.582374 0.589883
Si Si7 0.118245 0.420288 0.204292
O O1 0.250000 0.250000 0.103346
O O2 0.313180 0.022034 0.164980
O O3 0.250000 0.010577 0.000262
O O4 0.909401 0.250000 0.396624
O O5 0.998055 0.038565 0.381918
O O6 0.878640 0.001399 0.321884
O O7 0.901796 0.019801 0.505299
O O8 0.992387 0.250000 0.914127
O O9 0.061688 0.032547 0.842185
O O10 0.936021 0.021437 0.841113
O O11 0.000000 0.000000 0.000000
O O12 0.872701 0.750000 0.237971
O O13 0.813407 0.980915 0.163114
O O14 0.750000 0.750000 0.101783
O O15 0.927218 0.750000 0.553679
O O16 0.882473 0.559531 0.681297
O O17 0.105444 0.250000 0.176689
#
# Coordination Sequence:
#
# PCOD8241397 Si02
#       7
#     4   8   8   8   4   8   8
#     4   9  18  34  58  81 108 144 183 225 272 325
#     4  10  19  32  53  80 110 142 176 221 273 323
#     4  11  22  34  53  80 109 141 179 229 277 323
#     4  10  20  35  55  78 105 139 181 224 270 321
#     4   9  18  34  54  77 104 140 181 221 266 321
#     4   9  18  32  52  79 111 144 178 219 269 324
#     4  10  19  35  57  82 109 141 182 226 272 324
#
# _framework density 18.282347000000001
#
# number of rings (size 3 to 8) (size 9 to 14) (size 15 to 20)
#    0.000    2.167    1.667    2.000    0.000    4.667 
#    0.000    1.667    0.000    4.000    0.000    0.000 
#    0.000    0.000    0.000    0.000    0.000    0.000 
#
# Total GULP energy -595334.481813 kJ/mol
# GULP energy per Si atom -12402.801704 kJ/mol
# Density = 1.824074 g / cm^3
# Si number density = 18.282347 Si / 1000 Ang^3
#
#
#
# Elastic Constant Matrix: (Units=GPa)
#
#
# Indices 1 2 3 4 5 6 
#
# 1 135.0481 35.0677 71.6990 0.0000 0.0000 0.0000
# 2 35.0677 44.2436 44.6352 0.0000 0.0000 0.0000
# 3 71.6990 44.6352 146.3123 0.0000 0.0000 0.0000
# 4 0.0000 0.0000 0.0000 32.7387 0.0000 0.0000
# 5 0.0000 0.0000 0.0000 0.0000 34.7290 0.0000
# 6 0.0000 0.0000 0.0000 0.0000 0.0000 21.6643
#
#
#
# Elastic Compliance Matrix: (Units=1/GPa)
#
#
# Indices 1 2 3 4 5 6 
#
# 1 0.010613 -0.004572 -0.003806 0.000000 0.000000 0.000000
# 2 -0.004572 0.034621 -0.008321 0.000000 0.000000 0.000000
# 3 -0.003806 -0.008321 0.011238 0.000000 0.000000 0.000000
# 4 0.000000 0.000000 0.000000 0.030545 0.000000 0.000000
# 5 0.000000 0.000000 0.000000 0.000000 0.028794 0.000000
# 6 0.000000 0.000000 0.000000 0.000000 0.000000 0.046159
#
#
# Mechanical properties :
#
#
# Convention : Reuss Voigt Hill
#
# Bulk Modulus (GPa) = 43.33981 69.82308 56.58144
# Shear Modulus (GPa) = 24.62338 29.43989 27.03163
#
# Velocity S-wave (km/s) = 3.67391 4.01720 3.84938
# Velocity P-wave (km/s) = 6.46174 7.73250 7.12551
#
# Compressibility (1/GPa) = 0.02307348
#
# Stress axis : x y z
#
# Youngs Moduli (GPa) = 94.22816 28.88431 88.98213
#
# Poissons Ratio (x) = 0.13206 0.33865
# Poissons Ratio (y) = 0.43082 0.74044
# Poissons Ratio (z) = 0.35861 0.24035
#
# Static dielectric constant tensor:
#      x y z
#    x 3.372650 0.000000 0.000000 
#    y 0.000000 2.870880 0.000000 
#    z 0.000000 0.000000 3.278780 
# 
# 
# High freq. dielectric constant tensor:
#      x y z
#    x 1.694460 0.000000 0.000000 
#    y 0.000000 1.691440 0.000000 
#    z 0.000000 0.000000 1.723320 
# 
# From -- ./inp_files/23712.got.cif
#   From: 2010.03.12/outbox.cif.g09.slc.cpg/sg59_12_cif.got.tgz:23712.got - 2010.04.16 16:29:54.
