data_PCOD8241095
_publ_section_title
;
Structure prediction by ZEFSAII (Michael W. Deem and Ramdas Pophale) SiO2 
 PCOD8241095
Probable space group: P M M N
;
_chemical_formula_sum "Si O2"
_cell_formula_units_Z 64
_cell_length_a 8.853567
_cell_length_b 21.056286
_cell_length_c 17.641602
_cell_angle_alpha 90.000000
_cell_angle_beta 90.000000
_cell_angle_gamma 90.000000
_cell_volume 3288.804584
_symmetry_space_group_name_H-M "P M M N"
_symmetry_group_IT_number 59
_space_group.IT_coordinate_system_code '2'
_symmetry_cell_setting 'orthorhombic'
loop_
_space_group_symop_operation_xyz
x,y,z
1/2-x,1/2-y,z
1/2+x,-y,-z
-x,1/2+y,-z
-x,-y,-z
1/2+x,1/2+y,-z
1/2-x,y,z
x,1/2-y,z
loop_
_atom_site_type_symbol
_atom_site_label
_atom_site_fract_x
_atom_site_fract_y
_atom_site_fract_z
Si Si1 0.070284 0.177916 0.805090
Si Si2 0.571824 0.564586 0.911552
Si Si3 0.922476 0.998962 0.582853
Si Si4 0.427901 0.066681 0.914534
Si Si5 0.421805 0.140514 0.355784
Si Si6 0.569698 0.889297 0.346514
Si Si7 0.930053 0.821741 0.806207
Si Si8 0.919445 0.679626 0.489933
O O1 0.250000 0.180563 0.804761
O O2 0.007432 0.250000 0.817787
O O3 0.013084 0.129327 0.870103
O O4 0.008923 0.149735 0.725626
O O5 0.750000 0.558257 0.901894
O O6 0.500727 0.498285 0.881885
O O7 0.508317 0.625450 0.865238
O O8 0.524616 0.576331 0.998436
O O9 0.750000 0.020222 0.571010
O O10 0.005328 0.040203 0.647845
O O11 0.933828 0.932717 0.625156
O O12 0.000000 0.000000 0.500000
O O13 0.250000 0.059588 0.904055
O O14 0.250000 0.164329 0.348151
O O15 0.499346 0.159853 0.276376
O O16 0.500764 0.175797 0.427937
O O17 0.750000 0.889046 0.345257
O O18 0.499905 0.859320 0.423698
O O19 0.750000 0.825215 0.806277
O O20 0.982868 0.750000 0.828339
O O21 0.750000 0.651183 0.500894
O O22 0.912524 0.750000 0.458520
#
# Coordination Sequence:
#
# PCOD8241095 Si02
#       8
#     8   8   8   8   8   8   8   8
#     4   9  18  32  52  78 105 134 173 219 261 306
#     4   9  18  32  52  77 105 135 168 208 255 307
#     4  11  21  34  51  73  99 131 170 211 257 304
#     4   9  18  33  52  76 105 137 171 207 252 307
#     4   9  17  28  43  68  98 124 157 202 248 294
#     4  10  19  32  49  73 100 127 166 211 254 302
#     4   9  17  29  47  74 103 128 162 210 257 298
#     4   9  15  25  44  66  89 120 157 198 241 285
#
# _framework density 19.459956999999999
#
# number of rings (size 3 to 8) (size 9 to 14) (size 15 to 20)
#    0.000    2.625    1.250    1.125    1.750    3.500 
#    0.000    2.500    0.000    3.000    0.000    3.500 
#    0.000    0.000    0.000    0.000    0.000    0.000 
#
# Total GULP energy -792911.878990 kJ/mol
# GULP energy per Si atom -12389.248109 kJ/mol
# Density = 1.941567 g / cm^3
# Si number density = 19.459957 Si / 1000 Ang^3
#
#
#
# Elastic Constant Matrix: (Units=GPa)
#
#
# Indices 1 2 3 4 5 6 
#
# 1 16.9890 18.8661 17.5549 0.0000 0.0000 0.0000
# 2 18.8661 146.2078 72.6947 0.0000 0.0000 0.0000
# 3 17.5549 72.6947 118.9356 0.0000 0.0000 0.0000
# 4 0.0000 0.0000 0.0000 37.7092 0.0000 0.0000
# 5 0.0000 0.0000 0.0000 0.0000 13.0688 0.0000
# 6 0.0000 0.0000 0.0000 0.0000 0.0000 23.8035
#
#
#
# Elastic Compliance Matrix: (Units=1/GPa)
#
#
# Indices 1 2 3 4 5 6 
#
# 1 0.072741 -0.005815 -0.007182 0.000000 0.000000 0.000000
# 2 -0.005815 0.010290 -0.005431 0.000000 0.000000 0.000000
# 3 -0.007182 -0.005431 0.012788 0.000000 0.000000 0.000000
# 4 0.000000 0.000000 0.000000 0.026519 0.000000 0.000000
# 5 0.000000 0.000000 0.000000 0.000000 0.076518 0.000000
# 6 0.000000 0.000000 0.000000 0.000000 0.000000 0.042011
#
#
# Mechanical properties :
#
#
# Convention : Reuss Voigt Hill
#
# Bulk Modulus (GPa) = 16.96024 55.59597 36.27810
# Shear Modulus (GPa) = 16.81365 26.45074 21.63219
#
# Velocity S-wave (km/s) = 2.94260 3.69079 3.33772
# Velocity P-wave (km/s) = 4.50328 6.84061 5.79109
#
# Compressibility (1/GPa) = 0.05896144
#
# Stress axis : x y z
#
# Youngs Moduli (GPa) = 13.74745 97.17802 78.20045
#
# Poissons Ratio (x) = 0.56511 0.56165
# Poissons Ratio (y) = 0.07994 0.42473
# Poissons Ratio (z) = 0.09874 0.52780
#
# Static dielectric constant tensor:
#      x y z
#    x 3.003680 0.000000 0.000000 
#    y 0.000000 3.857830 0.000000 
#    z 0.000000 0.000000 3.823480 
# 
# 
# High freq. dielectric constant tensor:
#      x y z
#    x 1.687980 0.000000 0.000000 
#    y 0.000000 1.774210 0.000000 
#    z 0.000000 0.000000 1.765730 
# 
# From -- ./inp_files/26188.got.cif
#   From: 2010.03.12/outbox.cif.g09.slc.cpg/sg59_14_cif.got.tgz:26188.got - 2010.04.16 16:29:54.
