data_PCOD8241148
_publ_section_title
;
Structure prediction by ZEFSAII (Michael W. Deem and Ramdas Pophale) SiO2 
 PCOD8241148
Probable space group: P M M N
;
_chemical_formula_sum "Si O2"
_cell_formula_units_Z 56
_cell_length_a 19.799158
_cell_length_b 9.133484
_cell_length_c 16.290697
_cell_angle_alpha 90.000000
_cell_angle_beta 90.000000
_cell_angle_gamma 90.000000
_cell_volume 2945.932962
_symmetry_space_group_name_H-M "P M M N"
_symmetry_group_IT_number 59
_space_group.IT_coordinate_system_code '2'
_symmetry_cell_setting 'orthorhombic'
loop_
_space_group_symop_operation_xyz
x,y,z
1/2-x,1/2-y,z
1/2+x,-y,-z
-x,1/2+y,-z
-x,-y,-z
1/2+x,1/2+y,-z
1/2-x,y,z
x,1/2-y,z
loop_
_atom_site_type_symbol
_atom_site_label
_atom_site_fract_x
_atom_site_fract_y
_atom_site_fract_z
Si Si1 0.676843 0.422670 0.014015
Si Si2 0.092757 0.422330 0.666990
Si Si3 0.829257 0.414771 0.195615
Si Si4 0.175530 0.924142 0.342950
Si Si5 0.673309 0.421512 0.470388
Si Si6 0.543629 0.077219 0.930857
Si Si7 0.955525 0.423517 0.747331
O O1 0.750000 0.490000 0.988933
O O2 0.684698 0.250000 0.021129
O O3 0.654423 0.476352 0.104595
O O4 0.621732 0.466201 0.946696
O O5 0.099562 0.250000 0.657185
O O6 0.137839 0.472265 0.742602
O O7 0.117942 0.495654 0.583529
O O8 0.015253 0.468982 0.685244
O O9 0.750000 0.412754 0.211521
O O10 0.858149 0.250000 0.208978
O O11 0.250000 0.979784 0.313496
O O12 0.174796 0.750000 0.339985
O O13 0.162756 0.974332 0.436355
O O14 0.115692 0.989031 0.285868
O O15 0.750000 0.458205 0.441838
O O16 0.659757 0.250000 0.460953
O O17 0.531501 0.250000 0.938933
O O18 0.527701 0.018108 0.839252
O O19 0.500000 0.000000 0.000000
O O20 0.948875 0.250000 0.753005
#
# Coordination Sequence:
#
# PCOD8241148 Si02
#       7
#     8   8   8   8   8   8   8
#     4   8  15  28  47  71  93 116 155 204 244 276
#     4  11  21  30  43  68 103 133 156 189 234 285
#     4   9  17  30  47  66  92 126 163 202 237 273
#     4   8  15  31  54  75  95 122 158 200 244 287
#     4   9  18  33  53  74  94 121 160 201 236 276
#     4  10  19  32  51  72  98 130 160 195 238 284
#     4   9  19  32  46  71 102 127 155 196 242 282
#
# _framework density 19.009259
#
# number of rings (size 3 to 8) (size 9 to 14) (size 15 to 20)
#    0.000    2.857    0.000    3.429    0.000    3.429 
#    0.000    3.571    0.000    3.000    0.000    0.000 
#    0.000    0.000    0.000    0.000    0.000    0.000 
#
# Total GULP energy -694052.377329 kJ/mol
# GULP energy per Si atom -12393.792452 kJ/mol
# Density = 1.896599 g / cm^3
# Si number density = 19.009259 Si / 1000 Ang^3
#
#
#
# Elastic Constant Matrix: (Units=GPa)
#
#
# Indices 1 2 3 4 5 6 
#
# 1 115.9335 32.0448 74.7937 0.0000 0.0000 0.0000
# 2 32.0448 32.8559 28.7088 0.0000 0.0000 0.0000
# 3 74.7937 28.7088 111.4002 0.0000 0.0000 0.0000
# 4 0.0000 0.0000 0.0000 18.2408 0.0000 0.0000
# 5 0.0000 0.0000 0.0000 0.0000 33.9528 0.0000
# 6 0.0000 0.0000 0.0000 0.0000 0.0000 19.0448
#
#
#
# Elastic Compliance Matrix: (Units=1/GPa)
#
#
# Indices 1 2 3 4 5 6 
#
# 1 0.016860 -0.008457 -0.009140 0.000000 0.000000 0.000000
# 2 -0.008457 0.043524 -0.005538 0.000000 0.000000 0.000000
# 3 -0.009140 -0.005538 0.016541 0.000000 0.000000 0.000000
# 4 0.000000 0.000000 0.000000 0.054822 0.000000 0.000000
# 5 0.000000 0.000000 0.000000 0.000000 0.029453 0.000000
# 6 0.000000 0.000000 0.000000 0.000000 0.000000 0.052508
#
#
# Mechanical properties :
#
#
# Convention : Reuss Voigt Hill
#
# Bulk Modulus (GPa) = 32.62349 59.03159 45.82754
# Shear Modulus (GPa) = 18.50507 22.55716 20.53111
#
# Velocity S-wave (km/s) = 3.12344 3.44850 3.28999
# Velocity P-wave (km/s) = 5.49609 6.85403 6.21228
#
# Compressibility (1/GPa) = 0.03065276
#
# Stress axis : x y z
#
# Youngs Moduli (GPa) = 59.31175 22.97604 60.45710
#
# Poissons Ratio (x) = 0.19431 0.55259
# Poissons Ratio (y) = 0.50161 0.33483
# Poissons Ratio (z) = 0.54213 0.12725
#
# Static dielectric constant tensor:
#      x y z
#    x 3.426790 0.000000 0.000000 
#    y 0.000000 3.043360 0.000000 
#    z 0.000000 0.000000 3.616740 
# 
# 
# High freq. dielectric constant tensor:
#      x y z
#    x 1.749040 0.000000 0.000000 
#    y 0.000000 1.684300 0.000000 
#    z 0.000000 0.000000 1.741730 
# 
# From -- ./inp_files/24194.got.cif
#   From: 2010.03.12/outbox.cif.g09.slc.cpg/sg59_13_cif.got.tgz:24194.got - 2010.04.16 16:29:54.
