data_PCOD8241296
_publ_section_title
;
Structure prediction by ZEFSAII (Michael W. Deem and Ramdas Pophale) SiO2 
 PCOD8241296
Probable space group: P M M N
;
_chemical_formula_sum "Si O2"
_cell_formula_units_Z 56
_cell_length_a 9.062383
_cell_length_b 23.903517
_cell_length_c 14.782387
_cell_angle_alpha 90.000000
_cell_angle_beta 90.000000
_cell_angle_gamma 90.000000
_cell_volume 3202.202448
_symmetry_space_group_name_H-M "P M M N"
_symmetry_group_IT_number 59
_space_group.IT_coordinate_system_code '2'
_symmetry_cell_setting 'orthorhombic'
loop_
_space_group_symop_operation_xyz
x,y,z
1/2-x,1/2-y,z
1/2+x,-y,-z
-x,1/2+y,-z
-x,-y,-z
1/2+x,1/2+y,-z
1/2-x,y,z
x,1/2-y,z
loop_
_atom_site_type_symbol
_atom_site_label
_atom_site_fract_x
_atom_site_fract_y
_atom_site_fract_z
Si Si1 0.420754 0.936615 0.868330
Si Si2 0.575354 0.750000 0.785259
Si Si3 0.577827 0.357087 0.296296
Si Si4 0.578278 0.361678 0.966740
Si Si5 0.420308 0.418633 0.449094
Si Si6 0.923938 0.750000 0.994180
Si Si7 0.079841 0.543233 0.381717
Si Si8 0.420796 0.953363 0.178326
O O1 0.250000 0.948020 0.886342
O O2 0.450364 0.908191 0.771956
O O3 0.499703 0.996099 0.872766
O O4 0.482703 0.896702 0.947560
O O5 0.750000 0.750000 0.773727
O O6 0.509095 0.803821 0.738047
O O7 0.527464 0.750000 0.889695
O O8 0.750000 0.342655 0.304468
O O9 0.513906 0.373298 0.393808
O O10 0.750000 0.347432 0.980635
O O11 0.550146 0.396311 0.875379
O O12 0.488859 0.304476 0.956989
O O13 0.250000 0.400654 0.450573
O O14 0.481302 0.419530 0.551228
O O15 0.443359 0.478219 0.402193
O O16 0.750000 0.750000 0.006138
O O17 0.250000 0.560675 0.394143
O O18 0.021422 0.555080 0.280538
O O19 0.250000 0.969710 0.180849
#
# Coordination Sequence:
#
# PCOD8241296 Si02
#       8
#     8   4   8   8   8   4   8   8
#     4  10  20  32  50  78 111 144 176 213 262 321
#     4  11  23  37  55  78 105 140 183 225 266 314
#     4  11  21  34  54  79 109 144 177 216 266 320
#     4  10  21  37  55  76 106 144 182 221 267 319
#     4  10  19  32  52  77 106 140 174 217 265 313
#     4  11  23  37  55  78 103 138 183 229 268 306
#     4   9  18  32  50  76 107 138 175 218 262 316
#     4  10  20  34  54  79 109 144 180 221 269 319
#
# _framework density 17.487964000000002
#
# number of rings (size 3 to 8) (size 9 to 14) (size 15 to 20)
#    0.000    1.857    2.857    1.714    0.000    3.429 
#    0.000    0.000    0.000    0.857    0.000    4.000 
#    0.000    0.000    0.000    0.000    0.000    0.000 
#
# Total GULP energy -694642.427712 kJ/mol
# GULP energy per Si atom -12404.329066 kJ/mol
# Density = 1.744816 g / cm^3
# Si number density = 17.487964 Si / 1000 Ang^3
#
#
#
# Elastic Constant Matrix: (Units=GPa)
#
#
# Indices 1 2 3 4 5 6 
#
# 1 69.3221 46.4962 39.4947 0.0000 0.0000 0.0000
# 2 46.4962 94.5867 43.4273 0.0000 0.0000 0.0000
# 3 39.4947 43.4273 101.9816 0.0000 0.0000 0.0000
# 4 0.0000 0.0000 0.0000 24.3995 0.0000 0.0000
# 5 0.0000 0.0000 0.0000 0.0000 26.0457 0.0000
# 6 0.0000 0.0000 0.0000 0.0000 0.0000 32.3374
#
#
#
# Elastic Compliance Matrix: (Units=1/GPa)
#
#
# Indices 1 2 3 4 5 6 
#
# 1 0.023556 -0.009187 -0.005210 0.000000 0.000000 0.000000
# 2 -0.009187 0.016725 -0.003564 0.000000 0.000000 0.000000
# 3 -0.005210 -0.003564 0.013341 0.000000 0.000000 0.000000
# 4 0.000000 0.000000 0.000000 0.040985 0.000000 0.000000
# 5 0.000000 0.000000 0.000000 0.000000 0.038394 0.000000
# 6 0.000000 0.000000 0.000000 0.000000 0.000000 0.030924
#
#
# Mechanical properties :
#
#
# Convention : Reuss Voigt Hill
#
# Bulk Modulus (GPa) = 56.50109 58.30295 57.40202
# Shear Modulus (GPa) = 24.30163 25.65468 24.97815
#
# Velocity S-wave (km/s) = 3.73181 3.83429 3.78339
# Velocity P-wave (km/s) = 7.13773 7.28104 7.20974
#
# Compressibility (1/GPa) = 0.01769877
#
# Stress axis : x y z
#
# Youngs Moduli (GPa) = 42.45196 59.79120 74.95572
#
# Poissons Ratio (x) = 0.54932 0.39055
# Poissons Ratio (y) = 0.39002 0.26715
# Poissons Ratio (z) = 0.22119 0.21310
#
# Static dielectric constant tensor:
#      x y z
#    x 3.247130 0.000000 0.000000 
#    y 0.000000 3.004580 0.000000 
#    z 0.000000 0.000000 3.349140 
# 
# 
# High freq. dielectric constant tensor:
#      x y z
#    x 1.679330 0.000000 0.000000 
#    y 0.000000 1.657380 0.000000 
#    z 0.000000 0.000000 1.675820 
# 
# From -- ./inp_files/21120.got.cif
#   From: 2010.03.12/outbox.cif.g09.slc.cpg/sg59_11_cif.got.tgz:21120.got - 2010.04.16 16:29:54.
