data_PCOD8241663
_publ_section_title
;
Structure prediction by ZEFSAII (Michael W. Deem and Ramdas Pophale) SiO2 
 PCOD8241663
Probable space group: P M M N
;
_chemical_formula_sum "Si O2"
_cell_formula_units_Z 64
_cell_length_a 9.197867
_cell_length_b 18.116366
_cell_length_c 19.721167
_cell_angle_alpha 90.000000
_cell_angle_beta 90.000000
_cell_angle_gamma 90.000000
_cell_volume 3286.176020
_symmetry_space_group_name_H-M "P M M N"
_symmetry_group_IT_number 59
_space_group.IT_coordinate_system_code '2'
_symmetry_cell_setting 'orthorhombic'
loop_
_space_group_symop_operation_xyz
x,y,z
1/2-x,1/2-y,z
1/2+x,-y,-z
-x,1/2+y,-z
-x,-y,-z
1/2+x,1/2+y,-z
1/2-x,y,z
x,1/2-y,z
loop_
_atom_site_type_symbol
_atom_site_label
_atom_site_fract_x
_atom_site_fract_y
_atom_site_fract_z
Si Si1 0.917917 0.397074 0.035636
Si Si2 0.921413 0.077098 0.515444
Si Si3 0.585737 0.667495 0.849481
Si Si4 0.918550 0.165584 0.649599
Si Si5 0.080168 0.430296 0.274538
Si Si6 0.077734 0.075714 0.754793
Si Si7 0.416344 0.164607 0.405572
Si Si8 0.918018 0.559170 0.090332
O O1 0.750000 0.380390 0.026105
O O2 0.949233 0.474209 0.073136
O O3 0.987480 0.335433 0.083583
O O4 0.989912 0.391455 0.961592
O O5 0.750000 0.064931 0.507536
O O6 0.960109 0.108609 0.589735
O O7 0.975045 0.139184 0.463847
O O8 0.000000 0.000000 0.500000
O O9 0.750000 0.645583 0.869409
O O10 0.579763 0.750000 0.819837
O O11 0.526259 0.613042 0.791880
O O12 0.750000 0.157061 0.668615
O O13 0.953341 0.250000 0.627813
O O14 0.013402 0.146698 0.716182
O O15 0.250000 0.450193 0.270421
O O16 0.045117 0.380052 0.338477
O O17 0.987923 0.504204 0.281838
O O18 0.250000 0.074106 0.747692
O O19 0.030106 0.077364 0.833583
O O20 0.250000 0.149914 0.428150
O O21 0.443411 0.250000 0.390003
O O22 0.750000 0.578862 0.080388
#
# Coordination Sequence:
#
# PCOD8241663 Si02
#       8
#     8   8   8   8   8   8   8   8
#     4  10  19  33  54  80 109 143 187 235 283 337
#     4  11  23  40  62  88 117 151 192 239 289 342
#     4  10  20  34  53  78 112 154 194 232 281 339
#     4  10  23  43  63  84 115 154 194 236 286 346
#     4  10  20  35  56  82 114 153 194 232 276 335
#     4  11  22  37  59  88 117 145 185 238 290 338
#     4  10  21  37  57  83 116 152 191 235 281 333
#     4   9  19  35  54  79 111 143 181 231 285 339
#
# _framework density 19.475524
#
# number of rings (size 3 to 8) (size 9 to 14) (size 15 to 20)
#    0.000    1.875    1.250    2.625    0.000    8.750 
#    0.000    0.625    0.000    3.000    0.000    0.000 
#    0.000    0.000    0.000    0.000    0.000    0.000 
#
# Total GULP energy -793784.531520 kJ/mol
# GULP energy per Si atom -12402.883305 kJ/mol
# Density = 1.943120 g / cm^3
# Si number density = 19.475524 Si / 1000 Ang^3
#
#
#
# Elastic Constant Matrix: (Units=GPa)
#
#
# Indices 1 2 3 4 5 6 
#
# 1 75.2579 34.3198 60.7462 0.0000 0.0000 0.0000
# 2 34.3198 76.8582 42.9796 0.0000 0.0000 0.0000
# 3 60.7462 42.9796 129.7840 0.0000 0.0000 0.0000
# 4 0.0000 0.0000 0.0000 24.3297 0.0000 0.0000
# 5 0.0000 0.0000 0.0000 0.0000 33.8466 0.0000
# 6 0.0000 0.0000 0.0000 0.0000 0.0000 29.0324
#
#
#
# Elastic Compliance Matrix: (Units=1/GPa)
#
#
# Indices 1 2 3 4 5 6 
#
# 1 0.022934 -0.005201 -0.009012 0.000000 0.000000 0.000000
# 2 -0.005201 0.017148 -0.003244 0.000000 0.000000 0.000000
# 3 -0.009012 -0.003244 0.012997 0.000000 0.000000 0.000000
# 4 0.000000 0.000000 0.000000 0.041102 0.000000 0.000000
# 5 0.000000 0.000000 0.000000 0.000000 0.029545 0.000000
# 6 0.000000 0.000000 0.000000 0.000000 0.000000 0.034444
#
#
# Mechanical properties :
#
#
# Convention : Reuss Voigt Hill
#
# Bulk Modulus (GPa) = 55.05272 61.99903 58.52588
# Shear Modulus (GPa) = 25.10806 27.03206 26.07006
#
# Velocity S-wave (km/s) = 3.59445 3.72963 3.66267
# Velocity P-wave (km/s) = 6.74950 7.10284 6.92842
#
# Compressibility (1/GPa) = 0.01816441
#
# Stress axis : x y z
#
# Youngs Moduli (GPa) = 43.60410 58.31693 76.93793
#
# Poissons Ratio (x) = 0.30332 0.69335
# Poissons Ratio (y) = 0.22679 0.24960
# Poissons Ratio (z) = 0.39295 0.18919
#
# Static dielectric constant tensor:
#      x y z
#    x 3.505220 0.000000 0.000000 
#    y 0.000000 3.451850 0.000000 
#    z 0.000000 0.000000 3.664850 
# 
# 
# High freq. dielectric constant tensor:
#      x y z
#    x 1.755490 0.000000 0.000000 
#    y 0.000000 1.750700 0.000000 
#    z 0.000000 0.000000 1.765880 
# 
# From -- ./inp_files/29513.got.cif
#   From: 2010.03.12/outbox.cif.g09.slc.cpg/sg59_15_cif.got.tgz:29513.got - 2010.04.16 16:29:54.
