data_PCOD8241520
_publ_section_title
;
Structure prediction by ZEFSAII (Michael W. Deem and Ramdas Pophale) SiO2 
 PCOD8241520
Probable space group: P M M N
;
_chemical_formula_sum "Si O2"
_cell_formula_units_Z 64
_cell_length_a 31.225443
_cell_length_b 9.347794
_cell_length_c 11.974532
_cell_angle_alpha 90.000000
_cell_angle_beta 90.000000
_cell_angle_gamma 90.000000
_cell_volume 3495.234275
_symmetry_space_group_name_H-M "P M M N"
_symmetry_group_IT_number 59
_space_group.IT_coordinate_system_code '2'
_symmetry_cell_setting 'orthorhombic'
loop_
_space_group_symop_operation_xyz
x,y,z
1/2-x,1/2-y,z
1/2+x,-y,-z
-x,1/2+y,-z
-x,-y,-z
1/2+x,1/2+y,-z
1/2-x,y,z
x,1/2-y,z
loop_
_atom_site_type_symbol
_atom_site_label
_atom_site_fract_x
_atom_site_fract_y
_atom_site_fract_z
Si Si1 0.455251 0.582258 0.988960
Si Si2 0.066065 0.911924 0.742184
Si Si3 0.202501 0.919961 0.980229
Si Si4 0.609770 0.583134 0.649372
Si Si5 0.700475 0.088572 0.270866
Si Si6 0.133685 0.082338 0.600452
Si Si7 0.874476 0.419648 0.865147
Si Si8 0.484439 0.412073 0.395831
O O1 0.465809 0.750000 0.996285
O O2 0.420495 0.535853 0.082383
O O3 0.500000 0.500000 0.000000
O O4 0.432230 0.545305 0.871794
O O5 0.082800 0.750000 0.724331
O O6 0.016784 0.925887 0.706587
O O7 0.094101 0.016935 0.667929
O O8 0.250000 0.976381 0.016849
O O9 0.203405 0.750000 0.980713
O O10 0.192237 0.970195 0.854121
O O11 0.165000 0.978141 0.059960
O O12 0.613607 0.750000 0.679036
O O13 0.630862 0.547321 0.530545
O O14 0.632692 0.492073 0.745294
O O15 0.560787 0.529987 0.646911
O O16 0.750000 0.085661 0.301249
O O17 0.682422 0.250000 0.282519
O O18 0.677689 0.984684 0.357704
O O19 0.133219 0.250000 0.622780
O O20 0.871703 0.250000 0.852244
O O21 0.500000 0.500000 0.500000
O O22 0.479031 0.250000 0.438080
#
# Coordination Sequence:
#
# PCOD8241520 Si02
#       8
#     8   8   8   8   8   8   8   8
#     4  10  21  36  53  77 109 143 179 221 271 326
#     4  10  20  34  55  78 103 138 177 221 269 315
#     4   8  15  32  59  86 108 132 168 218 272 320
#     4  10  22  38  52  72 107 147 181 217 267 320
#     4   9  18  35  60  85 109 138 170 211 266 325
#     4  11  22  35  53  78 108 140 175 218 265 314
#     4  10  20  34  55  81 106 138 181 226 267 315
#     4  10  19  33  52  73 100 137 179 221 261 307
#
# _framework density 18.310646999999999
#
# number of rings (size 3 to 8) (size 9 to 14) (size 15 to 20)
#    0.000    2.250    1.250    2.625    0.000    5.750 
#    0.000    2.500    0.000    3.375    0.000    0.000 
#    0.000    0.000    0.000    0.000    0.000    0.000 
#
# Total GULP energy -793568.421973 kJ/mol
# GULP energy per Si atom -12399.506593 kJ/mol
# Density = 1.826897 g / cm^3
# Si number density = 18.310647 Si / 1000 Ang^3
#
#
#
# Elastic Constant Matrix: (Units=GPa)
#
#
# Indices 1 2 3 4 5 6 
#
# 1 114.5374 43.3114 61.8949 0.0000 0.0000 0.0000
# 2 43.3114 63.5007 55.8248 0.0000 0.0000 0.0000
# 3 61.8949 55.8248 127.5347 0.0000 0.0000 0.0000
# 4 0.0000 0.0000 0.0000 29.4171 0.0000 0.0000
# 5 0.0000 0.0000 0.0000 0.0000 29.9375 0.0000
# 6 0.0000 0.0000 0.0000 0.0000 0.0000 27.1183
#
#
#
# Elastic Compliance Matrix: (Units=1/GPa)
#
#
# Indices 1 2 3 4 5 6 
#
# 1 0.012859 -0.005339 -0.003904 0.000000 0.000000 0.000000
# 2 -0.005339 0.027815 -0.009584 0.000000 0.000000 0.000000
# 3 -0.003904 -0.009584 0.013931 0.000000 0.000000 0.000000
# 4 0.000000 0.000000 0.000000 0.033994 0.000000 0.000000
# 5 0.000000 0.000000 0.000000 0.000000 0.033403 0.000000
# 6 0.000000 0.000000 0.000000 0.000000 0.000000 0.036875
#
#
# Mechanical properties :
#
#
# Convention : Reuss Voigt Hill
#
# Bulk Modulus (GPa) = 58.99285 69.73724 64.36504
# Shear Modulus (GPa) = 24.73028 26.93070 25.83049
#
# Velocity S-wave (km/s) = 3.67903 3.83922 3.75998
# Velocity P-wave (km/s) = 7.09470 7.60402 7.35377
#
# Compressibility (1/GPa) = 0.01695121
#
# Stress axis : x y z
#
# Youngs Moduli (GPa) = 77.76524 35.95200 71.78301
#
# Poissons Ratio (x) = 0.19194 0.28024
# Poissons Ratio (y) = 0.41517 0.68798
# Poissons Ratio (z) = 0.30359 0.34457
#
# Static dielectric constant tensor:
#      x y z
#    x 3.474860 0.000000 0.000000 
#    y 0.000000 3.144110 0.000000 
#    z 0.000000 0.000000 3.370250 
# 
# 
# High freq. dielectric constant tensor:
#      x y z
#    x 1.713360 0.000000 0.000000 
#    y 0.000000 1.689800 0.000000 
#    z 0.000000 0.000000 1.711640 
# 
# From -- ./inp_files/19285.got.cif
#   From: 2010.03.12/outbox.cif.g09.slc.cpg/sg59_10_cif.got.tgz:19285.got - 2010.04.16 16:29:54.
