data_PCOD8241159
_publ_section_title
;
Structure prediction by ZEFSAII (Michael W. Deem and Ramdas Pophale) SiO2 
 PCOD8241159
Probable space group: P M M N
;
_chemical_formula_sum "Si O2"
_cell_formula_units_Z 40
_cell_length_a 9.224716
_cell_length_b 25.847947
_cell_length_c 9.243877
_cell_angle_alpha 90.000000
_cell_angle_beta 90.000000
_cell_angle_gamma 90.000000
_cell_volume 2204.109757
_symmetry_space_group_name_H-M "P M M N"
_symmetry_group_IT_number 59
_space_group.IT_coordinate_system_code '2'
_symmetry_cell_setting 'orthorhombic'
loop_
_space_group_symop_operation_xyz
x,y,z
1/2-x,1/2-y,z
1/2+x,-y,-z
-x,1/2+y,-z
-x,-y,-z
1/2+x,1/2+y,-z
1/2-x,y,z
x,1/2-y,z
loop_
_atom_site_type_symbol
_atom_site_label
_atom_site_fract_x
_atom_site_fract_y
_atom_site_fract_z
Si Si1 0.588072 0.947741 0.664210
Si Si2 0.416673 0.750000 0.832051
Si Si3 0.589806 0.956671 0.320736
Si Si4 0.579457 0.153127 0.367013
Si Si5 0.420095 0.250000 0.869346
Si Si6 0.920793 0.842888 0.334542
O O1 0.750000 0.940224 0.726728
O O2 0.592512 0.955059 0.493452
O O3 0.490783 0.898172 0.703053
O O4 0.519618 0.999370 0.736508
O O5 0.250000 0.750000 0.877300
O O6 0.455926 0.699632 0.740222
O O7 0.508947 0.750000 0.975724
O O8 0.750000 0.970211 0.262080
O O9 0.541663 0.899494 0.267762
O O10 0.750000 0.143982 0.388680
O O11 0.509710 0.167526 0.520220
O O12 0.250000 0.250000 0.892450
O O13 0.469824 0.199261 0.782045
O O14 0.750000 0.839384 0.372520
#
# Coordination Sequence:
#
# PCOD8241159 Si02
#       6
#     8   4   8   8   4   8
#     4   9  16  26  43  70 100 127 159 199 241 286
#     4  10  23  38  50  70 100 132 167 204 244 294
#     4   8  14  25  42  67 100 130 154 190 241 291
#     4  10  19  32  51  74 100 131 165 201 243 289
#     4  10  21  36  54  74  98 130 165 204 250 294
#     4   9  18  32  51  77 103 127 162 204 244 290
#
# _framework density 18.147917
#
# number of rings (size 3 to 8) (size 9 to 14) (size 15 to 20)
#    0.000    2.800    0.000    3.000    0.000    7.200 
#    0.000    0.000    0.000    1.200    0.000    0.000 
#    0.000    0.000    0.000    0.000    0.000    0.000 
#
# Total GULP energy -495904.718402 kJ/mol
# GULP energy per Si atom -12397.617960 kJ/mol
# Density = 1.810661 g / cm^3
# Si number density = 18.147917 Si / 1000 Ang^3
#
#
#
# Elastic Constant Matrix: (Units=GPa)
#
#
# Indices 1 2 3 4 5 6 
#
# 1 103.3228 76.6458 45.8688 0.0000 0.0000 0.0000
# 2 76.6458 168.1488 55.0841 0.0000 0.0000 0.0000
# 3 45.8688 55.0841 60.6735 0.0000 0.0000 0.0000
# 4 0.0000 0.0000 0.0000 -2.8563 0.0000 0.0000
# 5 0.0000 0.0000 0.0000 0.0000 23.1534 0.0000
# 6 0.0000 0.0000 0.0000 0.0000 0.0000 31.0549
#
#
#
# Elastic Compliance Matrix: (Units=1/GPa)
#
#
# Indices 1 2 3 4 5 6 
#
# 1 0.017160 -0.005084 -0.008357 0.000000 0.000000 0.000000
# 2 -0.005084 0.009971 -0.005209 0.000000 0.000000 0.000000
# 3 -0.008357 -0.005209 0.027528 0.000000 0.000000 0.000000
# 4 0.000000 0.000000 0.000000 -0.350102 0.000000 0.000000
# 5 0.000000 0.000000 0.000000 0.000000 0.043190 0.000000
# 6 0.000000 0.000000 0.000000 0.000000 0.000000 0.032201
#
#
# Mechanical properties :
#
#
# Convention : Reuss Voigt Hill
#
# Bulk Modulus (GPa) = 57.60573 76.37141 66.98857
# Shear Modulus (GPa) = -28.25408 20.57349 -3.84029
#
# Velocity S-wave (km/s) = -3.95001 3.37063 -1.45626
# Velocity P-wave (km/s) = 3.31780 7.57115 5.84509
#
# Compressibility (1/GPa) = 0.01735938
#
# Stress axis : x y z
#
# Youngs Moduli (GPa) = 58.27562 100.29139 36.32610
#
# Poissons Ratio (x) = 0.50990 0.30358
# Poissons Ratio (y) = 0.29628 0.18922
# Poissons Ratio (z) = 0.48701 0.52240
#
# Static dielectric constant tensor:
#      x y z
#    x 3.489800 0.000000 0.000000 
#    y 0.000000 3.788740 0.000000 
#    z 0.000000 0.000000 2.789790 
# 
# 
# High freq. dielectric constant tensor:
#      x y z
#    x 1.708350 0.000000 0.000000 
#    y 0.000000 1.726150 0.000000 
#    z 0.000000 0.000000 1.644130 
# 
# From -- ./inp_files/5962.got.cif
#   From: 2010.03.12/outbox.cif.g09.slc.cpg/sg59_3_cif.got.tgz:5962.got - 2010.04.16 16:29:54.
