data_PCOD8241798
_publ_section_title
;
Structure prediction by ZEFSAII (Michael W. Deem and Ramdas Pophale) SiO2 
 PCOD8241798
Probable space group: P M M N
;
_chemical_formula_sum "Si O2"
_cell_formula_units_Z 64
_cell_length_a 13.613716
_cell_length_b 26.881823
_cell_length_c 9.289838
_cell_angle_alpha 90.000000
_cell_angle_beta 90.000000
_cell_angle_gamma 90.000000
_cell_volume 3399.723085
_symmetry_space_group_name_H-M "P M M N"
_symmetry_group_IT_number 59
_space_group.IT_coordinate_system_code '2'
_symmetry_cell_setting 'orthorhombic'
loop_
_space_group_symop_operation_xyz
x,y,z
1/2-x,1/2-y,z
1/2+x,-y,-z
-x,1/2+y,-z
-x,-y,-z
1/2+x,1/2+y,-z
1/2-x,y,z
x,1/2-y,z
loop_
_atom_site_type_symbol
_atom_site_label
_atom_site_fract_x
_atom_site_fract_y
_atom_site_fract_z
Si Si1 0.636798 0.086711 0.164615
Si Si2 0.479795 0.022758 0.344261
Si Si3 0.527785 0.454252 0.906272
Si Si4 0.639846 0.193972 0.076718
Si Si5 0.058069 0.305718 0.952807
Si Si6 0.364487 0.110047 0.780267
Si Si7 0.865031 0.608967 0.541904
Si Si8 0.633899 0.805933 0.742269
O O1 0.750000 0.071205 0.188754
O O2 0.573366 0.052482 0.274641
O O3 0.624011 0.147056 0.187615
O O4 0.608573 0.077090 0.995421
O O5 0.393175 0.062505 0.359224
O O6 0.500000 0.000000 0.500000
O O7 0.438572 0.977192 0.247092
O O8 0.427755 0.423341 0.887657
O O9 0.500000 0.500000 0.000000
O O10 0.750000 0.189870 0.012057
O O11 0.626030 0.250000 0.148569
O O12 0.560959 0.189685 0.946045
O O13 0.096039 0.250000 0.935981
O O14 0.114350 0.333469 0.825329
O O15 0.088171 0.326365 0.109816
O O16 0.250000 0.096250 0.795263
O O17 0.406156 0.102829 0.619326
O O18 0.750000 0.612713 0.530802
O O19 0.906072 0.659458 0.613585
O O20 0.750000 0.809269 0.757449
O O21 0.598399 0.750000 0.709196
#
# Coordination Sequence:
#
# PCOD8241798 Si02
#       8
#     8   8   8   8   8   8   8   8
#     4  10  21  38  61  87 114 148 192 242 296 352
#     4  11  22  39  59  80 115 150 193 245 288 350
#     4  10  22  38  56  81 111 147 189 245 288 337
#     4   9  17  31  55  85 114 144 183 233 287 343
#     4  10  19  33  56  85 116 148 188 237 284 337
#     4  11  22  37  56  81 115 151 190 233 289 347
#     4  10  22  37  56  81 112 152 189 229 282 348
#     4   9  18  33  53  80 113 148 186 226 272 335
#
# _framework density 18.825061999999999
#
# number of rings (size 3 to 8) (size 9 to 14) (size 15 to 20)
#    0.000    2.000    2.500    1.125    1.750    4.250 
#    0.000    1.250    0.000    0.750    0.000    0.000 
#    0.000    8.000    0.000    0.000    0.000    0.000 
#
# Total GULP energy -792857.255451 kJ/mol
# GULP energy per Si atom -12388.394616 kJ/mol
# Density = 1.878222 g / cm^3
# Si number density = 18.825062 Si / 1000 Ang^3
#
#
#
# Elastic Constant Matrix: (Units=GPa)
#
#
# Indices 1 2 3 4 5 6 
#
# 1 42.1130 20.8609 27.7269 0.0000 0.0000 0.0000
# 2 20.8609 98.8757 43.3912 0.0000 0.0000 0.0000
# 3 27.7269 43.3912 92.1492 0.0000 0.0000 0.0000
# 4 0.0000 0.0000 0.0000 33.2742 0.0000 0.0000
# 5 0.0000 0.0000 0.0000 0.0000 23.4991 0.0000
# 6 0.0000 0.0000 0.0000 0.0000 0.0000 28.4767
#
#
#
# Elastic Compliance Matrix: (Units=1/GPa)
#
#
# Indices 1 2 3 4 5 6 
#
# 1 0.030309 -0.003016 -0.007700 0.000000 0.000000 0.000000
# 2 -0.003016 0.013048 -0.005237 0.000000 0.000000 0.000000
# 3 -0.007700 -0.005237 0.015635 0.000000 0.000000 0.000000
# 4 0.000000 0.000000 0.000000 0.030053 0.000000 0.000000
# 5 0.000000 0.000000 0.000000 0.000000 0.042555 0.000000
# 6 0.000000 0.000000 0.000000 0.000000 0.000000 0.035116
#
#
# Mechanical properties :
#
#
# Convention : Reuss Voigt Hill
#
# Bulk Modulus (GPa) = 36.91739 46.34399 41.63069
# Shear Modulus (GPa) = 24.07908 26.46060 25.26984
#
# Velocity S-wave (km/s) = 3.58033 3.75321 3.66779
# Velocity P-wave (km/s) = 6.06176 6.59195 6.33241
#
# Compressibility (1/GPa) = 0.02708750
#
# Stress axis : x y z
#
# Youngs Moduli (GPa) = 32.99365 76.63984 63.96080
#
# Poissons Ratio (x) = 0.23112 0.49248
# Poissons Ratio (y) = 0.09950 0.33494
# Poissons Ratio (z) = 0.25404 0.40134
#
# Static dielectric constant tensor:
#      x y z
#    x 3.628530 0.000000 0.000000 
#    y 0.000000 6.571050 0.000000 
#    z 0.000000 0.000000 3.829670 
# 
# 
# High freq. dielectric constant tensor:
#      x y z
#    x 1.724690 0.000000 0.000000 
#    y 0.000000 1.754160 0.000000 
#    z 0.000000 0.000000 1.702520 
# 
# From -- ./inp_files/9768.got.cif
#   From: 2010.03.12/outbox.cif.g09.slc.cpg/sg59_5_cif.got.tgz:9768.got - 2010.04.16 16:29:54.
