data_PCOD8241424
_publ_section_title
;
Structure prediction by ZEFSAII (Michael W. Deem and Ramdas Pophale) SiO2 
 PCOD8241424
Probable space group: P M M N
;
_chemical_formula_sum "Si O2"
_cell_formula_units_Z 64
_cell_length_a 9.015132
_cell_length_b 19.825740
_cell_length_c 19.766815
_cell_angle_alpha 90.000000
_cell_angle_beta 90.000000
_cell_angle_gamma 90.000000
_cell_volume 3532.955719
_symmetry_space_group_name_H-M "P M M N"
_symmetry_group_IT_number 59
_space_group.IT_coordinate_system_code '2'
_symmetry_cell_setting 'orthorhombic'
loop_
_space_group_symop_operation_xyz
x,y,z
1/2-x,1/2-y,z
1/2+x,-y,-z
-x,1/2+y,-z
-x,-y,-z
1/2+x,1/2+y,-z
1/2-x,y,z
x,1/2-y,z
loop_
_atom_site_type_symbol
_atom_site_label
_atom_site_fract_x
_atom_site_fract_y
_atom_site_fract_z
Si Si1 0.418155 0.970490 0.333604
Si Si2 0.420835 0.931655 0.479078
Si Si3 0.419049 0.327626 0.428056
Si Si4 0.422924 0.827136 0.956010
Si Si5 0.077115 0.895519 0.686702
Si Si6 0.923025 0.064813 0.815520
Si Si7 0.076188 0.573225 0.837169
Si Si8 0.423467 0.171982 0.906029
O O1 0.250000 0.998990 0.329404
O O2 0.436071 0.921291 0.397900
O O3 0.456187 0.930840 0.264710
O O4 0.529650 0.032592 0.344056
O O5 0.250000 0.935649 0.501388
O O6 0.494599 0.868041 0.514477
O O7 0.500000 0.000000 0.500000
O O8 0.250000 0.352818 0.426013
O O9 0.430330 0.250000 0.448014
O O10 0.490137 0.337760 0.353804
O O11 0.250000 0.835819 0.971907
O O12 0.460602 0.750000 0.936442
O O13 0.473582 0.874457 0.894516
O O14 0.512669 0.850671 0.021661
O O15 0.250000 0.884744 0.674763
O O16 0.035035 0.892105 0.765780
O O17 0.750000 0.067283 0.832340
O O18 0.001251 0.129478 0.847057
O O19 0.987941 0.996141 0.847245
O O20 0.250000 0.556358 0.840479
O O21 0.250000 0.157528 0.906116
O O22 0.460698 0.250000 0.892159
#
# Coordination Sequence:
#
# PCOD8241424 Si02
#       8
#     8   8   8   8   8   8   8   8
#     4   9  19  35  55  80 109 137 173 219 266 320
#     4  11  21  35  59  85 108 140 181 225 273 327
#     4  11  24  39  53  75 111 150 187 229 273 320
#     4   9  18  34  55  77 104 141 182 222 266 322
#     4  10  19  32  54  80 106 140 179 220 268 322
#     4  10  20  35  56  81 108 141 178 219 267 321
#     4   9  19  34  53  81 113 142 176 221 271 318
#     4  10  21  37  56  78 105 138 178 225 274 324
#
# _framework density 18.115144000000001
#
# number of rings (size 3 to 8) (size 9 to 14) (size 15 to 20)
#    0.000    2.125    1.250    1.875    0.000    4.750 
#    0.000    1.875    0.000    5.250    0.000    0.000 
#    0.000    0.000    0.000    0.000    0.000    0.000 
#
# Total GULP energy -793750.640399 kJ/mol
# GULP energy per Si atom -12402.353756 kJ/mol
# Density = 1.807391 g / cm^3
# Si number density = 18.115144 Si / 1000 Ang^3
#
#
#
# Elastic Constant Matrix: (Units=GPa)
#
#
# Indices 1 2 3 4 5 6 
#
# 1 101.1872 52.9377 52.7912 0.0000 0.0000 0.0000
# 2 52.9377 87.9033 64.5980 0.0000 0.0000 0.0000
# 3 52.7912 64.5980 112.9867 0.0000 0.0000 0.0000
# 4 0.0000 0.0000 0.0000 33.4930 0.0000 0.0000
# 5 0.0000 0.0000 0.0000 0.0000 28.5563 0.0000
# 6 0.0000 0.0000 0.0000 0.0000 0.0000 30.1538
#
#
#
# Elastic Compliance Matrix: (Units=1/GPa)
#
#
# Indices 1 2 3 4 5 6 
#
# 1 0.015069 -0.006727 -0.003194 0.000000 0.000000 0.000000
# 2 -0.006727 0.022622 -0.009791 0.000000 0.000000 0.000000
# 3 -0.003194 -0.009791 0.015941 0.000000 0.000000 0.000000
# 4 0.000000 0.000000 0.000000 0.029857 0.000000 0.000000
# 5 0.000000 0.000000 0.000000 0.000000 0.035019 0.000000
# 6 0.000000 0.000000 0.000000 0.000000 0.000000 0.033163
#
#
# Mechanical properties :
#
#
# Convention : Reuss Voigt Hill
#
# Bulk Modulus (GPa) = 70.38732 71.41454 70.90093
# Shear Modulus (GPa) = 25.53214 27.22397 26.37805
#
# Velocity S-wave (km/s) = 3.75832 3.88084 3.82007
# Velocity P-wave (km/s) = 7.60086 7.71942 7.66037
#
# Compressibility (1/GPa) = 0.01420710
#
# Stress axis : x y z
#
# Youngs Moduli (GPa) = 66.36247 44.20381 62.73196
#
# Poissons Ratio (x) = 0.29737 0.20039
# Poissons Ratio (y) = 0.44644 0.61419
# Poissons Ratio (z) = 0.21199 0.43279
#
# Static dielectric constant tensor:
#      x y z
#    x 3.469970 0.000000 0.000000 
#    y 0.000000 3.167720 0.000000 
#    z 0.000000 0.000000 3.564530 
# 
# 
# High freq. dielectric constant tensor:
#      x y z
#    x 1.712960 0.000000 0.000000 
#    y 0.000000 1.682870 0.000000 
#    z 0.000000 0.000000 1.710380 
# 
# From -- ./inp_files/29575.got.cif
#   From: 2010.03.12/outbox.cif.g09.slc.cpg/sg59_15_cif.got.tgz:29575.got - 2010.04.16 16:29:54.
