data_PCOD8241154
_publ_section_title
;
Structure prediction by ZEFSAII (Michael W. Deem and Ramdas Pophale) SiO2 
 PCOD8241154
Probable space group: P M M N
;
_chemical_formula_sum "Si O2"
_cell_formula_units_Z 48
_cell_length_a 9.931995
_cell_length_b 13.498496
_cell_length_c 20.442474
_cell_angle_alpha 90.000000
_cell_angle_beta 90.000000
_cell_angle_gamma 90.000000
_cell_volume 2740.661055
_symmetry_space_group_name_H-M "P M M N"
_symmetry_group_IT_number 59
_space_group.IT_coordinate_system_code '2'
_symmetry_cell_setting 'orthorhombic'
loop_
_space_group_symop_operation_xyz
x,y,z
1/2-x,1/2-y,z
1/2+x,-y,-z
-x,1/2+y,-z
-x,-y,-z
1/2+x,1/2+y,-z
1/2-x,y,z
x,1/2-y,z
loop_
_atom_site_type_symbol
_atom_site_label
_atom_site_fract_x
_atom_site_fract_y
_atom_site_fract_z
Si Si1 0.099640 0.079631 0.473575
Si Si2 0.902798 0.135786 0.020704
Si Si3 0.094248 0.494462 0.098116
Si Si4 0.589638 0.250000 0.695366
Si Si5 0.894967 0.750000 0.422900
Si Si6 0.090826 0.957714 0.243730
Si Si7 0.090343 0.140080 0.330164
O O1 0.250000 0.035821 0.462963
O O2 0.098923 0.158009 0.530200
O O3 0.045983 0.123134 0.405020
O O4 0.000000 0.000000 0.500000
O O5 0.750000 0.115410 0.043943
O O6 0.931054 0.250000 0.008784
O O7 0.003799 0.098341 0.076592
O O8 0.931248 0.084385 0.951396
O O9 0.250000 0.460860 0.099081
O O10 0.044806 0.529736 0.169007
O O11 0.750000 0.250000 0.685897
O O12 0.521102 0.250000 0.624974
O O13 0.539677 0.150188 0.732272
O O14 0.750000 0.750000 0.385087
O O15 0.250000 0.959406 0.249806
O O16 0.030468 0.050238 0.285730
O O17 0.250000 0.140309 0.323992
O O18 0.036865 0.250000 0.308224
#
# Coordination Sequence:
#
# PCOD8241154 Si02
#       7
#     8   8   8   4   4   8   8
#     4  10  19  32  51  73  97 129 165 207 254 302
#     4   9  18  32  51  73 102 138 170 204 253 308
#     4   9  18  32  50  76 103 131 170 214 253 297
#     4  10  20  34  52  78 106 131 170 218 258 305
#     4  10  20  34  50  72 102 135 170 206 254 309
#     4   9  18  30  49  76 103 131 165 211 260 298
#     4   9  16  29  47  69  98 130 164 200 247 304
#
# _framework density 17.514023000000002
#
# number of rings (size 3 to 8) (size 9 to 14) (size 15 to 20)
#    0.000    2.667    0.833    1.000    1.167    3.000 
#    0.000    2.500    0.000    1.000    0.000    0.000 
#    0.000    0.000    0.000    0.000    0.000    0.000 
#
# Total GULP energy -594918.161715 kJ/mol
# GULP energy per Si atom -12394.128369 kJ/mol
# Density = 1.747416 g / cm^3
# Si number density = 17.514023 Si / 1000 Ang^3
#
#
#
# Elastic Constant Matrix: (Units=GPa)
#
#
# Indices 1 2 3 4 5 6 
#
# 1 49.4176 40.6505 36.9744 0.0000 0.0000 0.0000
# 2 40.6505 140.9448 54.9855 0.0000 0.0000 0.0000
# 3 36.9744 54.9855 119.7573 0.0000 0.0000 0.0000
# 4 0.0000 0.0000 0.0000 13.0468 0.0000 0.0000
# 5 0.0000 0.0000 0.0000 0.0000 23.7470 0.0000
# 6 0.0000 0.0000 0.0000 0.0000 0.0000 5.3886
#
#
#
# Elastic Compliance Matrix: (Units=1/GPa)
#
#
# Indices 1 2 3 4 5 6 
#
# 1 0.030159 -0.006171 -0.006478 0.000000 0.000000 0.000000
# 2 -0.006171 0.009906 -0.002643 0.000000 0.000000 0.000000
# 3 -0.006478 -0.002643 0.011564 0.000000 0.000000 0.000000
# 4 0.000000 0.000000 0.000000 0.076647 0.000000 0.000000
# 5 0.000000 0.000000 0.000000 0.000000 0.042111 0.000000
# 6 0.000000 0.000000 0.000000 0.000000 0.000000 0.185575
#
#
# Mechanical properties :
#
#
# Convention : Reuss Voigt Hill
#
# Bulk Modulus (GPa) = 47.51832 63.92672 55.72252
# Shear Modulus (GPa) = 12.70453 20.27044 16.48749
#
# Velocity S-wave (km/s) = 2.69623 3.40572 3.07153
# Velocity P-wave (km/s) = 6.07317 7.21421 6.66814
#
# Compressibility (1/GPa) = 0.02104452
#
# Stress axis : x y z
#
# Youngs Moduli (GPa) = 33.15782 100.95050 86.47727
#
# Poissons Ratio (x) = 0.62297 0.56020
# Poissons Ratio (y) = 0.20462 0.22855
# Poissons Ratio (z) = 0.21480 0.26680
#
# Static dielectric constant tensor:
#      x y z
#    x 3.143780 0.000000 0.000000 
#    y 0.000000 3.451220 0.000000 
#    z 0.000000 0.000000 3.389280 
# 
# 
# High freq. dielectric constant tensor:
#      x y z
#    x 1.638500 0.000000 0.000000 
#    y 0.000000 1.688890 0.000000 
#    z 0.000000 0.000000 1.678600 
# 
# From -- ./inp_files/30006.got.cif
#   From: 2010.03.12/outbox.cif.g09.slc.cpg/sg59_16_cif.got.tgz:30006.got - 2010.04.16 16:29:54.
