data_PCOD8241232
_publ_section_title
;
Structure prediction by ZEFSAII (Michael W. Deem and Ramdas Pophale) SiO2 
 PCOD8241232
Probable space group: P M M N
;
_chemical_formula_sum "Si O2"
_cell_formula_units_Z 64
_cell_length_a 13.420599
_cell_length_b 28.275159
_cell_length_c 9.897538
_cell_angle_alpha 90.000000
_cell_angle_beta 90.000000
_cell_angle_gamma 90.000000
_cell_volume 3755.814495
_symmetry_space_group_name_H-M "P M M N"
_symmetry_group_IT_number 59
_space_group.IT_coordinate_system_code '2'
_symmetry_cell_setting 'orthorhombic'
loop_
_space_group_symop_operation_xyz
x,y,z
1/2-x,1/2-y,z
1/2+x,-y,-z
-x,1/2+y,-z
-x,-y,-z
1/2+x,1/2+y,-z
1/2-x,y,z
x,1/2-y,z
loop_
_atom_site_type_symbol
_atom_site_label
_atom_site_fract_x
_atom_site_fract_y
_atom_site_fract_z
Si Si1 0.363357 0.626758 0.355859
Si Si2 0.133330 0.460389 0.400812
Si Si3 0.863942 0.887728 0.827123
Si Si4 0.007952 0.044341 0.660167
Si Si5 0.864664 0.134103 0.953684
Si Si6 0.017371 0.053982 0.964428
Si Si7 0.637093 0.303937 0.413978
Si Si8 0.985575 0.305668 0.151442
O O1 0.250000 0.610789 0.381580
O O2 0.432093 0.583191 0.394793
O O3 0.377148 0.645050 0.204057
O O4 0.397138 0.668673 0.453277
O O5 0.250000 0.476067 0.392441
O O6 0.118382 0.410921 0.320940
O O7 0.101462 0.457253 0.558040
O O8 0.057538 0.496721 0.329234
O O9 0.750000 0.876588 0.851708
O O10 0.896437 0.924582 0.942844
O O11 0.915113 0.836808 0.843916
O O12 0.050443 0.057304 0.807646
O O13 0.750000 0.129941 0.997736
O O14 0.915623 0.178310 0.028095
O O15 0.916433 0.084096 0.990285
O O16 0.000000 0.000000 0.000000
O O17 0.750000 0.315855 0.373038
O O18 0.623051 0.250000 0.453148
O O19 0.570473 0.318363 0.288510
O O20 0.010523 0.250000 0.136947
#
# Coordination Sequence:
#
# PCOD8241232 Si02
#       8
#     8   8   8   8   8   8   8   8
#     4   9  17  30  48  71  98 130 165 199 242 295
#     4  10  20  33  50  73 100 132 167 204 250 295
#     4  10  21  36  54  74  99 132 171 211 251 294
#     4  10  19  32  52  71 102 132 164 210 244 295
#     4   9  19  32  49  74 101 131 167 206 252 303
#     4  10  19  34  52  74 101 135 173 209 251 298
#     4   9  17  29  47  71  99 130 162 200 247 298
#     4  10  20  34  52  73 100 130 165 207 256 303
#
# _framework density 17.040244999999999
#
# number of rings (size 3 to 8) (size 9 to 14) (size 15 to 20)
#    0.000    2.375    1.250    1.500    0.000    3.000 
#    0.000    1.250    0.000    0.000    0.000    0.000 
#    0.000    6.000    0.000    0.000    0.000    0.000 
#
# Total GULP energy -793485.823056 kJ/mol
# GULP energy per Si atom -12398.215985 kJ/mol
# Density = 1.700146 g / cm^3
# Si number density = 17.040245 Si / 1000 Ang^3
#
#
#
# Elastic Constant Matrix: (Units=GPa)
#
#
# Indices 1 2 3 4 5 6 
#
# 1 87.1025 48.2689 37.9990 0.0000 0.0000 0.0000
# 2 48.2689 102.7945 43.6227 0.0000 0.0000 0.0000
# 3 37.9990 43.6227 76.7179 0.0000 0.0000 0.0000
# 4 0.0000 0.0000 0.0000 28.1724 0.0000 0.0000
# 5 0.0000 0.0000 0.0000 0.0000 24.2257 0.0000
# 6 0.0000 0.0000 0.0000 0.0000 0.0000 20.8473
#
#
#
# Elastic Compliance Matrix: (Units=1/GPa)
#
#
# Indices 1 2 3 4 5 6 
#
# 1 0.016901 -0.005778 -0.005086 0.000000 0.000000 0.000000
# 2 -0.005778 0.014797 -0.005552 0.000000 0.000000 0.000000
# 3 -0.005086 -0.005552 0.018711 0.000000 0.000000 0.000000
# 4 0.000000 0.000000 0.000000 0.035496 0.000000 0.000000
# 5 0.000000 0.000000 0.000000 0.000000 0.041278 0.000000
# 6 0.000000 0.000000 0.000000 0.000000 0.000000 0.047968
#
#
# Mechanical properties :
#
#
# Convention : Reuss Voigt Hill
#
# Bulk Modulus (GPa) = 56.89064 58.48846 57.68955
# Shear Modulus (GPa) = 23.38160 23.76404 23.57282
#
# Velocity S-wave (km/s) = 3.70826 3.73846 3.72339
# Velocity P-wave (km/s) = 7.19677 7.28238 7.23970
#
# Compressibility (1/GPa) = 0.01757758
#
# Stress axis : x y z
#
# Youngs Moduli (GPa) = 59.16637 67.57916 53.44480
#
# Poissons Ratio (x) = 0.39048 0.27182
# Poissons Ratio (y) = 0.34187 0.29673
# Poissons Ratio (z) = 0.30092 0.37521
#
# Static dielectric constant tensor:
#      x y z
#    x 3.116990 0.000000 0.000000 
#    y 0.000000 3.168510 0.000000 
#    z 0.000000 0.000000 3.422590 
# 
# 
# High freq. dielectric constant tensor:
#      x y z
#    x 1.647400 0.000000 0.000000 
#    y 0.000000 1.655210 0.000000 
#    z 0.000000 0.000000 1.666390 
# 
# From -- ./inp_files/9741.got.cif
#   From: 2010.03.12/outbox.cif.g09.slc.cpg/sg59_5_cif.got.tgz:9741.got - 2010.04.16 16:29:54.
