data_PCOD8241374
_publ_section_title
;
Structure prediction by ZEFSAII (Michael W. Deem and Ramdas Pophale) SiO2 
 PCOD8241374
Probable space group: P M M N
;
_chemical_formula_sum "Si O2"
_cell_formula_units_Z 56
_cell_length_a 19.387560
_cell_length_b 9.104689
_cell_length_c 17.292765
_cell_angle_alpha 90.000000
_cell_angle_beta 90.000000
_cell_angle_gamma 90.000000
_cell_volume 3052.479178
_symmetry_space_group_name_H-M "P M M N"
_symmetry_group_IT_number 59
_space_group.IT_coordinate_system_code '2'
_symmetry_cell_setting 'orthorhombic'
loop_
_space_group_symop_operation_xyz
x,y,z
1/2-x,1/2-y,z
1/2+x,-y,-z
-x,1/2+y,-z
-x,-y,-z
1/2+x,1/2+y,-z
1/2-x,y,z
x,1/2-y,z
loop_
_atom_site_type_symbol
_atom_site_label
_atom_site_fract_x
_atom_site_fract_y
_atom_site_fract_z
Si Si1 0.828359 0.581955 0.895112
Si Si2 0.051301 0.079797 0.398254
Si Si3 0.171319 0.081711 0.670424
Si Si4 0.829939 0.078744 0.050979
Si Si5 0.099446 0.920645 0.540524
Si Si6 0.584635 0.924518 0.182896
Si Si7 0.053022 0.421047 0.222716
O O1 0.750000 0.553228 0.867989
O O2 0.838175 0.750000 0.922547
O O3 0.876834 0.545440 0.822741
O O4 0.848653 0.476105 0.965358
O O5 0.067541 0.250000 0.410833
O O6 0.065795 0.029176 0.310870
O O7 0.972385 0.042386 0.417660
O O8 0.101470 0.989903 0.454957
O O9 0.250000 0.062329 0.696975
O O10 0.153484 0.250000 0.651784
O O11 0.123744 0.022437 0.739796
O O12 0.159310 0.989173 0.592894
O O13 0.750000 0.046818 0.069621
O O14 0.847480 0.250000 0.056875
O O15 0.876557 0.989749 0.109773
O O16 0.113490 0.750000 0.531965
O O17 0.584162 0.750000 0.175644
O O18 0.507252 0.984711 0.183979
O O19 0.031935 0.250000 0.219623
#
# Coordination Sequence:
#
# PCOD8241374 Si02
#       7
#     8   8   8   8   8   8   8
#     4   9  19  37  60  82 105 138 180 226 276 328
#     4   9  18  33  53  77 108 141 176 220 268 319
#     4  10  21  36  53  76 109 146 182 224 274 326
#     4  10  21  37  57  80 109 146 184 222 269 327
#     4  10  19  32  53  78 105 140 181 222 265 317
#     4  11  22  35  55  82 112 144 184 228 273 326
#     4  10  20  36  57  82 112 143 181 229 276 325
#
# _framework density 18.345742999999999
#
# number of rings (size 3 to 8) (size 9 to 14) (size 15 to 20)
#    0.000    2.143    1.429    1.714    0.000    4.571 
#    0.000    0.714    0.000    2.571    0.000    0.000 
#    0.000    0.000    0.000    0.000    0.000    0.000 
#
# Total GULP energy -694633.424703 kJ/mol
# GULP energy per Si atom -12404.168298 kJ/mol
# Density = 1.830399 g / cm^3
# Si number density = 18.345743 Si / 1000 Ang^3
#
#
#
# Elastic Constant Matrix: (Units=GPa)
#
#
# Indices 1 2 3 4 5 6 
#
# 1 84.9583 43.9281 63.7156 0.0000 0.0000 0.0000
# 2 43.9281 74.7372 55.8142 0.0000 0.0000 0.0000
# 3 63.7156 55.8142 136.1479 0.0000 0.0000 0.0000
# 4 0.0000 0.0000 0.0000 28.6213 0.0000 0.0000
# 5 0.0000 0.0000 0.0000 0.0000 30.0807 0.0000
# 6 0.0000 0.0000 0.0000 0.0000 0.0000 25.6408
#
#
#
# Elastic Compliance Matrix: (Units=1/GPa)
#
#
# Indices 1 2 3 4 5 6 
#
# 1 0.020398 -0.007005 -0.006674 0.000000 0.000000 0.000000
# 2 -0.007005 0.021690 -0.005614 0.000000 0.000000 0.000000
# 3 -0.006674 -0.005614 0.012770 0.000000 0.000000 0.000000
# 4 0.000000 0.000000 0.000000 0.034939 0.000000 0.000000
# 5 0.000000 0.000000 0.000000 0.000000 0.033244 0.000000
# 6 0.000000 0.000000 0.000000 0.000000 0.000000 0.039000
#
#
# Mechanical properties :
#
#
# Convention : Reuss Voigt Hill
#
# Bulk Modulus (GPa) = 61.45563 69.19545 65.32554
# Shear Modulus (GPa) = 24.26600 25.69427 24.98014
#
# Velocity S-wave (km/s) = 3.64085 3.74646 3.69403
# Velocity P-wave (km/s) = 7.15861 7.51758 7.34029
#
# Compressibility (1/GPa) = 0.01627190
#
# Stress axis : x y z
#
# Youngs Moduli (GPa) = 49.02489 46.10500 78.31013
#
# Poissons Ratio (x) = 0.32295 0.52267
# Poissons Ratio (y) = 0.34341 0.43960
# Poissons Ratio (z) = 0.32721 0.25881
#
# Static dielectric constant tensor:
#      x y z
#    x 3.268590 0.000000 0.000000 
#    y 0.000000 3.378780 0.000000 
#    z 0.000000 0.000000 3.428960 
# 
# 
# High freq. dielectric constant tensor:
#      x y z
#    x 1.697510 0.000000 0.000000 
#    y 0.000000 1.713610 0.000000 
#    z 0.000000 0.000000 1.715770 
# 
# From -- ./inp_files/20935.got.cif
#   From: 2010.03.12/outbox.cif.g09.slc.cpg/sg59_11_cif.got.tgz:20935.got - 2010.04.16 16:29:54.
