data_PCOD8241313
_publ_section_title
;
Structure prediction by ZEFSAII (Michael W. Deem and Ramdas Pophale) SiO2 
 PCOD8241313
Probable space group: P M M N
;
_chemical_formula_sum "Si O2"
_cell_formula_units_Z 64
_cell_length_a 8.663658
_cell_length_b 33.715187
_cell_length_c 11.409125
_cell_angle_alpha 90.000000
_cell_angle_beta 90.000000
_cell_angle_gamma 90.000000
_cell_volume 3332.569469
_symmetry_space_group_name_H-M "P M M N"
_symmetry_group_IT_number 59
_space_group.IT_coordinate_system_code '2'
_symmetry_cell_setting 'orthorhombic'
loop_
_space_group_symop_operation_xyz
x,y,z
1/2-x,1/2-y,z
1/2+x,-y,-z
-x,1/2+y,-z
-x,-y,-z
1/2+x,1/2+y,-z
1/2-x,y,z
x,1/2-y,z
loop_
_atom_site_type_symbol
_atom_site_label
_atom_site_fract_x
_atom_site_fract_y
_atom_site_fract_z
Si Si1 0.067225 0.294543 0.749909
Si Si2 0.075716 0.203856 0.485477
Si Si3 0.431996 0.070488 0.470665
Si Si4 0.568360 0.895259 0.883960
Si Si5 0.429033 0.640332 0.658591
Si Si6 0.067103 0.941945 0.280870
Si Si7 0.068991 0.472026 0.239759
Si Si8 0.931603 0.130981 0.874475
O O1 0.250000 0.296589 0.758469
O O2 0.011437 0.250000 0.784605
O O3 0.014729 0.304435 0.617389
O O4 0.996447 0.326405 0.838151
O O5 0.250000 0.187362 0.472234
O O6 0.072507 0.250000 0.458393
O O7 0.963552 0.184031 0.390439
O O8 0.250000 0.078293 0.468242
O O9 0.521198 0.111326 0.446607
O O10 0.482415 0.054621 0.595972
O O11 0.485404 0.039102 0.371405
O O12 0.750000 0.894284 0.909903
O O13 0.531364 0.867419 0.773451
O O14 0.504958 0.939985 0.854697
O O15 0.478316 0.878262 0.993836
O O16 0.250000 0.635659 0.690167
O O17 0.250000 0.939919 0.301076
O O18 0.004251 0.904285 0.208686
O O19 0.021324 0.982607 0.211110
O O20 0.250000 0.466739 0.235621
O O21 0.750000 0.132546 0.864749
#
# Coordination Sequence:
#
# PCOD8241313 Si02
#       8
#     8   8   8   8   8   8   8   8
#     4   9  19  37  60  83 108 141 178 215 257 309
#     4   9  18  34  57  85 115 143 173 212 260 319
#     4  10  19  32  52  78 107 141 183 223 263 317
#     4  10  21  39  59  75  99 141 188 228 264 310
#     4  11  21  34  54  79 108 140 175 219 271 321
#     4  10  20  34  52  78 112 143 175 220 273 323
#     4   8  17  34  54  76 104 140 180 223 269 316
#     4  11  23  36  53  80 111 142 177 222 272 319
#
# _framework density 19.2044
#
# number of rings (size 3 to 8) (size 9 to 14) (size 15 to 20)
#    0.000    2.250    0.000    4.875    0.000    4.500 
#    0.000    5.000    0.000    3.750    0.000    0.000 
#    0.000    0.000    0.000    0.000    0.000    0.000 
#
# Total GULP energy -793470.395140 kJ/mol
# GULP energy per Si atom -12397.974924 kJ/mol
# Density = 1.916069 g / cm^3
# Si number density = 19.204400 Si / 1000 Ang^3
#
#
#
# Elastic Constant Matrix: (Units=GPa)
#
#
# Indices 1 2 3 4 5 6 
#
# 1 32.5198 21.8292 6.4654 0.0000 0.0000 0.0000
# 2 21.8292 127.7596 60.1294 0.0000 0.0000 0.0000
# 3 6.4654 60.1294 75.5392 0.0000 0.0000 0.0000
# 4 0.0000 0.0000 0.0000 25.7749 0.0000 0.0000
# 5 0.0000 0.0000 0.0000 0.0000 28.7627 0.0000
# 6 0.0000 0.0000 0.0000 0.0000 0.0000 21.8947
#
#
#
# Elastic Compliance Matrix: (Units=1/GPa)
#
#
# Indices 1 2 3 4 5 6 
#
# 1 0.035109 -0.007331 0.002830 0.000000 0.000000 0.000000
# 2 -0.007331 0.014047 -0.010554 0.000000 0.000000 0.000000
# 3 0.002830 -0.010554 0.021397 0.000000 0.000000 0.000000
# 4 0.000000 0.000000 0.000000 0.038797 0.000000 0.000000
# 5 0.000000 0.000000 0.000000 0.000000 0.034767 0.000000
# 6 0.000000 0.000000 0.000000 0.000000 0.000000 0.045673
#
#
# Mechanical properties :
#
#
# Convention : Reuss Voigt Hill
#
# Bulk Modulus (GPa) = 24.72571 45.85185 35.28878
# Shear Modulus (GPa) = 21.42427 25.11278 23.26852
#
# Velocity S-wave (km/s) = 3.34367 3.62008 3.48462
# Velocity P-wave (km/s) = 5.27350 6.43435 5.88263
#
# Compressibility (1/GPa) = 0.04044373
#
# Stress axis : x y z
#
# Youngs Moduli (GPa) = 28.48301 71.19000 46.73581
#
# Poissons Ratio (x) = 0.52188 -0.13228
# Poissons Ratio (y) = 0.20880 0.49325
# Poissons Ratio (z) = -0.08062 0.75133
#
# Static dielectric constant tensor:
#      x y z
#    x 3.352340 0.000000 0.000000 
#    y 0.000000 3.846780 0.000000 
#    z 0.000000 0.000000 3.373490 
# 
# 
# High freq. dielectric constant tensor:
#      x y z
#    x 1.734200 0.000000 0.000000 
#    y 0.000000 1.754960 0.000000 
#    z 0.000000 0.000000 1.734580 
# 
# From -- ./inp_files/14915.got.cif
#   From: 2010.03.12/outbox.cif.g09.slc.cpg/sg59_8_cif.got.tgz:14915.got - 2010.04.16 16:29:54.
