data_PCOD8241981
_publ_section_title
;
Structure prediction by ZEFSAII (Michael W. Deem and Ramdas Pophale) SiO2 
 PCOD8241981
Probable space group: P M M N
;
_chemical_formula_sum "Si O2"
_cell_formula_units_Z 56
_cell_length_a 14.027613
_cell_length_b 13.434422
_cell_length_c 15.015178
_cell_angle_alpha 90.000000
_cell_angle_beta 90.000000
_cell_angle_gamma 90.000000
_cell_volume 2829.653428
_symmetry_space_group_name_H-M "P M M N"
_symmetry_group_IT_number 59
_space_group.IT_coordinate_system_code '2'
_symmetry_cell_setting 'orthorhombic'
loop_
_space_group_symop_operation_xyz
x,y,z
1/2-x,1/2-y,z
1/2+x,-y,-z
-x,1/2+y,-z
-x,-y,-z
1/2+x,1/2+y,-z
1/2-x,y,z
x,1/2-y,z
loop_
_atom_site_type_symbol
_atom_site_label
_atom_site_fract_x
_atom_site_fract_y
_atom_site_fract_z
Si Si1 0.999480 0.137609 0.629745
Si Si2 0.360154 0.363411 0.956087
Si Si3 0.854955 0.357364 0.206302
Si Si4 0.553208 0.862640 0.863022
Si Si5 0.357151 0.429434 0.764659
Si Si6 0.855506 0.633343 0.515445
Si Si7 0.360757 0.028008 0.305871
O O1 0.964159 0.250000 0.610088
O O2 0.072701 0.141601 0.711891
O O3 0.059479 0.090464 0.546716
O O4 0.908135 0.072479 0.655728
O O5 0.250000 0.370363 0.979932
O O6 0.391108 0.250000 0.936505
O O7 0.414810 0.406613 0.042131
O O8 0.385491 0.428334 0.869164
O O9 0.750000 0.364871 0.159887
O O10 0.861789 0.250000 0.258672
O O11 0.866444 0.454930 0.269376
O O12 0.938401 0.359750 0.133506
O O13 0.594294 0.750000 0.849661
O O14 0.589279 0.933807 0.783769
O O15 0.250000 0.388249 0.751785
O O16 0.750000 0.589936 0.488847
O O17 0.854238 0.750000 0.500853
O O18 0.875648 0.611288 0.618709
O O19 0.250000 0.006229 0.286450
#
# Coordination Sequence:
#
# PCOD8241981 Si02
#       7
#     8   8   8   8   8   8   8
#     4  11  22  37  56  80 110 145 183 221 267 319
#     4   9  18  31  50  80 110 137 177 228 274 316
#     4   9  18  33  52  77 109 141 176 220 271 326
#     4  10  19  34  57  81 107 141 181 227 276 321
#     4  10  19  34  57  81 107 141 181 227 276 321
#     4   9  19  36  60  88 111 131 168 224 274 318
#     4  11  22  37  56  80 110 145 183 221 267 319
#
# _framework density 19.790409
#
# number of rings (size 3 to 8) (size 9 to 14) (size 15 to 20)
#    0.000    2.143    1.429    2.143    0.000    3.714 
#    0.000    0.000    0.000    0.000    0.000    0.000 
#    0.000    0.000    0.000    0.000    0.000    0.000 
#
# Total GULP energy -693863.519115 kJ/mol
# GULP energy per Si atom -12390.419984 kJ/mol
# Density = 1.974536 g / cm^3
# Si number density = 19.790409 Si / 1000 Ang^3
#
#
#
# Elastic Constant Matrix: (Units=GPa)
#
#
# Indices 1 2 3 4 5 6 
#
# 1 96.4721 18.3716 36.5100 0.0000 0.0000 0.0000
# 2 18.3716 64.0695 11.0869 0.0000 0.0000 0.0000
# 3 36.5100 11.0869 78.0080 0.0000 0.0000 0.0000
# 4 0.0000 0.0000 0.0000 18.1368 0.0000 0.0000
# 5 0.0000 0.0000 0.0000 0.0000 22.4227 0.0000
# 6 0.0000 0.0000 0.0000 0.0000 0.0000 21.8229
#
#
#
# Elastic Compliance Matrix: (Units=1/GPa)
#
#
# Indices 1 2 3 4 5 6 
#
# 1 0.013054 -0.002754 -0.005718 0.000000 0.000000 0.000000
# 2 -0.002754 0.016582 -0.001068 0.000000 0.000000 0.000000
# 3 -0.005718 -0.001068 0.015647 0.000000 0.000000 0.000000
# 4 0.000000 0.000000 0.000000 0.055136 0.000000 0.000000
# 5 0.000000 0.000000 0.000000 0.000000 0.044598 0.000000
# 6 0.000000 0.000000 0.000000 0.000000 0.000000 0.045823
#
#
# Mechanical properties :
#
#
# Convention : Reuss Voigt Hill
#
# Bulk Modulus (GPa) = 38.16221 41.16518 39.66370
# Shear Modulus (GPa) = 22.86694 23.98190 23.42442
#
# Velocity S-wave (km/s) = 3.40289 3.48486 3.44412
# Velocity P-wave (km/s) = 5.89615 6.08589 5.99177
#
# Compressibility (1/GPa) = 0.02620393
#
# Stress axis : x y z
#
# Youngs Moduli (GPa) = 76.60360 60.30466 63.90859
#
# Poissons Ratio (x) = 0.16606 0.36545
# Poissons Ratio (y) = 0.21094 0.06825
# Poissons Ratio (z) = 0.43805 0.06440
#
# Static dielectric constant tensor:
#      x y z
#    x 3.758790 0.000000 0.000000 
#    y 0.000000 3.650460 0.000000 
#    z 0.000000 0.000000 3.404990 
# 
# 
# High freq. dielectric constant tensor:
#      x y z
#    x 1.776410 0.000000 0.000000 
#    y 0.000000 1.767590 0.000000 
#    z 0.000000 0.000000 1.744390 
# 
# From -- ./inp_files/23313.got.cif
#   From: 2010.03.12/outbox.cif.g09.slc.cpg/sg59_12_cif.got.tgz:23313.got - 2010.04.16 16:29:54.
