data_PCOD8241035
_publ_section_title
;
Structure prediction by ZEFSAII (Michael W. Deem and Ramdas Pophale) SiO2 
 PCOD8241035
Probable space group: P M M N
;
_chemical_formula_sum "Si O2"
_cell_formula_units_Z 56
_cell_length_a 18.913769
_cell_length_b 13.704235
_cell_length_c 12.365151
_cell_angle_alpha 90.000000
_cell_angle_beta 90.000000
_cell_angle_gamma 90.000000
_cell_volume 3205.031499
_symmetry_space_group_name_H-M "P M M N"
_symmetry_group_IT_number 59
_space_group.IT_coordinate_system_code '2'
_symmetry_cell_setting 'orthorhombic'
loop_
_space_group_symop_operation_xyz
x,y,z
1/2-x,1/2-y,z
1/2+x,-y,-z
-x,1/2+y,-z
-x,-y,-z
1/2+x,1/2+y,-z
1/2-x,y,z
x,1/2-y,z
loop_
_atom_site_type_symbol
_atom_site_label
_atom_site_fract_x
_atom_site_fract_y
_atom_site_fract_z
Si Si1 0.671419 0.360614 0.805824
Si Si2 0.669344 0.362073 0.193280
Si Si3 0.041016 0.137379 0.919686
Si Si4 0.832703 0.026815 0.411410
Si Si5 0.569546 0.637996 0.331211
Si Si6 0.914721 0.363588 0.597525
Si Si7 0.397114 0.546116 0.008449
O O1 0.750000 0.369803 0.757417
O O2 0.656648 0.250000 0.845721
O O3 0.616557 0.391038 0.714028
O O4 0.666471 0.433518 0.908480
O O5 0.750000 0.379552 0.157374
O O6 0.648251 0.250000 0.190507
O O7 0.656563 0.398520 0.313935
O O8 0.618462 0.418045 0.112022
O O9 0.054576 0.250000 0.950178
O O10 0.059253 0.116285 0.795313
O O11 0.960549 0.108379 0.940306
O O12 0.088380 0.069694 0.998898
O O13 0.750000 0.013435 0.440704
O O14 0.865315 0.922927 0.378651
O O15 0.876005 0.069274 0.511281
O O16 0.590002 0.750000 0.348813
O O17 0.498074 0.612959 0.397483
O O18 0.900370 0.250000 0.571006
#
# Coordination Sequence:
#
# PCOD8241035 Si02
#       7
#     8   8   8   8   8   8   8
#     4  10  19  31  52  82 111 141 179 223 276 331
#     4  10  20  32  48  75 110 142 172 215 273 330
#     4  10  20  34  53  78 107 142 182 225 267 314
#     4  11  22  36  54  80 112 145 180 220 273 329
#     4  10  20  38  58  78 108 142 186 231 265 319
#     4  10  20  36  58  82 109 140 177 225 278 327
#     4  11  19  32  54  76 107 140 178 223 270 322
#
# _framework density 17.472526999999999
#
# number of rings (size 3 to 8) (size 9 to 14) (size 15 to 20)
#    0.000    1.714    2.857    3.000    0.000    2.857 
#    0.000    0.000    0.000    2.571    0.000    0.000 
#    0.000    0.000    0.000    0.000    0.000    0.000 
#
# Total GULP energy -694400.014948 kJ/mol
# GULP energy per Si atom -12400.000267 kJ/mol
# Density = 1.743276 g / cm^3
# Si number density = 17.472527 Si / 1000 Ang^3
#
#
#
# Elastic Constant Matrix: (Units=GPa)
#
#
# Indices 1 2 3 4 5 6 
#
# 1 54.4697 40.6122 26.9971 0.0000 0.0000 0.0000
# 2 40.6122 102.6823 42.6336 0.0000 0.0000 0.0000
# 3 26.9971 42.6336 69.2082 0.0000 0.0000 0.0000
# 4 0.0000 0.0000 0.0000 30.8109 0.0000 0.0000
# 5 0.0000 0.0000 0.0000 0.0000 23.6408 0.0000
# 6 0.0000 0.0000 0.0000 0.0000 0.0000 27.3569
#
#
#
# Elastic Compliance Matrix: (Units=1/GPa)
#
#
# Indices 1 2 3 4 5 6 
#
# 1 0.027463 -0.008618 -0.005404 0.000000 0.000000 0.000000
# 2 -0.008618 0.015790 -0.006365 0.000000 0.000000 0.000000
# 3 -0.005404 -0.006365 0.020478 0.000000 0.000000 0.000000
# 4 0.000000 0.000000 0.000000 0.032456 0.000000 0.000000
# 5 0.000000 0.000000 0.000000 0.000000 0.042300 0.000000
# 6 0.000000 0.000000 0.000000 0.000000 0.000000 0.036554
#
#
# Mechanical properties :
#
#
# Convention : Reuss Voigt Hill
#
# Bulk Modulus (GPa) = 43.56034 49.64956 46.60495
# Shear Modulus (GPa) = 22.37456 24.10287 23.23871
#
# Velocity S-wave (km/s) = 3.58237 3.71815 3.65089
# Velocity P-wave (km/s) = 6.48815 6.84911 6.67107
#
# Compressibility (1/GPa) = 0.02295666
#
# Stress axis : x y z
#
# Youngs Moduli (GPa) = 36.41277 63.33019 48.83234
#
# Poissons Ratio (x) = 0.54580 0.26388
# Poissons Ratio (y) = 0.31381 0.31083
# Poissons Ratio (z) = 0.19677 0.40311
#
# Static dielectric constant tensor:
#      x y z
#    x 3.256710 0.000000 0.000000 
#    y 0.000000 3.204210 0.000000 
#    z 0.000000 0.000000 3.197940 
# 
# 
# High freq. dielectric constant tensor:
#      x y z
#    x 1.675560 0.000000 0.000000 
#    y 0.000000 1.666830 0.000000 
#    z 0.000000 0.000000 1.675480 
# 
# From -- ./inp_files/16001.got.cif
#   From: 2010.03.12/outbox.cif.g09.slc.cpg/sg59_9_cif.got.tgz:16001.got - 2010.04.16 16:29:54.
