data_PCOD8241123
_publ_section_title
;
Structure prediction by ZEFSAII (Michael W. Deem and Ramdas Pophale) SiO2 
 PCOD8241123
Probable space group: P M M N
;
_chemical_formula_sum "Si O2"
_cell_formula_units_Z 48
_cell_length_a 30.863060
_cell_length_b 9.391242
_cell_length_c 9.438078
_cell_angle_alpha 90.000000
_cell_angle_beta 90.000000
_cell_angle_gamma 90.000000
_cell_volume 2735.555795
_symmetry_space_group_name_H-M "P M M N"
_symmetry_group_IT_number 59
_space_group.IT_coordinate_system_code '2'
_symmetry_cell_setting 'orthorhombic'
loop_
_space_group_symop_operation_xyz
x,y,z
1/2-x,1/2-y,z
1/2+x,-y,-z
-x,1/2+y,-z
-x,-y,-z
1/2+x,1/2+y,-z
1/2-x,y,z
x,1/2-y,z
loop_
_atom_site_type_symbol
_atom_site_label
_atom_site_fract_x
_atom_site_fract_y
_atom_site_fract_z
Si Si1 0.984836 0.585685 0.864467
Si Si2 0.390692 0.086571 0.215608
Si Si3 0.867923 0.413016 0.518538
Si Si4 0.427333 0.912570 0.731378
Si Si5 0.360994 0.084931 0.906206
Si Si6 0.200483 0.584302 0.717481
O O1 0.979104 0.750000 0.910087
O O2 0.939302 0.525202 0.807112
O O3 0.020914 0.567945 0.741175
O O4 0.000000 0.500000 0.000000
O O5 0.393785 0.250000 0.261123
O O6 0.366580 0.004946 0.340432
O O7 0.362007 0.066596 0.075162
O O8 0.866907 0.250000 0.566132
O O9 0.911209 0.448057 0.427340
O O10 0.825912 0.451943 0.424897
O O11 0.413629 0.750000 0.768643
O O12 0.404591 0.016206 0.843521
O O13 0.359738 0.250000 0.862214
O O14 0.318343 0.006476 0.847955
O O15 0.250000 0.540297 0.692154
O O16 0.195664 0.750000 0.756405
#
# Coordination Sequence:
#
# PCOD8241123 Si02
#       6
#     8   8   8   8   8   8
#     4  10  19  32  50  73 103 139 181 223 259 298
#     4  10  21  34  48  74 110 142 171 211 261 305
#     4   9  19  34  52  76 103 135 173 212 259 309
#     4   9  18  33  52  73 100 137 181 222 254 294
#     4  10  19  32  52  78 107 134 167 209 255 307
#     4   9  19  38  61  81 101 128 167 213 258 310
#
# _framework density 17.546707999999999
#
# number of rings (size 3 to 8) (size 9 to 14) (size 15 to 20)
#    0.000    2.500    1.667    1.500    0.000    5.667 
#    0.000    0.833    0.000    3.000    0.000    0.000 
#    0.000    0.000    0.000    0.000    0.000    0.000 
#
# Total GULP energy -595205.384994 kJ/mol
# GULP energy per Si atom -12400.112187 kJ/mol
# Density = 1.750677 g / cm^3
# Si number density = 17.546708 Si / 1000 Ang^3
#
#
#
# Elastic Constant Matrix: (Units=GPa)
#
#
# Indices 1 2 3 4 5 6 
#
# 1 118.4798 42.0697 51.2720 0.0000 0.0000 0.0000
# 2 42.0697 76.7183 58.6424 0.0000 0.0000 0.0000
# 3 51.2720 58.6424 106.1126 0.0000 0.0000 0.0000
# 4 0.0000 0.0000 0.0000 34.1525 0.0000 0.0000
# 5 0.0000 0.0000 0.0000 0.0000 18.4394 0.0000
# 6 0.0000 0.0000 0.0000 0.0000 0.0000 23.7950
#
#
#
# Elastic Compliance Matrix: (Units=1/GPa)
#
#
# Indices 1 2 3 4 5 6 
#
# 1 0.011180 -0.003465 -0.003487 0.000000 0.000000 0.000000
# 2 -0.003465 0.023642 -0.011391 0.000000 0.000000 0.000000
# 3 -0.003487 -0.011391 0.017404 0.000000 0.000000 0.000000
# 4 0.000000 0.000000 0.000000 0.029280 0.000000 0.000000
# 5 0.000000 0.000000 0.000000 0.000000 0.054232 0.000000
# 6 0.000000 0.000000 0.000000 0.000000 0.000000 0.042026
#
#
# Mechanical properties :
#
#
# Convention : Reuss Voigt Hill
#
# Bulk Modulus (GPa) = 64.35359 67.25323 65.80341
# Shear Modulus (GPa) = 22.76550 25.23247 23.99899
#
# Velocity S-wave (km/s) = 3.60588 3.79623 3.70228
# Velocity P-wave (km/s) = 7.35471 7.59121 7.47390
#
# Compressibility (1/GPa) = 0.01553915
#
# Stress axis : x y z
#
# Youngs Moduli (GPa) = 89.44863 42.29689 57.45776
#
# Poissons Ratio (x) = 0.14657 0.20034
# Poissons Ratio (y) = 0.30997 0.65453
# Poissons Ratio (z) = 0.31188 0.48182
#
# Static dielectric constant tensor:
#      x y z
#    x 3.390840 0.000000 0.000000 
#    y 0.000000 3.260510 0.000000 
#    z 0.000000 0.000000 3.059800 
# 
# 
# High freq. dielectric constant tensor:
#      x y z
#    x 1.672110 0.000000 0.000000 
#    y 0.000000 1.678950 0.000000 
#    z 0.000000 0.000000 1.664990 
# 
# From -- ./inp_files/6236.got.cif
#   From: 2010.03.12/outbox.cif.g09.slc.cpg/sg59_4_cif.got.tgz:6236.got - 2010.04.16 16:29:54.
