data_PCOD8241892
_publ_section_title
;
Structure prediction by ZEFSAII (Michael W. Deem and Ramdas Pophale) SiO2 
 PCOD8241892
Probable space group: P M M N
;
_chemical_formula_sum "Si O2"
_cell_formula_units_Z 64
_cell_length_a 17.941343
_cell_length_b 17.466944
_cell_length_c 11.429190
_cell_angle_alpha 90.000000
_cell_angle_beta 90.000000
_cell_angle_gamma 90.000000
_cell_volume 3581.684516
_symmetry_space_group_name_H-M "P M M N"
_symmetry_group_IT_number 59
_space_group.IT_coordinate_system_code '2'
_symmetry_cell_setting 'orthorhombic'
loop_
_space_group_symop_operation_xyz
x,y,z
1/2-x,1/2-y,z
1/2+x,-y,-z
-x,1/2+y,-z
-x,-y,-z
1/2+x,1/2+y,-z
1/2-x,y,z
x,1/2-y,z
loop_
_atom_site_type_symbol
_atom_site_label
_atom_site_fract_x
_atom_site_fract_y
_atom_site_fract_z
Si Si1 0.836961 0.932966 0.134552
Si Si2 0.410863 0.663000 0.160646
Si Si3 0.023856 0.160492 0.230063
Si Si4 0.333137 0.337969 0.095754
Si Si5 0.061128 0.558504 0.951529
Si Si6 0.063603 0.336990 0.708038
Si Si7 0.332466 0.659100 0.395539
Si Si8 0.521989 0.341284 0.483022
O O1 0.750000 0.944763 0.154927
O O2 0.868898 0.889181 0.247495
O O3 0.875489 0.015109 0.121549
O O4 0.855472 0.885643 0.017800
O O5 0.391508 0.750000 0.122377
O O6 0.496540 0.658684 0.199658
O O7 0.356747 0.635376 0.264818
O O8 0.398223 0.604225 0.055384
O O9 0.005113 0.250000 0.224827
O O10 0.110835 0.144223 0.202424
O O11 0.974437 0.120239 0.133613
O O12 0.005087 0.126697 0.358150
O O13 0.250000 0.358442 0.139715
O O14 0.339058 0.250000 0.056851
O O15 0.000000 0.500000 0.000000
O O16 0.092420 0.250000 0.696000
O O17 0.035624 0.369281 0.582698
O O18 0.250000 0.625283 0.423507
O O19 0.330750 0.750000 0.402625
O O20 0.394148 0.628266 0.488177
O O21 0.522607 0.250000 0.485764
#
# Coordination Sequence:
#
# PCOD8241892 Si02
#       8
#     8   8   8   8   8   8   8   8
#     4  11  22  34  49  73 106 139 173 216 264 313
#     4   9  17  30  52  77 101 129 169 216 259 307
#     4  10  19  34  55  79 106 140 177 211 254 315
#     4   9  17  30  50  76 103 131 168 216 266 315
#     4  12  21  33  51  76 104 139 175 208 257 313
#     4   9  16  31  53  76 100 128 168 217 260 308
#     4   8  14  27  50  77 101 128 168 221 266 291
#     4   8  16  30  51  79 104 131 173 216 252 304
#
# _framework density 17.868687000000001
#
# number of rings (size 3 to 8) (size 9 to 14) (size 15 to 20)
#    0.000    2.500    2.500    2.250    0.000    3.250 
#    0.000    1.875    0.000    4.125    0.000    0.000 
#    0.000    0.000    0.000    0.000    0.000    0.000 
#
# Total GULP energy -793446.414710 kJ/mol
# GULP energy per Si atom -12397.600230 kJ/mol
# Density = 1.782802 g / cm^3
# Si number density = 17.868687 Si / 1000 Ang^3
#
#
#
# Elastic Constant Matrix: (Units=GPa)
#
#
# Indices 1 2 3 4 5 6 
#
# 1 121.5235 30.0856 62.4036 0.0000 0.0000 0.0000
# 2 30.0856 40.4247 27.7226 0.0000 0.0000 0.0000
# 3 62.4036 27.7226 109.0123 0.0000 0.0000 0.0000
# 4 0.0000 0.0000 0.0000 6.1665 0.0000 0.0000
# 5 0.0000 0.0000 0.0000 0.0000 23.3954 0.0000
# 6 0.0000 0.0000 0.0000 0.0000 0.0000 19.4462
#
#
#
# Elastic Compliance Matrix: (Units=1/GPa)
#
#
# Indices 1 2 3 4 5 6 
#
# 1 0.012540 -0.005341 -0.005820 0.000000 0.000000 0.000000
# 2 -0.005341 0.032238 -0.005141 0.000000 0.000000 0.000000
# 3 -0.005820 -0.005141 0.013812 0.000000 0.000000 0.000000
# 4 0.000000 0.000000 0.000000 0.162166 0.000000 0.000000
# 5 0.000000 0.000000 0.000000 0.000000 0.042743 0.000000
# 6 0.000000 0.000000 0.000000 0.000000 0.000000 0.051424
#
#
# Mechanical properties :
#
#
# Convention : Reuss Voigt Hill
#
# Bulk Modulus (GPa) = 38.48243 56.82045 47.65144
# Shear Modulus (GPa) = 14.03746 19.85154 16.94450
#
# Velocity S-wave (km/s) = 2.80588 3.33673 3.08275
# Velocity P-wave (km/s) = 5.66394 6.83469 6.27667
#
# Compressibility (1/GPa) = 0.02598589
#
# Stress axis : x y z
#
# Youngs Moduli (GPa) = 79.74554 31.01930 72.39941
#
# Poissons Ratio (x) = 0.16569 0.42137
# Poissons Ratio (y) = 0.42595 0.37219
# Poissons Ratio (z) = 0.46412 0.15946
#
# Static dielectric constant tensor:
#      x y z
#    x 3.460130 0.000000 0.000000 
#    y 0.000000 3.115840 0.000000 
#    z 0.000000 0.000000 3.373790 
# 
# 
# High freq. dielectric constant tensor:
#      x y z
#    x 1.687600 0.000000 0.000000 
#    y 0.000000 1.666890 0.000000 
#    z 0.000000 0.000000 1.680610 
# 
# From -- ./inp_files/17834.got.cif
#   From: 2010.03.12/outbox.cif.g09.slc.cpg/sg59_9_cif.got.tgz:17834.got - 2010.04.16 16:29:54.
