data_PCOD8241076
_publ_section_title
;
Structure prediction by ZEFSAII (Michael W. Deem and Ramdas Pophale) SiO2 
 PCOD8241076
Probable space group: P M M N
;
_chemical_formula_sum "Si O2"
_cell_formula_units_Z 64
_cell_length_a 9.309150
_cell_length_b 24.624670
_cell_length_c 15.196655
_cell_angle_alpha 90.000000
_cell_angle_beta 90.000000
_cell_angle_gamma 90.000000
_cell_volume 3483.601360
_symmetry_space_group_name_H-M "P M M N"
_symmetry_group_IT_number 59
_space_group.IT_coordinate_system_code '2'
_symmetry_cell_setting 'orthorhombic'
loop_
_space_group_symop_operation_xyz
x,y,z
1/2-x,1/2-y,z
1/2+x,-y,-z
-x,1/2+y,-z
-x,-y,-z
1/2+x,1/2+y,-z
1/2-x,y,z
x,1/2-y,z
loop_
_atom_site_type_symbol
_atom_site_label
_atom_site_fract_x
_atom_site_fract_y
_atom_site_fract_z
Si Si1 0.579284 0.810884 0.527582
Si Si2 0.417285 0.313379 0.275103
Si Si3 0.908320 0.974734 0.736513
Si Si4 0.409214 0.999652 0.586089
Si Si5 0.584179 0.396783 0.157727
Si Si6 0.916387 0.055165 0.976815
Si Si7 0.592251 0.095615 0.792435
Si Si8 0.590975 0.623221 0.361628
O O1 0.750000 0.811551 0.526473
O O2 0.521695 0.750000 0.510603
O O3 0.532141 0.830380 0.625768
O O4 0.519004 0.849113 0.448661
O O5 0.250000 0.327123 0.260924
O O6 0.445821 0.250000 0.260703
O O7 0.510492 0.344661 0.202023
O O8 0.750000 0.947473 0.728197
O O9 0.996669 0.950941 0.817655
O O10 0.890169 0.038488 0.744066
O O11 0.003615 0.960163 0.651322
O O12 0.250000 0.975716 0.569398
O O13 0.396467 0.059464 0.624726
O O14 0.500000 0.000000 0.500000
O O15 0.750000 0.400070 0.188012
O O16 0.572800 0.398248 0.051804
O O17 0.750000 0.038385 0.960183
O O18 0.978143 0.084312 0.888490
O O19 0.000000 0.000000 0.000000
O O20 0.750000 0.122599 0.802892
O O21 0.498043 0.134423 0.728519
O O22 0.750000 0.647955 0.347053
#
# Coordination Sequence:
#
# PCOD8241076 Si02
#       8
#     8   8   8   8   8   8   8   8
#     4   8  15  31  55  79 100 127 167 212 257 306
#     4   9  19  36  57  78 102 136 176 215 257 314
#     4  10  19  32  49  68  96 136 175 210 251 302
#     4  10  20  31  43  66 100 135 172 208 250 306
#     4  11  22  33  51  79 106 134 170 220 270 313
#     4  10  20  34  52  75 104 137 175 213 257 309
#     4   9  18  33  50  70 100 136 169 206 251 301
#     4   9  18  31  49  73  98 129 165 206 253 304
#
# _framework density 18.371791999999999
#
# number of rings (size 3 to 8) (size 9 to 14) (size 15 to 20)
#    0.000    2.500    1.250    1.875    1.750    2.250 
#    0.000    0.625    0.000    1.875    0.000    3.500 
#    0.000    0.000    0.000    0.000    0.000    0.000 
#
# Total GULP energy -792967.404163 kJ/mol
# GULP energy per Si atom -12390.115690 kJ/mol
# Density = 1.832998 g / cm^3
# Si number density = 18.371792 Si / 1000 Ang^3
#
#
#
# Elastic Constant Matrix: (Units=GPa)
#
#
# Indices 1 2 3 4 5 6 
#
# 1 106.1090 18.9648 58.9773 0.0000 0.0000 0.0000
# 2 18.9648 43.1615 25.6686 0.0000 0.0000 0.0000
# 3 58.9773 25.6686 138.4931 0.0000 0.0000 0.0000
# 4 0.0000 0.0000 0.0000 26.1536 0.0000 0.0000
# 5 0.0000 0.0000 0.0000 0.0000 31.2514 0.0000
# 6 0.0000 0.0000 0.0000 0.0000 0.0000 19.5215
#
#
#
# Elastic Compliance Matrix: (Units=1/GPa)
#
#
# Indices 1 2 3 4 5 6 
#
# 1 0.012608 -0.002638 -0.004880 0.000000 0.000000 0.000000
# 2 -0.002638 0.026591 -0.003805 0.000000 0.000000 0.000000
# 3 -0.004880 -0.003805 0.010004 0.000000 0.000000 0.000000
# 4 0.000000 0.000000 0.000000 0.038236 0.000000 0.000000
# 5 0.000000 0.000000 0.000000 0.000000 0.031999 0.000000
# 6 0.000000 0.000000 0.000000 0.000000 0.000000 0.051226
#
#
# Mechanical properties :
#
#
# Convention : Reuss Voigt Hill
#
# Bulk Modulus (GPa) = 37.65503 54.99834 46.32669
# Shear Modulus (GPa) = 24.73272 27.66217 26.19744
#
# Velocity S-wave (km/s) = 3.67309 3.88453 3.78029
# Velocity P-wave (km/s) = 6.20720 7.07960 6.65770
#
# Compressibility (1/GPa) = 0.02655688
#
# Stress axis : x y z
#
# Youngs Moduli (GPa) = 79.31296 37.60717 99.95855
#
# Poissons Ratio (x) = 0.09919 0.48784
# Poissons Ratio (y) = 0.20919 0.38036
# Poissons Ratio (z) = 0.38708 0.14310
#
# Static dielectric constant tensor:
#      x y z
#    x 3.667860 0.000000 0.000000 
#    y 0.000000 2.963290 0.000000 
#    z 0.000000 0.000000 3.345220 
# 
# 
# High freq. dielectric constant tensor:
#      x y z
#    x 1.705240 0.000000 0.000000 
#    y 0.000000 1.670080 0.000000 
#    z 0.000000 0.000000 1.721480 
# 
# From -- ./inp_files/21865.got.cif
#   From: 2010.03.12/outbox.cif.g09.slc.cpg/sg59_11_cif.got.tgz:21865.got - 2010.04.16 16:29:54.
