data_PCOD8241807
_publ_section_title
;
Structure prediction by ZEFSAII (Michael W. Deem and Ramdas Pophale) SiO2 
 PCOD8241807
Probable space group: P M M N
;
_chemical_formula_sum "Si O2"
_cell_formula_units_Z 56
_cell_length_a 14.062101
_cell_length_b 20.118914
_cell_length_c 9.552093
_cell_angle_alpha 90.000000
_cell_angle_beta 90.000000
_cell_angle_gamma 90.000000
_cell_volume 2702.422756
_symmetry_space_group_name_H-M "P M M N"
_symmetry_group_IT_number 59
_space_group.IT_coordinate_system_code '2'
_symmetry_cell_setting 'orthorhombic'
loop_
_space_group_symop_operation_xyz
x,y,z
1/2-x,1/2-y,z
1/2+x,-y,-z
-x,1/2+y,-z
-x,-y,-z
1/2+x,1/2+y,-z
1/2-x,y,z
x,1/2-y,z
loop_
_atom_site_type_symbol
_atom_site_label
_atom_site_fract_x
_atom_site_fract_y
_atom_site_fract_z
Si Si1 0.555946 0.178432 0.159618
Si Si2 0.501597 0.829085 0.538283
Si Si3 0.642966 0.934454 0.637006
Si Si4 0.360199 0.569049 0.030197
Si Si5 0.356698 0.049013 0.835680
Si Si6 0.853797 0.861659 0.911805
Si Si7 0.962636 0.065423 0.677720
O O1 0.601366 0.250000 0.134280
O O2 0.562852 0.160441 0.323944
O O3 0.444008 0.184280 0.118051
O O4 0.619911 0.131203 0.068136
O O5 0.518278 0.750000 0.506248
O O6 0.601163 0.868223 0.562769
O O7 0.447072 0.867374 0.412807
O O8 0.750000 0.944736 0.582295
O O9 0.640915 0.925156 0.806021
O O10 0.581594 0.000515 0.601676
O O11 0.250000 0.563230 0.068442
O O12 0.417220 0.578198 0.172104
O O13 0.396396 0.506930 0.940496
O O14 0.250000 0.032941 0.782450
O O15 0.424083 0.054060 0.700116
O O16 0.358523 0.116215 0.926663
O O17 0.750000 0.826305 0.886910
#
# Coordination Sequence:
#
# PCOD8241807 Si02
#       7
#     8   8   8   8   8   8   8
#     4  10  21  39  58  79 113 161 206 243 290 361
#     4  10  24  42  59  84 125 171 209 251 308 368
#     4  10  20  36  63  92 119 158 207 253 300 366
#     4  11  22  37  62  92 120 152 196 255 314 366
#     4  10  19  33  57  90 123 151 187 243 312 369
#     4   9  16  31  56  87 115 144 187 240 296 354
#     4  12  21  37  63  95 126 159 202 260 316 369
#
# _framework density 20.722145999999999
#
# number of rings (size 3 to 8) (size 9 to 14) (size 15 to 20)
#    0.000    1.714    2.857    3.000    0.000    2.000 
#    0.000    5.714    0.000    3.000    0.000    0.000 
#    0.000    0.000    0.000    0.000    0.000    0.000 
#
# Total GULP energy -694085.463465 kJ/mol
# GULP energy per Si atom -12394.383276 kJ/mol
# Density = 2.067498 g / cm^3
# Si number density = 20.722146 Si / 1000 Ang^3
#
#
#
# Elastic Constant Matrix: (Units=GPa)
#
#
# Indices 1 2 3 4 5 6 
#
# 1 57.1292 24.9659 12.1325 0.0000 0.0000 0.0000
# 2 24.9659 123.8902 46.4134 0.0000 0.0000 0.0000
# 3 12.1325 46.4134 46.0762 0.0000 0.0000 0.0000
# 4 0.0000 0.0000 0.0000 22.5137 0.0000 0.0000
# 5 0.0000 0.0000 0.0000 0.0000 17.7824 0.0000
# 6 0.0000 0.0000 0.0000 0.0000 0.0000 10.2523
#
#
#
# Elastic Compliance Matrix: (Units=1/GPa)
#
#
# Indices 1 2 3 4 5 6 
#
# 1 0.019294 -0.003188 -0.001869 0.000000 0.000000 0.000000
# 2 -0.003188 0.013491 -0.012750 0.000000 0.000000 0.000000
# 3 -0.001869 -0.012750 0.035039 0.000000 0.000000 0.000000
# 4 0.000000 0.000000 0.000000 0.044417 0.000000 0.000000
# 5 0.000000 0.000000 0.000000 0.000000 0.056235 0.000000
# 6 0.000000 0.000000 0.000000 0.000000 0.000000 0.097540
#
#
# Mechanical properties :
#
#
# Convention : Reuss Voigt Hill
#
# Bulk Modulus (GPa) = 31.04684 43.79101 37.41893
# Shear Modulus (GPa) = 16.00684 19.68192 17.84438
#
# Velocity S-wave (km/s) = 2.78231 3.08523 2.93768
# Velocity P-wave (km/s) = 5.03355 5.81978 5.44089
#
# Compressibility (1/GPa) = 0.03220939
#
# Stress axis : x y z
#
# Youngs Moduli (GPa) = 51.82884 74.12559 28.53991
#
# Poissons Ratio (x) = 0.23630 0.05335
# Poissons Ratio (y) = 0.16522 0.36388
# Poissons Ratio (z) = 0.09688 0.94510
#
# Static dielectric constant tensor:
#      x y z
#    x 3.739880 0.000000 0.000000 
#    y 0.000000 3.561960 0.000000 
#    z 0.000000 0.000000 3.664710 
# 
# 
# High freq. dielectric constant tensor:
#      x y z
#    x 1.804970 0.000000 0.000000 
#    y 0.000000 1.794260 0.000000 
#    z 0.000000 0.000000 1.807340 
# 
# From -- ./inp_files/9348.got.cif
#   From: 2010.03.12/outbox.cif.g09.slc.cpg/sg59_5_cif.got.tgz:9348.got - 2010.04.16 16:29:54.
