data_PCOD8241078
_publ_section_title
;
Structure prediction by ZEFSAII (Michael W. Deem and Ramdas Pophale) SiO2 
 PCOD8241078
Probable space group: P M M N
;
_chemical_formula_sum "Si O2"
_cell_formula_units_Z 64
_cell_length_a 9.184591
_cell_length_b 19.350559
_cell_length_c 19.036185
_cell_angle_alpha 90.000000
_cell_angle_beta 90.000000
_cell_angle_gamma 90.000000
_cell_volume 3383.243481
_symmetry_space_group_name_H-M "P M M N"
_symmetry_group_IT_number 59
_space_group.IT_coordinate_system_code '2'
_symmetry_cell_setting 'orthorhombic'
loop_
_space_group_symop_operation_xyz
x,y,z
1/2-x,1/2-y,z
1/2+x,-y,-z
-x,1/2+y,-z
-x,-y,-z
1/2+x,1/2+y,-z
1/2-x,y,z
x,1/2-y,z
loop_
_atom_site_type_symbol
_atom_site_label
_atom_site_fract_x
_atom_site_fract_y
_atom_site_fract_z
Si Si1 0.078043 0.330289 0.412737
Si Si2 0.415976 0.173327 0.017424
Si Si3 0.078607 0.170795 0.690932
Si Si4 0.920789 0.546410 0.216418
Si Si5 0.078721 0.592069 0.710727
Si Si6 0.416636 0.669471 0.848142
Si Si7 0.417905 0.040259 0.938903
Si Si8 0.086685 0.668319 0.448181
O O1 0.250000 0.340589 0.418671
O O2 0.039261 0.250000 0.396720
O O3 0.014697 0.380251 0.353589
O O4 0.005362 0.356427 0.484794
O O5 0.250000 0.178223 0.041452
O O6 0.474890 0.250000 0.997038
O O7 0.435213 0.122617 0.951691
O O8 0.501255 0.141220 0.083625
O O9 0.250000 0.163316 0.676081
O O10 0.038607 0.250000 0.710432
O O11 0.026535 0.120817 0.754291
O O12 0.995325 0.144168 0.621909
O O13 0.750000 0.549686 0.203572
O O14 0.958393 0.488129 0.274262
O O15 0.986696 0.528414 0.139118
O O16 0.250000 0.604085 0.695708
O O17 0.023883 0.633442 0.778683
O O18 0.250000 0.649449 0.859370
O O19 0.443642 0.750000 0.838590
O O20 0.250000 0.017143 0.942602
O O21 0.500000 0.000000 0.000000
O O22 0.250000 0.636705 0.450608
O O23 0.095328 0.750000 0.448662
#
# Coordination Sequence:
#
# PCOD8241078 Si02
#       8
#     8   8   8   8   8   8   8   8
#     4  10  20  33  51  77 106 134 166 204 244 288
#     4   9  18  31  48  72  99 125 158 205 256 301
#     4   9  17  32  55  79 102 130 166 209 256 304
#     4   9  19  34  52  75 101 131 168 209 253 301
#     4  10  19  32  49  69  98 134 171 209 246 290
#     4   9  17  29  47  70  96 130 168 203 245 299
#     4  10  20  35  54  74  99 133 171 209 251 301
#     4   9  17  31  53  79 105 133 166 204 246 294
#
# _framework density 18.916758000000002
#
# number of rings (size 3 to 8) (size 9 to 14) (size 15 to 20)
#    0.000    2.625    0.000    1.875    0.000    5.250 
#    0.000    6.250    0.000    0.000    0.000    3.500 
#    0.000    0.000    0.000    0.000    0.000    0.000 
#
# Total GULP energy -793368.509524 kJ/mol
# GULP energy per Si atom -12396.382961 kJ/mol
# Density = 1.887370 g / cm^3
# Si number density = 18.916758 Si / 1000 Ang^3
#
#
#
# Elastic Constant Matrix: (Units=GPa)
#
#
# Indices 1 2 3 4 5 6 
#
# 1 63.5207 31.4285 48.2120 0.0000 0.0000 0.0000
# 2 31.4285 67.9831 63.1470 0.0000 0.0000 0.0000
# 3 48.2120 63.1470 136.4733 0.0000 0.0000 0.0000
# 4 0.0000 0.0000 0.0000 29.0678 0.0000 0.0000
# 5 0.0000 0.0000 0.0000 0.0000 30.2722 0.0000
# 6 0.0000 0.0000 0.0000 0.0000 0.0000 18.3070
#
#
#
# Elastic Compliance Matrix: (Units=1/GPa)
#
#
# Indices 1 2 3 4 5 6 
#
# 1 0.022551 -0.005306 -0.005512 0.000000 0.000000 0.000000
# 2 -0.005306 0.027045 -0.010640 0.000000 0.000000 0.000000
# 3 -0.005512 -0.010640 0.014198 0.000000 0.000000 0.000000
# 4 0.000000 0.000000 0.000000 0.034402 0.000000 0.000000
# 5 0.000000 0.000000 0.000000 0.000000 0.033034 0.000000
# 6 0.000000 0.000000 0.000000 0.000000 0.000000 0.054624
#
#
# Mechanical properties :
#
#
# Convention : Reuss Voigt Hill
#
# Bulk Modulus (GPa) = 47.89297 61.50579 54.69938
# Shear Modulus (GPa) = 21.21088 23.87538 22.54313
#
# Velocity S-wave (km/s) = 3.35218 3.55650 3.45585
# Velocity P-wave (km/s) = 6.35260 7.03203 6.70093
#
# Compressibility (1/GPa) = 0.02087989
#
# Stress axis : x y z
#
# Youngs Moduli (GPa) = 44.34299 36.97532 70.43475
#
# Poissons Ratio (x) = 0.19619 0.38822
# Poissons Ratio (y) = 0.23528 0.74939
# Poissons Ratio (z) = 0.24441 0.39340
#
# Static dielectric constant tensor:
#      x y z
#    x 3.414440 0.000000 0.000000 
#    y 0.000000 3.518810 0.000000 
#    z 0.000000 0.000000 3.693280 
# 
# 
# High freq. dielectric constant tensor:
#      x y z
#    x 1.714350 0.000000 0.000000 
#    y 0.000000 1.728650 0.000000 
#    z 0.000000 0.000000 1.736000 
# 
# From -- ./inp_files/26244.got.cif
#   From: 2010.03.12/outbox.cif.g09.slc.cpg/sg59_14_cif.got.tgz:26244.got - 2010.04.16 16:29:54.
