data_PCOD8241626
_publ_section_title
;
Structure prediction by ZEFSAII (Michael W. Deem and Ramdas Pophale) SiO2 
 PCOD8241626
Probable space group: P M M N
;
_chemical_formula_sum "Si O2"
_cell_formula_units_Z 64
_cell_length_a 25.206770
_cell_length_b 8.947684
_cell_length_c 14.578066
_cell_angle_alpha 90.000000
_cell_angle_beta 90.000000
_cell_angle_gamma 90.000000
_cell_volume 3287.969261
_symmetry_space_group_name_H-M "P M M N"
_symmetry_group_IT_number 59
_space_group.IT_coordinate_system_code '2'
_symmetry_cell_setting 'orthorhombic'
loop_
_space_group_symop_operation_xyz
x,y,z
1/2-x,1/2-y,z
1/2+x,-y,-z
-x,1/2+y,-z
-x,-y,-z
1/2+x,1/2+y,-z
1/2-x,y,z
x,1/2-y,z
loop_
_atom_site_type_symbol
_atom_site_label
_atom_site_fract_x
_atom_site_fract_y
_atom_site_fract_z
Si Si1 0.189864 0.576465 0.293530
Si Si2 0.509678 0.417024 0.725208
Si Si3 0.551884 0.417942 0.531011
Si Si4 0.340432 0.427109 0.483034
Si Si5 0.808491 0.077573 0.337616
Si Si6 0.055368 0.573335 0.971732
Si Si7 0.102248 0.573990 0.155370
Si Si8 0.090446 0.573679 0.773154
O O1 0.250000 0.554682 0.259462
O O2 0.177316 0.750000 0.313666
O O3 0.181857 0.488338 0.387693
O O4 0.152698 0.509384 0.211655
O O5 0.489448 0.250000 0.747827
O O6 0.550279 0.413831 0.640598
O O7 0.545760 0.486632 0.806091
O O8 0.457538 0.517669 0.707949
O O9 0.500000 0.500000 0.500000
O O10 0.555506 0.250000 0.490358
O O11 0.600784 0.514517 0.496524
O O12 0.339457 0.250000 0.479193
O O13 0.305983 0.484215 0.568330
O O14 0.750000 0.061629 0.291707
O O15 0.820630 0.250000 0.362084
O O16 0.853181 0.015593 0.266739
O O17 0.045802 0.750000 0.967062
O O18 0.101138 0.533547 0.047370
O O19 0.078501 0.510796 0.875485
O O20 0.000000 0.500000 0.000000
O O21 0.103178 0.750000 0.170862
O O22 0.090823 0.750000 0.774924
#
# Coordination Sequence:
#
# PCOD8241626 Si02
#       8
#     8   8   8   8   8   8   8   8
#     4  10  20  37  60  82 108 148 192 230 276 335
#     4  10  19  33  54  77 109 147 178 216 271 331
#     4  11  22  36  53  78 113 151 191 231 278 334
#     4  12  24  37  56  83 113 146 188 235 282 330
#     4  10  22  41  60  77 106 150 191 232 283 333
#     4  10  19  33  55  82 113 143 177 222 273 328
#     4   9  17  33  54  79 110 143 178 221 271 328
#     4  10  21  35  55  85 113 139 182 232 275 328
#
# _framework density 19.464901999999999
#
# number of rings (size 3 to 8) (size 9 to 14) (size 15 to 20)
#    0.000    1.750    2.500    2.625    0.000    5.500 
#    0.000    1.250    0.000    3.750    0.000    0.000 
#    0.000    3.000    0.000    0.000    0.000    0.000 
#
# Total GULP energy -793353.671939 kJ/mol
# GULP energy per Si atom -12396.151124 kJ/mol
# Density = 1.942060 g / cm^3
# Si number density = 19.464902 Si / 1000 Ang^3
#
#
#
# Elastic Constant Matrix: (Units=GPa)
#
#
# Indices 1 2 3 4 5 6 
#
# 1 129.7800 28.6984 45.3052 0.0000 0.0000 0.0000
# 2 28.6984 59.4746 28.1640 0.0000 0.0000 0.0000
# 3 45.3052 28.1640 89.7424 0.0000 0.0000 0.0000
# 4 0.0000 0.0000 0.0000 17.9360 0.0000 0.0000
# 5 0.0000 0.0000 0.0000 0.0000 21.8243 0.0000
# 6 0.0000 0.0000 0.0000 0.0000 0.0000 25.1622
#
#
#
# Elastic Compliance Matrix: (Units=1/GPa)
#
#
# Indices 1 2 3 4 5 6 
#
# 1 0.009731 -0.002783 -0.004039 0.000000 0.000000 0.000000
# 2 -0.002783 0.020545 -0.005043 0.000000 0.000000 0.000000
# 3 -0.004039 -0.005043 0.014765 0.000000 0.000000 0.000000
# 4 0.000000 0.000000 0.000000 0.055754 0.000000 0.000000
# 5 0.000000 0.000000 0.000000 0.000000 0.045820 0.000000
# 6 0.000000 0.000000 0.000000 0.000000 0.000000 0.039742
#
#
# Mechanical properties :
#
#
# Convention : Reuss Voigt Hill
#
# Bulk Modulus (GPa) = 46.92437 53.70358 50.31397
# Shear Modulus (GPa) = 23.02143 24.77314 23.89729
#
# Velocity S-wave (km/s) = 3.44279 3.57137 3.50767
# Velocity P-wave (km/s) = 6.32165 6.68252 6.50459
#
# Compressibility (1/GPa) = 0.02131089
#
# Stress axis : x y z
#
# Youngs Moduli (GPa) = 102.76742 48.67462 67.72919
#
# Poissons Ratio (x) = 0.13544 0.27357
# Poissons Ratio (y) = 0.28597 0.34154
# Poissons Ratio (z) = 0.41509 0.24545
#
# Static dielectric constant tensor:
#      x y z
#    x 3.688000 0.000000 0.000000 
#    y 0.000000 3.339980 0.000000 
#    z 0.000000 0.000000 3.912120 
# 
# 
# High freq. dielectric constant tensor:
#      x y z
#    x 1.760220 0.000000 0.000000 
#    y 0.000000 1.733380 0.000000 
#    z 0.000000 0.000000 1.757530 
# 
# From -- ./inp_files/24706.got.cif
#   From: 2010.03.12/outbox.cif.g09.slc.cpg/sg59_13_cif.got.tgz:24706.got - 2010.04.16 16:29:54.
