data_PCOD8241510
_publ_section_title
;
Structure prediction by ZEFSAII (Michael W. Deem and Ramdas Pophale) SiO2 
 PCOD8241510
Probable space group: P M M N
;
_chemical_formula_sum "Si O2"
_cell_formula_units_Z 64
_cell_length_a 9.279275
_cell_length_b 23.864549
_cell_length_c 14.978640
_cell_angle_alpha 90.000000
_cell_angle_beta 90.000000
_cell_angle_gamma 90.000000
_cell_volume 3316.955613
_symmetry_space_group_name_H-M "P M M N"
_symmetry_group_IT_number 59
_space_group.IT_coordinate_system_code '2'
_symmetry_cell_setting 'orthorhombic'
loop_
_space_group_symop_operation_xyz
x,y,z
1/2-x,1/2-y,z
1/2+x,-y,-z
-x,1/2+y,-z
-x,-y,-z
1/2+x,1/2+y,-z
1/2-x,y,z
x,1/2-y,z
loop_
_atom_site_type_symbol
_atom_site_label
_atom_site_fract_x
_atom_site_fract_y
_atom_site_fract_z
Si Si1 0.584449 0.315039 0.949374
Si Si2 0.916103 0.592880 0.377699
Si Si3 0.581700 0.112842 0.122854
Si Si4 0.079118 0.393131 0.823474
Si Si5 0.582845 0.866691 0.562208
Si Si6 0.583803 0.995077 0.842186
Si Si7 0.916373 0.186903 0.287954
Si Si8 0.586491 0.985094 0.632959
O O1 0.750000 0.324406 0.920368
O O2 0.549398 0.250000 0.962792
O O3 0.479834 0.338428 0.872844
O O4 0.550722 0.345678 0.041722
O O5 0.750000 0.576276 0.375784
O O6 0.963922 0.615278 0.280746
O O7 0.945843 0.639146 0.455254
O O8 0.996074 0.536277 0.405984
O O9 0.750000 0.097432 0.130281
O O10 0.491140 0.056281 0.105781
O O11 0.526850 0.144308 0.212286
O O12 0.250000 0.399119 0.836701
O O13 0.000424 0.447626 0.864673
O O14 0.750000 0.859070 0.585328
O O15 0.497306 0.820394 0.617789
O O16 0.526883 0.927643 0.592503
O O17 0.750000 0.001156 0.872923
O O18 0.569692 0.981617 0.738711
O O19 0.750000 0.175639 0.306566
O O20 0.942596 0.250000 0.253644
O O21 0.750000 0.995203 0.603733
#
# Coordination Sequence:
#
# PCOD8241510 Si02
#       8
#     8   8   8   8   8   8   8   8
#     4  10  22  41  63  84 106 139 185 233 282 333
#     4   9  19  33  52  77 108 143 181 222 268 320
#     4  10  20  36  59  84 111 142 179 225 278 336
#     4  10  21  38  58  83 114 147 186 231 277 328
#     4  10  19  33  51  76 108 143 182 222 266 318
#     4  10  19  33  55  85 119 150 180 220 272 331
#     4  10  21  36  54  78 109 145 184 227 274 328
#     4   9  17  29  48  77 111 142 176 218 263 315
#
# _framework density 19.294802000000001
#
# number of rings (size 3 to 8) (size 9 to 14) (size 15 to 20)
#    0.000    2.250    1.250    1.500    0.000    5.000 
#    0.000    0.625    0.000    6.000    0.000    0.000 
#    0.000    0.000    0.000    0.000    0.000    0.000 
#
# Total GULP energy -793643.931063 kJ/mol
# GULP energy per Si atom -12400.686423 kJ/mol
# Density = 1.925089 g / cm^3
# Si number density = 19.294802 Si / 1000 Ang^3
#
#
#
# Elastic Constant Matrix: (Units=GPa)
#
#
# Indices 1 2 3 4 5 6 
#
# 1 67.2641 35.1758 35.9990 0.0000 0.0000 0.0000
# 2 35.1758 72.3568 40.2281 0.0000 0.0000 0.0000
# 3 35.9990 40.2281 75.2097 0.0000 0.0000 0.0000
# 4 0.0000 0.0000 0.0000 28.6387 0.0000 0.0000
# 5 0.0000 0.0000 0.0000 0.0000 27.9818 0.0000
# 6 0.0000 0.0000 0.0000 0.0000 0.0000 32.6105
#
#
#
# Elastic Compliance Matrix: (Units=1/GPa)
#
#
# Indices 1 2 3 4 5 6 
#
# 1 0.022199 -0.006952 -0.006907 0.000000 0.000000 0.000000
# 2 -0.006952 0.021847 -0.008358 0.000000 0.000000 0.000000
# 3 -0.006907 -0.008358 0.021073 0.000000 0.000000 0.000000
# 4 0.000000 0.000000 0.000000 0.034918 0.000000 0.000000
# 5 0.000000 0.000000 0.000000 0.000000 0.035738 0.000000
# 6 0.000000 0.000000 0.000000 0.000000 0.000000 0.030665
#
#
# Mechanical properties :
#
#
# Convention : Reuss Voigt Hill
#
# Bulk Modulus (GPa) = 48.34477 48.62626 48.48551
# Shear Modulus (GPa) = 22.96036 24.74138 23.85087
#
# Velocity S-wave (km/s) = 3.45335 3.58478 3.51968
# Velocity P-wave (km/s) = 6.40399 6.51081 6.45762
#
# Compressibility (1/GPa) = 0.02068476
#
# Stress axis : x y z
#
# Youngs Moduli (GPa) = 45.04767 45.77362 47.45470
#
# Poissons Ratio (x) = 0.31820 0.32777
# Poissons Ratio (y) = 0.31315 0.39662
# Poissons Ratio (z) = 0.31115 0.38257
#
# Static dielectric constant tensor:
#      x y z
#    x 3.473100 0.000000 0.000000 
#    y 0.000000 3.373750 0.000000 
#    z 0.000000 0.000000 3.610810 
# 
# 
# High freq. dielectric constant tensor:
#      x y z
#    x 1.745690 0.000000 0.000000 
#    y 0.000000 1.735580 0.000000 
#    z 0.000000 0.000000 1.754200 
# 
# From -- ./inp_files/21607.got.cif
#   From: 2010.03.12/outbox.cif.g09.slc.cpg/sg59_11_cif.got.tgz:21607.got - 2010.04.16 16:29:54.
