data_PCOD8241106
_publ_section_title
;
Structure prediction by ZEFSAII (Michael W. Deem and Ramdas Pophale) SiO2 
 PCOD8241106
Probable space group: P M M N
;
_chemical_formula_sum "Si O2"
_cell_formula_units_Z 48
_cell_length_a 9.167851
_cell_length_b 32.377093
_cell_length_c 9.127286
_cell_angle_alpha 90.000000
_cell_angle_beta 90.000000
_cell_angle_gamma 90.000000
_cell_volume 2709.237375
_symmetry_space_group_name_H-M "P M M N"
_symmetry_group_IT_number 59
_space_group.IT_coordinate_system_code '2'
_symmetry_cell_setting 'orthorhombic'
loop_
_space_group_symop_operation_xyz
x,y,z
1/2-x,1/2-y,z
1/2+x,-y,-z
-x,1/2+y,-z
-x,-y,-z
1/2+x,1/2+y,-z
1/2-x,y,z
x,1/2-y,z
loop_
_atom_site_type_symbol
_atom_site_label
_atom_site_fract_x
_atom_site_fract_y
_atom_site_fract_z
Si Si1 0.082367 0.703945 0.379342
Si Si2 0.584861 0.580938 0.316321
Si Si3 0.579371 0.038638 0.930191
Si Si4 0.921482 0.125006 0.439884
Si Si5 0.418392 0.621709 0.893807
Si Si6 0.086775 0.164400 0.866796
O O1 0.250000 0.696978 0.336984
O O2 0.054742 0.750000 0.442292
O O3 0.035546 0.670706 0.502078
O O4 0.992910 0.699124 0.229076
O O5 0.750000 0.565067 0.342451
O O6 0.507181 0.589645 0.471194
O O7 0.584587 0.622367 0.223304
O O8 0.492720 0.546688 0.228476
O O9 0.750000 0.029483 0.908319
O O10 0.552817 0.076901 0.038289
O O11 0.500000 0.000000 0.000000
O O12 0.750000 0.116445 0.457356
O O13 0.973330 0.121576 0.272939
O O14 0.250000 0.634040 0.903429
O O15 0.505924 0.657239 0.979353
O O16 0.250000 0.179450 0.899864
#
# Coordination Sequence:
#
# PCOD8241106 Si02
#       6
#     8   8   8   8   8   8
#     4   9  17  30  49  71  94 122 156 192 230 274
#     4   9  17  30  48  70  94 123 159 194 231 280
#     4  10  19  32  50  71  95 124 159 200 244 287
#     4   9  17  31  50  71  96 126 159 194 234 282
#     4   9  18  32  50  71  96 125 157 195 239 286
#     4   9  17  29  47  69  93 122 156 192 228 271
#
# _framework density 17.717162999999999
#
# number of rings (size 3 to 8) (size 9 to 14) (size 15 to 20)
#    0.000    2.833    0.000    1.500    0.000    5.667 
#    0.000    1.667    0.000    3.000    0.000    0.000 
#    0.000    0.000    0.000    0.000    0.000    0.000 
#
# Total GULP energy -595171.202231 kJ/mol
# GULP energy per Si atom -12399.400046 kJ/mol
# Density = 1.767684 g / cm^3
# Si number density = 17.717163 Si / 1000 Ang^3
#
#
#
# Elastic Constant Matrix: (Units=GPa)
#
#
# Indices 1 2 3 4 5 6 
#
# 1 92.2889 26.5336 49.5249 0.0000 0.0000 0.0000
# 2 26.5336 42.8117 19.2245 0.0000 0.0000 0.0000
# 3 49.5249 19.2245 124.3429 0.0000 0.0000 0.0000
# 4 0.0000 0.0000 0.0000 16.5990 0.0000 0.0000
# 5 0.0000 0.0000 0.0000 0.0000 22.6446 0.0000
# 6 0.0000 0.0000 0.0000 0.0000 0.0000 23.5577
#
#
#
# Elastic Compliance Matrix: (Units=1/GPa)
#
#
# Indices 1 2 3 4 5 6 
#
# 1 0.015718 -0.007448 -0.005109 0.000000 0.000000 0.000000
# 2 -0.007448 0.028630 -0.001460 0.000000 0.000000 0.000000
# 3 -0.005109 -0.001460 0.010303 0.000000 0.000000 0.000000
# 4 0.000000 0.000000 0.000000 0.060245 0.000000 0.000000
# 5 0.000000 0.000000 0.000000 0.000000 0.044161 0.000000
# 6 0.000000 0.000000 0.000000 0.000000 0.000000 0.042449
#
#
# Mechanical properties :
#
#
# Convention : Reuss Voigt Hill
#
# Bulk Modulus (GPa) = 37.56937 50.00105 43.78521
# Shear Modulus (GPa) = 20.97216 23.50429 22.23822
#
# Velocity S-wave (km/s) = 3.44426 3.64626 3.54669
# Velocity P-wave (km/s) = 6.08837 6.78307 6.44509
#
# Compressibility (1/GPa) = 0.02661743
#
# Stress axis : x y z
#
# Youngs Moduli (GPa) = 63.61941 34.92886 97.05984
#
# Poissons Ratio (x) = 0.26014 0.49589
# Poissons Ratio (y) = 0.47382 0.14171
# Poissons Ratio (z) = 0.32504 0.05100
#
# Static dielectric constant tensor:
#      x y z
#    x 3.437860 0.000000 0.000000 
#    y 0.000000 3.086320 0.000000 
#    z 0.000000 0.000000 3.346400 
# 
# 
# High freq. dielectric constant tensor:
#      x y z
#    x 1.691590 0.000000 0.000000 
#    y 0.000000 1.660510 0.000000 
#    z 0.000000 0.000000 1.677770 
# 
# From -- ./inp_files/6268.got.cif
#   From: 2010.03.12/outbox.cif.g09.slc.cpg/sg59_4_cif.got.tgz:6268.got - 2010.04.16 16:29:54.
