data_PCOD8241334
_publ_section_title
;
Structure prediction by ZEFSAII (Michael W. Deem and Ramdas Pophale) SiO2 
 PCOD8241334
Probable space group: P M M N
;
_chemical_formula_sum "Si O2"
_cell_formula_units_Z 64
_cell_length_a 21.035129
_cell_length_b 8.538079
_cell_length_c 17.740397
_cell_angle_alpha 90.000000
_cell_angle_beta 90.000000
_cell_angle_gamma 90.000000
_cell_volume 3186.168084
_symmetry_space_group_name_H-M "P M M N"
_symmetry_group_IT_number 59
_space_group.IT_coordinate_system_code '2'
_symmetry_cell_setting 'orthorhombic'
loop_
_space_group_symop_operation_xyz
x,y,z
1/2-x,1/2-y,z
1/2+x,-y,-z
-x,1/2+y,-z
-x,-y,-z
1/2+x,1/2+y,-z
1/2-x,y,z
x,1/2-y,z
loop_
_atom_site_type_symbol
_atom_site_label
_atom_site_fract_x
_atom_site_fract_y
_atom_site_fract_z
Si Si1 0.569338 0.565047 0.920729
Si Si2 0.634350 0.933723 0.647095
Si Si3 0.379591 0.070050 0.651099
Si Si4 0.425860 0.568474 0.915668
Si Si5 0.511609 0.070052 0.583455
Si Si6 0.321257 0.077073 0.506131
Si Si7 0.321632 0.436283 0.193549
Si Si8 0.677545 0.564673 0.195134
O O1 0.574392 0.750000 0.936272
O O2 0.498206 0.524506 0.889338
O O3 0.624226 0.504496 0.864108
O O4 0.581903 0.472837 0.997161
O O5 0.646625 0.750000 0.653976
O O6 0.671887 0.006958 0.574934
O O7 0.660464 0.008637 0.724537
O O8 0.561603 0.970749 0.631003
O O9 0.356367 0.250000 0.650169
O O10 0.454667 0.056326 0.643280
O O11 0.353519 0.983887 0.575264
O O12 0.351613 0.992408 0.727162
O O13 0.413202 0.750000 0.903077
O O14 0.370822 0.478682 0.871090
O O15 0.532308 0.250000 0.572560
O O16 0.500000 0.000000 0.500000
O O17 0.250000 0.096479 0.530222
O O18 0.354168 0.250000 0.498608
O O19 0.250000 0.492463 0.170913
O O20 0.323688 0.250000 0.195652
O O21 0.750000 0.501069 0.181922
O O22 0.679485 0.750000 0.199704
#
# Coordination Sequence:
#
# PCOD8241334 Si02
#       8
#     8   8   8   8   8   8   8   8
#     4   9  19  37  59  84 115 150 189 228 270 327
#     4  10  19  32  52  80 110 139 177 224 274 326
#     4   9  18  32  50  77 106 135 179 229 270 317
#     4  10  21  37  58  85 116 148 182 226 280 336
#     4  11  21  35  53  77 106 141 184 230 279 329
#     4   9  15  26  48  74 100 134 177 223 264 304
#     4   9  18  33  56  86 114 142 184 233 274 321
#     4  10  21  37  58  83 110 143 186 234 281 333
#
# _framework density 20.086825000000001
#
# number of rings (size 3 to 8) (size 9 to 14) (size 15 to 20)
#    0.000    2.375    1.250    1.500    1.750    4.250 
#    0.000    2.500    0.000    2.250    0.000    0.000 
#    0.000    0.000    0.000    0.000    0.000    0.000 
#
# Total GULP energy -792856.383476 kJ/mol
# GULP energy per Si atom -12388.380992 kJ/mol
# Density = 2.004111 g / cm^3
# Si number density = 20.086825 Si / 1000 Ang^3
#
#
#
# Elastic Constant Matrix: (Units=GPa)
#
#
# Indices 1 2 3 4 5 6 
#
# 1 143.4515 6.4866 65.8887 0.0000 0.0000 0.0000
# 2 6.4866 11.6443 3.9138 0.0000 0.0000 0.0000
# 3 65.8887 3.9138 103.8650 0.0000 0.0000 0.0000
# 4 0.0000 0.0000 0.0000 13.6891 0.0000 0.0000
# 5 0.0000 0.0000 0.0000 0.0000 37.5476 0.0000
# 6 0.0000 0.0000 0.0000 0.0000 0.0000 23.8281
#
#
#
# Elastic Compliance Matrix: (Units=1/GPa)
#
#
# Indices 1 2 3 4 5 6 
#
# 1 0.009974 -0.003474 -0.006196 0.000000 0.000000 0.000000
# 2 -0.003474 0.088190 -0.001120 0.000000 0.000000 0.000000
# 3 -0.006196 -0.001120 0.013601 0.000000 0.000000 0.000000
# 4 0.000000 0.000000 0.000000 0.073051 0.000000 0.000000
# 5 0.000000 0.000000 0.000000 0.000000 0.026633 0.000000
# 6 0.000000 0.000000 0.000000 0.000000 0.000000 0.041967
#
#
# Mechanical properties :
#
#
# Convention : Reuss Voigt Hill
#
# Bulk Modulus (GPa) = 11.08818 45.72655 28.40737
# Shear Modulus (GPa) = 16.39035 27.19106 21.79071
#
# Velocity S-wave (km/s) = 2.85963 3.68323 3.29724
# Velocity P-wave (km/s) = 4.05406 6.39547 5.35432
#
# Compressibility (1/GPa) = 0.09018609
#
# Stress axis : x y z
#
# Youngs Moduli (GPa) = 100.25943 11.33913 73.52473
#
# Poissons Ratio (x) = 0.03939 0.45559
# Poissons Ratio (y) = 0.34825 0.08232
# Poissons Ratio (z) = 0.62125 0.01270
#
# Static dielectric constant tensor:
#      x y z
#    x 3.887830 0.000000 0.000000 
#    y 0.000000 3.229070 0.000000 
#    z 0.000000 0.000000 3.867230 
# 
# 
# High freq. dielectric constant tensor:
#      x y z
#    x 1.797890 0.000000 0.000000 
#    y 0.000000 1.730540 0.000000 
#    z 0.000000 0.000000 1.790850 
# 
# From -- ./inp_files/28280.got.cif
#   From: 2010.03.12/outbox.cif.g09.slc.cpg/sg59_15_cif.got.tgz:28280.got - 2010.04.16 16:29:54.
