data_PCOD8241447
_publ_section_title
;
Structure prediction by ZEFSAII (Michael W. Deem and Ramdas Pophale) SiO2 
 PCOD8241447
Probable space group: P M M N
;
_chemical_formula_sum "Si O2"
_cell_formula_units_Z 64
_cell_length_a 8.631656
_cell_length_b 29.218638
_cell_length_c 12.416509
_cell_angle_alpha 90.000000
_cell_angle_beta 90.000000
_cell_angle_gamma 90.000000
_cell_volume 3131.508533
_symmetry_space_group_name_H-M "P M M N"
_symmetry_group_IT_number 59
_space_group.IT_coordinate_system_code '2'
_symmetry_cell_setting 'orthorhombic'
loop_
_space_group_symop_operation_xyz
x,y,z
1/2-x,1/2-y,z
1/2+x,-y,-z
-x,1/2+y,-z
-x,-y,-z
1/2+x,1/2+y,-z
1/2-x,y,z
x,1/2-y,z
loop_
_atom_site_type_symbol
_atom_site_label
_atom_site_fract_x
_atom_site_fract_y
_atom_site_fract_z
Si Si1 0.929420 0.656700 0.487564
Si Si2 0.072289 0.937068 0.510919
Si Si3 0.069688 0.200071 0.292034
Si Si4 0.570539 0.999409 0.679779
Si Si5 0.428771 0.802838 0.044780
Si Si6 0.432007 0.972169 0.899540
Si Si7 0.431509 0.370656 0.119915
Si Si8 0.078659 0.303130 0.737089
O O1 0.750000 0.640625 0.486680
O O2 0.957504 0.693676 0.581001
O O3 0.982556 0.676061 0.373587
O O4 0.047537 0.616332 0.510375
O O5 0.250000 0.949942 0.535232
O O6 0.965904 0.955192 0.607595
O O7 0.023079 0.957092 0.393862
O O8 0.250000 0.201513 0.263940
O O9 0.997021 0.250000 0.260559
O O10 0.000183 0.157502 0.223289
O O11 0.750000 0.999441 0.711632
O O12 0.474772 0.999203 0.790336
O O13 0.250000 0.811238 0.016415
O O14 0.476890 0.750000 0.020874
O O15 0.456634 0.814792 0.169739
O O16 0.536390 0.837687 0.980549
O O17 0.250000 0.971463 0.913718
O O18 0.488390 0.919706 0.893628
O O19 0.500000 0.000000 0.000000
O O20 0.250000 0.380510 0.130735
O O21 0.250000 0.322165 0.767292
O O22 0.090733 0.250000 0.716548
#
# Coordination Sequence:
#
# PCOD8241447 Si02
#       8
#     8   8   8   8   8   8   8   8
#     4  10  19  32  54  83 115 149 187 233 284 342
#     4  10  21  36  58  86 115 150 190 237 290 343
#     4   9  18  33  56  87 120 154 192 235 284 341
#     4  10  21  40  62  84 113 149 192 238 287 346
#     4  10  21  37  57  82 115 155 199 249 302 354
#     4  12  26  44  65  89 120 156 196 246 305 367
#     4  11  22  38  62  89 117 153 198 246 298 359
#     4   9  18  33  53  77 107 146 191 236 283 340
#
# _framework density 20.437434
#
# number of rings (size 3 to 8) (size 9 to 14) (size 15 to 20)
#    0.000    1.875    0.000    4.125    0.000    6.750 
#    0.000    3.125    0.000    2.625    0.000    0.000 
#    0.000    0.000    0.000    0.000    0.000    0.000 
#
# Total GULP energy -793438.666988 kJ/mol
# GULP energy per Si atom -12397.479172 kJ/mol
# Density = 2.039092 g / cm^3
# Si number density = 20.437434 Si / 1000 Ang^3
#
#
#
# Elastic Constant Matrix: (Units=GPa)
#
#
# Indices 1 2 3 4 5 6 
#
# 1 72.2673 28.8964 28.8621 0.0000 0.0000 0.0000
# 2 28.8964 86.7946 49.8897 0.0000 0.0000 0.0000
# 3 28.8621 49.8897 102.9585 0.0000 0.0000 0.0000
# 4 0.0000 0.0000 0.0000 16.8512 0.0000 0.0000
# 5 0.0000 0.0000 0.0000 0.0000 23.8079 0.0000
# 6 0.0000 0.0000 0.0000 0.0000 0.0000 25.1201
#
#
#
# Elastic Compliance Matrix: (Units=1/GPa)
#
#
# Indices 1 2 3 4 5 6 
#
# 1 0.016495 -0.003928 -0.002721 0.000000 0.000000 0.000000
# 2 -0.003928 0.016905 -0.007090 0.000000 0.000000 0.000000
# 3 -0.002721 -0.007090 0.013911 0.000000 0.000000 0.000000
# 4 0.000000 0.000000 0.000000 0.059343 0.000000 0.000000
# 5 0.000000 0.000000 0.000000 0.000000 0.042003 0.000000
# 6 0.000000 0.000000 0.000000 0.000000 0.000000 0.039809
#
#
# Mechanical properties :
#
#
# Convention : Reuss Voigt Hill
#
# Bulk Modulus (GPa) = 50.42120 53.03520 51.72820
# Shear Modulus (GPa) = 22.46657 23.44734 22.95696
#
# Velocity S-wave (km/s) = 3.31914 3.39082 3.35517
# Velocity P-wave (km/s) = 6.27802 6.42935 6.35414
#
# Compressibility (1/GPa) = 0.01983293
#
# Stress axis : x y z
#
# Youngs Moduli (GPa) = 60.62586 59.15559 71.88557
#
# Poissons Ratio (x) = 0.23234 0.19558
# Poissons Ratio (y) = 0.23812 0.50969
# Poissons Ratio (z) = 0.16494 0.41943
#
# Static dielectric constant tensor:
#      x y z
#    x 3.533850 0.000000 0.000000 
#    y 0.000000 3.695810 0.000000 
#    z 0.000000 0.000000 3.863550 
# 
# 
# High freq. dielectric constant tensor:
#      x y z
#    x 1.784350 0.000000 0.000000 
#    y 0.000000 1.796590 0.000000 
#    z 0.000000 0.000000 1.809640 
# 
# From -- ./inp_files/14990.got.cif
#   From: 2010.03.12/outbox.cif.g09.slc.cpg/sg59_8_cif.got.tgz:14990.got - 2010.04.16 16:29:54.
