data_PCOD8241082
_publ_section_title
;
Structure prediction by ZEFSAII (Michael W. Deem and Ramdas Pophale) SiO2 
 PCOD8241082
Probable space group: P M M N
;
_chemical_formula_sum "Si O2"
_cell_formula_units_Z 64
_cell_length_a 13.488065
_cell_length_b 10.159058
_cell_length_c 26.021842
_cell_angle_alpha 90.000000
_cell_angle_beta 90.000000
_cell_angle_gamma 90.000000
_cell_volume 3565.669823
_symmetry_space_group_name_H-M "P M M N"
_symmetry_group_IT_number 59
_space_group.IT_coordinate_system_code '2'
_symmetry_cell_setting 'orthorhombic'
loop_
_space_group_symop_operation_xyz
x,y,z
1/2-x,1/2-y,z
1/2+x,-y,-z
-x,1/2+y,-z
-x,-y,-z
1/2+x,1/2+y,-z
1/2-x,y,z
x,1/2-y,z
loop_
_atom_site_type_symbol
_atom_site_label
_atom_site_fract_x
_atom_site_fract_y
_atom_site_fract_z
Si Si1 0.138689 0.406150 0.172473
Si Si2 0.362404 0.607745 0.356024
Si Si3 0.365949 0.400430 0.969981
Si Si4 0.860525 0.528408 0.540789
Si Si5 0.142110 0.904182 0.668141
Si Si6 0.928446 0.105703 0.439854
Si Si7 0.951996 0.904237 0.720883
Si Si8 0.981854 0.597643 0.926260
O O1 0.250000 0.464722 0.168892
O O2 0.143901 0.250000 0.172126
O O3 0.086991 0.456864 0.224604
O O4 0.073383 0.454134 0.124611
O O5 0.250000 0.615600 0.338041
O O6 0.413427 0.750000 0.343491
O O7 0.369585 0.587952 0.417404
O O8 0.406165 0.484824 0.325701
O O9 0.250000 0.434418 0.968205
O O10 0.385528 0.250000 0.951604
O O11 0.422980 0.503801 0.933637
O O12 0.403400 0.418560 0.027993
O O13 0.750000 0.594660 0.545069
O O14 0.873730 0.477214 0.483200
O O15 0.952856 0.623952 0.552240
O O16 0.250000 0.967892 0.679352
O O17 0.152804 0.750000 0.660073
O O18 0.095470 0.962568 0.615263
O O19 0.070336 0.930233 0.716914
O O20 0.881185 0.250000 0.441792
O O21 0.925679 0.750000 0.712892
O O22 0.016915 0.750000 0.921388
#
# Coordination Sequence:
#
# PCOD8241082 Si02
#       8
#     8   8   8   8   8   8   8   8
#     4   9  17  30  50  75 103 133 165 206 256 302
#     4  10  20  33  49  71 100 131 159 193 244 301
#     4   9  17  30  49  73 104 141 176 211 254 302
#     4  10  20  32  48  70  95 125 158 193 238 296
#     4   9  17  30  49  71  94 121 156 200 246 290
#     4  10  19  32  49  70  94 122 158 199 242 292
#     4  10  19  33  52  76  99 126 167 210 248 289
#     4   9  17  30  49  74 102 135 178 217 250 295
#
# _framework density 17.948941999999999
#
# number of rings (size 3 to 8) (size 9 to 14) (size 15 to 20)
#    0.000    2.500    1.250    1.500    0.000    4.000 
#    0.000    2.500    0.000    4.500    0.000    0.000 
#    0.000    0.000    0.000    0.000    0.000    0.000 
#
# Total GULP energy -792979.957479 kJ/mol
# GULP energy per Si atom -12390.311836 kJ/mol
# Density = 1.790809 g / cm^3
# Si number density = 17.948942 Si / 1000 Ang^3
#
#
#
# Elastic Constant Matrix: (Units=GPa)
#
#
# Indices 1 2 3 4 5 6 
#
# 1 133.3752 34.0524 56.4745 0.0000 0.0000 0.0000
# 2 34.0524 59.1845 31.7739 0.0000 0.0000 0.0000
# 3 56.4745 31.7739 102.0882 0.0000 0.0000 0.0000
# 4 0.0000 0.0000 0.0000 16.8715 0.0000 0.0000
# 5 0.0000 0.0000 0.0000 0.0000 27.1090 0.0000
# 6 0.0000 0.0000 0.0000 0.0000 0.0000 16.3221
#
#
#
# Elastic Compliance Matrix: (Units=1/GPa)
#
#
# Indices 1 2 3 4 5 6 
#
# 1 0.010349 -0.003459 -0.004648 0.000000 0.000000 0.000000
# 2 -0.003459 0.021442 -0.004760 0.000000 0.000000 0.000000
# 3 -0.004648 -0.004760 0.013849 0.000000 0.000000 0.000000
# 4 0.000000 0.000000 0.000000 0.059272 0.000000 0.000000
# 5 0.000000 0.000000 0.000000 0.000000 0.036888 0.000000
# 6 0.000000 0.000000 0.000000 0.000000 0.000000 0.061267
#
#
# Mechanical properties :
#
#
# Convention : Reuss Voigt Hill
#
# Bulk Modulus (GPa) = 50.23989 59.91660 55.07825
# Shear Modulus (GPa) = 21.23721 23.55032 22.39377
#
# Velocity S-wave (km/s) = 3.44350 3.62618 3.53602
# Velocity P-wave (km/s) = 6.62280 7.14048 6.88651
#
# Compressibility (1/GPa) = 0.01990450
#
# Stress axis : x y z
#
# Youngs Moduli (GPa) = 96.62752 46.63756 72.20986
#
# Poissons Ratio (x) = 0.16131 0.33567
# Poissons Ratio (y) = 0.33422 0.34373
# Poissons Ratio (z) = 0.44917 0.22200
#
# Static dielectric constant tensor:
#      x y z
#    x 3.624160 0.000000 0.000000 
#    y 0.000000 3.072140 0.000000 
#    z 0.000000 0.000000 3.289870 
# 
# 
# High freq. dielectric constant tensor:
#      x y z
#    x 1.702280 0.000000 0.000000 
#    y 0.000000 1.657330 0.000000 
#    z 0.000000 0.000000 1.683680 
# 
# From -- ./inp_files/31981.got.cif
#   From: 2010.03.12/outbox.cif.g09.slc.cpg/sg59_16_cif.got.tgz:31981.got - 2010.04.16 16:29:54.
