data_PCOD8241715
_publ_section_title
;
Structure prediction by ZEFSAII (Michael W. Deem and Ramdas Pophale) SiO2 
 PCOD8241715
Probable space group: P M M N
;
_chemical_formula_sum "Si O2"
_cell_formula_units_Z 40
_cell_length_a 18.090756
_cell_length_b 8.856300
_cell_length_c 13.551450
_cell_angle_alpha 90.000000
_cell_angle_beta 90.000000
_cell_angle_gamma 90.000000
_cell_volume 2171.174865
_symmetry_space_group_name_H-M "P M M N"
_symmetry_group_IT_number 59
_space_group.IT_coordinate_system_code '2'
_symmetry_cell_setting 'orthorhombic'
loop_
_space_group_symop_operation_xyz
x,y,z
1/2-x,1/2-y,z
1/2+x,-y,-z
-x,1/2+y,-z
-x,-y,-z
1/2+x,1/2+y,-z
1/2-x,y,z
x,1/2-y,z
loop_
_atom_site_type_symbol
_atom_site_label
_atom_site_fract_x
_atom_site_fract_y
_atom_site_fract_z
Si Si1 0.457774 0.571548 0.300683
Si Si2 0.968638 0.573138 0.097376
Si Si3 0.405317 0.573971 0.607238
Si Si4 0.666327 0.424720 0.186024
Si Si5 0.664244 0.926122 0.582557
O O1 0.448780 0.750000 0.310453
O O2 0.482218 0.522124 0.191024
O O3 0.517956 0.515881 0.380587
O O4 0.380319 0.489779 0.323212
O O5 0.970086 0.750000 0.083882
O O6 0.884544 0.520920 0.112906
O O7 0.000000 0.500000 0.000000
O O8 0.423694 0.750000 0.594277
O O9 0.353132 0.542669 0.700612
O O10 0.361060 0.515517 0.513704
O O11 0.750000 0.476351 0.167330
O O12 0.654596 0.250000 0.160487
O O13 0.750000 0.957903 0.602796
O O14 0.648122 0.750000 0.567782
#
# Coordination Sequence:
#
# PCOD8241715 Si02
#       5
#     8   8   8   8   8
#     4  10  21  37  56  78 104 136 176 218 261 311
#     4  10  21  37  58  81 104 135 174 217 266 316
#     4  10  19  33  55  80 108 142 177 213 257 309
#     4   9  18  33  54  81 110 138 171 214 262 310
#     4  11  23  36  51  75 108 144 180 218 259 304
#
# _framework density 18.423204999999999
#
# number of rings (size 3 to 8) (size 9 to 14) (size 15 to 20)
#    0.000    2.000    0.000    3.600    0.000    6.000 
#    0.000    1.000    0.000    1.200    0.000    0.000 
#    0.000    0.000    0.000    0.000    0.000    0.000 
#
# Total GULP energy -496173.292917 kJ/mol
# GULP energy per Si atom -12404.332323 kJ/mol
# Density = 1.838127 g / cm^3
# Si number density = 18.423205 Si / 1000 Ang^3
#
#
#
# Elastic Constant Matrix: (Units=GPa)
#
#
# Indices 1 2 3 4 5 6 
#
# 1 130.4632 41.6925 61.3212 0.0000 0.0000 0.0000
# 2 41.6925 57.4712 35.1518 0.0000 0.0000 0.0000
# 3 61.3212 35.1518 96.1052 0.0000 0.0000 0.0000
# 4 0.0000 0.0000 0.0000 31.4101 0.0000 0.0000
# 5 0.0000 0.0000 0.0000 0.0000 23.5345 0.0000
# 6 0.0000 0.0000 0.0000 0.0000 0.0000 34.5926
#
#
#
# Elastic Compliance Matrix: (Units=1/GPa)
#
#
# Indices 1 2 3 4 5 6 
#
# 1 0.012045 -0.005201 -0.005783 0.000000 0.000000 0.000000
# 2 -0.005201 0.024660 -0.005701 0.000000 0.000000 0.000000
# 3 -0.005783 -0.005701 0.016181 0.000000 0.000000 0.000000
# 4 0.000000 0.000000 0.000000 0.031837 0.000000 0.000000
# 5 0.000000 0.000000 0.000000 0.000000 0.042491 0.000000
# 6 0.000000 0.000000 0.000000 0.000000 0.000000 0.028908
#
#
# Mechanical properties :
#
#
# Convention : Reuss Voigt Hill
#
# Bulk Modulus (GPa) = 51.24238 62.26339 56.75289
# Shear Modulus (GPa) = 25.51040 27.63237 26.57139
#
# Velocity S-wave (km/s) = 3.72518 3.87701 3.80185
# Velocity P-wave (km/s) = 6.81007 7.34242 7.08125
#
# Compressibility (1/GPa) = 0.01951510
#
# Stress axis : x y z
#
# Youngs Moduli (GPa) = 83.01883 40.55122 61.80170
#
# Poissons Ratio (x) = 0.21091 0.35743
# Poissons Ratio (y) = 0.43178 0.35235
# Poissons Ratio (z) = 0.48014 0.23119
#
# Static dielectric constant tensor:
#      x y z
#    x 2.620370 0.000000 0.000000 
#    y 0.000000 3.491520 0.000000 
#    z 0.000000 0.000000 3.305720 
# 
# 
# High freq. dielectric constant tensor:
#      x y z
#    x 1.718100 0.000000 0.000000 
#    y 0.000000 1.726860 0.000000 
#    z 0.000000 0.000000 1.702230 
# 
# From -- ./inp_files/13875.got.cif
#   From: 2010.03.12/outbox.cif.g09.slc.cpg/sg59_7_cif.got.tgz:13875.got - 2010.04.16 16:29:54.
