data_PCOD8241126
_publ_section_title
;
Structure prediction by ZEFSAII (Michael W. Deem and Ramdas Pophale) SiO2 
 PCOD8241126
Probable space group: P M M N
;
_chemical_formula_sum "Si O2"
_cell_formula_units_Z 64
_cell_length_a 23.881333
_cell_length_b 9.255366
_cell_length_c 16.234098
_cell_angle_alpha 90.000000
_cell_angle_beta 90.000000
_cell_angle_gamma 90.000000
_cell_volume 3588.230432
_symmetry_space_group_name_H-M "P M M N"
_symmetry_group_IT_number 59
_space_group.IT_coordinate_system_code '2'
_symmetry_cell_setting 'orthorhombic'
loop_
_space_group_symop_operation_xyz
x,y,z
1/2-x,1/2-y,z
1/2+x,-y,-z
-x,1/2+y,-z
-x,-y,-z
1/2+x,1/2+y,-z
1/2-x,y,z
x,1/2-y,z
loop_
_atom_site_type_symbol
_atom_site_label
_atom_site_fract_x
_atom_site_fract_y
_atom_site_fract_z
Si Si1 0.606835 0.582420 0.120898
Si Si2 0.812058 0.579413 0.981329
Si Si3 0.393543 0.588086 0.634904
Si Si4 0.085746 0.577626 0.286680
Si Si5 0.185314 0.417507 0.207184
Si Si6 0.020508 0.578387 0.774082
Si Si7 0.311432 0.085287 0.729270
Si Si8 0.448356 0.912775 0.467053
O O1 0.587921 0.750000 0.112948
O O2 0.553561 0.484711 0.146252
O O3 0.654174 0.561927 0.188574
O O4 0.636616 0.521589 0.037819
O O5 0.750000 0.517034 0.005240
O O6 0.808971 0.750000 0.993736
O O7 0.825756 0.539339 0.887508
O O8 0.380518 0.750000 0.663096
O O9 0.447166 0.536585 0.689237
O O10 0.339360 0.494027 0.652558
O O11 0.401564 0.576118 0.537395
O O12 0.082887 0.750000 0.275074
O O13 0.146952 0.520020 0.262889
O O14 0.076138 0.528968 0.381321
O O15 0.039467 0.500143 0.229505
O O16 0.250000 0.445716 0.230527
O O17 0.169898 0.250000 0.222077
O O18 0.012212 0.750000 0.784851
O O19 0.250000 0.020643 0.744603
O O20 0.308276 0.250000 0.703031
O O21 0.469392 0.750000 0.454762
O O22 0.500000 0.000000 0.500000
#
# Coordination Sequence:
#
# PCOD8241126 Si02
#       8
#     8   8   8   8   8   8   8   8
#     4   9  16  28  49  76 105 133 168 213 256 299
#     4   8  14  28  53  80 102 131 174 219 259 302
#     4   9  18  32  48  69  97 129 164 203 247 294
#     4  11  22  35  55  80 104 132 170 214 261 310
#     4   9  19  37  59  80 103 134 173 214 258 307
#     4  10  19  32  50  73 105 139 169 205 252 308
#     4   9  17  28  44  69 101 135 167 200 242 293
#     4  10  20  34  53  77 101 127 166 210 253 303
#
# _framework density 17.836089000000001
#
# number of rings (size 3 to 8) (size 9 to 14) (size 15 to 20)
#    0.000    2.625    1.250    1.875    0.000    3.500 
#    0.000    1.875    0.000    5.625    0.000    0.000 
#    0.000    0.000    0.000    0.000    0.000    0.000 
#
# Total GULP energy -793343.397269 kJ/mol
# GULP energy per Si atom -12395.990582 kJ/mol
# Density = 1.779549 g / cm^3
# Si number density = 17.836089 Si / 1000 Ang^3
#
#
#
# Elastic Constant Matrix: (Units=GPa)
#
#
# Indices 1 2 3 4 5 6 
#
# 1 103.0944 50.6607 48.0036 0.0000 0.0000 0.0000
# 2 50.6607 66.2418 38.0735 0.0000 0.0000 0.0000
# 3 48.0036 38.0735 90.3138 0.0000 0.0000 0.0000
# 4 0.0000 0.0000 0.0000 22.4986 0.0000 0.0000
# 5 0.0000 0.0000 0.0000 0.0000 19.2473 0.0000
# 6 0.0000 0.0000 0.0000 0.0000 0.0000 31.1886
#
#
#
# Elastic Compliance Matrix: (Units=1/GPa)
#
#
# Indices 1 2 3 4 5 6 
#
# 1 0.016910 -0.010250 -0.004667 0.000000 0.000000 0.000000
# 2 -0.010250 0.026137 -0.005570 0.000000 0.000000 0.000000
# 3 -0.004667 -0.005570 0.015901 0.000000 0.000000 0.000000
# 4 0.000000 0.000000 0.000000 0.044447 0.000000 0.000000
# 5 0.000000 0.000000 0.000000 0.000000 0.051955 0.000000
# 6 0.000000 0.000000 0.000000 0.000000 0.000000 0.032063
#
#
# Mechanical properties :
#
#
# Convention : Reuss Voigt Hill
#
# Bulk Modulus (GPa) = 55.63729 59.23618 57.43673
# Shear Modulus (GPa) = 21.33296 22.78104 22.05700
#
# Velocity S-wave (km/s) = 3.46216 3.57773 3.52042
# Velocity P-wave (km/s) = 6.87338 7.09580 6.98548
#
# Compressibility (1/GPa) = 0.01797356
#
# Stress axis : x y z
#
# Youngs Moduli (GPa) = 59.13774 38.26003 62.88783
#
# Poissons Ratio (x) = 0.39216 0.29348
# Poissons Ratio (y) = 0.60616 0.35031
# Poissons Ratio (z) = 0.27598 0.21313
#
# Static dielectric constant tensor:
#      x y z
#    x 3.374420 0.000000 0.000000 
#    y 0.000000 3.213450 0.000000 
#    z 0.000000 0.000000 3.432720 
# 
# 
# High freq. dielectric constant tensor:
#      x y z
#    x 1.684270 0.000000 0.000000 
#    y 0.000000 1.675780 0.000000 
#    z 0.000000 0.000000 1.681310 
# 
# From -- ./inp_files/24777.got.cif
#   From: 2010.03.12/outbox.cif.g09.slc.cpg/sg59_13_cif.got.tgz:24777.got - 2010.04.16 16:29:54.
