data_PCOD8241298
_publ_section_title
;
Structure prediction by ZEFSAII (Michael W. Deem and Ramdas Pophale) SiO2 
 PCOD8241298
Probable space group: P M M N
;
_chemical_formula_sum "Si O2"
_cell_formula_units_Z 64
_cell_length_a 22.168173
_cell_length_b 18.401801
_cell_length_c 7.974251
_cell_angle_alpha 90.000000
_cell_angle_beta 90.000000
_cell_angle_gamma 90.000000
_cell_volume 3252.970564
_symmetry_space_group_name_H-M "P M M N"
_symmetry_group_IT_number 59
_space_group.IT_coordinate_system_code '2'
_symmetry_cell_setting 'orthorhombic'
loop_
_space_group_symop_operation_xyz
x,y,z
1/2-x,1/2-y,z
1/2+x,-y,-z
-x,1/2+y,-z
-x,-y,-z
1/2+x,1/2+y,-z
1/2-x,y,z
x,1/2-y,z
loop_
_atom_site_type_symbol
_atom_site_label
_atom_site_fract_x
_atom_site_fract_y
_atom_site_fract_z
Si Si1 0.592919 0.965503 0.732632
Si Si2 0.317772 0.599049 0.750030
Si Si3 0.566349 0.833796 0.950118
Si Si4 0.987094 0.549184 0.160096
Si Si5 0.682820 0.831035 0.155864
Si Si6 0.178195 0.569087 0.113371
Si Si7 0.632547 0.544231 0.358289
Si Si8 0.321786 0.830763 0.420556
O O1 0.562698 0.889036 0.791897
O O2 0.621927 0.952871 0.554424
O O3 0.544337 0.032447 0.720560
O O4 0.645298 0.991236 0.863086
O O5 0.250000 0.627530 0.764230
O O6 0.318244 0.515971 0.689311
O O7 0.350260 0.645577 0.601720
O O8 0.345461 0.605488 0.938331
O O9 0.546720 0.750000 0.909276
O O10 0.522884 0.866957 0.097973
O O11 0.636407 0.836348 0.002156
O O12 0.928020 0.523743 0.258758
O O13 0.000000 0.500000 0.000000
O O14 0.750000 0.853604 0.093609
O O15 0.683418 0.750000 0.228968
O O16 0.660662 0.879013 0.310542
O O17 0.250000 0.556599 0.106517
O O18 0.156514 0.618924 0.268003
O O19 0.250000 0.835579 0.431869
O O20 0.344340 0.750000 0.380610
#
# Coordination Sequence:
#
# PCOD8241298 Si02
#       8
#     8   8   8   8   8   8   8   8
#     4  11  21  34  55  82 110 143 184 233 279 339
#     4  10  19  32  52  77 107 143 183 222 271 329
#     4   9  19  36  57  79 107 143 186 234 280 333
#     4   9  19  36  56  78 101 137 187 226 278 331
#     4   9  18  33  52  77 111 151 191 228 272 326
#     4  10  20  34  54  82 113 149 188 228 276 335
#     4  11  20  32  54  80 110 144 183 232 278 328
#     4   9  18  33  51  74 105 138 177 225 274 329
#
# _framework density 19.674326000000001
#
# number of rings (size 3 to 8) (size 9 to 14) (size 15 to 20)
#    0.000    2.250    1.250    3.000    0.000    3.000 
#    0.000    3.125    0.000    7.500    0.000    0.000 
#    0.000    0.000    0.000    0.000    0.000    0.000 
#
# Total GULP energy -792895.395979 kJ/mol
# GULP energy per Si atom -12388.990562 kJ/mol
# Density = 1.962955 g / cm^3
# Si number density = 19.674326 Si / 1000 Ang^3
#
#
#
# Elastic Constant Matrix: (Units=GPa)
#
#
# Indices 1 2 3 4 5 6 
#
# 1 57.9096 20.7309 1.1422 0.0000 0.0000 0.0000
# 2 20.7309 103.4673 35.7158 0.0000 0.0000 0.0000
# 3 1.1422 35.7158 110.0318 0.0000 0.0000 0.0000
# 4 0.0000 0.0000 0.0000 26.8790 0.0000 0.0000
# 5 0.0000 0.0000 0.0000 0.0000 22.4185 0.0000
# 6 0.0000 0.0000 0.0000 0.0000 0.0000 24.7969
#
#
#
# Elastic Compliance Matrix: (Units=1/GPa)
#
#
# Indices 1 2 3 4 5 6 
#
# 1 0.018732 -0.004151 0.001153 0.000000 0.000000 0.000000
# 2 -0.004151 0.011804 -0.003789 0.000000 0.000000 0.000000
# 3 0.001153 -0.003789 0.010306 0.000000 0.000000 0.000000
# 4 0.000000 0.000000 0.000000 0.037204 0.000000 0.000000
# 5 0.000000 0.000000 0.000000 0.000000 0.044606 0.000000
# 6 0.000000 0.000000 0.000000 0.000000 0.000000 0.040328
#
#
# Mechanical properties :
#
#
# Convention : Reuss Voigt Hill
#
# Bulk Modulus (GPa) = 36.67211 42.95407 39.81309
# Shear Modulus (GPa) = 26.93350 29.07352 28.00351
#
# Velocity S-wave (km/s) = 3.70397 3.84831 3.77683
# Velocity P-wave (km/s) = 6.08051 6.45181 6.26891
#
# Compressibility (1/GPa) = 0.02726868
#
# Stress axis : x y z
#
# Youngs Moduli (GPa) = 53.38577 84.71429 97.03024
#
# Poissons Ratio (x) = 0.35166 -0.11187
# Poissons Ratio (y) = 0.22161 0.36760
# Poissons Ratio (z) = -0.06155 0.32095
#
# Static dielectric constant tensor:
#      x y z
#    x 3.792700 0.000000 0.000000 
#    y 0.000000 3.713090 0.000000 
#    z 0.000000 0.000000 3.638030 
# 
# 
# High freq. dielectric constant tensor:
#      x y z
#    x 1.748070 0.000000 0.000000 
#    y 0.000000 1.757970 0.000000 
#    z 0.000000 0.000000 1.764470 
# 
# From -- ./inp_files/11654.got.cif
#   From: 2010.03.12/outbox.cif.g09.slc.cpg/sg59_6_cif.got.tgz:11654.got - 2010.04.16 16:29:54.
