data_PCOD8241459
_publ_section_title
;
Structure prediction by ZEFSAII (Michael W. Deem and Ramdas Pophale) SiO2 
 PCOD8241459
Probable space group: P M M N
;
_chemical_formula_sum "Si O2"
_cell_formula_units_Z 48
_cell_length_a 9.070640
_cell_length_b 18.969592
_cell_length_c 13.720306
_cell_angle_alpha 90.000000
_cell_angle_beta 90.000000
_cell_angle_gamma 90.000000
_cell_volume 2360.802837
_symmetry_space_group_name_H-M "P M M N"
_symmetry_group_IT_number 59
_space_group.IT_coordinate_system_code '2'
_symmetry_cell_setting 'orthorhombic'
loop_
_space_group_symop_operation_xyz
x,y,z
1/2-x,1/2-y,z
1/2+x,-y,-z
-x,1/2+y,-z
-x,-y,-z
1/2+x,1/2+y,-z
1/2-x,y,z
x,1/2-y,z
loop_
_atom_site_type_symbol
_atom_site_label
_atom_site_fract_x
_atom_site_fract_y
_atom_site_fract_z
Si Si1 0.422487 0.959565 0.303650
Si Si2 0.576412 0.086807 0.389576
Si Si3 0.083344 0.831920 0.802870
Si Si4 0.923744 0.170974 0.576447
Si Si5 0.920453 0.831639 0.996038
Si Si6 0.075815 0.953693 0.083424
O O1 0.250000 0.971397 0.317829
O O2 0.463254 0.878263 0.330502
O O3 0.469982 0.977427 0.192493
O O4 0.502729 0.010037 0.381221
O O5 0.750000 0.075863 0.399788
O O6 0.531261 0.128531 0.292955
O O7 0.513509 0.131567 0.480336
O O8 0.250000 0.852734 0.833626
O O9 0.073016 0.750000 0.779219
O O10 0.972324 0.853954 0.888289
O O11 0.750000 0.179191 0.564507
O O12 0.992766 0.250000 0.588247
O O13 0.750000 0.852099 0.006016
O O14 0.950128 0.750000 0.016168
O O15 0.017367 0.873890 0.073929
O O16 0.250000 0.956334 0.068945
O O17 0.000000 0.000000 0.000000
#
# Coordination Sequence:
#
# PCOD8241459 Si02
#       6
#     8   8   8   8   8   8
#     4  10  22  37  55  80 108 140 178 222 270 320
#     4  10  19  32  55  83 109 140 175 215 265 319
#     4   9  17  30  50  78 109 141 181 225 267 317
#     4   9  18  35  58  82 108 139 177 218 259 310
#     4  10  21  36  54  78 109 145 184 228 280 333
#     4  11  23  38  57  81 109 145 189 233 278 328
#
# _framework density 20.332066000000001
#
# number of rings (size 3 to 8) (size 9 to 14) (size 15 to 20)
#    0.000    2.167    0.000    3.000    0.000    8.333 
#    0.000    1.667    0.000    3.000    0.000    0.000 
#    0.000    0.000    0.000    0.000    0.000    0.000 
#
# Total GULP energy -595137.761870 kJ/mol
# GULP energy per Si atom -12398.703372 kJ/mol
# Density = 2.028579 g / cm^3
# Si number density = 20.332066 Si / 1000 Ang^3
#
#
#
# Elastic Constant Matrix: (Units=GPa)
#
#
# Indices 1 2 3 4 5 6 
#
# 1 51.7921 31.8111 33.7341 0.0000 0.0000 0.0000
# 2 31.8111 112.6743 57.0384 0.0000 0.0000 0.0000
# 3 33.7341 57.0384 98.2705 0.0000 0.0000 0.0000
# 4 0.0000 0.0000 0.0000 35.8993 0.0000 0.0000
# 5 0.0000 0.0000 0.0000 0.0000 20.5088 0.0000
# 6 0.0000 0.0000 0.0000 0.0000 0.0000 32.5428
#
#
#
# Elastic Compliance Matrix: (Units=1/GPa)
#
#
# Indices 1 2 3 4 5 6 
#
# 1 0.026088 -0.004010 -0.006628 0.000000 0.000000 0.000000
# 2 -0.004010 0.013184 -0.006276 0.000000 0.000000 0.000000
# 3 -0.006628 -0.006276 0.016094 0.000000 0.000000 0.000000
# 4 0.000000 0.000000 0.000000 0.027856 0.000000 0.000000
# 5 0.000000 0.000000 0.000000 0.000000 0.048760 0.000000
# 6 0.000000 0.000000 0.000000 0.000000 0.000000 0.030729
#
#
# Mechanical properties :
#
#
# Convention : Reuss Voigt Hill
#
# Bulk Modulus (GPa) = 46.42876 56.43378 51.43127
# Shear Modulus (GPa) = 24.54381 27.13374 25.83878
#
# Velocity S-wave (km/s) = 3.47817 3.65708 3.56875
# Velocity P-wave (km/s) = 6.24620 6.75638 6.50629
#
# Compressibility (1/GPa) = 0.02153837
#
# Stress axis : x y z
#
# Youngs Moduli (GPa) = 38.33180 75.84776 62.13563
#
# Poissons Ratio (x) = 0.30416 0.41182
# Poissons Ratio (y) = 0.15372 0.38995
# Poissons Ratio (z) = 0.25406 0.47601
#
# Static dielectric constant tensor:
#      x y z
#    x 3.433010 0.000000 0.000000 
#    y 0.000000 3.946760 0.000000 
#    z 0.000000 0.000000 3.791110 
# 
# 
# High freq. dielectric constant tensor:
#      x y z
#    x 1.767120 0.000000 0.000000 
#    y 0.000000 1.808460 0.000000 
#    z 0.000000 0.000000 1.795000 
# 
# From -- ./inp_files/20429.got.cif
#   From: 2010.03.12/outbox.cif.g09.slc.cpg/sg59_11_cif.got.tgz:20429.got - 2010.04.16 16:29:54.
