data_PCOD8241995
_publ_section_title
;
Structure prediction by ZEFSAII (Michael W. Deem and Ramdas Pophale) SiO2 
 PCOD8241995
Probable space group: P M M N
;
_chemical_formula_sum "Si O2"
_cell_formula_units_Z 64
_cell_length_a 9.313867
_cell_length_b 13.926618
_cell_length_c 26.355795
_cell_angle_alpha 90.000000
_cell_angle_beta 90.000000
_cell_angle_gamma 90.000000
_cell_volume 3418.627770
_symmetry_space_group_name_H-M "P M M N"
_symmetry_group_IT_number 59
_space_group.IT_coordinate_system_code '2'
_symmetry_cell_setting 'orthorhombic'
loop_
_space_group_symop_operation_xyz
x,y,z
1/2-x,1/2-y,z
1/2+x,-y,-z
-x,1/2+y,-z
-x,-y,-z
1/2+x,1/2+y,-z
1/2-x,y,z
x,1/2-y,z
loop_
_atom_site_type_symbol
_atom_site_label
_atom_site_fract_x
_atom_site_fract_y
_atom_site_fract_z
Si Si1 0.581797 0.002263 0.947439
Si Si2 0.083127 0.361028 0.474345
Si Si3 0.417724 0.025786 0.575840
Si Si4 0.414558 0.640279 0.342239
Si Si5 0.584784 0.356007 0.231983
Si Si6 0.908166 0.358186 0.113200
Si Si7 0.914628 0.462010 0.760632
Si Si8 0.919977 0.357036 0.860167
O O1 0.750000 0.998915 0.958319
O O2 0.536184 0.909987 0.915627
O O3 0.538659 0.095240 0.913961
O O4 0.500000 0.000000 0.000000
O O5 0.250000 0.373090 0.460588
O O6 0.035190 0.250000 0.471356
O O7 0.051368 0.399440 0.530691
O O8 0.990809 0.422763 0.434621
O O9 0.250000 0.007906 0.584024
O O10 0.483490 0.070378 0.626373
O O11 0.250000 0.624523 0.359466
O O12 0.461961 0.750000 0.350920
O O13 0.432590 0.617312 0.282892
O O14 0.750000 0.372012 0.246135
O O15 0.535620 0.250000 0.251378
O O16 0.558855 0.361816 0.172303
O O17 0.493718 0.440733 0.257468
O O18 0.750000 0.403597 0.101932
O O19 0.907894 0.250000 0.093226
O O20 0.750000 0.489959 0.769398
O O21 0.981989 0.418354 0.812655
O O22 0.750000 0.351910 0.853637
O O23 0.986194 0.250000 0.859426
#
# Coordination Sequence:
#
# PCOD8241995 Si02
#       8
#     8   8   8   8   8   8   8   8
#     4  11  22  35  53  78 106 138 174 215 263 315
#     4   9  18  34  56  81 111 149 191 234 280 330
#     4  10  20  34  54  82 115 148 186 233 281 330
#     4  10  21  36  55  80 111 147 185 227 276 327
#     4   9  18  33  54  79 106 135 166 207 263 320
#     4   9  18  34  55  76 100 132 167 206 257 314
#     4  10  19  34  57  83 106 134 179 228 266 310
#     4   9  18  34  55  77 102 134 172 213 259 312
#
# _framework density 18.720960999999999
#
# number of rings (size 3 to 8) (size 9 to 14) (size 15 to 20)
#    0.000    2.375    1.250    2.250    0.000    4.500 
#    0.000    3.125    0.000    4.500    0.000    0.000 
#    0.000    0.000    0.000    0.000    0.000    0.000 
#
# Total GULP energy -793540.306384 kJ/mol
# GULP energy per Si atom -12399.067287 kJ/mol
# Density = 1.867835 g / cm^3
# Si number density = 18.720961 Si / 1000 Ang^3
#
#
#
# Elastic Constant Matrix: (Units=GPa)
#
#
# Indices 1 2 3 4 5 6 
#
# 1 69.6003 49.2734 35.8555 0.0000 0.0000 0.0000
# 2 49.2734 135.3297 35.7303 0.0000 0.0000 0.0000
# 3 35.8555 35.7303 65.6847 0.0000 0.0000 0.0000
# 4 0.0000 0.0000 0.0000 21.0185 0.0000 0.0000
# 5 0.0000 0.0000 0.0000 0.0000 28.2868 0.0000
# 6 0.0000 0.0000 0.0000 0.0000 0.0000 29.0980
#
#
#
# Elastic Compliance Matrix: (Units=1/GPa)
#
#
# Indices 1 2 3 4 5 6 
#
# 1 0.023595 -0.006061 -0.009583 0.000000 0.000000 0.000000
# 2 -0.006061 0.010185 -0.002232 0.000000 0.000000 0.000000
# 3 -0.009583 -0.002232 0.021670 0.000000 0.000000 0.000000
# 4 0.000000 0.000000 0.000000 0.047577 0.000000 0.000000
# 5 0.000000 0.000000 0.000000 0.000000 0.035352 0.000000
# 6 0.000000 0.000000 0.000000 0.000000 0.000000 0.034367
#
#
# Mechanical properties :
#
#
# Convention : Reuss Voigt Hill
#
# Bulk Modulus (GPa) = 50.76601 56.92589 53.84595
# Shear Modulus (GPa) = 23.24882 25.66437 24.45660
#
# Velocity S-wave (km/s) = 3.52783 3.70657 3.61830
# Velocity P-wave (km/s) = 6.61590 6.98511 6.80301
#
# Compressibility (1/GPa) = 0.01969822
#
# Stress axis : x y z
#
# Youngs Moduli (GPa) = 42.38110 98.17937 46.14754
#
# Poissons Ratio (x) = 0.59505 0.44224
# Poissons Ratio (y) = 0.25687 0.10300
# Poissons Ratio (z) = 0.40615 0.21914
#
# Static dielectric constant tensor:
#      x y z
#    x 3.323280 0.000000 0.000000 
#    y 0.000000 3.420030 0.000000 
#    z 0.000000 0.000000 4.016840 
# 
# 
# High freq. dielectric constant tensor:
#      x y z
#    x 1.712740 0.000000 0.000000 
#    y 0.000000 1.734750 0.000000 
#    z 0.000000 0.000000 1.712890 
# 
# From -- ./inp_files/31621.got.cif
#   From: 2010.03.12/outbox.cif.g09.slc.cpg/sg59_16_cif.got.tgz:31621.got - 2010.04.16 16:29:54.
