data_PCOD8241734
_publ_section_title
;
Structure prediction by ZEFSAII (Michael W. Deem and Ramdas Pophale) SiO2 
 PCOD8241734
Probable space group: P M M N
;
_chemical_formula_sum "Si O2"
_cell_formula_units_Z 64
_cell_length_a 19.396421
_cell_length_b 8.938710
_cell_length_c 18.940650
_cell_angle_alpha 90.000000
_cell_angle_beta 90.000000
_cell_angle_gamma 90.000000
_cell_volume 3283.910622
_symmetry_space_group_name_H-M "P M M N"
_symmetry_group_IT_number 59
_space_group.IT_coordinate_system_code '2'
_symmetry_cell_setting 'orthorhombic'
loop_
_space_group_symop_operation_xyz
x,y,z
1/2-x,1/2-y,z
1/2+x,-y,-z
-x,1/2+y,-z
-x,-y,-z
1/2+x,1/2+y,-z
1/2-x,y,z
x,1/2-y,z
loop_
_atom_site_type_symbol
_atom_site_label
_atom_site_fract_x
_atom_site_fract_y
_atom_site_fract_z
Si Si1 0.081749 0.078598 0.215899
Si Si2 0.090294 0.073996 0.935730
Si Si3 0.829554 0.425455 0.190424
Si Si4 0.054983 0.921214 0.703615
Si Si5 0.049230 0.073466 0.558333
Si Si6 0.329747 0.079332 0.346871
Si Si7 0.431574 0.575190 0.076322
Si Si8 0.329574 0.576509 0.489901
O O1 0.098978 0.250000 0.197759
O O2 0.128044 0.020805 0.280311
O O3 0.001773 0.059133 0.235534
O O4 0.102368 0.978086 0.149247
O O5 0.100464 0.250000 0.938281
O O6 0.011735 0.028253 0.919088
O O7 0.142287 0.009619 0.878034
O O8 0.108012 0.006191 0.012388
O O9 0.750000 0.469832 0.203326
O O10 0.838422 0.250000 0.176357
O O11 0.872610 0.471324 0.260728
O O12 0.058649 0.750000 0.677010
O O13 0.032088 0.022844 0.637756
O O14 0.041855 0.250000 0.552240
O O15 0.127511 0.020654 0.545312
O O16 0.000000 0.000000 0.500000
O O17 0.250000 0.066367 0.327936
O O18 0.350187 0.250000 0.366473
O O19 0.350237 0.973002 0.411359
O O20 0.421639 0.750000 0.065917
O O21 0.250000 0.542840 0.505480
O O22 0.347725 0.750000 0.498896
#
# Coordination Sequence:
#
# PCOD8241734 Si02
#       8
#     8   8   8   8   8   8   8   8
#     4  10  19  33  55  81 111 148 186 230 280 336
#     4  10  20  35  56  82 111 145 188 235 283 332
#     4  10  21  38  60  85 117 156 194 237 290 345
#     4  10  21  37  57  83 115 150 193 237 287 347
#     4  12  25  40  60  86 118 153 194 245 299 350
#     4   9  18  33  54  81 112 146 184 227 280 341
#     4  10  20  33  55  83 111 143 185 235 283 331
#     4  10  21  38  60  84 111 147 191 237 288 349
#
# _framework density 19.488959000000001
#
# number of rings (size 3 to 8) (size 9 to 14) (size 15 to 20)
#    0.000    1.875    1.250    3.000    0.000    5.000 
#    0.000    1.875    0.000    2.250    0.000    0.000 
#    0.000    0.000    0.000    0.000    0.000    0.000 
#
# Total GULP energy -793794.408226 kJ/mol
# GULP energy per Si atom -12403.037629 kJ/mol
# Density = 1.944460 g / cm^3
# Si number density = 19.488959 Si / 1000 Ang^3
#
#
#
# Elastic Constant Matrix: (Units=GPa)
#
#
# Indices 1 2 3 4 5 6 
#
# 1 54.3970 25.2181 26.3720 0.0000 0.0000 0.0000
# 2 25.2181 83.6391 45.2269 0.0000 0.0000 0.0000
# 3 26.3720 45.2269 103.3245 0.0000 0.0000 0.0000
# 4 0.0000 0.0000 0.0000 39.9163 0.0000 0.0000
# 5 0.0000 0.0000 0.0000 0.0000 33.4317 0.0000
# 6 0.0000 0.0000 0.0000 0.0000 0.0000 24.9764
#
#
#
# Elastic Compliance Matrix: (Units=1/GPa)
#
#
# Indices 1 2 3 4 5 6 
#
# 1 0.022353 -0.004788 -0.003610 0.000000 0.000000 0.000000
# 2 -0.004788 0.016689 -0.006083 0.000000 0.000000 0.000000
# 3 -0.003610 -0.006083 0.013262 0.000000 0.000000 0.000000
# 4 0.000000 0.000000 0.000000 0.025052 0.000000 0.000000
# 5 0.000000 0.000000 0.000000 0.000000 0.029912 0.000000
# 6 0.000000 0.000000 0.000000 0.000000 0.000000 0.040038
#
#
# Mechanical properties :
#
#
# Convention : Reuss Voigt Hill
#
# Bulk Modulus (GPa) = 42.83883 48.33271 45.58577
# Shear Modulus (GPa) = 27.16682 29.30112 28.23397
#
# Velocity S-wave (km/s) = 3.73763 3.88167 3.81033
# Velocity P-wave (km/s) = 6.37615 6.70401 6.54213
#
# Compressibility (1/GPa) = 0.02334331
#
# Stress axis : x y z
#
# Youngs Moduli (GPa) = 44.73696 59.91946 75.40235
#
# Poissons Ratio (x) = 0.28688 0.27217
# Poissons Ratio (y) = 0.21419 0.45868
# Poissons Ratio (z) = 0.16148 0.36449
#
# Static dielectric constant tensor:
#      x y z
#    x 3.573050 0.000000 0.000000 
#    y 0.000000 3.498010 0.000000 
#    z 0.000000 0.000000 3.537150 
# 
# 
# High freq. dielectric constant tensor:
#      x y z
#    x 1.748930 0.000000 0.000000 
#    y 0.000000 1.755860 0.000000 
#    z 0.000000 0.000000 1.763510 
# 
# From -- ./inp_files/28261.got.cif
#   From: 2010.03.12/outbox.cif.g09.slc.cpg/sg59_15_cif.got.tgz:28261.got - 2010.04.16 16:29:54.
