data_PCOD8241464
_publ_section_title
;
Structure prediction by ZEFSAII (Michael W. Deem and Ramdas Pophale) SiO2 
 PCOD8241464
Probable space group: P M M N
;
_chemical_formula_sum "Si O2"
_cell_formula_units_Z 56
_cell_length_a 8.766232
_cell_length_b 14.839298
_cell_length_c 21.320662
_cell_angle_alpha 90.000000
_cell_angle_beta 90.000000
_cell_angle_gamma 90.000000
_cell_volume 2773.492538
_symmetry_space_group_name_H-M "P M M N"
_symmetry_group_IT_number 59
_space_group.IT_coordinate_system_code '2'
_symmetry_cell_setting 'orthorhombic'
loop_
_space_group_symop_operation_xyz
x,y,z
1/2-x,1/2-y,z
1/2+x,-y,-z
-x,1/2+y,-z
-x,-y,-z
1/2+x,1/2+y,-z
1/2-x,y,z
x,1/2-y,z
loop_
_atom_site_type_symbol
_atom_site_label
_atom_site_fract_x
_atom_site_fract_y
_atom_site_fract_z
Si Si1 0.077536 0.649779 0.801192
Si Si2 0.575571 0.101454 0.928211
Si Si3 0.423814 0.914569 0.934795
Si Si4 0.430453 0.853320 0.496640
Si Si5 0.428994 0.493623 0.591751
Si Si6 0.073904 0.501381 0.274790
Si Si7 0.078652 0.350685 0.805797
O O1 0.250000 0.618145 0.785332
O O2 0.048755 0.750000 0.775664
O O3 0.053324 0.651893 0.876301
O O4 0.957792 0.585175 0.767890
O O5 0.750000 0.118538 0.908839
O O6 0.470328 0.152718 0.878545
O O7 0.541788 0.995422 0.925747
O O8 0.542845 0.136747 0.999243
O O9 0.250000 0.952356 0.936820
O O10 0.250000 0.849738 0.491369
O O11 0.493621 0.750000 0.502717
O O12 0.493707 0.902639 0.434687
O O13 0.482675 0.915063 0.555731
O O14 0.250000 0.480844 0.584500
O O15 0.472000 0.504686 0.663641
O O16 0.250000 0.503906 0.293960
O O17 0.034769 0.589934 0.235277
O O18 0.250000 0.390325 0.801335
O O19 0.073475 0.250000 0.778563
#
# Coordination Sequence:
#
# PCOD8241464 Si02
#       7
#     8   8   8   8   8   8   8
#     4  10  21  38  60  84 113 154 199 242 293 354
#     4  10  19  32  55  85 113 145 187 241 300 357
#     4   9  18  33  55  81 113 150 190 236 293 359
#     4   9  19  38  64  94 126 158 195 237 278 327
#     4  10  21  38  62  91 123 161 198 234 285 342
#     4  12  25  41  61  86 119 157 199 248 296 343
#     4  11  24  41  60  82 111 151 198 247 302 363
#
# _framework density 20.19115
#
# number of rings (size 3 to 8) (size 9 to 14) (size 15 to 20)
#    0.000    1.857    1.429    2.571    0.000    4.571 
#    0.000    2.857    0.000    0.000    0.000    0.000 
#    0.000    0.000    0.000    0.000    0.000    0.000 
#
# Total GULP energy -694351.894950 kJ/mol
# GULP energy per Si atom -12399.140981 kJ/mol
# Density = 2.014519 g / cm^3
# Si number density = 20.191150 Si / 1000 Ang^3
#
#
#
# Elastic Constant Matrix: (Units=GPa)
#
#
# Indices 1 2 3 4 5 6 
#
# 1 41.1083 24.7708 9.7062 0.0000 0.0000 0.0000
# 2 24.7708 115.8534 37.4454 0.0000 0.0000 0.0000
# 3 9.7062 37.4454 105.2948 0.0000 0.0000 0.0000
# 4 0.0000 0.0000 0.0000 -18.1506 0.0000 0.0000
# 5 0.0000 0.0000 0.0000 0.0000 34.1506 0.0000
# 6 0.0000 0.0000 0.0000 0.0000 0.0000 15.2629
#
#
#
# Elastic Compliance Matrix: (Units=1/GPa)
#
#
# Indices 1 2 3 4 5 6 
#
# 1 0.027948 -0.005811 -0.000510 0.000000 0.000000 0.000000
# 2 -0.005811 0.010961 -0.003362 0.000000 0.000000 0.000000
# 3 -0.000510 -0.003362 0.010740 0.000000 0.000000 0.000000
# 4 0.000000 0.000000 0.000000 -0.055095 0.000000 0.000000
# 5 0.000000 0.000000 0.000000 0.000000 0.029282 0.000000
# 6 0.000000 0.000000 0.000000 0.000000 0.000000 0.065518
#
#
# Mechanical properties :
#
#
# Convention : Reuss Voigt Hill
#
# Bulk Modulus (GPa) = 33.02220 45.12238 39.07229
# Shear Modulus (GPa) = 42.08254 18.94152 30.51203
#
# Velocity S-wave (km/s) = 4.57026 3.06618 3.89158
# Velocity P-wave (km/s) = 6.65132 5.91028 6.29172
#
# Compressibility (1/GPa) = 0.03028266
#
# Stress axis : x y z
#
# Youngs Moduli (GPa) = 35.78100 91.23471 93.11126
#
# Poissons Ratio (x) = 0.53015 0.04747
# Poissons Ratio (y) = 0.20792 0.31306
# Poissons Ratio (z) = 0.01824 0.30675
#
# Static dielectric constant tensor:
#      x y z
#    x 3.612320 0.000000 0.000000 
#    y 0.000000 3.587930 0.000000 
#    z 0.000000 0.000000 3.702740 
# 
# 
# High freq. dielectric constant tensor:
#      x y z
#    x 1.784860 0.000000 0.000000 
#    y 0.000000 1.780490 0.000000 
#    z 0.000000 0.000000 1.787860 
# 
# From -- ./inp_files/29078.got.cif
#   From: 2010.03.12/outbox.cif.g09.slc.cpg/sg59_15_cif.got.tgz:29078.got - 2010.04.16 16:29:54.
