data_PCOD8241167
_publ_section_title
;
Structure prediction by ZEFSAII (Michael W. Deem and Ramdas Pophale) SiO2 
 PCOD8241167
Probable space group: P M M N
;
_chemical_formula_sum "Si O2"
_cell_formula_units_Z 64
_cell_length_a 9.148041
_cell_length_b 20.392121
_cell_length_c 20.405164
_cell_angle_alpha 90.000000
_cell_angle_beta 90.000000
_cell_angle_gamma 90.000000
_cell_volume 3806.541697
_symmetry_space_group_name_H-M "P M M N"
_symmetry_group_IT_number 59
_space_group.IT_coordinate_system_code '2'
_symmetry_cell_setting 'orthorhombic'
loop_
_space_group_symop_operation_xyz
x,y,z
1/2-x,1/2-y,z
1/2+x,-y,-z
-x,1/2+y,-z
-x,-y,-z
1/2+x,1/2+y,-z
1/2-x,y,z
x,1/2-y,z
loop_
_atom_site_type_symbol
_atom_site_label
_atom_site_fract_x
_atom_site_fract_y
_atom_site_fract_z
Si Si1 0.586045 0.992329 0.809230
Si Si2 0.919367 0.324385 0.484662
Si Si3 0.923145 0.555472 0.456254
Si Si4 0.576321 0.035646 0.059688
Si Si5 0.083245 0.007707 0.684422
Si Si6 0.083648 0.855233 0.660754
Si Si7 0.917170 0.320362 0.090763
Si Si8 0.910817 0.659362 0.782533
O O1 0.750000 0.020027 0.822971
O O2 0.513070 0.030060 0.747476
O O3 0.486297 0.997214 0.874112
O O4 0.594675 0.918092 0.787405
O O5 0.750000 0.345798 0.491679
O O6 0.943053 0.250000 0.509437
O O7 0.968933 0.329553 0.409365
O O8 0.020842 0.372278 0.526388
O O9 0.750000 0.549250 0.467609
O O10 0.963604 0.548226 0.379674
O O11 0.000000 0.500000 0.500000
O O12 0.750000 0.024735 0.057435
O O13 0.533276 0.113403 0.052897
O O14 0.500000 0.000000 0.000000
O O15 0.250000 0.021586 0.704294
O O16 0.060999 0.932724 0.664389
O O17 0.250000 0.835179 0.673515
O O18 0.988464 0.818911 0.715624
O O19 0.750000 0.331264 0.110760
O O20 0.936434 0.250000 0.051509
O O21 0.004883 0.310376 0.156905
O O22 0.750000 0.689817 0.782489
#
# Coordination Sequence:
#
# PCOD8241167 Si02
#       8
#     8   8   8   8   8   8   8   8
#     4   9  17  29  46  71 100 127 159 199 241 288
#     4  10  21  36  50  67  95 130 168 210 258 311
#     4  11  21  34  53  75  99 127 167 213 260 308
#     4  10  19  32  51  74 102 134 165 201 241 287
#     4   9  17  30  48  70  96 126 161 205 250 295
#     4   9  16  29  45  63  91 128 166 199 238 289
#     4   9  18  32  48  66  91 128 169 200 231 277
#     4   9  17  27  41  65  94 123 158 200 239 274
#
# _framework density 16.813161999999998
#
# number of rings (size 3 to 8) (size 9 to 14) (size 15 to 20)
#    0.000    2.500    1.250    1.500    0.000    6.000 
#    0.000    1.250    0.000    0.000    0.000    0.875 
#    0.000    5.000    0.000    0.000    0.000    0.000 
#
# Total GULP energy -793144.572311 kJ/mol
# GULP energy per Si atom -12392.883942 kJ/mol
# Density = 1.677489 g / cm^3
# Si number density = 16.813162 Si / 1000 Ang^3
#
#
#
# Elastic Constant Matrix: (Units=GPa)
#
#
# Indices 1 2 3 4 5 6 
#
# 1 90.8222 39.6374 61.3476 0.0000 0.0000 0.0000
# 2 39.6374 71.2592 57.3263 0.0000 0.0000 0.0000
# 3 61.3476 57.3263 109.8427 0.0000 0.0000 0.0000
# 4 0.0000 0.0000 0.0000 34.5068 0.0000 0.0000
# 5 0.0000 0.0000 0.0000 0.0000 32.4046 0.0000
# 6 0.0000 0.0000 0.0000 0.0000 0.0000 13.3584
#
#
#
# Elastic Compliance Matrix: (Units=1/GPa)
#
#
# Indices 1 2 3 4 5 6 
#
# 1 0.018131 -0.003342 -0.008382 0.000000 0.000000 0.000000
# 2 -0.003342 0.024805 -0.011079 0.000000 0.000000 0.000000
# 3 -0.008382 -0.011079 0.019567 0.000000 0.000000 0.000000
# 4 0.000000 0.000000 0.000000 0.028980 0.000000 0.000000
# 5 0.000000 0.000000 0.000000 0.000000 0.030860 0.000000
# 6 0.000000 0.000000 0.000000 0.000000 0.000000 0.074859
#
#
# Mechanical properties :
#
#
# Convention : Reuss Voigt Hill
#
# Bulk Modulus (GPa) = 59.18159 65.39409 62.28784
# Shear Modulus (GPa) = 20.12550 23.62813 21.87681
#
# Velocity S-wave (km/s) = 3.46353 3.75285 3.61109
# Velocity P-wave (km/s) = 7.16036 7.59984 7.38337
#
# Compressibility (1/GPa) = 0.01689715
#
# Stress axis : x y z
#
# Youngs Moduli (GPa) = 55.15455 40.31414 51.10536
#
# Poissons Ratio (x) = 0.13473 0.42836
# Poissons Ratio (y) = 0.18433 0.56620
# Poissons Ratio (z) = 0.46230 0.44665
#
# Static dielectric constant tensor:
#      x y z
#    x 3.445930 0.000000 0.000000 
#    y 0.000000 3.020740 0.000000 
#    z 0.000000 0.000000 3.144050 
# 
# 
# High freq. dielectric constant tensor:
#      x y z
#    x 1.657090 0.000000 0.000000 
#    y 0.000000 1.623800 0.000000 
#    z 0.000000 0.000000 1.629160 
# 
# From -- ./inp_files/29775.got.cif
#   From: 2010.03.12/outbox.cif.g09.slc.cpg/sg59_15_cif.got.tgz:29775.got - 2010.04.16 16:29:54.
