data_PCOD8241494
_publ_section_title
;
Structure prediction by ZEFSAII (Michael W. Deem and Ramdas Pophale) SiO2 
 PCOD8241494
Probable space group: P M M N
;
_chemical_formula_sum "Si O2"
_cell_formula_units_Z 64
_cell_length_a 27.556831
_cell_length_b 8.522167
_cell_length_c 14.671139
_cell_angle_alpha 90.000000
_cell_angle_beta 90.000000
_cell_angle_gamma 90.000000
_cell_volume 3445.427732
_symmetry_space_group_name_H-M "P M M N"
_symmetry_group_IT_number 59
_space_group.IT_coordinate_system_code '2'
_symmetry_cell_setting 'orthorhombic'
loop_
_space_group_symop_operation_xyz
x,y,z
1/2-x,1/2-y,z
1/2+x,-y,-z
-x,1/2+y,-z
-x,-y,-z
1/2+x,1/2+y,-z
1/2-x,y,z
x,1/2-y,z
loop_
_atom_site_type_symbol
_atom_site_label
_atom_site_fract_x
_atom_site_fract_y
_atom_site_fract_z
Si Si1 0.422312 0.565315 0.657618
Si Si2 0.426128 0.067087 0.848364
Si Si3 0.530901 0.566656 0.857400
Si Si4 0.612535 0.433661 0.978105
Si Si5 0.968960 0.564998 0.653045
Si Si6 0.306326 0.930452 0.358049
Si Si7 0.613437 0.566382 0.521186
Si Si8 0.803770 0.063293 0.846495
O O1 0.421852 0.750000 0.675397
O O2 0.404734 0.481045 0.750074
O O3 0.476607 0.504425 0.632127
O O4 0.386281 0.519349 0.576307
O O5 0.438090 0.250000 0.850543
O O6 0.474383 0.969280 0.871576
O O7 0.386570 0.022697 0.925130
O O8 0.539948 0.750000 0.875843
O O9 0.562030 0.464835 0.927016
O O10 0.546311 0.516085 0.755241
O O11 0.619026 0.250000 0.995162
O O12 0.656924 0.502658 0.917823
O O13 0.967838 0.750000 0.644646
O O14 0.930487 0.493143 0.581934
O O15 0.250000 0.949904 0.381974
O O16 0.322527 0.750000 0.367589
O O17 0.316758 0.993745 0.255767
O O18 0.335898 0.035069 0.429213
O O19 0.606662 0.750000 0.505168
O O20 0.750000 0.002355 0.874100
O O21 0.803920 0.250000 0.845602
#
# Coordination Sequence:
#
# PCOD8241494 Si02
#       8
#     8   8   8   8   8   8   8   8
#     4  10  20  36  53  71  99 135 173 210 249 294
#     4  11  22  36  51  70  99 134 172 213 256 299
#     4  10  19  33  50  72 104 138 172 208 247 294
#     4  11  20  31  51  77 102 132 170 209 253 303
#     4   8  17  31  48  72 103 135 165 202 245 293
#     4   9  18  34  54  76 103 134 167 203 245 294
#     4  11  20  31  50  77 105 133 167 205 250 300
#     4   8  16  32  54  79 105 132 165 205 247 296
#
# _framework density 18.575344000000001
#
# number of rings (size 3 to 8) (size 9 to 14) (size 15 to 20)
#    0.000    2.250    0.000    5.625    0.000    0.250 
#    0.000    6.875    0.000    3.750    0.000    1.750 
#    0.000    0.000    0.000    0.000    0.000    0.000 
#
# Total GULP energy -793661.512120 kJ/mol
# GULP energy per Si atom -12400.961127 kJ/mol
# Density = 1.853307 g / cm^3
# Si number density = 18.575344 Si / 1000 Ang^3
#
#
#
# Elastic Constant Matrix: (Units=GPa)
#
#
# Indices 1 2 3 4 5 6 
#
# 1 67.5095 12.4375 57.3893 0.0000 0.0000 0.0000
# 2 12.4375 49.1767 23.8821 0.0000 0.0000 0.0000
# 3 57.3893 23.8821 137.1989 0.0000 0.0000 0.0000
# 4 0.0000 0.0000 0.0000 26.6799 0.0000 0.0000
# 5 0.0000 0.0000 0.0000 0.0000 29.4392 0.0000
# 6 0.0000 0.0000 0.0000 0.0000 0.0000 20.6057
#
#
#
# Elastic Compliance Matrix: (Units=1/GPa)
#
#
# Indices 1 2 3 4 5 6 
#
# 1 0.023057 -0.001254 -0.009426 0.000000 0.000000 0.000000
# 2 -0.001254 0.022281 -0.003354 0.000000 0.000000 0.000000
# 3 -0.009426 -0.003354 0.011815 0.000000 0.000000 0.000000
# 4 0.000000 0.000000 0.000000 0.037481 0.000000 0.000000
# 5 0.000000 0.000000 0.000000 0.000000 0.033968 0.000000
# 6 0.000000 0.000000 0.000000 0.000000 0.000000 0.048530
#
#
# Mechanical properties :
#
#
# Convention : Reuss Voigt Hill
#
# Bulk Modulus (GPa) = 34.38175 49.03366 41.70770
# Shear Modulus (GPa) = 23.26706 26.02338 24.64522
#
# Velocity S-wave (km/s) = 3.54302 3.74701 3.64644
# Velocity P-wave (km/s) = 5.94027 6.72120 6.34277
#
# Compressibility (1/GPa) = 0.02908520
#
# Stress axis : x y z
#
# Youngs Moduli (GPa) = 43.37094 44.88182 84.63474
#
# Poissons Ratio (x) = 0.05627 0.79779
# Poissons Ratio (y) = 0.05437 0.28387
# Poissons Ratio (z) = 0.40883 0.15053
#
# Static dielectric constant tensor:
#      x y z
#    x 3.354470 0.000000 0.000000 
#    y 0.000000 3.163960 0.000000 
#    z 0.000000 0.000000 3.583350 
# 
# 
# High freq. dielectric constant tensor:
#      x y z
#    x 1.693520 0.000000 0.000000 
#    y 0.000000 1.706930 0.000000 
#    z 0.000000 0.000000 1.726270 
# 
# From -- ./inp_files/24644.got.cif
#   From: 2010.03.12/outbox.cif.g09.slc.cpg/sg59_13_cif.got.tgz:24644.got - 2010.04.16 16:29:54.
