data_PCOD8241655
_publ_section_title
;
Structure prediction by ZEFSAII (Michael W. Deem and Ramdas Pophale) SiO2 
 PCOD8241655
Probable space group: P M M N
;
_chemical_formula_sum "Si O2"
_cell_formula_units_Z 64
_cell_length_a 27.305980
_cell_length_b 9.088938
_cell_length_c 13.224087
_cell_angle_alpha 90.000000
_cell_angle_beta 90.000000
_cell_angle_gamma 90.000000
_cell_volume 3281.985111
_symmetry_space_group_name_H-M "P M M N"
_symmetry_group_IT_number 59
_space_group.IT_coordinate_system_code '2'
_symmetry_cell_setting 'orthorhombic'
loop_
_space_group_symop_operation_xyz
x,y,z
1/2-x,1/2-y,z
1/2+x,-y,-z
-x,1/2+y,-z
-x,-y,-z
1/2+x,1/2+y,-z
1/2-x,y,z
x,1/2-y,z
loop_
_atom_site_type_symbol
_atom_site_label
_atom_site_fract_x
_atom_site_fract_y
_atom_site_fract_z
Si Si1 0.373651 0.576061 0.368096
Si Si2 0.806779 0.421283 0.044755
Si Si3 0.693517 0.419107 0.444319
Si Si4 0.023773 0.077359 0.406056
Si Si5 0.155931 0.423269 0.753980
Si Si6 0.869760 0.075913 0.856433
Si Si7 0.456135 0.410797 0.732605
Si Si8 0.474804 0.591045 0.084280
O O1 0.384508 0.750000 0.370632
O O2 0.336376 0.528765 0.456521
O O3 0.423871 0.491687 0.384770
O O4 0.352552 0.528909 0.257130
O O5 0.750000 0.446847 0.022470
O O6 0.818859 0.250000 0.061674
O O7 0.821381 0.506068 0.145986
O O8 0.835192 0.486139 0.946109
O O9 0.750000 0.439850 0.472499
O O10 0.681275 0.250000 0.418415
O O11 0.681265 0.515730 0.346833
O O12 0.029505 0.250000 0.421867
O O13 0.000000 0.000000 0.500000
O O14 0.985036 0.043378 0.318858
O O15 0.165211 0.250000 0.758904
O O16 0.098978 0.464336 0.749781
O O17 0.868348 0.250000 0.860967
O O18 0.925311 0.015920 0.872302
O O19 0.456503 0.250000 0.675137
O O20 0.482698 0.385266 0.836624
O O21 0.459465 0.750000 0.039687
O O22 0.500000 0.500000 0.000000
#
# Coordination Sequence:
#
# PCOD8241655 Si02
#       8
#     8   8   8   8   8   8   8   8
#     4  10  20  39  63  86 120 158 195 242 297 353
#     4  10  21  37  59  87 118 154 198 247 296 351
#     4  10  22  39  61  88 115 150 197 247 297 352
#     4  12  24  37  57  85 117 153 194 237 286 349
#     4  11  23  38  59  86 117 154 197 247 300 357
#     4   9  18  35  59  84 115 154 191 234 288 344
#     4  10  21  38  57  81 114 151 192 234 286 345
#     4  10  19  33  54  79 112 149 186 230 279 334
#
# _framework density 19.500392999999999
#
# number of rings (size 3 to 8) (size 9 to 14) (size 15 to 20)
#    0.000    1.750    1.250    3.375    0.000    6.500 
#    0.000    3.125    0.000    0.000    0.000    1.750 
#    0.000    0.000    0.000    0.000    0.000    0.000 
#
# Total GULP energy -793248.282948 kJ/mol
# GULP energy per Si atom -12394.504421 kJ/mol
# Density = 1.945601 g / cm^3
# Si number density = 19.500393 Si / 1000 Ang^3
#
#
#
# Elastic Constant Matrix: (Units=GPa)
#
#
# Indices 1 2 3 4 5 6 
#
# 1 106.4537 33.1769 58.2313 0.0000 0.0000 0.0000
# 2 33.1769 71.3762 52.3998 0.0000 0.0000 0.0000
# 3 58.2313 52.3998 163.2043 0.0000 0.0000 0.0000
# 4 0.0000 0.0000 0.0000 19.4701 0.0000 0.0000
# 5 0.0000 0.0000 0.0000 0.0000 36.6314 0.0000
# 6 0.0000 0.0000 0.0000 0.0000 0.0000 44.9058
#
#
#
# Elastic Compliance Matrix: (Units=1/GPa)
#
#
# Indices 1 2 3 4 5 6 
#
# 1 0.012220 -0.003244 -0.003319 0.000000 0.000000 0.000000
# 2 -0.003244 0.019192 -0.005005 0.000000 0.000000 0.000000
# 3 -0.003319 -0.005005 0.008918 0.000000 0.000000 0.000000
# 4 0.000000 0.000000 0.000000 0.051361 0.000000 0.000000
# 5 0.000000 0.000000 0.000000 0.000000 0.027299 0.000000
# 6 0.000000 0.000000 0.000000 0.000000 0.000000 0.022269
#
#
# Mechanical properties :
#
#
# Convention : Reuss Voigt Hill
#
# Bulk Modulus (GPa) = 58.15197 69.85001 64.00099
# Shear Modulus (GPa) = 29.39013 33.34986 31.36999
#
# Velocity S-wave (km/s) = 3.88642 4.13996 4.01519
# Velocity P-wave (km/s) = 7.07281 7.66485 7.37478
#
# Compressibility (1/GPa) = 0.01719632
#
# Stress axis : x y z
#
# Youngs Moduli (GPa) = 81.83292 52.10485 112.13023
#
# Poissons Ratio (x) = 0.16901 0.37212
# Poissons Ratio (y) = 0.26544 0.56117
# Poissons Ratio (z) = 0.27157 0.26076
#
# Static dielectric constant tensor:
#      x y z
#    x 3.627990 0.000000 0.000000 
#    y 0.000000 3.463930 0.000000 
#    z 0.000000 0.000000 3.598850 
# 
# 
# High freq. dielectric constant tensor:
#      x y z
#    x 1.768240 0.000000 0.000000 
#    y 0.000000 1.740000 0.000000 
#    z 0.000000 0.000000 1.770840 
# 
# From -- ./inp_files/19273.got.cif
#   From: 2010.03.12/outbox.cif.g09.slc.cpg/sg59_10_cif.got.tgz:19273.got - 2010.04.16 16:29:54.
