data_PCOD8241742
_publ_section_title
;
Structure prediction by ZEFSAII (Michael W. Deem and Ramdas Pophale) SiO2 
 PCOD8241742
Probable space group: P M M N
;
_chemical_formula_sum "Si O2"
_cell_formula_units_Z 64
_cell_length_a 8.963619
_cell_length_b 23.891973
_cell_length_c 15.514516
_cell_angle_alpha 90.000000
_cell_angle_beta 90.000000
_cell_angle_gamma 90.000000
_cell_volume 3322.566144
_symmetry_space_group_name_H-M "P M M N"
_symmetry_group_IT_number 59
_space_group.IT_coordinate_system_code '2'
_symmetry_cell_setting 'orthorhombic'
loop_
_space_group_symop_operation_xyz
x,y,z
1/2-x,1/2-y,z
1/2+x,-y,-z
-x,1/2+y,-z
-x,-y,-z
1/2+x,1/2+y,-z
1/2-x,y,z
x,1/2-y,z
loop_
_atom_site_type_symbol
_atom_site_label
_atom_site_fract_x
_atom_site_fract_y
_atom_site_fract_z
Si Si1 0.573607 0.119611 0.845205
Si Si2 0.923935 0.814303 0.499719
Si Si3 0.572854 0.998763 0.906968
Si Si4 0.923868 0.005097 0.590791
Si Si5 0.575023 0.886377 0.662502
Si Si6 0.073361 0.624689 0.345234
Si Si7 0.572520 0.187344 0.006774
Si Si8 0.926895 0.390015 0.163905
O O1 0.750000 0.123952 0.849922
O O2 0.518105 0.140350 0.751309
O O3 0.505211 0.158450 0.920661
O O4 0.526430 0.055470 0.858637
O O5 0.750000 0.824411 0.485533
O O6 0.961724 0.750000 0.519685
O O7 0.981325 0.851260 0.579903
O O8 0.004102 0.832052 0.412073
O O9 0.750000 0.992512 0.915881
O O10 0.507944 0.948761 0.850527
O O11 0.500000 0.000000 0.000000
O O12 0.750000 0.007653 0.572693
O O13 0.963085 0.951676 0.649232
O O14 0.980596 0.061272 0.637113
O O15 0.000000 0.000000 0.500000
O O16 0.750000 0.876185 0.678641
O O17 0.481990 0.865210 0.744925
O O18 0.250000 0.629130 0.352600
O O19 0.750000 0.188407 0.002378
O O20 0.507712 0.250000 0.013301
O O21 0.520383 0.152850 0.090120
O O22 0.750000 0.398481 0.163296
#
# Coordination Sequence:
#
# PCOD8241742 Si02
#       8
#     8   8   8   8   8   8   8   8
#     4   9  18  34  56  83 113 144 182 227 277 332
#     4  10  22  40  59  79 110 152 191 229 281 341
#     4  11  20  35  59  86 118 151 185 230 283 340
#     4  10  19  33  55  82 111 143 181 224 280 337
#     4  10  21  38  58  81 111 149 186 228 283 337
#     4  10  20  34  57  86 111 140 183 235 280 326
#     4   9  18  34  55  79 109 145 187 233 277 324
#     4  11  22  36  56  86 115 147 190 233 283 339
#
# _framework density 19.262221
#
# number of rings (size 3 to 8) (size 9 to 14) (size 15 to 20)
#    0.000    2.000    2.500    1.500    0.000    4.250 
#    0.000    3.750    0.000    1.125    0.000    0.000 
#    0.000    0.000    0.000    0.000    0.000    0.000 
#
# Total GULP energy -793644.499484 kJ/mol
# GULP energy per Si atom -12400.695304 kJ/mol
# Density = 1.921838 g / cm^3
# Si number density = 19.262221 Si / 1000 Ang^3
#
#
#
# Elastic Constant Matrix: (Units=GPa)
#
#
# Indices 1 2 3 4 5 6 
#
# 1 37.8550 25.2903 34.6393 0.0000 0.0000 0.0000
# 2 25.2903 104.4604 48.7654 0.0000 0.0000 0.0000
# 3 34.6393 48.7654 160.2368 0.0000 0.0000 0.0000
# 4 0.0000 0.0000 0.0000 17.5698 0.0000 0.0000
# 5 0.0000 0.0000 0.0000 0.0000 32.1213 0.0000
# 6 0.0000 0.0000 0.0000 0.0000 0.0000 22.8434
#
#
#
# Elastic Compliance Matrix: (Units=1/GPa)
#
#
# Indices 1 2 3 4 5 6 
#
# 1 0.035791 -0.005890 -0.005945 0.000000 0.000000 0.000000
# 2 -0.005890 0.012128 -0.002418 0.000000 0.000000 0.000000
# 3 -0.005945 -0.002418 0.008262 0.000000 0.000000 0.000000
# 4 0.000000 0.000000 0.000000 0.056916 0.000000 0.000000
# 5 0.000000 0.000000 0.000000 0.000000 0.031132 0.000000
# 6 0.000000 0.000000 0.000000 0.000000 0.000000 0.043776
#
#
# Mechanical properties :
#
#
# Convention : Reuss Voigt Hill
#
# Bulk Modulus (GPa) = 36.13243 57.77136 46.95190
# Shear Modulus (GPa) = 22.14990 27.43070 24.79030
#
# Velocity S-wave (km/s) = 3.39472 3.77778 3.59136
# Velocity P-wave (km/s) = 5.84503 7.00614 6.45176
#
# Compressibility (1/GPa) = 0.02767596
#
# Stress axis : x y z
#
# Youngs Moduli (GPa) = 27.93973 82.45658 121.04193
#
# Poissons Ratio (x) = 0.48567 0.71956
# Poissons Ratio (y) = 0.16457 0.29262
# Poissons Ratio (z) = 0.16609 0.19934
#
# Static dielectric constant tensor:
#      x y z
#    x 3.249760 0.000000 0.000000 
#    y 0.000000 3.769630 0.000000 
#    z 0.000000 0.000000 3.710080 
# 
# 
# High freq. dielectric constant tensor:
#      x y z
#    x 1.717400 0.000000 0.000000 
#    y 0.000000 1.750300 0.000000 
#    z 0.000000 0.000000 1.766680 
# 
# From -- ./inp_files/21466.got.cif
#   From: 2010.03.12/outbox.cif.g09.slc.cpg/sg59_11_cif.got.tgz:21466.got - 2010.04.16 16:29:54.
