data_PCOD8241846
_publ_section_title
;
Structure prediction by ZEFSAII (Michael W. Deem and Ramdas Pophale) SiO2 
 PCOD8241846
Probable space group: P M M N
;
_chemical_formula_sum "Si O2"
_cell_formula_units_Z 64
_cell_length_a 9.190165
_cell_length_b 31.065307
_cell_length_c 12.199608
_cell_angle_alpha 90.000000
_cell_angle_beta 90.000000
_cell_angle_gamma 90.000000
_cell_volume 3482.930711
_symmetry_space_group_name_H-M "P M M N"
_symmetry_group_IT_number 59
_space_group.IT_coordinate_system_code '2'
_symmetry_cell_setting 'orthorhombic'
loop_
_space_group_symop_operation_xyz
x,y,z
1/2-x,1/2-y,z
1/2+x,-y,-z
-x,1/2+y,-z
-x,-y,-z
1/2+x,1/2+y,-z
1/2-x,y,z
x,1/2-y,z
loop_
_atom_site_type_symbol
_atom_site_label
_atom_site_fract_x
_atom_site_fract_y
_atom_site_fract_z
Si Si1 0.078594 0.138941 0.094698
Si Si2 0.582801 0.544972 0.510951
Si Si3 0.921437 0.988415 0.111196
Si Si4 0.914584 0.199530 0.245278
Si Si5 0.920885 0.700777 0.535001
Si Si6 0.076793 0.126271 0.624074
Si Si7 0.421656 0.108784 0.861570
Si Si8 0.084615 0.056721 0.239408
O O1 0.250000 0.148255 0.095582
O O2 0.039024 0.098694 0.171650
O O3 0.993979 0.179944 0.139974
O O4 0.017080 0.131050 0.971651
O O5 0.500000 0.500000 0.500000
O O6 0.750000 0.535236 0.482083
O O7 0.518019 0.581834 0.430352
O O8 0.567818 0.565264 0.631871
O O9 0.750000 0.993383 0.095306
O O10 0.968322 0.940642 0.143203
O O11 0.975983 0.018412 0.209088
O O12 0.000000 0.000000 0.000000
O O13 0.750000 0.182304 0.253762
O O14 0.918675 0.250000 0.227627
O O15 0.998514 0.186214 0.355161
O O16 0.750000 0.695442 0.556776
O O17 0.959402 0.750000 0.502019
O O18 0.976601 0.668983 0.439332
O O19 0.250000 0.124069 0.621107
O O20 0.019316 0.130537 0.749407
O O21 0.250000 0.112552 0.867319
O O22 0.250000 0.043700 0.208918
#
# Coordination Sequence:
#
# PCOD8241846 Si02
#       8
#     8   8   8   8   8   8   8   8
#     4  10  19  34  54  76 103 134 172 214 255 306
#     4  10  20  33  50  71 103 142 176 216 262 312
#     4  11  20  33  52  74 102 139 180 221 261 309
#     4  10  21  36  54  78 107 134 164 209 262 315
#     4   9  17  32  57  84 105 130 168 211 257 314
#     4   9  17  32  53  77 105 138 172 212 265 312
#     4   9  18  32  51  75 105 139 175 216 259 305
#     4  10  20  34  51  75 105 136 173 219 266 308
#
# _framework density 18.375328
#
# number of rings (size 3 to 8) (size 9 to 14) (size 15 to 20)
#    0.000    2.250    1.250    2.250    0.000    4.750 
#    0.000    2.500    0.000    5.250    0.000    1.750 
#    0.000    0.000    0.000    0.000    0.000    0.000 
#
# Total GULP energy -793545.948143 kJ/mol
# GULP energy per Si atom -12399.155440 kJ/mol
# Density = 1.833350 g / cm^3
# Si number density = 18.375328 Si / 1000 Ang^3
#
#
#
# Elastic Constant Matrix: (Units=GPa)
#
#
# Indices 1 2 3 4 5 6 
#
# 1 48.9760 32.7118 32.5451 0.0000 0.0000 0.0000
# 2 32.7118 86.5325 64.0051 0.0000 0.0000 0.0000
# 3 32.5451 64.0051 145.3991 0.0000 0.0000 0.0000
# 4 0.0000 0.0000 0.0000 36.6050 0.0000 0.0000
# 5 0.0000 0.0000 0.0000 0.0000 18.0060 0.0000
# 6 0.0000 0.0000 0.0000 0.0000 0.0000 26.4095
#
#
#
# Elastic Compliance Matrix: (Units=1/GPa)
#
#
# Indices 1 2 3 4 5 6 
#
# 1 0.027856 -0.008776 -0.002372 0.000000 0.000000 0.000000
# 2 -0.008776 0.019901 -0.006796 0.000000 0.000000 0.000000
# 3 -0.002372 -0.006796 0.010400 0.000000 0.000000 0.000000
# 4 0.000000 0.000000 0.000000 0.027319 0.000000 0.000000
# 5 0.000000 0.000000 0.000000 0.000000 0.055537 0.000000
# 6 0.000000 0.000000 0.000000 0.000000 0.000000 0.037865
#
#
# Mechanical properties :
#
#
# Convention : Reuss Voigt Hill
#
# Bulk Modulus (GPa) = 44.90529 59.93686 52.42107
# Shear Modulus (GPa) = 22.50343 26.31379 24.40861
#
# Velocity S-wave (km/s) = 3.50330 3.78831 3.64859
# Velocity P-wave (km/s) = 6.39180 7.19888 6.80731
#
# Compressibility (1/GPa) = 0.02226909
#
# Stress axis : x y z
#
# Youngs Moduli (GPa) = 35.89900 50.24950 96.15251
#
# Poissons Ratio (x) = 0.44099 0.22806
# Poissons Ratio (y) = 0.31505 0.65345
# Poissons Ratio (z) = 0.08515 0.34150
#
# Static dielectric constant tensor:
#      x y z
#    x 3.303670 0.000000 0.000000 
#    y 0.000000 3.343730 0.000000 
#    z 0.000000 0.000000 3.663400 
# 
# 
# High freq. dielectric constant tensor:
#      x y z
#    x 1.683170 0.000000 0.000000 
#    y 0.000000 1.708290 0.000000 
#    z 0.000000 0.000000 1.723240 
# 
# From -- ./inp_files/14920.got.cif
#   From: 2010.03.12/outbox.cif.g09.slc.cpg/sg59_8_cif.got.tgz:14920.got - 2010.04.16 16:29:54.
