data_PCOD8241104
_publ_section_title
;
Structure prediction by ZEFSAII (Michael W. Deem and Ramdas Pophale) SiO2 
 PCOD8241104
Probable space group: P M M N
;
_chemical_formula_sum "Si O2"
_cell_formula_units_Z 48
_cell_length_a 8.916650
_cell_length_b 20.770809
_cell_length_c 14.815293
_cell_angle_alpha 90.000000
_cell_angle_beta 90.000000
_cell_angle_gamma 90.000000
_cell_volume 2743.881660
_symmetry_space_group_name_H-M "P M M N"
_symmetry_group_IT_number 59
_space_group.IT_coordinate_system_code '2'
_symmetry_cell_setting 'orthorhombic'
loop_
_space_group_symop_operation_xyz
x,y,z
1/2-x,1/2-y,z
1/2+x,-y,-z
-x,1/2+y,-z
-x,-y,-z
1/2+x,1/2+y,-z
1/2-x,y,z
x,1/2-y,z
loop_
_atom_site_type_symbol
_atom_site_label
_atom_site_fract_x
_atom_site_fract_y
_atom_site_fract_z
Si Si1 0.428257 0.449496 0.567979
Si Si2 0.581730 0.012977 0.253581
Si Si3 0.425995 0.319191 0.487151
Si Si4 0.583348 0.345100 0.307452
Si Si5 0.926194 0.178491 0.106111
Si Si6 0.927230 0.546942 0.927771
O O1 0.500000 0.500000 0.500000
O O2 0.250000 0.454785 0.557321
O O3 0.473613 0.460554 0.672976
O O4 0.493477 0.378598 0.543854
O O5 0.750000 0.997722 0.217146
O O6 0.583658 0.078164 0.310659
O O7 0.468978 0.018250 0.170044
O O8 0.250000 0.326911 0.487233
O O9 0.473300 0.250000 0.530280
O O10 0.474976 0.318710 0.383415
O O11 0.750000 0.318226 0.325611
O O12 0.525207 0.320477 0.210630
O O13 0.750000 0.162728 0.098054
O O14 0.962784 0.250000 0.065232
O O15 0.013981 0.120365 0.056750
O O16 0.750000 0.547130 0.939345
O O17 0.000000 0.500000 0.000000
#
# Coordination Sequence:
#
# PCOD8241104 Si02
#       6
#     8   8   8   8   8   8
#     4  10  19  32  50  70  98 134 174 212 249 298
#     4   9  18  33  51  72  98 132 173 216 260 307
#     4  10  20  30  42  66 100 134 168 210 257 298
#     4   9  16  28  46  69  98 133 169 201 243 301
#     4   9  18  33  52  75 107 141 169 204 256 315
#     4  11  22  36  56  80 106 135 172 218 265 319
#
# _framework density 17.493466000000002
#
# number of rings (size 3 to 8) (size 9 to 14) (size 15 to 20)
#    0.000    2.333    1.667    3.000    0.000    4.667 
#    0.000    0.000    0.000    1.000    0.000    2.333 
#    0.000    0.000    0.000    0.000    0.000    0.000 
#
# Total GULP energy -594848.895517 kJ/mol
# GULP energy per Si atom -12392.685323 kJ/mol
# Density = 1.745365 g / cm^3
# Si number density = 17.493466 Si / 1000 Ang^3
#
#
#
# Elastic Constant Matrix: (Units=GPa)
#
#
# Indices 1 2 3 4 5 6 
#
# 1 59.6152 50.4520 32.9181 0.0000 0.0000 0.0000
# 2 50.4520 150.7414 61.4851 0.0000 0.0000 0.0000
# 3 32.9181 61.4851 66.4344 0.0000 0.0000 0.0000
# 4 0.0000 0.0000 0.0000 17.5177 0.0000 0.0000
# 5 0.0000 0.0000 0.0000 0.0000 25.4074 0.0000
# 6 0.0000 0.0000 0.0000 0.0000 0.0000 20.7253
#
#
#
# Elastic Compliance Matrix: (Units=1/GPa)
#
#
# Indices 1 2 3 4 5 6 
#
# 1 0.025610 -0.005455 -0.007641 0.000000 0.000000 0.000000
# 2 -0.005455 0.011819 -0.008235 0.000000 0.000000 0.000000
# 3 -0.007641 -0.008235 0.026461 0.000000 0.000000 0.000000
# 4 0.000000 0.000000 0.000000 0.057085 0.000000 0.000000
# 5 0.000000 0.000000 0.000000 0.000000 0.039359 0.000000
# 6 0.000000 0.000000 0.000000 0.000000 0.000000 0.048250
#
#
# Mechanical properties :
#
#
# Convention : Reuss Voigt Hill
#
# Bulk Modulus (GPa) = 47.11139 62.94461 55.02800
# Shear Modulus (GPa) = 19.35578 21.52581 20.44079
#
# Velocity S-wave (km/s) = 3.32995 3.51166 3.42201
# Velocity P-wave (km/s) = 6.46329 7.24584 6.86573
#
# Compressibility (1/GPa) = 0.02122629
#
# Stress axis : x y z
#
# Youngs Moduli (GPa) = 39.04754 84.61260 37.79214
#
# Poissons Ratio (x) = 0.46153 0.28878
# Poissons Ratio (y) = 0.21299 0.31123
# Poissons Ratio (z) = 0.29838 0.69681
#
# Static dielectric constant tensor:
#      x y z
#    x 3.346520 0.000000 0.000000 
#    y 0.000000 3.715540 0.000000 
#    z 0.000000 0.000000 3.031190 
# 
# 
# High freq. dielectric constant tensor:
#      x y z
#    x 1.665610 0.000000 0.000000 
#    y 0.000000 1.686110 0.000000 
#    z 0.000000 0.000000 1.642020 
# 
# From -- ./inp_files/20695.got.cif
#   From: 2010.03.12/outbox.cif.g09.slc.cpg/sg59_11_cif.got.tgz:20695.got - 2010.04.16 16:29:54.
