data_PCOD8241324
_publ_section_title
;
Structure prediction by ZEFSAII (Michael W. Deem and Ramdas Pophale) SiO2 
 PCOD8241324
Probable space group: P M M N
;
_chemical_formula_sum "Si O2"
_cell_formula_units_Z 64
_cell_length_a 18.614692
_cell_length_b 13.303341
_cell_length_c 13.356831
_cell_angle_alpha 90.000000
_cell_angle_beta 90.000000
_cell_angle_gamma 90.000000
_cell_volume 3307.653509
_symmetry_space_group_name_H-M "P M M N"
_symmetry_group_IT_number 59
_space_group.IT_coordinate_system_code '2'
_symmetry_cell_setting 'orthorhombic'
loop_
_space_group_symop_operation_xyz
x,y,z
1/2-x,1/2-y,z
1/2+x,-y,-z
-x,1/2+y,-z
-x,-y,-z
1/2+x,1/2+y,-z
1/2-x,y,z
x,1/2-y,z
loop_
_atom_site_type_symbol
_atom_site_label
_atom_site_fract_x
_atom_site_fract_y
_atom_site_fract_z
Si Si1 0.672132 0.634379 0.837046
Si Si2 0.613859 0.556534 0.638007
Si Si3 0.668530 0.635820 0.239742
Si Si4 0.546233 0.363724 0.670445
Si Si5 0.959244 0.555203 0.145347
Si Si6 0.168787 0.494327 0.567510
Si Si7 0.966620 0.134858 0.442469
Si Si8 0.972509 0.632736 0.932026
O O1 0.750000 0.581619 0.857672
O O2 0.680760 0.750000 0.862144
O O3 0.651262 0.624617 0.720685
O O4 0.608452 0.593182 0.907892
O O5 0.613565 0.440371 0.677052
O O6 0.659190 0.565064 0.536798
O O7 0.530570 0.588102 0.622984
O O8 0.750000 0.632309 0.203360
O O9 0.639879 0.750000 0.244210
O O10 0.625928 0.572289 0.155408
O O11 0.657897 0.589005 0.348502
O O12 0.574125 0.250000 0.685930
O O13 0.489643 0.392842 0.755137
O O14 0.511434 0.376678 0.559521
O O15 0.975530 0.435953 0.137027
O O16 0.989876 0.612956 0.048078
O O17 0.250000 0.539748 0.572519
O O18 0.109457 0.581419 0.580182
O O19 0.956535 0.250000 0.411631
O O20 0.984288 0.750000 0.904636
#
# Coordination Sequence:
#
# PCOD8241324 Si02
#       8
#     8   8   8   8   8   8   8   8
#     4  10  21  36  54  79 112 146 180 221 273 331
#     4  11  19  34  53  79 108 149 185 228 271 324
#     4  10  21  36  55  82 113 144 183 231 279 329
#     4  10  19  32  52  79 106 138 183 230 275 322
#     4  11  20  36  60  83 107 144 180 228 285 332
#     4  10  21  35  53  79 112 148 185 225 277 330
#     4  10  21  34  53  79 110 147 189 234 273 324
#     4  10  22  37  56  85 112 140 182 231 280 333
#
# _framework density 19.349063999999998
#
# number of rings (size 3 to 8) (size 9 to 14) (size 15 to 20)
#    0.000    1.750    1.250    4.875    0.000    2.750 
#    0.000    2.500    0.000    2.250    0.000    0.000 
#    0.000    0.000    0.000    0.000    0.000    0.000 
#
# Total GULP energy -793359.631849 kJ/mol
# GULP energy per Si atom -12396.244248 kJ/mol
# Density = 1.930503 g / cm^3
# Si number density = 19.349064 Si / 1000 Ang^3
#
#
#
# Elastic Constant Matrix: (Units=GPa)
#
#
# Indices 1 2 3 4 5 6 
#
# 1 112.3082 59.2723 37.0537 0.0000 0.0000 0.0000
# 2 59.2723 110.4409 32.7892 0.0000 0.0000 0.0000
# 3 37.0537 32.7892 58.5277 0.0000 0.0000 0.0000
# 4 0.0000 0.0000 0.0000 25.4278 0.0000 0.0000
# 5 0.0000 0.0000 0.0000 0.0000 19.4651 0.0000
# 6 0.0000 0.0000 0.0000 0.0000 0.0000 25.5914
#
#
#
# Elastic Compliance Matrix: (Units=1/GPa)
#
#
# Indices 1 2 3 4 5 6 
#
# 1 0.013748 -0.005751 -0.005482 0.000000 0.000000 0.000000
# 2 -0.005751 0.013267 -0.003792 0.000000 0.000000 0.000000
# 3 -0.005482 -0.003792 0.022681 0.000000 0.000000 0.000000
# 4 0.000000 0.000000 0.000000 0.039327 0.000000 0.000000
# 5 0.000000 0.000000 0.000000 0.000000 0.051374 0.000000
# 6 0.000000 0.000000 0.000000 0.000000 0.000000 0.039076
#
#
# Mechanical properties :
#
#
# Convention : Reuss Voigt Hill
#
# Bulk Modulus (GPa) = 50.89955 59.94526 55.42240
# Shear Modulus (GPa) = 23.14075 24.24098 23.69086
#
# Velocity S-wave (km/s) = 3.46202 3.54337 3.50293
# Velocity P-wave (km/s) = 6.50721 6.91294 6.71315
#
# Compressibility (1/GPa) = 0.01964654
#
# Stress axis : x y z
#
# Youngs Moduli (GPa) = 72.73937 75.37682 44.09032
#
# Poissons Ratio (x) = 0.43347 0.24170
# Poissons Ratio (y) = 0.41830 0.16718
# Poissons Ratio (z) = 0.39875 0.28581
#
# Static dielectric constant tensor:
#      x y z
#    x 3.745490 0.000000 0.000000 
#    y 0.000000 3.654160 0.000000 
#    z 0.000000 0.000000 3.509540 
# 
# 
# High freq. dielectric constant tensor:
#      x y z
#    x 1.741330 0.000000 0.000000 
#    y 0.000000 1.747180 0.000000 
#    z 0.000000 0.000000 1.754310 
# 
# From -- ./inp_files/17835.got.cif
#   From: 2010.03.12/outbox.cif.g09.slc.cpg/sg59_9_cif.got.tgz:17835.got - 2010.04.16 16:29:54.
