data_PCOD8241263
_publ_section_title
;
Structure prediction by ZEFSAII (Michael W. Deem and Ramdas Pophale) SiO2 
 PCOD8241263
Probable space group: P M M N
;
_chemical_formula_sum "Si O2"
_cell_formula_units_Z 64
_cell_length_a 19.209563
_cell_length_b 9.324003
_cell_length_c 19.962742
_cell_angle_alpha 90.000000
_cell_angle_beta 90.000000
_cell_angle_gamma 90.000000
_cell_volume 3575.527180
_symmetry_space_group_name_H-M "P M M N"
_symmetry_group_IT_number 59
_space_group.IT_coordinate_system_code '2'
_symmetry_cell_setting 'orthorhombic'
loop_
_space_group_symop_operation_xyz
x,y,z
1/2-x,1/2-y,z
1/2+x,-y,-z
-x,1/2+y,-z
-x,-y,-z
1/2+x,1/2+y,-z
1/2-x,y,z
x,1/2-y,z
loop_
_atom_site_type_symbol
_atom_site_label
_atom_site_fract_x
_atom_site_fract_y
_atom_site_fract_z
Si Si1 0.170409 0.415421 0.344026
Si Si2 0.332758 0.588129 0.471955
Si Si3 0.899388 0.415565 0.033763
Si Si4 0.053008 0.085063 0.087214
Si Si5 0.329567 0.413859 0.855526
Si Si6 0.054071 0.083355 0.239139
Si Si7 0.081433 0.080907 0.729110
Si Si8 0.830635 0.916891 0.399498
O O1 0.250000 0.456545 0.326831
O O2 0.164689 0.250000 0.365638
O O3 0.140295 0.508785 0.405332
O O4 0.125241 0.448418 0.278379
O O5 0.250000 0.584899 0.472063
O O6 0.361822 0.750000 0.472442
O O7 0.360164 0.505868 0.537549
O O8 0.880599 0.250000 0.024521
O O9 0.840907 0.489577 0.079091
O O10 0.972508 0.439585 0.070463
O O11 0.899272 0.488446 0.960772
O O12 0.074606 0.250000 0.076870
O O13 0.065971 0.032903 0.162893
O O14 0.250000 0.426865 0.832220
O O15 0.348636 0.250000 0.873513
O O16 0.376949 0.470368 0.794775
O O17 0.033342 0.250000 0.240755
O O18 0.992573 0.996089 0.274159
O O19 0.069422 0.250000 0.730304
O O20 0.125706 0.034191 0.664721
O O21 0.750000 0.951898 0.385046
O O22 0.840774 0.750000 0.415798
#
# Coordination Sequence:
#
# PCOD8241263 Si02
#       8
#     8   8   8   8   8   8   8   8
#     4   9  18  34  56  78  99 128 166 208 257 313
#     4   9  17  30  50  76 103 131 167 211 256 304
#     4  10  19  32  52  76 101 132 172 215 255 300
#     4   9  18  33  52  74 102 133 167 209 256 306
#     4  10  20  34  52  75 106 142 177 214 257 306
#     4  10  20  35  54  77 105 135 169 212 259 308
#     4  10  20  33  51  76 105 137 175 214 254 304
#     4   9  17  31  51  74 102 137 175 213 252 298
#
# _framework density 17.899459
#
# number of rings (size 3 to 8) (size 9 to 14) (size 15 to 20)
#    0.000    2.500    1.250    1.125    0.000    5.250 
#    0.000    1.250    0.000    4.500    0.000    0.000 
#    0.000    0.000    0.000    0.000    0.000    0.000 
#
# Total GULP energy -793766.200497 kJ/mol
# GULP energy per Si atom -12402.596883 kJ/mol
# Density = 1.785872 g / cm^3
# Si number density = 17.899459 Si / 1000 Ang^3
#
#
#
# Elastic Constant Matrix: (Units=GPa)
#
#
# Indices 1 2 3 4 5 6 
#
# 1 66.3628 34.4133 49.8490 0.0000 0.0000 0.0000
# 2 34.4133 76.9395 63.2927 0.0000 0.0000 0.0000
# 3 49.8490 63.2927 150.9294 0.0000 0.0000 0.0000
# 4 0.0000 0.0000 0.0000 26.5577 0.0000 0.0000
# 5 0.0000 0.0000 0.0000 0.0000 27.0877 0.0000
# 6 0.0000 0.0000 0.0000 0.0000 0.0000 24.6617
#
#
#
# Elastic Compliance Matrix: (Units=1/GPa)
#
#
# Indices 1 2 3 4 5 6 
#
# 1 0.021609 -0.005792 -0.004708 0.000000 0.000000 0.000000
# 2 -0.005792 0.021395 -0.007059 0.000000 0.000000 0.000000
# 3 -0.004708 -0.007059 0.011141 0.000000 0.000000 0.000000
# 4 0.000000 0.000000 0.000000 0.037654 0.000000 0.000000
# 5 0.000000 0.000000 0.000000 0.000000 0.036917 0.000000
# 6 0.000000 0.000000 0.000000 0.000000 0.000000 0.040549
#
#
# Mechanical properties :
#
#
# Convention : Reuss Voigt Hill
#
# Bulk Modulus (GPa) = 52.55929 65.48241 59.02085
# Shear Modulus (GPa) = 23.72770 25.43987 24.58379
#
# Velocity S-wave (km/s) = 3.64484 3.77406 3.71001
# Velocity P-wave (km/s) = 6.86590 7.46018 7.16920
#
# Compressibility (1/GPa) = 0.01902613
#
# Stress axis : x y z
#
# Youngs Moduli (GPa) = 46.27762 46.74031 89.76052
#
# Poissons Ratio (x) = 0.27073 0.42259
# Poissons Ratio (y) = 0.26805 0.63361
# Poissons Ratio (z) = 0.21787 0.32994
#
# Static dielectric constant tensor:
#      x y z
#    x 3.029770 0.000000 0.000000 
#    y 0.000000 3.316780 0.000000 
#    z 0.000000 0.000000 3.411290 
# 
# 
# High freq. dielectric constant tensor:
#      x y z
#    x 1.664480 0.000000 0.000000 
#    y 0.000000 1.691110 0.000000 
#    z 0.000000 0.000000 1.700840 
# 
# From -- ./inp_files/28198.got.cif
#   From: 2010.03.12/outbox.cif.g09.slc.cpg/sg59_15_cif.got.tgz:28198.got - 2010.04.16 16:29:54.
