data_PCOD8241436
_publ_section_title
;
Structure prediction by ZEFSAII (Michael W. Deem and Ramdas Pophale) SiO2 
 PCOD8241436
Probable space group: P M M N
;
_chemical_formula_sum "Si O2"
_cell_formula_units_Z 64
_cell_length_a 17.835309
_cell_length_b 9.185251
_cell_length_c 21.362178
_cell_angle_alpha 90.000000
_cell_angle_beta 90.000000
_cell_angle_gamma 90.000000
_cell_volume 3499.590235
_symmetry_space_group_name_H-M "P M M N"
_symmetry_group_IT_number 59
_space_group.IT_coordinate_system_code '2'
_symmetry_cell_setting 'orthorhombic'
loop_
_space_group_symop_operation_xyz
x,y,z
1/2-x,1/2-y,z
1/2+x,-y,-z
-x,1/2+y,-z
-x,-y,-z
1/2+x,1/2+y,-z
1/2-x,y,z
x,1/2-y,z
loop_
_atom_site_type_symbol
_atom_site_label
_atom_site_fract_x
_atom_site_fract_y
_atom_site_fract_z
Si Si1 0.836549 0.917591 0.723121
Si Si2 0.336909 0.081360 0.501119
Si Si3 0.085984 0.922260 0.389158
Si Si4 0.666860 0.583657 0.133149
Si Si5 0.018995 0.420891 0.936313
Si Si6 0.955386 0.583845 0.823492
Si Si7 0.107085 0.917868 0.753518
Si Si8 0.915528 0.580792 0.369774
O O1 0.750000 0.950246 0.735394
O O2 0.850817 0.750000 0.703857
O O3 0.878533 0.954140 0.787981
O O4 0.864860 0.018452 0.667625
O O5 0.250000 0.039802 0.495708
O O6 0.350367 0.250000 0.484566
O O7 0.364784 0.045733 0.570546
O O8 0.384142 0.984267 0.454047
O O9 0.093539 0.750000 0.390751
O O10 0.000185 0.972494 0.381945
O O11 0.750000 0.562978 0.103846
O O12 0.652662 0.750000 0.153501
O O13 0.604766 0.538461 0.081833
O O14 0.661725 0.486188 0.194900
O O15 0.006997 0.250000 0.944835
O O16 0.962991 0.477470 0.882530
O O17 0.000000 0.500000 0.000000
O O18 0.956658 0.750000 0.847979
O O19 0.021366 0.556863 0.773798
O O20 0.127864 0.750000 0.746800
O O21 0.120915 0.993712 0.687331
O O22 0.914280 0.750000 0.352375
#
# Coordination Sequence:
#
# PCOD8241436 Si02
#       8
#     8   8   8   8   8   8   8   8
#     4  10  20  35  56  80 107 142 181 220 267 325
#     4  10  22  39  55  71  97 136 180 224 271 327
#     4  11  22  35  54  78 105 136 175 225 275 325
#     4   9  19  36  57  81 111 147 185 223 264 317
#     4  10  20  35  58  84 110 146 186 223 264 312
#     4   9  18  34  54  78 108 140 176 218 261 312
#     4  10  19  32  54  82 109 138 173 220 271 317
#     4  10  21  36  54  77 104 139 180 219 267 330
#
# _framework density 18.287856000000001
#
# number of rings (size 3 to 8) (size 9 to 14) (size 15 to 20)
#    0.000    2.125    1.250    1.875    0.000    5.250 
#    0.000    1.875    0.000    3.750    0.000    0.000 
#    0.000    0.000    0.000    0.000    0.000    0.000 
#
# Total GULP energy -793827.103778 kJ/mol
# GULP energy per Si atom -12403.548497 kJ/mol
# Density = 1.824623 g / cm^3
# Si number density = 18.287856 Si / 1000 Ang^3
#
#
#
# Elastic Constant Matrix: (Units=GPa)
#
#
# Indices 1 2 3 4 5 6 
#
# 1 72.8093 31.2347 34.6225 0.0000 0.0000 0.0000
# 2 31.2347 79.3043 61.4131 0.0000 0.0000 0.0000
# 3 34.6225 61.4131 117.5472 0.0000 0.0000 0.0000
# 4 0.0000 0.0000 0.0000 38.7034 0.0000 0.0000
# 5 0.0000 0.0000 0.0000 0.0000 21.6528 0.0000
# 6 0.0000 0.0000 0.0000 0.0000 0.0000 24.9052
#
#
#
# Elastic Compliance Matrix: (Units=1/GPa)
#
#
# Indices 1 2 3 4 5 6 
#
# 1 0.016963 -0.004723 -0.002529 0.000000 0.000000 0.000000
# 2 -0.004723 0.022493 -0.010361 0.000000 0.000000 0.000000
# 3 -0.002529 -0.010361 0.014665 0.000000 0.000000 0.000000
# 4 0.000000 0.000000 0.000000 0.025838 0.000000 0.000000
# 5 0.000000 0.000000 0.000000 0.000000 0.046183 0.000000
# 6 0.000000 0.000000 0.000000 0.000000 0.000000 0.040152
#
#
# Mechanical properties :
#
#
# Convention : Reuss Voigt Hill
#
# Bulk Modulus (GPa) = 52.91914 58.24460 55.58187
# Shear Modulus (GPa) = 24.05960 26.54498 25.30229
#
# Velocity S-wave (km/s) = 3.63106 3.81400 3.72365
# Velocity P-wave (km/s) = 6.82489 7.16334 6.99616
#
# Compressibility (1/GPa) = 0.01889675
#
# Stress axis : x y z
#
# Youngs Moduli (GPa) = 58.95160 44.45853 68.18953
#
# Poissons Ratio (x) = 0.20996 0.17245
# Poissons Ratio (y) = 0.27841 0.70648
# Poissons Ratio (z) = 0.14909 0.46061
#
# Static dielectric constant tensor:
#      x y z
#    x 3.464370 0.000000 0.000000 
#    y 0.000000 3.417520 0.000000 
#    z 0.000000 0.000000 3.252540 
# 
# 
# High freq. dielectric constant tensor:
#      x y z
#    x 1.709970 0.000000 0.000000 
#    y 0.000000 1.711510 0.000000 
#    z 0.000000 0.000000 1.703300 
# 
# From -- ./inp_files/30783.got.cif
#   From: 2010.03.12/outbox.cif.g09.slc.cpg/sg59_16_cif.got.tgz:30783.got - 2010.04.16 16:29:54.
