data_PCOD8241563
_publ_section_title
;
Structure prediction by ZEFSAII (Michael W. Deem and Ramdas Pophale) SiO2 
 PCOD8241563
Probable space group: P M M N
;
_chemical_formula_sum "Si O2"
_cell_formula_units_Z 40
_cell_length_a 25.719172
_cell_length_b 8.821786
_cell_length_c 9.742818
_cell_angle_alpha 90.000000
_cell_angle_beta 90.000000
_cell_angle_gamma 90.000000
_cell_volume 2210.538540
_symmetry_space_group_name_H-M "P M M N"
_symmetry_group_IT_number 59
_space_group.IT_coordinate_system_code '2'
_symmetry_cell_setting 'orthorhombic'
loop_
_space_group_symop_operation_xyz
x,y,z
1/2-x,1/2-y,z
1/2+x,-y,-z
-x,1/2+y,-z
-x,-y,-z
1/2+x,1/2+y,-z
1/2-x,y,z
x,1/2-y,z
loop_
_atom_site_type_symbol
_atom_site_label
_atom_site_fract_x
_atom_site_fract_y
_atom_site_fract_z
Si Si1 0.250000 0.084714 0.665543
Si Si2 0.861075 0.930728 0.353712
Si Si3 0.448284 0.924880 0.153631
Si Si4 0.054927 0.925033 0.837333
Si Si5 0.750000 0.917585 0.659582
Si Si6 0.855432 0.071944 0.645548
O O1 0.250000 0.250000 0.735297
O O2 0.304951 0.004079 0.703668
O O3 0.250000 0.098617 0.502400
O O4 0.857462 0.750000 0.369332
O O5 0.905445 0.974611 0.248598
O O6 0.873189 0.999539 0.502178
O O7 0.464141 0.750000 0.172899
O O8 0.399177 0.970254 0.244294
O O9 0.496546 0.026947 0.201690
O O10 0.433800 0.958683 0.996317
O O11 0.062805 0.750000 0.799323
O O12 0.750000 0.750000 0.727244
O O13 0.801566 0.006983 0.705822
O O14 0.849202 0.250000 0.624541
#
# Coordination Sequence:
#
# PCOD8241563 Si02
#       6
#     4   8   8   8   4   8
#     4   7  14  29  48  69  96 130 162 196 240 289
#     4  10  19  33  53  77 105 134 168 211 255 300
#     4   9  20  37  54  73 100 134 171 212 257 304
#     4  10  20  35  54  75 100 133 172 211 256 309
#     4   9  17  31  50  75 106 136 166 202 250 303
#     4  10  19  33  54  78 103 133 170 210 252 298
#
# _framework density 18.095137999999999
#
# number of rings (size 3 to 8) (size 9 to 14) (size 15 to 20)
#    0.000    2.600    0.000    3.300    0.000    3.200 
#    0.000    2.500    0.000    3.600    0.000    0.000 
#    0.000    0.000    0.000    0.000    0.000    0.000 
#
# Total GULP energy -495843.292894 kJ/mol
# GULP energy per Si atom -12396.082322 kJ/mol
# Density = 1.805395 g / cm^3
# Si number density = 18.095138 Si / 1000 Ang^3
#
#
#
# Elastic Constant Matrix: (Units=GPa)
#
#
# Indices 1 2 3 4 5 6 
#
# 1 152.8685 58.2119 71.5371 0.0000 0.0000 0.0000
# 2 58.2119 84.1056 36.7316 0.0000 0.0000 0.0000
# 3 71.5371 36.7316 67.7332 0.0000 0.0000 0.0000
# 4 0.0000 0.0000 0.0000 21.0432 0.0000 0.0000
# 5 0.0000 0.0000 0.0000 0.0000 -43.2876 0.0000
# 6 0.0000 0.0000 0.0000 0.0000 0.0000 31.0219
#
#
#
# Elastic Compliance Matrix: (Units=1/GPa)
#
#
# Indices 1 2 3 4 5 6 
#
# 1 0.013998 -0.004235 -0.012488 0.000000 0.000000 0.000000
# 2 -0.004235 0.016861 -0.004671 0.000000 0.000000 0.000000
# 3 -0.012488 -0.004671 0.030486 0.000000 0.000000 0.000000
# 4 0.000000 0.000000 0.000000 0.047521 0.000000 0.000000
# 5 0.000000 0.000000 0.000000 0.000000 -0.023101 0.000000
# 6 0.000000 0.000000 0.000000 0.000000 0.000000 0.032235
#
#
# Mechanical properties :
#
#
# Convention : Reuss Voigt Hill
#
# Bulk Modulus (GPa) = 53.88565 70.85207 62.36886
# Shear Modulus (GPa) = 29.94514 10.97062 20.45788
#
# Velocity S-wave (km/s) = 4.07243 2.46494 3.36605
# Velocity P-wave (km/s) = 7.20809 6.88052 7.04621
#
# Compressibility (1/GPa) = 0.01855782
#
# Stress axis : x y z
#
# Youngs Moduli (GPa) = 71.43971 59.30937 32.80219
#
# Poissons Ratio (x) = 0.25115 0.40962
# Poissons Ratio (y) = 0.30252 0.15322
# Poissons Ratio (z) = 0.89210 0.27704
#
# Static dielectric constant tensor:
#      x y z
#    x 3.708100 0.000000 0.000000 
#    y 0.000000 3.376150 0.000000 
#    z 0.000000 0.000000 3.074090 
# 
# 
# High freq. dielectric constant tensor:
#      x y z
#    x 1.717710 0.000000 0.000000 
#    y 0.000000 1.703310 0.000000 
#    z 0.000000 0.000000 1.671770 
# 
# From -- ./inp_files/12451.got.cif
#   From: 2010.03.12/outbox.cif.g09.slc.cpg/sg59_7_cif.got.tgz:12451.got - 2010.04.16 16:29:54.
