data_PCOD8241359
_publ_section_title
;
Structure prediction by ZEFSAII (Michael W. Deem and Ramdas Pophale) SiO2 
 PCOD8241359
Probable space group: P M M N
;
_chemical_formula_sum "Si O2"
_cell_formula_units_Z 64
_cell_length_a 18.139456
_cell_length_b 9.193184
_cell_length_c 20.726097
_cell_angle_alpha 90.000000
_cell_angle_beta 90.000000
_cell_angle_gamma 90.000000
_cell_volume 3456.270602
_symmetry_space_group_name_H-M "P M M N"
_symmetry_group_IT_number 59
_space_group.IT_coordinate_system_code '2'
_symmetry_cell_setting 'orthorhombic'
loop_
_space_group_symop_operation_xyz
x,y,z
1/2-x,1/2-y,z
1/2+x,-y,-z
-x,1/2+y,-z
-x,-y,-z
1/2+x,1/2+y,-z
1/2-x,y,z
x,1/2-y,z
loop_
_atom_site_type_symbol
_atom_site_label
_atom_site_fract_x
_atom_site_fract_y
_atom_site_fract_z
Si Si1 0.586667 0.084655 0.135103
Si Si2 0.578999 0.577587 0.372216
Si Si3 0.584960 0.920592 0.870951
Si Si4 0.076119 0.581872 0.007232
Si Si5 0.833271 0.578040 0.246391
Si Si6 0.076440 0.423103 0.379338
Si Si7 0.832448 0.922389 0.497432
Si Si8 0.332594 0.077207 0.256264
O O1 0.596276 0.250000 0.158831
O O2 0.500784 0.040868 0.139008
O O3 0.633875 0.981812 0.180303
O O4 0.617551 0.067084 0.061712
O O5 0.566095 0.750000 0.373182
O O6 0.618530 0.524760 0.306892
O O7 0.502255 0.497131 0.378416
O O8 0.629898 0.526233 0.431365
O O9 0.596411 0.750000 0.882816
O O10 0.628673 0.978338 0.808824
O O11 0.618655 0.005612 0.933132
O O12 0.061749 0.750000 0.023692
O O13 0.000000 0.500000 0.000000
O O14 0.750000 0.520657 0.255332
O O15 0.834267 0.750000 0.242064
O O16 0.066258 0.250000 0.379040
O O17 0.119848 0.478716 0.442318
O O18 0.121727 0.479066 0.317479
O O19 0.750000 0.988543 0.501171
O O20 0.827431 0.750000 0.499922
O O21 0.250000 0.013352 0.259667
O O22 0.330413 0.250000 0.257036
#
# Coordination Sequence:
#
# PCOD8241359 Si02
#       8
#     8   8   8   8   8   8   8   8
#     4   9  18  32  50  73  99 127 159 199 249 296
#     4  10  20  34  52  74 102 133 164 203 250 295
#     4   9  17  30  49  73 100 128 160 200 244 291
#     4   9  17  30  49  73  99 126 160 201 243 290
#     4  10  21  35  50  70  96 128 167 207 245 290
#     4  10  19  32  53  78 101 128 168 211 243 283
#     4   9  17  31  53  78 102 132 169 205 242 287
#     4   9  17  30  49  73 100 130 165 205 246 287
#
# _framework density 18.517068999999999
#
# number of rings (size 3 to 8) (size 9 to 14) (size 15 to 20)
#    0.000    2.625    0.000    3.000    0.000    7.250 
#    0.000    1.250    0.000    6.750    0.000    0.000 
#    0.000    0.000    0.000    0.000    0.000    0.000 
#
# Total GULP energy -793473.991078 kJ/mol
# GULP energy per Si atom -12398.031111 kJ/mol
# Density = 1.847492 g / cm^3
# Si number density = 18.517069 Si / 1000 Ang^3
#
#
#
# Elastic Constant Matrix: (Units=GPa)
#
#
# Indices 1 2 3 4 5 6 
#
# 1 133.4982 30.9300 74.1637 0.0000 0.0000 0.0000
# 2 30.9300 36.1986 40.2157 0.0000 0.0000 0.0000
# 3 74.1637 40.2157 164.8254 0.0000 0.0000 0.0000
# 4 0.0000 0.0000 0.0000 21.3946 0.0000 0.0000
# 5 0.0000 0.0000 0.0000 0.0000 16.9599 0.0000
# 6 0.0000 0.0000 0.0000 0.0000 0.0000 24.5063
#
#
#
# Elastic Compliance Matrix: (Units=1/GPa)
#
#
# Indices 1 2 3 4 5 6 
#
# 1 0.010651 -0.005181 -0.003528 0.000000 0.000000 0.000000
# 2 -0.005181 0.040419 -0.007530 0.000000 0.000000 0.000000
# 3 -0.003528 -0.007530 0.009492 0.000000 0.000000 0.000000
# 4 0.000000 0.000000 0.000000 0.046741 0.000000 0.000000
# 5 0.000000 0.000000 0.000000 0.000000 0.058963 0.000000
# 6 0.000000 0.000000 0.000000 0.000000 0.000000 0.040806
#
#
# Mechanical properties :
#
#
# Convention : Reuss Voigt Hill
#
# Bulk Modulus (GPa) = 35.61011 69.46011 52.53511
# Shear Modulus (GPa) = 20.08744 25.18634 22.63689
#
# Velocity S-wave (km/s) = 3.29721 3.69205 3.50020
# Velocity P-wave (km/s) = 5.81104 7.46778 6.69089
#
# Compressibility (1/GPa) = 0.02808191
#
# Stress axis : x y z
#
# Youngs Moduli (GPa) = 93.88483 24.74113 105.35144
#
# Poissons Ratio (x) = 0.12818 0.37173
# Poissons Ratio (y) = 0.48642 0.79335
# Poissons Ratio (z) = 0.33127 0.18631
#
# Static dielectric constant tensor:
#      x y z
#    x 3.391350 0.000000 0.000000 
#    y 0.000000 3.132140 0.000000 
#    z 0.000000 0.000000 3.978070 
# 
# 
# High freq. dielectric constant tensor:
#      x y z
#    x 1.707940 0.000000 0.000000 
#    y 0.000000 1.684550 0.000000 
#    z 0.000000 0.000000 1.740620 
# 
# From -- ./inp_files/30809.got.cif
#   From: 2010.03.12/outbox.cif.g09.slc.cpg/sg59_16_cif.got.tgz:30809.got - 2010.04.16 16:29:54.
