data_PCOD8241694
_publ_section_title
;
Structure prediction by ZEFSAII (Michael W. Deem and Ramdas Pophale) SiO2 
 PCOD8241694
Probable space group: P M M N
;
_chemical_formula_sum "Si O2"
_cell_formula_units_Z 64
_cell_length_a 9.090539
_cell_length_b 19.192405
_cell_length_c 19.910864
_cell_angle_alpha 90.000000
_cell_angle_beta 90.000000
_cell_angle_gamma 90.000000
_cell_volume 3473.834627
_symmetry_space_group_name_H-M "P M M N"
_symmetry_group_IT_number 59
_space_group.IT_coordinate_system_code '2'
_symmetry_cell_setting 'orthorhombic'
loop_
_space_group_symop_operation_xyz
x,y,z
1/2-x,1/2-y,z
1/2+x,-y,-z
-x,1/2+y,-z
-x,-y,-z
1/2+x,1/2+y,-z
1/2-x,y,z
x,1/2-y,z
loop_
_atom_site_type_symbol
_atom_site_label
_atom_site_fract_x
_atom_site_fract_y
_atom_site_fract_z
Si Si1 0.922532 0.330638 0.602173
Si Si2 0.423190 0.429793 0.234010
Si Si3 0.921504 0.415514 0.730521
Si Si4 0.084359 0.167266 0.468900
Si Si5 0.079401 0.172290 0.839707
Si Si6 0.417421 0.405432 0.969064
Si Si7 0.579570 0.167724 0.336330
Si Si8 0.420500 0.553999 0.905934
O O1 0.750000 0.340235 0.589334
O O2 0.960601 0.250000 0.617720
O O3 0.980881 0.377739 0.663556
O O4 0.006048 0.358904 0.536570
O O5 0.250000 0.415827 0.231164
O O6 0.458979 0.502670 0.271329
O O7 0.500758 0.367972 0.273834
O O8 0.485387 0.428732 0.159216
O O9 0.750000 0.401669 0.737216
O O10 0.993376 0.383012 0.795936
O O11 0.250000 0.137381 0.465906
O O12 0.085111 0.250000 0.468507
O O13 0.994551 0.139716 0.404787
O O14 0.250000 0.163503 0.822260
O O15 0.023577 0.250000 0.823477
O O16 0.052517 0.158418 0.918712
O O17 0.250000 0.406328 0.995462
O O18 0.450661 0.474732 0.926420
O O19 0.524492 0.397357 0.032749
O O20 0.750000 0.146929 0.338037
O O21 0.558006 0.250000 0.328234
O O22 0.250000 0.569211 0.891398
#
# Coordination Sequence:
#
# PCOD8241694 Si02
#       8
#     8   8   8   8   8   8   8   8
#     4   9  17  31  51  75 106 144 183 222 263 307
#     4  11  22  36  56  82 111 143 179 221 270 324
#     4  10  21  35  52  77 110 147 186 224 264 316
#     4   9  17  31  53  80 107 136 175 221 267 319
#     4  10  20  34  53  78 110 146 182 223 272 322
#     4   9  18  33  52  76 104 136 178 225 269 316
#     4  10  21  38  60  83 106 135 173 219 273 331
#     4  10  19  33  55  78 102 137 179 222 268 318
#
# _framework density 18.423445000000001
#
# number of rings (size 3 to 8) (size 9 to 14) (size 15 to 20)
#    0.000    2.250    1.250    1.875    0.000    5.000 
#    0.000    2.500    0.000    2.250    0.000    0.000 
#    0.000    0.000    0.000    0.000    0.000    0.000 
#
# Total GULP energy -793708.319244 kJ/mol
# GULP energy per Si atom -12401.692488 kJ/mol
# Density = 1.838151 g / cm^3
# Si number density = 18.423445 Si / 1000 Ang^3
#
#
#
# Elastic Constant Matrix: (Units=GPa)
#
#
# Indices 1 2 3 4 5 6 
#
# 1 92.5861 37.6340 62.9405 0.0000 0.0000 0.0000
# 2 37.6340 47.0597 37.4920 0.0000 0.0000 0.0000
# 3 62.9405 37.4920 128.6840 0.0000 0.0000 0.0000
# 4 0.0000 0.0000 0.0000 21.5883 0.0000 0.0000
# 5 0.0000 0.0000 0.0000 0.0000 37.9589 0.0000
# 6 0.0000 0.0000 0.0000 0.0000 0.0000 19.3454
#
#
#
# Elastic Compliance Matrix: (Units=1/GPa)
#
#
# Indices 1 2 3 4 5 6 
#
# 1 0.019418 -0.010369 -0.006477 0.000000 0.000000 0.000000
# 2 -0.010369 0.033210 -0.004604 0.000000 0.000000 0.000000
# 3 -0.006477 -0.004604 0.012280 0.000000 0.000000 0.000000
# 4 0.000000 0.000000 0.000000 0.046321 0.000000 0.000000
# 5 0.000000 0.000000 0.000000 0.000000 0.026344 0.000000
# 6 0.000000 0.000000 0.000000 0.000000 0.000000 0.051692
#
#
# Mechanical properties :
#
#
# Convention : Reuss Voigt Hill
#
# Bulk Modulus (GPa) = 45.43654 60.49590 52.96622
# Shear Modulus (GPa) = 20.87663 24.46272 22.66968
#
# Velocity S-wave (km/s) = 3.36989 3.64786 3.51163
# Velocity P-wave (km/s) = 6.31327 7.11689 6.72709
#
# Compressibility (1/GPa) = 0.02200872
#
# Stress axis : x y z
#
# Youngs Moduli (GPa) = 51.49737 30.11151 81.43210
#
# Poissons Ratio (x) = 0.31223 0.52741
# Poissons Ratio (y) = 0.53399 0.37492
# Poissons Ratio (z) = 0.33353 0.13863
#
# Static dielectric constant tensor:
#      x y z
#    x 3.456320 0.000000 0.000000 
#    y 0.000000 3.231410 0.000000 
#    z 0.000000 0.000000 3.461740 
# 
# 
# High freq. dielectric constant tensor:
#      x y z
#    x 1.719780 0.000000 0.000000 
#    y 0.000000 1.687190 0.000000 
#    z 0.000000 0.000000 1.723290 
# 
# From -- ./inp_files/26347.got.cif
#   From: 2010.03.12/outbox.cif.g09.slc.cpg/sg59_14_cif.got.tgz:26347.got - 2010.04.16 16:29:54.
