data_PCOD8241406
_publ_section_title
;
Structure prediction by ZEFSAII (Michael W. Deem and Ramdas Pophale) SiO2 
 PCOD8241406
Probable space group: P M M N
;
_chemical_formula_sum "Si O2"
_cell_formula_units_Z 64
_cell_length_a 18.570568
_cell_length_b 9.021482
_cell_length_c 19.886679
_cell_angle_alpha 90.000000
_cell_angle_beta 90.000000
_cell_angle_gamma 90.000000
_cell_volume 3331.695773
_symmetry_space_group_name_H-M "P M M N"
_symmetry_group_IT_number 59
_space_group.IT_coordinate_system_code '2'
_symmetry_cell_setting 'orthorhombic'
loop_
_space_group_symop_operation_xyz
x,y,z
1/2-x,1/2-y,z
1/2+x,-y,-z
-x,1/2+y,-z
-x,-y,-z
1/2+x,1/2+y,-z
1/2-x,y,z
x,1/2-y,z
loop_
_atom_site_type_symbol
_atom_site_label
_atom_site_fract_x
_atom_site_fract_y
_atom_site_fract_z
Si Si1 0.940848 0.924679 0.783176
Si Si2 0.085755 0.423588 0.592900
Si Si3 0.666666 0.580033 0.278018
Si Si4 0.334919 0.919141 0.121180
Si Si5 0.833643 0.575842 0.537807
Si Si6 0.329978 0.926032 0.972035
Si Si7 0.592721 0.075256 0.158850
Si Si8 0.430854 0.576047 0.360007
O O1 0.938173 0.750000 0.770724
O O2 0.011690 0.974213 0.824426
O O3 0.871778 0.973922 0.825216
O O4 0.941970 0.005639 0.712359
O O5 0.102012 0.250000 0.593174
O O6 0.122775 0.491105 0.659595
O O7 0.122356 0.490039 0.525914
O O8 0.000897 0.459180 0.594214
O O9 0.750000 0.564873 0.295618
O O10 0.643876 0.750000 0.266322
O O11 0.649154 0.491094 0.211079
O O12 0.250000 0.930449 0.132134
O O13 0.360891 0.750000 0.132240
O O14 0.355613 0.976720 0.046244
O O15 0.750000 0.539126 0.527601
O O16 0.846926 0.750000 0.547179
O O17 0.861384 0.494032 0.604489
O O18 0.250000 0.989604 0.956471
O O19 0.325539 0.750000 0.972432
O O20 0.385899 0.983670 0.915601
O O21 0.601209 0.250000 0.162479
O O22 0.418907 0.750000 0.350839
#
# Coordination Sequence:
#
# PCOD8241406 Si02
#       8
#     8   8   8   8   8   8   8   8
#     4  11  23  37  55  82 114 147 184 228 278 329
#     4   9  18  35  58  83 110 146 184 219 268 328
#     4  10  19  32  53  81 113 148 186 224 264 317
#     4   9  19  37  60  82 104 139 187 233 278 331
#     4  10  21  38  60  85 113 144 180 226 279 332
#     4   8  15  31  55  80 108 144 184 224 271 328
#     4  10  20  34  53  79 113 149 185 224 268 326
#     4  11  22  38  60  82 110 148 187 229 273 324
#
# _framework density 19.209436
#
# number of rings (size 3 to 8) (size 9 to 14) (size 15 to 20)
#    0.000    2.250    1.250    2.625    0.000    4.250 
#    0.000    1.875    0.000    2.250    0.000    0.000 
#    0.000    0.000    0.000    0.000    0.000    0.000 
#
# Total GULP energy -793641.424892 kJ/mol
# GULP energy per Si atom -12400.647264 kJ/mol
# Density = 1.916571 g / cm^3
# Si number density = 19.209436 Si / 1000 Ang^3
#
#
#
# Elastic Constant Matrix: (Units=GPa)
#
#
# Indices 1 2 3 4 5 6 
#
# 1 86.5511 38.7939 64.4606 0.0000 0.0000 0.0000
# 2 38.7939 46.3334 46.8566 0.0000 0.0000 0.0000
# 3 64.4606 46.8566 109.6102 0.0000 0.0000 0.0000
# 4 0.0000 0.0000 0.0000 20.4739 0.0000 0.0000
# 5 0.0000 0.0000 0.0000 0.0000 40.0074 0.0000
# 6 0.0000 0.0000 0.0000 0.0000 0.0000 23.2120
#
#
#
# Elastic Compliance Matrix: (Units=1/GPa)
#
#
# Indices 1 2 3 4 5 6 
#
# 1 0.022810 -0.009746 -0.009248 0.000000 0.000000 0.000000
# 2 -0.009746 0.042182 -0.012301 0.000000 0.000000 0.000000
# 3 -0.009248 -0.012301 0.019820 0.000000 0.000000 0.000000
# 4 0.000000 0.000000 0.000000 0.048843 0.000000 0.000000
# 5 0.000000 0.000000 0.000000 0.000000 0.024995 0.000000
# 6 0.000000 0.000000 0.000000 0.000000 0.000000 0.043081
#
#
# Mechanical properties :
#
#
# Convention : Reuss Voigt Hill
#
# Bulk Modulus (GPa) = 44.99806 60.30187 52.64996
# Shear Modulus (GPa) = 18.40071 22.89756 20.64914
#
# Velocity S-wave (km/s) = 3.09835 3.45627 3.28220
# Velocity P-wave (km/s) = 6.02292 6.88387 6.46774
#
# Compressibility (1/GPa) = 0.02222318
#
# Stress axis : x y z
#
# Youngs Moduli (GPa) = 43.84100 23.70661 50.45305
#
# Poissons Ratio (x) = 0.23103 0.46659
# Poissons Ratio (y) = 0.42725 0.62062
# Poissons Ratio (z) = 0.40544 0.29162
#
# Static dielectric constant tensor:
#      x y z
#    x 3.525880 0.000000 0.000000 
#    y 0.000000 3.219790 0.000000 
#    z 0.000000 0.000000 3.736940 
# 
# 
# High freq. dielectric constant tensor:
#      x y z
#    x 1.750450 0.000000 0.000000 
#    y 0.000000 1.717040 0.000000 
#    z 0.000000 0.000000 1.758920 
# 
# From -- ./inp_files/30842.got.cif
#   From: 2010.03.12/outbox.cif.g09.slc.cpg/sg59_16_cif.got.tgz:30842.got - 2010.04.16 16:29:54.
