data_PCOD8241915
_publ_section_title
;
Structure prediction by ZEFSAII (Michael W. Deem and Ramdas Pophale) SiO2 
 PCOD8241915
Probable space group: P M M N
;
_chemical_formula_sum "Si O2"
_cell_formula_units_Z 64
_cell_length_a 18.363809
_cell_length_b 18.461590
_cell_length_c 10.018831
_cell_angle_alpha 90.000000
_cell_angle_beta 90.000000
_cell_angle_gamma 90.000000
_cell_volume 3396.635308
_symmetry_space_group_name_H-M "P M M N"
_symmetry_group_IT_number 59
_space_group.IT_coordinate_system_code '2'
_symmetry_cell_setting 'orthorhombic'
loop_
_space_group_symop_operation_xyz
x,y,z
1/2-x,1/2-y,z
1/2+x,-y,-z
-x,1/2+y,-z
-x,-y,-z
1/2+x,1/2+y,-z
1/2-x,y,z
x,1/2-y,z
loop_
_atom_site_type_symbol
_atom_site_label
_atom_site_fract_x
_atom_site_fract_y
_atom_site_fract_z
Si Si1 0.663598 0.101679 0.914274
Si Si2 0.663681 0.331505 0.189341
Si Si3 0.418095 0.832357 0.317605
Si Si4 0.666510 0.571912 0.517705
Si Si5 0.663706 0.554661 0.818814
Si Si6 0.164519 0.333362 0.960147
Si Si7 0.414651 0.334807 0.692839
Si Si8 0.833490 0.090607 0.454027
O O1 0.750000 0.108743 0.896784
O O2 0.625352 0.160174 0.819970
O O3 0.635115 0.021403 0.877963
O O4 0.637898 0.121484 0.063206
O O5 0.750000 0.327514 0.192011
O O6 0.631170 0.250000 0.184354
O O7 0.635233 0.372813 0.320338
O O8 0.412398 0.750000 0.367970
O O9 0.501157 0.855830 0.295587
O O10 0.382656 0.884880 0.424478
O O11 0.750000 0.598698 0.520575
O O12 0.634649 0.566610 0.668447
O O13 0.618755 0.629110 0.438141
O O14 0.660644 0.495557 0.441681
O O15 0.750000 0.551693 0.813850
O O16 0.636673 0.619620 0.914168
O O17 0.250000 0.344237 0.936537
O O18 0.144940 0.250000 0.990988
O O19 0.124984 0.362018 0.827195
O O20 0.402130 0.250000 0.675913
O O21 0.750000 0.113992 0.481786
#
# Coordination Sequence:
#
# PCOD8241915 Si02
#       8
#     8   8   8   8   8   8   8   8
#     4  10  19  34  55  82 112 142 181 227 273 323
#     4   9  18  31  50  79 110 140 181 229 272 318
#     4  11  22  37  56  78 112 153 187 223 268 320
#     4  10  20  36  59  84 110 142 180 228 282 329
#     4   9  18  33  55  85 113 136 176 230 276 328
#     4   9  18  35  59  82 105 139 181 227 280 331
#     4  10  23  39  55  81 112 145 187 227 270 329
#     4  10  20  35  56  84 112 143 185 229 274 326
#
# _framework density 18.842175999999998
#
# number of rings (size 3 to 8) (size 9 to 14) (size 15 to 20)
#    0.000    2.250    1.250    1.500    1.750    3.750 
#    0.000    3.125    0.000    3.000    0.000    0.000 
#    0.000    0.000    0.000    0.000    0.000    0.000 
#
# Total GULP energy -793720.294890 kJ/mol
# GULP energy per Si atom -12401.879608 kJ/mol
# Density = 1.879929 g / cm^3
# Si number density = 18.842176 Si / 1000 Ang^3
#
#
#
# Elastic Constant Matrix: (Units=GPa)
#
#
# Indices 1 2 3 4 5 6 
#
# 1 55.3397 29.8890 36.7925 0.0000 0.0000 0.0000
# 2 29.8890 79.1563 58.7751 0.0000 0.0000 0.0000
# 3 36.7925 58.7751 149.8542 0.0000 0.0000 0.0000
# 4 0.0000 0.0000 0.0000 42.1684 0.0000 0.0000
# 5 0.0000 0.0000 0.0000 0.0000 2.1804 0.0000
# 6 0.0000 0.0000 0.0000 0.0000 0.0000 13.6934
#
#
#
# Elastic Compliance Matrix: (Units=1/GPa)
#
#
# Indices 1 2 3 4 5 6 
#
# 1 0.023783 -0.006553 -0.003269 0.000000 0.000000 0.000000
# 2 -0.006553 0.019630 -0.006090 0.000000 0.000000 0.000000
# 3 -0.003269 -0.006090 0.009864 0.000000 0.000000 0.000000
# 4 0.000000 0.000000 0.000000 0.023714 0.000000 0.000000
# 5 0.000000 0.000000 0.000000 0.000000 0.458637 0.000000
# 6 0.000000 0.000000 0.000000 0.000000 0.000000 0.073028
#
#
# Mechanical properties :
#
#
# Convention : Reuss Voigt Hill
#
# Bulk Modulus (GPa) = 46.61429 59.47371 53.04400
# Shear Modulus (GPa) = 7.72044 22.20135 14.96090
#
# Velocity S-wave (km/s) = 2.02641 3.43633 2.82088
# Velocity P-wave (km/s) = 5.50165 6.88311 6.23078
#
# Compressibility (1/GPa) = 0.02145265
#
# Stress axis : x y z
#
# Youngs Moduli (GPa) = 42.04704 50.94338 101.37433
#
# Poissons Ratio (x) = 0.33383 0.33140
# Poissons Ratio (y) = 0.27553 0.61738
# Poissons Ratio (z) = 0.13745 0.31025
#
# Static dielectric constant tensor:
#      x y z
#    x 3.175970 0.000000 0.000000 
#    y 0.000000 3.510360 0.000000 
#    z 0.000000 0.000000 3.660910 
# 
# 
# High freq. dielectric constant tensor:
#      x y z
#    x 1.695760 0.000000 0.000000 
#    y 0.000000 1.737020 0.000000 
#    z 0.000000 0.000000 1.742990 
# 
# From -- ./inp_files/11638.got.cif
#   From: 2010.03.12/outbox.cif.g09.slc.cpg/sg59_6_cif.got.tgz:11638.got - 2010.04.16 16:29:54.
