data_PCOD8241654
_publ_section_title
;
Structure prediction by ZEFSAII (Michael W. Deem and Ramdas Pophale) SiO2 
 PCOD8241654
Probable space group: P M M N
;
_chemical_formula_sum "Si O2"
_cell_formula_units_Z 64
_cell_length_a 8.763876
_cell_length_b 19.920418
_cell_length_c 20.103813
_cell_angle_alpha 90.000000
_cell_angle_beta 90.000000
_cell_angle_gamma 90.000000
_cell_volume 3509.725146
_symmetry_space_group_name_H-M "P M M N"
_symmetry_group_IT_number 59
_space_group.IT_coordinate_system_code '2'
_symmetry_cell_setting 'orthorhombic'
loop_
_space_group_symop_operation_xyz
x,y,z
1/2-x,1/2-y,z
1/2+x,-y,-z
-x,1/2+y,-z
-x,-y,-z
1/2+x,1/2+y,-z
1/2-x,y,z
x,1/2-y,z
loop_
_atom_site_type_symbol
_atom_site_label
_atom_site_fract_x
_atom_site_fract_y
_atom_site_fract_z
Si Si1 0.572291 0.172969 0.590069
Si Si2 0.570974 0.913655 0.302873
Si Si3 0.928615 0.429458 0.979725
Si Si4 0.431560 0.174147 0.079552
Si Si5 0.429910 0.088721 0.199110
Si Si6 0.070597 0.930315 0.522941
Si Si7 0.930723 0.945956 0.658739
Si Si8 0.927981 0.440372 0.829676
O O1 0.750000 0.162516 0.606175
O O2 0.534387 0.250000 0.573659
O O3 0.475024 0.151112 0.654192
O O4 0.521952 0.129104 0.526514
O O5 0.750000 0.926693 0.306948
O O6 0.521462 0.899852 0.226447
O O7 0.483201 0.977269 0.333589
O O8 0.750000 0.434576 0.993461
O O9 0.962252 0.411704 0.902681
O O10 0.000000 0.500000 0.000000
O O11 0.000108 0.368672 0.020062
O O12 0.250000 0.169173 0.075981
O O13 0.489470 0.250000 0.072058
O O14 0.494405 0.146620 0.150696
O O15 0.250000 0.091240 0.196187
O O16 0.482221 0.096668 0.275932
O O17 0.485622 0.017298 0.170976
O O18 0.250000 0.939412 0.526161
O O19 0.008316 0.910878 0.595699
O O20 0.000000 0.000000 0.500000
O O21 0.750000 0.946309 0.649215
O O22 0.750000 0.435862 0.811290
#
# Coordination Sequence:
#
# PCOD8241654 Si02
#       8
#     8   8   8   8   8   8   8   8
#     4  10  22  40  59  78 108 152 191 224 276 342
#     4  11  21  33  54  84 112 138 178 232 280 327
#     4  11  21  35  57  84 114 147 189 236 284 337
#     4  10  20  36  57  81 113 152 192 234 283 337
#     4   8  15  31  52  76 105 141 183 223 270 325
#     4  11  21  34  56  84 112 144 185 232 281 328
#     4  10  19  33  54  79 112 146 182 228 274 327
#     4   9  18  34  55  77 108 145 182 226 275 332
#
# _framework density 18.235046000000001
#
# number of rings (size 3 to 8) (size 9 to 14) (size 15 to 20)
#    0.000    2.000    2.500    3.000    0.000    2.000 
#    0.000    1.875    0.000    1.500    0.000    0.000 
#    0.000    0.000    0.000    0.000    0.000    0.000 
#
# Total GULP energy -793546.259332 kJ/mol
# GULP energy per Si atom -12399.160302 kJ/mol
# Density = 1.819354 g / cm^3
# Si number density = 18.235046 Si / 1000 Ang^3
#
#
#
# Elastic Constant Matrix: (Units=GPa)
#
#
# Indices 1 2 3 4 5 6 
#
# 1 64.7775 40.1500 46.8636 0.0000 0.0000 0.0000
# 2 40.1500 119.3193 81.2710 0.0000 0.0000 0.0000
# 3 46.8636 81.2710 157.5541 0.0000 0.0000 0.0000
# 4 0.0000 0.0000 0.0000 28.6933 0.0000 0.0000
# 5 0.0000 0.0000 0.0000 0.0000 33.5142 0.0000
# 6 0.0000 0.0000 0.0000 0.0000 0.0000 20.2464
#
#
#
# Elastic Compliance Matrix: (Units=1/GPa)
#
#
# Indices 1 2 3 4 5 6 
#
# 1 0.021035 -0.004342 -0.004017 0.000000 0.000000 0.000000
# 2 -0.004342 0.013817 -0.005836 0.000000 0.000000 0.000000
# 3 -0.004017 -0.005836 0.010552 0.000000 0.000000 0.000000
# 4 0.000000 0.000000 0.000000 0.034851 0.000000 0.000000
# 5 0.000000 0.000000 0.000000 0.000000 0.029838 0.000000
# 6 0.000000 0.000000 0.000000 0.000000 0.000000 0.049391
#
#
# Mechanical properties :
#
#
# Convention : Reuss Voigt Hill
#
# Bulk Modulus (GPa) = 58.77357 75.35777 67.06567
# Shear Modulus (GPa) = 25.83383 28.04853 26.94118
#
# Velocity S-wave (km/s) = 3.76801 3.92620 3.84792
# Velocity P-wave (km/s) = 7.15762 7.87203 7.52331
#
# Compressibility (1/GPa) = 0.01701445
#
# Stress axis : x y z
#
# Youngs Moduli (GPa) = 47.54030 72.37665 94.76904
#
# Poissons Ratio (x) = 0.31426 0.38068
# Poissons Ratio (y) = 0.20642 0.55303
# Poissons Ratio (z) = 0.19097 0.42235
#
# Static dielectric constant tensor:
#      x y z
#    x 3.287910 0.000000 0.000000 
#    y 0.000000 3.241650 0.000000 
#    z 0.000000 0.000000 3.681730 
# 
# 
# High freq. dielectric constant tensor:
#      x y z
#    x 1.698510 0.000000 0.000000 
#    y 0.000000 1.676080 0.000000 
#    z 0.000000 0.000000 1.725770 
# 
# From -- ./inp_files/29466.got.cif
#   From: 2010.03.12/outbox.cif.g09.slc.cpg/sg59_15_cif.got.tgz:29466.got - 2010.04.16 16:29:54.
