data_PCOD8241592
_publ_section_title
;
Structure prediction by ZEFSAII (Michael W. Deem and Ramdas Pophale) SiO2 
 PCOD8241592
Probable space group: P M M N
;
_chemical_formula_sum "Si O2"
_cell_formula_units_Z 48
_cell_length_a 12.457603
_cell_length_b 8.950229
_cell_length_c 23.552275
_cell_angle_alpha 90.000000
_cell_angle_beta 90.000000
_cell_angle_gamma 90.000000
_cell_volume 2626.040970
_symmetry_space_group_name_H-M "P M M N"
_symmetry_group_IT_number 59
_space_group.IT_coordinate_system_code '2'
_symmetry_cell_setting 'orthorhombic'
loop_
_space_group_symop_operation_xyz
x,y,z
1/2-x,1/2-y,z
1/2+x,-y,-z
-x,1/2+y,-z
-x,-y,-z
1/2+x,1/2+y,-z
1/2-x,y,z
x,1/2-y,z
loop_
_atom_site_type_symbol
_atom_site_label
_atom_site_fract_x
_atom_site_fract_y
_atom_site_fract_z
Si Si1 0.750000 0.926897 0.721015
Si Si2 0.629374 0.921994 0.048004
Si Si3 0.750000 0.427456 0.843253
Si Si4 0.873604 0.415163 0.516944
Si Si5 0.575856 0.576244 0.919389
Si Si6 0.631796 0.923125 0.406874
Si Si7 0.917974 0.075400 0.642260
O O1 0.750000 0.750000 0.728451
O O2 0.750000 0.005614 0.781083
O O3 0.858083 0.976740 0.688765
O O4 0.750000 0.956191 0.069002
O O5 0.598221 0.750000 0.058376
O O6 0.548405 0.025360 0.083632
O O7 0.622586 0.959162 0.981387
O O8 0.750000 0.250000 0.840371
O O9 0.643075 0.482158 0.874565
O O10 0.750000 0.407899 0.499341
O O11 0.925811 0.250000 0.516219
O O12 0.923743 0.514099 0.465414
O O13 0.880551 0.481151 0.580337
O O14 0.585083 0.750000 0.903963
O O15 0.750000 0.990874 0.391725
O O16 0.644808 0.750000 0.418173
O O17 0.547587 0.952069 0.355308
O O18 0.888925 0.250000 0.651678
#
# Coordination Sequence:
#
# PCOD8241592 Si02
#       7
#     4   8   4   8   8   8   8
#     4  12  26  40  58  80 100 130 180 237 276 315
#     4   9  17  31  51  81 120 158 191 223 268 324
#     4  12  24  40  60  80 108 146 186 225 280 337
#     4   9  16  27  45  69 102 138 169 206 258 316
#     4  10  19  33  53  81 116 151 189 234 274 315
#     4   9  18  30  48  76 106 136 169 206 253 316
#     4  10  19  35  53  71 103 138 171 214 266 322
#
# _framework density 18.278465000000001
#
# number of rings (size 3 to 8) (size 9 to 14) (size 15 to 20)
#    0.000    2.167    1.667    2.500    0.000    2.333 
#    0.000    0.000    0.000    1.000    0.000    2.333 
#    0.000    0.000    0.000    0.000    0.000    0.000 
#
# Total GULP energy -594983.109669 kJ/mol
# GULP energy per Si atom -12395.481451 kJ/mol
# Density = 1.823686 g / cm^3
# Si number density = 18.278465 Si / 1000 Ang^3
#
#
#
# Elastic Constant Matrix: (Units=GPa)
#
#
# Indices 1 2 3 4 5 6 
#
# 1 117.3348 49.8638 55.4314 0.0000 0.0000 0.0000
# 2 49.8638 99.3261 56.2244 0.0000 0.0000 0.0000
# 3 55.4314 56.2244 91.7504 0.0000 0.0000 0.0000
# 4 0.0000 0.0000 0.0000 27.4960 0.0000 0.0000
# 5 0.0000 0.0000 0.0000 0.0000 18.3176 0.0000
# 6 0.0000 0.0000 0.0000 0.0000 0.0000 27.8627
#
#
#
# Elastic Compliance Matrix: (Units=1/GPa)
#
#
# Indices 1 2 3 4 5 6 
#
# 1 0.012508 -0.003065 -0.005678 0.000000 0.000000 0.000000
# 2 -0.003065 0.016166 -0.008055 0.000000 0.000000 0.000000
# 3 -0.005678 -0.008055 0.019266 0.000000 0.000000 0.000000
# 4 0.000000 0.000000 0.000000 0.036369 0.000000 0.000000
# 5 0.000000 0.000000 0.000000 0.000000 0.054592 0.000000
# 6 0.000000 0.000000 0.000000 0.000000 0.000000 0.035890
#
#
# Mechanical properties :
#
#
# Convention : Reuss Voigt Hill
#
# Bulk Modulus (GPa) = 69.71934 70.16116 69.94025
# Shear Modulus (GPa) = 23.45565 24.52805 23.99185
#
# Velocity S-wave (km/s) = 3.58612 3.66718 3.62688
# Velocity P-wave (km/s) = 7.44128 7.50992 7.47568
#
# Compressibility (1/GPa) = 0.01434322
#
# Stress axis : x y z
#
# Youngs Moduli (GPa) = 79.95078 61.85849 51.90548
#
# Poissons Ratio (x) = 0.18958 0.29474
# Poissons Ratio (y) = 0.24503 0.41809
# Poissons Ratio (z) = 0.45400 0.49826
#
# Static dielectric constant tensor:
#      x y z
#    x 3.868520 0.000000 0.000000 
#    y 0.000000 3.390200 0.000000 
#    z 0.000000 0.000000 3.022870 
# 
# 
# High freq. dielectric constant tensor:
#      x y z
#    x 1.733200 0.000000 0.000000 
#    y 0.000000 1.703880 0.000000 
#    z 0.000000 0.000000 1.660840 
# 
# From -- ./inp_files/27464.got.cif
#   From: 2010.03.12/outbox.cif.g09.slc.cpg/sg59_14_cif.got.tgz:27464.got - 2010.04.16 16:29:54.
