data_PCOD8241963
_publ_section_title
;
Structure prediction by ZEFSAII (Michael W. Deem and Ramdas Pophale) SiO2 
 PCOD8241963
Probable space group: P M M N
;
_chemical_formula_sum "Si O2"
_cell_formula_units_Z 64
_cell_length_a 31.417367
_cell_length_b 9.027893
_cell_length_c 11.776030
_cell_angle_alpha 90.000000
_cell_angle_beta 90.000000
_cell_angle_gamma 90.000000
_cell_volume 3340.066332
_symmetry_space_group_name_H-M "P M M N"
_symmetry_group_IT_number 59
_space_group.IT_coordinate_system_code '2'
_symmetry_cell_setting 'orthorhombic'
loop_
_space_group_symop_operation_xyz
x,y,z
1/2-x,1/2-y,z
1/2+x,-y,-z
-x,1/2+y,-z
-x,-y,-z
1/2+x,1/2+y,-z
1/2-x,y,z
x,1/2-y,z
loop_
_atom_site_type_symbol
_atom_site_label
_atom_site_fract_x
_atom_site_fract_y
_atom_site_fract_z
Si Si1 0.060830 0.583190 0.528494
Si Si2 0.200889 0.924628 0.999419
Si Si3 0.874810 0.923664 0.868228
Si Si4 0.970143 0.574831 0.906356
Si Si5 0.502160 0.582167 0.317420
Si Si6 0.372279 0.421608 0.387843
Si Si7 0.204111 0.076330 0.531904
Si Si8 0.300400 0.414079 0.774845
O O1 0.069319 0.750000 0.568429
O O2 0.028320 0.578571 0.424767
O O3 0.103470 0.511246 0.483655
O O4 0.045701 0.493215 0.639795
O O5 0.250000 0.976193 0.025845
O O6 0.197725 0.750000 0.008165
O O7 0.186123 0.974477 0.874300
O O8 0.166414 0.993352 0.084386
O O9 0.864557 0.750000 0.871943
O O10 0.919861 0.959153 0.931079
O O11 0.880702 0.978848 0.738742
O O12 0.978125 0.750000 0.906559
O O13 0.982043 0.512288 0.783555
O O14 0.000000 0.500000 0.000000
O O15 0.510904 0.750000 0.275854
O O16 0.385107 0.250000 0.398307
O O17 0.323490 0.454298 0.420237
O O18 0.250000 0.001213 0.508920
O O19 0.209768 0.250000 0.550829
O O20 0.183669 0.021324 0.652572
O O21 0.250000 0.403072 0.766709
O O22 0.319386 0.250000 0.801885
#
# Coordination Sequence:
#
# PCOD8241963 Si02
#       8
#     8   8   8   8   8   8   8   8
#     4  10  20  34  56  84 113 145 182 229 280 336
#     4  10  21  36  56  83 114 150 193 239 286 335
#     4  10  22  38  58  83 113 150 193 235 282 347
#     4  11  23  41  62  86 116 151 194 240 293 353
#     4  10  20  36  60  85 109 144 187 231 280 334
#     4  10  19  34  56  82 112 146 184 234 285 337
#     4   8  15  29  52  82 111 142 180 222 272 328
#     4   8  14  29  53  76 101 136 178 223 272 328
#
# _framework density 19.161294999999999
#
# number of rings (size 3 to 8) (size 9 to 14) (size 15 to 20)
#    0.000    2.375    1.250    2.250    0.000    3.750 
#    2.250    1.875    0.000    1.125    0.000    0.000 
#    0.000    0.000    0.000    0.000    0.000    0.000 
#
# Total GULP energy -793105.995728 kJ/mol
# GULP energy per Si atom -12392.281183 kJ/mol
# Density = 1.911768 g / cm^3
# Si number density = 19.161295 Si / 1000 Ang^3
#
#
#
# Elastic Constant Matrix: (Units=GPa)
#
#
# Indices 1 2 3 4 5 6 
#
# 1 97.2283 46.7911 43.5400 0.0000 0.0000 0.0000
# 2 46.7911 88.7445 39.0682 0.0000 0.0000 0.0000
# 3 43.5400 39.0682 65.6053 0.0000 0.0000 0.0000
# 4 0.0000 0.0000 0.0000 25.3439 0.0000 0.0000
# 5 0.0000 0.0000 0.0000 0.0000 31.5644 0.0000
# 6 0.0000 0.0000 0.0000 0.0000 0.0000 27.0513
#
#
#
# Elastic Compliance Matrix: (Units=1/GPa)
#
#
# Indices 1 2 3 4 5 6 
#
# 1 0.016211 -0.005165 -0.007683 0.000000 0.000000 0.000000
# 2 -0.005165 0.016918 -0.006647 0.000000 0.000000 0.000000
# 3 -0.007683 -0.006647 0.024300 0.000000 0.000000 0.000000
# 4 0.000000 0.000000 0.000000 0.039457 0.000000 0.000000
# 5 0.000000 0.000000 0.000000 0.000000 0.031681 0.000000
# 6 0.000000 0.000000 0.000000 0.000000 0.000000 0.036967
#
#
# Mechanical properties :
#
#
# Convention : Reuss Voigt Hill
#
# Bulk Modulus (GPa) = 54.23249 56.70852 55.47050
# Shear Modulus (GPa) = 23.73377 24.93717 24.33547
#
# Velocity S-wave (km/s) = 3.52324 3.61145 3.56762
# Velocity P-wave (km/s) = 6.70190 6.85928 6.78105
#
# Compressibility (1/GPa) = 0.01843913
#
# Stress axis : x y z
#
# Youngs Moduli (GPa) = 61.68493 59.10957 41.15275
#
# Poissons Ratio (x) = 0.30531 0.31618
# Poissons Ratio (y) = 0.31862 0.27352
# Poissons Ratio (z) = 0.47393 0.39288
#
# Static dielectric constant tensor:
#      x y z
#    x 3.616000 0.000000 0.000000 
#    y 0.000000 3.446960 0.000000 
#    z 0.000000 0.000000 3.619970 
# 
# 
# High freq. dielectric constant tensor:
#      x y z
#    x 1.736540 0.000000 0.000000 
#    y 0.000000 1.732280 0.000000 
#    z 0.000000 0.000000 1.743120 
# 
# From -- ./inp_files/19304.got.cif
#   From: 2010.03.12/outbox.cif.g09.slc.cpg/sg59_10_cif.got.tgz:19304.got - 2010.04.16 16:29:54.
