data_PCOD8241471
_publ_section_title
;
Structure prediction by ZEFSAII (Michael W. Deem and Ramdas Pophale) SiO2 
 PCOD8241471
Probable space group: P M M N
;
_chemical_formula_sum "Si O2"
_cell_formula_units_Z 40
_cell_length_a 9.166408
_cell_length_b 15.348072
_cell_length_c 14.353207
_cell_angle_alpha 90.000000
_cell_angle_beta 90.000000
_cell_angle_gamma 90.000000
_cell_volume 2019.305183
_symmetry_space_group_name_H-M "P M M N"
_symmetry_group_IT_number 59
_space_group.IT_coordinate_system_code '2'
_symmetry_cell_setting 'orthorhombic'
loop_
_space_group_symop_operation_xyz
x,y,z
1/2-x,1/2-y,z
1/2+x,-y,-z
-x,1/2+y,-z
-x,-y,-z
1/2+x,1/2+y,-z
1/2-x,y,z
x,1/2-y,z
loop_
_atom_site_type_symbol
_atom_site_label
_atom_site_fract_x
_atom_site_fract_y
_atom_site_fract_z
Si Si1 0.419258 0.103323 0.092451
Si Si2 0.422897 0.003896 0.598417
Si Si3 0.416262 0.653270 0.728501
Si Si4 0.917287 0.151488 0.707837
Si Si5 0.082667 0.901032 0.088536
O O1 0.250000 0.125093 0.091142
O O2 0.489636 0.153656 0.178140
O O3 0.453826 0.001841 0.105956
O O4 0.486235 0.137362 0.995244
O O5 0.250000 0.007029 0.584528
O O6 0.473880 0.090156 0.651743
O O7 0.500000 0.000000 0.500000
O O8 0.473045 0.917924 0.654824
O O9 0.250000 0.631486 0.755715
O O10 0.429234 0.750000 0.683630
O O11 0.750000 0.120071 0.693019
O O12 0.937831 0.250000 0.671518
O O13 0.956339 0.149731 0.817207
O O14 0.250000 0.887855 0.059838
#
# Coordination Sequence:
#
# PCOD8241471 Si02
#       5
#     8   8   8   8   8
#     4  10  19  32  55  86 120 156 197 242 287 338
#     4  11  24  42  65  89 117 151 193 245 303 358
#     4  10  22  40  61  85 115 154 197 239 290 353
#     4  10  21  39  63  89 119 157 199 242 292 351
#     4   9  18  33  54  83 121 161 198 234 283 346
#
# _framework density 19.808793999999999
#
# number of rings (size 3 to 8) (size 9 to 14) (size 15 to 20)
#    0.000    2.000    2.000    1.200    0.000    4.800 
#    0.000    4.000    0.000    0.000    0.000    0.000 
#    0.000    0.000    0.000    0.000    0.000    0.000 
#
# Total GULP energy -496119.768122 kJ/mol
# GULP energy per Si atom -12402.994203 kJ/mol
# Density = 1.976371 g / cm^3
# Si number density = 19.808794 Si / 1000 Ang^3
#
#
#
# Elastic Constant Matrix: (Units=GPa)
#
#
# Indices 1 2 3 4 5 6 
#
# 1 84.6838 41.9012 58.3584 0.0000 0.0000 0.0000
# 2 41.9012 101.8505 54.2989 0.0000 0.0000 0.0000
# 3 58.3584 54.2989 121.4524 0.0000 0.0000 0.0000
# 4 0.0000 0.0000 0.0000 6.3856 0.0000 0.0000
# 5 0.0000 0.0000 0.0000 0.0000 39.4498 0.0000
# 6 0.0000 0.0000 0.0000 0.0000 0.0000 26.3903
#
#
#
# Elastic Compliance Matrix: (Units=1/GPa)
#
#
# Indices 1 2 3 4 5 6 
#
# 1 0.018720 -0.003815 -0.007289 0.000000 0.000000 0.000000
# 2 -0.003815 0.013668 -0.004278 0.000000 0.000000 0.000000
# 3 -0.007289 -0.004278 0.013649 0.000000 0.000000 0.000000
# 4 0.000000 0.000000 0.000000 0.156602 0.000000 0.000000
# 5 0.000000 0.000000 0.000000 0.000000 0.025349 0.000000
# 6 0.000000 0.000000 0.000000 0.000000 0.000000 0.037893
#
#
# Mechanical properties :
#
#
# Convention : Reuss Voigt Hill
#
# Bulk Modulus (GPa) = 65.47676 68.56707 67.02191
# Shear Modulus (GPa) = 16.57084 24.67367 20.62226
#
# Velocity S-wave (km/s) = 2.89544 3.53312 3.23006
# Velocity P-wave (km/s) = 6.65614 7.16474 6.91512
#
# Compressibility (1/GPa) = 0.01527260
#
# Stress axis : x y z
#
# Youngs Moduli (GPa) = 53.42003 73.16142 73.26765
#
# Poissons Ratio (x) = 0.27913 0.53406
# Poissons Ratio (y) = 0.20381 0.31341
# Poissons Ratio (z) = 0.38939 0.31296
#
# Static dielectric constant tensor:
#      x y z
#    x 3.584430 0.000000 0.000000 
#    y 0.000000 3.784780 0.000000 
#    z 0.000000 0.000000 3.573030 
# 
# 
# High freq. dielectric constant tensor:
#      x y z
#    x 1.769900 0.000000 0.000000 
#    y 0.000000 1.774570 0.000000 
#    z 0.000000 0.000000 1.767790 
# 
# From -- ./inp_files/19846.got.cif
#   From: 2010.03.12/outbox.cif.g09.slc.cpg/sg59_10_cif.got.tgz:19846.got - 2010.04.16 16:29:54.
