data_PCOD8241369
_publ_section_title
;
Structure prediction by ZEFSAII (Michael W. Deem and Ramdas Pophale) SiO2 
 PCOD8241369
Probable space group: P M M N
;
_chemical_formula_sum "Si O2"
_cell_formula_units_Z 64
_cell_length_a 18.146018
_cell_length_b 8.927667
_cell_length_c 21.488308
_cell_angle_alpha 90.000000
_cell_angle_beta 90.000000
_cell_angle_gamma 90.000000
_cell_volume 3481.140408
_symmetry_space_group_name_H-M "P M M N"
_symmetry_group_IT_number 59
_space_group.IT_coordinate_system_code '2'
_symmetry_cell_setting 'orthorhombic'
loop_
_space_group_symop_operation_xyz
x,y,z
1/2-x,1/2-y,z
1/2+x,-y,-z
-x,1/2+y,-z
-x,-y,-z
1/2+x,1/2+y,-z
1/2-x,y,z
x,1/2-y,z
loop_
_atom_site_type_symbol
_atom_site_label
_atom_site_fract_x
_atom_site_fract_y
_atom_site_fract_z
Si Si1 0.031797 0.574031 0.438861
Si Si2 0.166650 0.425116 0.376686
Si Si3 0.569080 0.923024 0.881608
Si Si4 0.087643 0.427488 0.881411
Si Si5 0.832240 0.927949 0.994281
Si Si6 0.419381 0.079594 0.256421
Si Si7 0.664585 0.074833 0.235925
Si Si8 0.948494 0.575492 0.314822
O O1 0.038749 0.750000 0.448549
O O2 0.975111 0.532760 0.383863
O O3 0.000000 0.500000 0.500000
O O4 0.112960 0.511455 0.423764
O O5 0.250000 0.481761 0.387424
O O6 0.159861 0.250000 0.391235
O O7 0.145557 0.460171 0.304850
O O8 0.548751 0.750000 0.894365
O O9 0.624388 0.986514 0.933601
O O10 0.608727 0.941046 0.814259
O O11 0.495754 0.019429 0.883707
O O12 0.089978 0.250000 0.875889
O O13 0.130860 0.494309 0.823501
O O14 0.127295 0.485474 0.943888
O O15 0.750000 0.995764 0.992835
O O16 0.828824 0.750000 0.993369
O O17 0.446538 0.250000 0.267673
O O18 0.488572 0.970501 0.265807
O O19 0.750000 0.035020 0.241254
O O20 0.650214 0.250000 0.229440
O O21 0.625880 0.014241 0.298789
O O22 0.932652 0.750000 0.307741
#
# Coordination Sequence:
#
# PCOD8241369 Si02
#       8
#     8   8   8   8   8   8   8   8
#     4  10  21  37  59  86 114 150 190 225 267 316
#     4   9  18  33  54  82 115 149 186 227 270 318
#     4  10  19  32  53  78 104 138 180 225 272 325
#     4  11  21  34  54  76 103 141 183 226 273 328
#     4   9  19  34  50  72 103 139 181 229 277 325
#     4   9  17  30  51  78 108 141 176 218 267 318
#     4  11  23  37  55  80 108 138 176 225 278 328
#     4  10  20  35  56  81 109 140 176 217 261 316
#
# _framework density 18.384779000000002
#
# number of rings (size 3 to 8) (size 9 to 14) (size 15 to 20)
#    0.000    2.125    1.250    2.250    0.000    3.750 
#    0.000    3.750    0.000    2.625    0.000    1.750 
#    0.000    0.000    0.000    0.000    0.000    0.000 
#
# Total GULP energy -793666.959004 kJ/mol
# GULP energy per Si atom -12401.046234 kJ/mol
# Density = 1.834293 g / cm^3
# Si number density = 18.384779 Si / 1000 Ang^3
#
#
#
# Elastic Constant Matrix: (Units=GPa)
#
#
# Indices 1 2 3 4 5 6 
#
# 1 140.4411 54.6696 82.9507 0.0000 0.0000 0.0000
# 2 54.6696 61.8110 44.8904 0.0000 0.0000 0.0000
# 3 82.9507 44.8904 134.2186 0.0000 0.0000 0.0000
# 4 0.0000 0.0000 0.0000 23.7196 0.0000 0.0000
# 5 0.0000 0.0000 0.0000 0.0000 26.2239 0.0000
# 6 0.0000 0.0000 0.0000 0.0000 0.0000 23.2633
#
#
#
# Elastic Compliance Matrix: (Units=1/GPa)
#
#
# Indices 1 2 3 4 5 6 
#
# 1 0.013572 -0.007809 -0.005776 0.000000 0.000000 0.000000
# 2 -0.007809 0.025862 -0.003824 0.000000 0.000000 0.000000
# 3 -0.005776 -0.003824 0.012299 0.000000 0.000000 0.000000
# 4 0.000000 0.000000 0.000000 0.042159 0.000000 0.000000
# 5 0.000000 0.000000 0.000000 0.000000 0.038133 0.000000
# 6 0.000000 0.000000 0.000000 0.000000 0.000000 0.042986
#
#
# Mechanical properties :
#
#
# Convention : Reuss Voigt Hill
#
# Bulk Modulus (GPa) = 59.11630 77.94358 68.52994
# Shear Modulus (GPa) = 23.20544 24.90537 24.05540
#
# Velocity S-wave (km/s) = 3.55661 3.68458 3.62116
# Velocity P-wave (km/s) = 7.00648 7.78391 7.40541
#
# Compressibility (1/GPa) = 0.01691581
#
# Stress axis : x y z
#
# Youngs Moduli (GPa) = 73.68260 38.66686 81.30703
#
# Poissons Ratio (x) = 0.30195 0.46963
# Poissons Ratio (y) = 0.57538 0.31089
# Poissons Ratio (z) = 0.42559 0.14785
#
# Static dielectric constant tensor:
#      x y z
#    x 3.536380 0.000000 0.000000 
#    y 0.000000 3.320440 0.000000 
#    z 0.000000 0.000000 3.558570 
# 
# 
# High freq. dielectric constant tensor:
#      x y z
#    x 1.708890 0.000000 0.000000 
#    y 0.000000 1.704900 0.000000 
#    z 0.000000 0.000000 1.716760 
# 
# From -- ./inp_files/30794.got.cif
#   From: 2010.03.12/outbox.cif.g09.slc.cpg/sg59_16_cif.got.tgz:30794.got - 2010.04.16 16:29:54.
