data_PCOD8241610
_publ_section_title
;
Structure prediction by ZEFSAII (Michael W. Deem and Ramdas Pophale) SiO2 
 PCOD8241610
Probable space group: P M M N
;
_chemical_formula_sum "Si O2"
_cell_formula_units_Z 64
_cell_length_a 18.870720
_cell_length_b 9.201877
_cell_length_c 19.993128
_cell_angle_alpha 90.000000
_cell_angle_beta 90.000000
_cell_angle_gamma 90.000000
_cell_volume 3471.727591
_symmetry_space_group_name_H-M "P M M N"
_symmetry_group_IT_number 59
_space_group.IT_coordinate_system_code '2'
_symmetry_cell_setting 'orthorhombic'
loop_
_space_group_symop_operation_xyz
x,y,z
1/2-x,1/2-y,z
1/2+x,-y,-z
-x,1/2+y,-z
-x,-y,-z
1/2+x,1/2+y,-z
1/2-x,y,z
x,1/2-y,z
loop_
_atom_site_type_symbol
_atom_site_label
_atom_site_fract_x
_atom_site_fract_y
_atom_site_fract_z
Si Si1 0.443923 0.922180 0.212224
Si Si2 0.169134 0.579878 0.106483
Si Si3 0.082254 0.422061 0.588938
Si Si4 0.091888 0.076952 0.841630
Si Si5 0.332263 0.078459 0.460534
Si Si6 0.671123 0.923391 0.287639
Si Si7 0.930341 0.077665 0.636217
Si Si8 0.168166 0.420413 0.973408
O O1 0.449406 0.750000 0.215931
O O2 0.375791 0.973573 0.170211
O O3 0.513332 0.982920 0.174142
O O4 0.438894 0.980866 0.287941
O O5 0.250000 0.538543 0.122267
O O6 0.159067 0.750000 0.093944
O O7 0.141772 0.499463 0.040286
O O8 0.088909 0.250000 0.590421
O O9 0.121105 0.481484 0.522699
O O10 0.122196 0.487023 0.653479
O O11 0.999867 0.468507 0.593280
O O12 0.093020 0.250000 0.843074
O O13 0.143275 0.018888 0.783353
O O14 0.120467 0.018302 0.912567
O O15 0.250000 0.037421 0.471531
O O16 0.341352 0.250000 0.451507
O O17 0.361429 0.999225 0.394578
O O18 0.750000 0.982744 0.298845
O O19 0.669416 0.750000 0.288815
O O20 0.918841 0.250000 0.634863
O O21 0.250000 0.457457 0.957930
O O22 0.157298 0.250000 0.983769
#
# Coordination Sequence:
#
# PCOD8241610 Si02
#       8
#     8   8   8   8   8   8   8   8
#     4   9  17  30  48  70  95 122 157 202 243 280
#     4   9  18  32  48  65  88 123 163 197 234 282
#     4   9  16  29  48  72  99 128 161 198 240 289
#     4   9  15  25  42  68  99 124 150 192 242 286
#     4  10  21  35  50  72 103 134 163 199 244 293
#     4   9  14  21  39  68  99 128 157 191 235 286
#     4  10  19  33  54  76  98 127 164 206 247 287
#     4   9  17  29  46  70  98 124 152 191 238 284
#
# _framework density 18.434625
#
# number of rings (size 3 to 8) (size 9 to 14) (size 15 to 20)
#    0.000    2.750    1.250    1.125    0.000    4.250 
#    0.000    1.875    0.000    2.250    0.000    0.000 
#    0.000    3.000    0.000    0.000    0.000    0.000 
#
# Total GULP energy -793446.541278 kJ/mol
# GULP energy per Si atom -12397.602207 kJ/mol
# Density = 1.839267 g / cm^3
# Si number density = 18.434625 Si / 1000 Ang^3
#
#
#
# Elastic Constant Matrix: (Units=GPa)
#
#
# Indices 1 2 3 4 5 6 
#
# 1 111.9078 23.4052 75.3738 0.0000 0.0000 0.0000
# 2 23.4052 15.5944 24.8989 0.0000 0.0000 0.0000
# 3 75.3738 24.8989 143.5374 0.0000 0.0000 0.0000
# 4 0.0000 0.0000 0.0000 22.9420 0.0000 0.0000
# 5 0.0000 0.0000 0.0000 0.0000 42.2013 0.0000
# 6 0.0000 0.0000 0.0000 0.0000 0.0000 16.6374
#
#
#
# Elastic Compliance Matrix: (Units=1/GPa)
#
#
# Indices 1 2 3 4 5 6 
#
# 1 0.015908 -0.014574 -0.005825 0.000000 0.000000 0.000000
# 2 -0.014574 0.102043 -0.010048 0.000000 0.000000 0.000000
# 3 -0.005825 -0.010048 0.011769 0.000000 0.000000 0.000000
# 4 0.000000 0.000000 0.000000 0.043588 0.000000 0.000000
# 5 0.000000 0.000000 0.000000 0.000000 0.023696 0.000000
# 6 0.000000 0.000000 0.000000 0.000000 0.000000 0.060106
#
#
# Mechanical properties :
#
#
# Convention : Reuss Voigt Hill
#
# Bulk Modulus (GPa) = 14.52978 57.59950 36.06464
# Shear Modulus (GPa) = 14.66515 26.18026 20.42270
#
# Velocity S-wave (km/s) = 2.82356 3.77260 3.33204
# Velocity P-wave (km/s) = 4.30452 7.09153 5.86595
#
# Compressibility (1/GPa) = 0.06882417
#
# Stress axis : x y z
#
# Youngs Moduli (GPa) = 62.86315 9.79983 84.97159
#
# Poissons Ratio (x) = 0.14283 0.49497
# Poissons Ratio (y) = 0.91620 0.85377
# Poissons Ratio (z) = 0.36619 0.09847
#
# Static dielectric constant tensor:
#      x y z
#    x 3.540850 0.000000 0.000000 
#    y 0.000000 2.784240 0.000000 
#    z 0.000000 0.000000 3.598250 
# 
# 
# High freq. dielectric constant tensor:
#      x y z
#    x 1.723960 0.000000 0.000000 
#    y 0.000000 1.648080 0.000000 
#    z 0.000000 0.000000 1.726770 
# 
# From -- ./inp_files/30903.got.cif
#   From: 2010.03.12/outbox.cif.g09.slc.cpg/sg59_16_cif.got.tgz:30903.got - 2010.04.16 16:29:54.
