data_PCOD8241354
_publ_section_title
;
Structure prediction by ZEFSAII (Michael W. Deem and Ramdas Pophale) SiO2 
 PCOD8241354
Probable space group: P M M N
;
_chemical_formula_sum "Si O2"
_cell_formula_units_Z 32
_cell_length_a 14.392025
_cell_length_b 14.326452
_cell_length_c 7.630018
_cell_angle_alpha 90.000000
_cell_angle_beta 90.000000
_cell_angle_gamma 90.000000
_cell_volume 1573.207892
_symmetry_space_group_name_H-M "P M M N"
_symmetry_group_IT_number 59
_space_group.IT_coordinate_system_code '2'
_symmetry_cell_setting 'orthorhombic'
loop_
_space_group_symop_operation_xyz
x,y,z
1/2-x,1/2-y,z
1/2+x,-y,-z
-x,1/2+y,-z
-x,-y,-z
1/2+x,1/2+y,-z
1/2-x,y,z
x,1/2-y,z
loop_
_atom_site_type_symbol
_atom_site_label
_atom_site_fract_x
_atom_site_fract_y
_atom_site_fract_z
Si Si1 0.959942 0.856959 0.676596
Si Si2 0.146564 0.854105 0.843796
Si Si3 0.144050 0.038768 0.021624
Si Si4 0.643296 0.642152 0.330667
O O1 0.927472 0.750000 0.709808
O O2 0.923492 0.890761 0.488468
O O3 0.071979 0.865855 0.686638
O O4 0.919570 0.923525 0.825277
O O5 0.250000 0.870896 0.763572
O O6 0.138158 0.750000 0.925164
O O7 0.129496 0.927199 0.001876
O O8 0.250000 0.065324 0.065305
O O9 0.113206 0.083764 0.837850
O O10 0.750000 0.622281 0.384292
O O11 0.627917 0.750000 0.285129
#
# Coordination Sequence:
#
# PCOD8241354 Si02
#       4
#     8   8   8   8
#     4  10  19  32  53  77 102 133 165 202 252 304
#     4   9  19  35  52  71  98 134 175 214 247 284
#     4  10  19  32  53  77 102 133 165 202 252 304
#     4   9  18  31  48  76 108 129 154 199 252 306
#
# _framework density 20.340606000000001
#
# number of rings (size 3 to 8) (size 9 to 14) (size 15 to 20)
#    0.000    2.500    0.000    2.250    0.000    3.500 
#    0.000    0.000    0.000    3.000    0.000   21.000 
#    0.000    0.000    0.000    0.000    0.000    0.000 
#
# Total GULP energy -396745.455892 kJ/mol
# GULP energy per Si atom -12398.295497 kJ/mol
# Density = 2.029431 g / cm^3
# Si number density = 20.340606 Si / 1000 Ang^3
#
#
#
# Elastic Constant Matrix: (Units=GPa)
#
#
# Indices 1 2 3 4 5 6 
#
# 1 90.7718 37.4813 44.1593 0.0000 0.0000 0.0000
# 2 37.4813 96.7118 47.3419 0.0000 0.0000 0.0000
# 3 44.1593 47.3419 91.3750 0.0000 0.0000 0.0000
# 4 0.0000 0.0000 0.0000 13.7630 0.0000 0.0000
# 5 0.0000 0.0000 0.0000 0.0000 14.4132 0.0000
# 6 0.0000 0.0000 0.0000 0.0000 0.0000 23.0193
#
#
#
# Elastic Compliance Matrix: (Units=1/GPa)
#
#
# Indices 1 2 3 4 5 6 
#
# 1 0.015043 -0.003043 -0.005693 0.000000 0.000000 0.000000
# 2 -0.003043 0.014469 -0.006026 0.000000 0.000000 0.000000
# 3 -0.005693 -0.006026 0.016817 0.000000 0.000000 0.000000
# 4 0.000000 0.000000 0.000000 0.072658 0.000000 0.000000
# 5 0.000000 0.000000 0.000000 0.000000 0.069381 0.000000
# 6 0.000000 0.000000 0.000000 0.000000 0.000000 0.043442
#
#
# Mechanical properties :
#
#
# Convention : Reuss Voigt Hill
#
# Bulk Modulus (GPa) = 59.50611 59.64706 59.57659
# Shear Modulus (GPa) = 18.73105 20.23084 19.48094
#
# Velocity S-wave (km/s) = 3.03788 3.15716 3.09809
# Velocity P-wave (km/s) = 6.45161 6.53284 6.49235
#
# Compressibility (1/GPa) = 0.01680500
#
# Stress axis : x y z
#
# Youngs Moduli (GPa) = 66.47685 69.11266 59.46237
#
# Poissons Ratio (x) = 0.21031 0.33853
# Poissons Ratio (y) = 0.20229 0.35832
# Poissons Ratio (z) = 0.37847 0.41647
#
# Static dielectric constant tensor:
#      x y z
#    x 3.950440 0.000000 0.000000 
#    y 0.000000 3.938270 0.000000 
#    z 0.000000 0.000000 3.282480 
# 
# 
# High freq. dielectric constant tensor:
#      x y z
#    x 1.805930 0.000000 0.000000 
#    y 0.000000 1.808890 0.000000 
#    z 0.000000 0.000000 1.751380 
# 
# From -- ./inp_files/1758.got.cif
#   From: 2010.03.12/outbox.cif.g09.slc.cpg/sg59_1_cif.got.tgz:1758.got - 2010.04.16 16:29:54.
