data_PCOD8241767
_publ_section_title
;
Structure prediction by ZEFSAII (Michael W. Deem and Ramdas Pophale) SiO2 
 PCOD8241767
Probable space group: P M M N
;
_chemical_formula_sum "Si O2"
_cell_formula_units_Z 48
_cell_length_a 9.228559
_cell_length_b 28.118469
_cell_length_c 10.117558
_cell_angle_alpha 90.000000
_cell_angle_beta 90.000000
_cell_angle_gamma 90.000000
_cell_volume 2625.434974
_symmetry_space_group_name_H-M "P M M N"
_symmetry_group_IT_number 59
_space_group.IT_coordinate_system_code '2'
_symmetry_cell_setting 'orthorhombic'
loop_
_space_group_symop_operation_xyz
x,y,z
1/2-x,1/2-y,z
1/2+x,-y,-z
-x,1/2+y,-z
-x,-y,-z
1/2+x,1/2+y,-z
1/2-x,y,z
x,1/2-y,z
loop_
_atom_site_type_symbol
_atom_site_label
_atom_site_fract_x
_atom_site_fract_y
_atom_site_fract_z
Si Si1 0.920283 0.607771 0.016040
Si Si2 0.581058 0.443651 0.215245
Si Si3 0.418244 0.696195 0.094687
Si Si4 0.079422 0.898725 0.508815
Si Si5 0.081756 0.051338 0.721877
Si Si6 0.921874 0.301433 0.604761
O O1 0.750000 0.611278 0.993408
O O2 0.985955 0.573871 0.905686
O O3 0.960181 0.585860 0.158041
O O4 0.989476 0.660268 0.004677
O O5 0.750000 0.438057 0.180396
O O6 0.538457 0.412746 0.343024
O O7 0.538989 0.498038 0.239711
O O8 0.250000 0.682408 0.082579
O O9 0.444049 0.750000 0.043890
O O10 0.473833 0.691118 0.245000
O O11 0.250000 0.902086 0.483892
O O12 0.020756 0.844853 0.484883
O O13 0.006666 0.934981 0.407741
O O14 0.250000 0.055018 0.686396
O O15 0.750000 0.300002 0.603485
O O16 0.980644 0.250000 0.552448
#
# Coordination Sequence:
#
# PCOD8241767 Si02
#       6
#     8   8   8   8   8   8
#     4  11  22  35  53  78 107 143 180 218 266 312
#     4  10  22  37  52  75 109 144 180 221 266 320
#     4   9  17  32  56  81 104 134 172 216 264 312
#     4  10  19  33  56  81 103 135 176 220 269 318
#     4  10  21  36  53  76 106 140 180 224 268 317
#     4   8  14  27  50  79 104 126 161 210 259 308
#
# _framework density 18.282685000000001
#
# number of rings (size 3 to 8) (size 9 to 14) (size 15 to 20)
#    0.000    2.333    1.667    2.500    0.000    2.333 
#    0.000    0.833    0.000    3.500    0.000    0.000 
#    0.000    0.000    0.000    0.000    0.000    0.000 
#
# Total GULP energy -595190.157309 kJ/mol
# GULP energy per Si atom -12399.794944 kJ/mol
# Density = 1.824107 g / cm^3
# Si number density = 18.282685 Si / 1000 Ang^3
#
#
#
# Elastic Constant Matrix: (Units=GPa)
#
#
# Indices 1 2 3 4 5 6 
#
# 1 47.4417 31.5238 21.6649 0.0000 0.0000 0.0000
# 2 31.5238 115.5711 14.3294 0.0000 0.0000 0.0000
# 3 21.6649 14.3294 24.2824 0.0000 0.0000 0.0000
# 4 0.0000 0.0000 0.0000 8.8451 0.0000 0.0000
# 5 0.0000 0.0000 0.0000 0.0000 23.1924 0.0000
# 6 0.0000 0.0000 0.0000 0.0000 0.0000 27.9147
#
#
#
# Elastic Compliance Matrix: (Units=1/GPa)
#
#
# Indices 1 2 3 4 5 6 
#
# 1 0.040267 -0.007045 -0.031770 0.000000 0.000000 0.000000
# 2 -0.007045 0.010568 0.000049 0.000000 0.000000 0.000000
# 3 -0.031770 0.000049 0.069498 0.000000 0.000000 0.000000
# 4 0.000000 0.000000 0.000000 0.113057 0.000000 0.000000
# 5 0.000000 0.000000 0.000000 0.000000 0.043118 0.000000
# 6 0.000000 0.000000 0.000000 0.000000 0.000000 0.035823
#
#
# Mechanical properties :
#
#
# Convention : Reuss Voigt Hill
#
# Bulk Modulus (GPa) = 23.36287 35.81460 29.58873
# Shear Modulus (GPa) = 12.37225 19.97559 16.17392
#
# Velocity S-wave (km/s) = 2.60421 3.30903 2.97755
# Velocity P-wave (km/s) = 4.67429 5.85077 5.29530
#
# Compressibility (1/GPa) = 0.04280296
#
# Stress axis : x y z
#
# Youngs Moduli (GPa) = 24.83398 94.62405 14.38884
#
# Poissons Ratio (x) = 0.66658 0.45713
# Poissons Ratio (y) = 0.17494 -0.00070
# Poissons Ratio (z) = 0.78897 -0.00461
#
# Static dielectric constant tensor:
#      x y z
#    x 3.110180 0.000000 0.000000 
#    y 0.000000 3.807740 0.000000 
#    z 0.000000 0.000000 3.195220 
# 
# 
# High freq. dielectric constant tensor:
#      x y z
#    x 1.686250 0.000000 0.000000 
#    y 0.000000 1.729070 0.000000 
#    z 0.000000 0.000000 1.690460 
# 
# From -- ./inp_files/6251.got.cif
#   From: 2010.03.12/outbox.cif.g09.slc.cpg/sg59_4_cif.got.tgz:6251.got - 2010.04.16 16:29:54.
