data_PCOD8241295
_publ_section_title
;
Structure prediction by ZEFSAII (Michael W. Deem and Ramdas Pophale) SiO2 
 PCOD8241295
Probable space group: P M M N
;
_chemical_formula_sum "Si O2"
_cell_formula_units_Z 48
_cell_length_a 9.126772
_cell_length_b 29.475756
_cell_length_c 9.829822
_cell_angle_alpha 90.000000
_cell_angle_beta 90.000000
_cell_angle_gamma 90.000000
_cell_volume 2644.404014
_symmetry_space_group_name_H-M "P M M N"
_symmetry_group_IT_number 59
_space_group.IT_coordinate_system_code '2'
_symmetry_cell_setting 'orthorhombic'
loop_
_space_group_symop_operation_xyz
x,y,z
1/2-x,1/2-y,z
1/2+x,-y,-z
-x,1/2+y,-z
-x,-y,-z
1/2+x,1/2+y,-z
1/2-x,y,z
x,1/2-y,z
loop_
_atom_site_type_symbol
_atom_site_label
_atom_site_fract_x
_atom_site_fract_y
_atom_site_fract_z
Si Si1 0.416744 0.477059 0.377632
Si Si2 0.575583 0.621022 0.032699
Si Si3 0.418165 0.531892 0.104115
Si Si4 0.576130 0.699951 0.226713
Si Si5 0.924267 0.699119 0.530815
Si Si6 0.075432 0.119634 0.277641
O O1 0.500000 0.500000 0.500000
O O2 0.250000 0.470361 0.423365
O O3 0.429800 0.510503 0.251722
O O4 0.484190 0.427722 0.339596
O O5 0.750000 0.614458 0.041068
O O6 0.498542 0.579768 0.108642
O O7 0.519337 0.665333 0.112951
O O8 0.521008 0.624739 0.877378
O O9 0.250000 0.537395 0.058388
O O10 0.500000 0.500000 0.000000
O O11 0.750000 0.700270 0.227768
O O12 0.517030 0.750000 0.188397
O O13 0.521178 0.686666 0.378425
O O14 0.750000 0.697836 0.536521
O O15 0.978172 0.750000 0.570685
O O16 0.988627 0.661868 0.635447
O O17 0.250000 0.119320 0.279440
#
# Coordination Sequence:
#
# PCOD8241295 Si02
#       6
#     8   8   8   8   8   8
#     4  10  22  37  52  75 105 135 172 216 257 309
#     4  10  19  32  52  77 106 137 171 215 263 309
#     4  11  22  38  56  76 106 140 177 217 262 316
#     4   8  15  27  45  73 104 133 169 209 253 308
#     4   8  14  25  42  67 100 134 166 205 253 304
#     4   9  17  30  45  68 102 133 165 205 252 303
#
# _framework density 18.151537999999999
#
# number of rings (size 3 to 8) (size 9 to 14) (size 15 to 20)
#    0.000    2.667    1.667    1.500    2.333    2.000 
#    0.000    3.333    0.000    0.500    0.000    0.000 
#    0.000    0.667    0.000    0.000    0.000    0.000 
#
# Total GULP energy -595019.734338 kJ/mol
# GULP energy per Si atom -12396.244465 kJ/mol
# Density = 1.811022 g / cm^3
# Si number density = 18.151538 Si / 1000 Ang^3
#
#
#
# Elastic Constant Matrix: (Units=GPa)
#
#
# Indices 1 2 3 4 5 6 
#
# 1 35.8747 28.5631 28.6804 0.0000 0.0000 0.0000
# 2 28.5631 172.5504 87.7762 0.0000 0.0000 0.0000
# 3 28.6804 87.7762 111.5896 0.0000 0.0000 0.0000
# 4 0.0000 0.0000 0.0000 42.0245 0.0000 0.0000
# 5 0.0000 0.0000 0.0000 0.0000 19.6580 0.0000
# 6 0.0000 0.0000 0.0000 0.0000 0.0000 20.7065
#
#
#
# Elastic Compliance Matrix: (Units=1/GPa)
#
#
# Indices 1 2 3 4 5 6 
#
# 1 0.035517 -0.002060 -0.007508 0.000000 0.000000 0.000000
# 2 -0.002060 0.009781 -0.007164 0.000000 0.000000 0.000000
# 3 -0.007508 -0.007164 0.016526 0.000000 0.000000 0.000000
# 4 0.000000 0.000000 0.000000 0.023796 0.000000 0.000000
# 5 0.000000 0.000000 0.000000 0.000000 0.050870 0.000000
# 6 0.000000 0.000000 0.000000 0.000000 0.000000 0.048294
#
#
# Mechanical properties :
#
#
# Convention : Reuss Voigt Hill
#
# Bulk Modulus (GPa) = 35.26083 67.78379 51.52231
# Shear Modulus (GPa) = 21.95851 28.14412 25.05132
#
# Velocity S-wave (km/s) = 3.48189 3.94192 3.71903
# Velocity P-wave (km/s) = 5.96932 7.62513 6.84746
#
# Compressibility (1/GPa) = 0.02836008
#
# Stress axis : x y z
#
# Youngs Moduli (GPa) = 28.15516 102.24146 60.50917
#
# Poissons Ratio (x) = 0.21061 0.45432
# Poissons Ratio (y) = 0.05800 0.43349
# Poissons Ratio (z) = 0.21140 0.73247
#
# Static dielectric constant tensor:
#      x y z
#    x 2.892200 0.000000 0.000000 
#    y 0.000000 4.101130 0.000000 
#    z 0.000000 0.000000 3.504680 
# 
# 
# High freq. dielectric constant tensor:
#      x y z
#    x 1.643980 0.000000 0.000000 
#    y 0.000000 1.719350 0.000000 
#    z 0.000000 0.000000 1.711170 
# 
# From -- ./inp_files/6259.got.cif
#   From: 2010.03.12/outbox.cif.g09.slc.cpg/sg59_4_cif.got.tgz:6259.got - 2010.04.16 16:29:54.
