data_PCOD8241839
_publ_section_title
;
Structure prediction by ZEFSAII (Michael W. Deem and Ramdas Pophale) SiO2 
 PCOD8241839
Probable space group: P M M N
;
_chemical_formula_sum "Si O2"
_cell_formula_units_Z 64
_cell_length_a 9.455459
_cell_length_b 29.420603
_cell_length_c 12.699411
_cell_angle_alpha 90.000000
_cell_angle_beta 90.000000
_cell_angle_gamma 90.000000
_cell_volume 3532.789528
_symmetry_space_group_name_H-M "P M M N"
_symmetry_group_IT_number 59
_space_group.IT_coordinate_system_code '2'
_symmetry_cell_setting 'orthorhombic'
loop_
_space_group_symop_operation_xyz
x,y,z
1/2-x,1/2-y,z
1/2+x,-y,-z
-x,1/2+y,-z
-x,-y,-z
1/2+x,1/2+y,-z
1/2-x,y,z
x,1/2-y,z
loop_
_atom_site_type_symbol
_atom_site_label
_atom_site_fract_x
_atom_site_fract_y
_atom_site_fract_z
Si Si1 0.909267 0.818606 0.845115
Si Si2 0.916418 0.435245 0.669916
Si Si3 0.582617 0.700215 0.614432
Si Si4 0.416942 0.037846 0.303138
Si Si5 0.090222 0.421383 0.091847
Si Si6 0.912283 0.201116 0.959410
Si Si7 0.081303 0.107180 0.481013
Si Si8 0.584519 0.396535 0.894780
O O1 0.750000 0.799917 0.856233
O O2 0.976209 0.805286 0.732684
O O3 0.911699 0.872413 0.855098
O O4 0.001834 0.794969 0.933437
O O5 0.750000 0.428083 0.649575
O O6 0.960927 0.487823 0.658813
O O7 0.961217 0.417954 0.784857
O O8 0.006164 0.406476 0.588236
O O9 0.750000 0.696204 0.621126
O O10 0.536301 0.750000 0.569421
O O11 0.529284 0.658831 0.541590
O O12 0.250000 0.043385 0.296257
O O13 0.473458 0.046021 0.183741
O O14 0.474665 0.074425 0.387321
O O15 0.250000 0.435288 0.059491
O O16 0.994357 0.423553 0.987830
O O17 0.750000 0.194465 0.990769
O O18 0.934162 0.250000 0.899192
O O19 0.960326 0.157118 0.891750
O O20 0.250000 0.103367 0.494717
O O21 0.750000 0.402857 0.915126
#
# Coordination Sequence:
#
# PCOD8241839 Si02
#       8
#     8   8   8   8   8   8   8   8
#     4   9  15  26  46  72  99 124 152 190 238 293
#     4  10  21  36  52  70  97 134 171 206 245 287
#     4   9  16  27  47  74 100 126 156 193 244 299
#     4   9  17  32  54  77 100 127 159 201 253 297
#     4   9  16  29  51  76 101 127 156 194 242 294
#     4   9  17  29  45  65  91 125 162 197 236 282
#     4  10  19  34  54  74  99 128 164 206 245 291
#     4   9  19  34  48  67  98 131 162 198 242 289
#
# _framework density 18.115995999999999
#
# number of rings (size 3 to 8) (size 9 to 14) (size 15 to 20)
#    0.000    2.750    1.250    0.750    0.000    1.750 
#    0.000    2.500    0.000    1.875    0.000    0.000 
#    0.000    0.000    0.000    0.000    0.000    0.000 
#
# Total GULP energy -793188.859486 kJ/mol
# GULP energy per Si atom -12393.575929 kJ/mol
# Density = 1.807476 g / cm^3
# Si number density = 18.115996 Si / 1000 Ang^3
#
#
#
# Elastic Constant Matrix: (Units=GPa)
#
#
# Indices 1 2 3 4 5 6 
#
# 1 33.9851 25.5217 36.0230 0.0000 0.0000 0.0000
# 2 25.5217 119.3011 62.8753 0.0000 0.0000 0.0000
# 3 36.0230 62.8753 118.8334 0.0000 0.0000 0.0000
# 4 0.0000 0.0000 0.0000 15.8498 0.0000 0.0000
# 5 0.0000 0.0000 0.0000 0.0000 26.0510 0.0000
# 6 0.0000 0.0000 0.0000 0.0000 0.0000 15.1691
#
#
#
# Elastic Compliance Matrix: (Units=1/GPa)
#
#
# Indices 1 2 3 4 5 6 
#
# 1 0.044287 -0.003326 -0.011665 0.000000 0.000000 0.000000
# 2 -0.003326 0.011873 -0.005274 0.000000 0.000000 0.000000
# 3 -0.011665 -0.005274 0.014742 0.000000 0.000000 0.000000
# 4 0.000000 0.000000 0.000000 0.063092 0.000000 0.000000
# 5 0.000000 0.000000 0.000000 0.000000 0.038386 0.000000
# 6 0.000000 0.000000 0.000000 0.000000 0.000000 0.065923
#
#
# Mechanical properties :
#
#
# Convention : Reuss Voigt Hill
#
# Bulk Modulus (GPa) = 32.92559 57.88441 45.40500
# Shear Modulus (GPa) = 17.30352 21.26064 19.28208
#
# Velocity S-wave (km/s) = 3.09391 3.42948 3.26600
# Velocity P-wave (km/s) = 5.56573 6.90675 6.27218
#
# Compressibility (1/GPa) = 0.03037151
#
# Stress axis : x y z
#
# Youngs Moduli (GPa) = 22.57981 84.22326 67.83459
#
# Poissons Ratio (x) = 0.28015 0.79131
# Poissons Ratio (y) = 0.07511 0.35775
# Poissons Ratio (z) = 0.26340 0.44418
#
# Static dielectric constant tensor:
#      x y z
#    x 3.080610 0.000000 0.000000 
#    y 0.000000 3.693820 0.000000 
#    z 0.000000 0.000000 3.208470 
# 
# 
# High freq. dielectric constant tensor:
#      x y z
#    x 1.666050 0.000000 0.000000 
#    y 0.000000 1.718320 0.000000 
#    z 0.000000 0.000000 1.684730 
# 
# From -- ./inp_files/15051.got.cif
#   From: 2010.03.12/outbox.cif.g09.slc.cpg/sg59_8_cif.got.tgz:15051.got - 2010.04.16 16:29:54.
