data_PCOD8241795
_publ_section_title
;
Structure prediction by ZEFSAII (Michael W. Deem and Ramdas Pophale) SiO2 
 PCOD8241795
Probable space group: P M M N
;
_chemical_formula_sum "Si O2"
_cell_formula_units_Z 48
_cell_length_a 8.806396
_cell_length_b 19.035184
_cell_length_c 15.075559
_cell_angle_alpha 90.000000
_cell_angle_beta 90.000000
_cell_angle_gamma 90.000000
_cell_volume 2527.136582
_symmetry_space_group_name_H-M "P M M N"
_symmetry_group_IT_number 59
_space_group.IT_coordinate_system_code '2'
_symmetry_cell_setting 'orthorhombic'
loop_
_space_group_symop_operation_xyz
x,y,z
1/2-x,1/2-y,z
1/2+x,-y,-z
-x,1/2+y,-z
-x,-y,-z
1/2+x,1/2+y,-z
1/2-x,y,z
x,1/2-y,z
loop_
_atom_site_type_symbol
_atom_site_label
_atom_site_fract_x
_atom_site_fract_y
_atom_site_fract_z
Si Si1 0.928507 0.073354 0.471449
Si Si2 0.924991 0.830880 0.385998
Si Si3 0.072270 0.427402 0.972252
Si Si4 0.071022 0.425533 0.285956
Si Si5 0.424857 0.067749 0.771705
Si Si6 0.569447 0.828460 0.874351
O O1 0.750000 0.062756 0.467356
O O2 0.969666 0.133792 0.540608
O O3 0.988726 0.097062 0.375933
O O4 0.000000 0.000000 0.500000
O O5 0.750000 0.840139 0.414675
O O6 0.971445 0.750000 0.377895
O O7 0.954794 0.865575 0.290516
O O8 0.250000 0.435747 0.986717
O O9 0.031305 0.408629 0.871017
O O10 0.009579 0.365612 0.035770
O O11 0.000000 0.500000 0.000000
O O12 0.250000 0.420115 0.300341
O O13 0.012265 0.372592 0.210212
O O14 0.031153 0.504693 0.259369
O O15 0.250000 0.042652 0.766326
O O16 0.750000 0.825248 0.874412
O O17 0.500674 0.750000 0.869940
#
# Coordination Sequence:
#
# PCOD8241795 Si02
#       6
#     8   8   8   8   8   8
#     4  12  24  39  61  88 117 152 197 243 293 350
#     4  10  22  40  60  86 120 155 193 240 295 350
#     4  10  19  33  56  85 114 150 194 238 285 336
#     4  11  21  35  59  87 114 152 195 239 289 345
#     4  10  20  34  57  86 116 151 192 241 288 342
#     4   9  19  35  55  83 118 153 192 237 285 339
#
# _framework density 18.993828000000001
#
# number of rings (size 3 to 8) (size 9 to 14) (size 15 to 20)
#    0.000    1.667    3.333    2.000    0.000    1.667 
#    0.000    5.000    0.000    4.000    0.000    2.333 
#    0.000    0.000    0.000    0.000    0.000    0.000 
#
# Total GULP energy -595345.856221 kJ/mol
# GULP energy per Si atom -12403.038671 kJ/mol
# Density = 1.895060 g / cm^3
# Si number density = 18.993828 Si / 1000 Ang^3
#
#
#
# Elastic Constant Matrix: (Units=GPa)
#
#
# Indices 1 2 3 4 5 6 
#
# 1 71.3489 34.6249 48.9620 0.0000 0.0000 0.0000
# 2 34.6249 145.2405 73.0205 0.0000 0.0000 0.0000
# 3 48.9620 73.0205 177.2652 0.0000 0.0000 0.0000
# 4 0.0000 0.0000 0.0000 35.1053 0.0000 0.0000
# 5 0.0000 0.0000 0.0000 0.0000 26.5522 0.0000
# 6 0.0000 0.0000 0.0000 0.0000 0.0000 25.5449
#
#
#
# Elastic Compliance Matrix: (Units=1/GPa)
#
#
# Indices 1 2 3 4 5 6 
#
# 1 0.017854 -0.002241 -0.004008 0.000000 0.000000 0.000000
# 2 -0.002241 0.008965 -0.003074 0.000000 0.000000 0.000000
# 3 -0.004008 -0.003074 0.008015 0.000000 0.000000 0.000000
# 4 0.000000 0.000000 0.000000 0.028486 0.000000 0.000000
# 5 0.000000 0.000000 0.000000 0.000000 0.037662 0.000000
# 6 0.000000 0.000000 0.000000 0.000000 0.000000 0.039147
#
#
# Mechanical properties :
#
#
# Convention : Reuss Voigt Hill
#
# Bulk Modulus (GPa) = 61.77859 78.56328 70.17094
# Shear Modulus (GPa) = 30.45638 33.25696 31.85667
#
# Velocity S-wave (km/s) = 4.00870 4.18896 4.09982
# Velocity P-wave (km/s) = 7.35000 8.05288 7.70945
#
# Compressibility (1/GPa) = 0.01618684
#
# Stress axis : x y z
#
# Youngs Moduli (GPa) = 56.01051 111.54737 124.77325
#
# Poissons Ratio (x) = 0.25000 0.50011
# Poissons Ratio (y) = 0.12553 0.38353
# Poissons Ratio (z) = 0.22450 0.34288
#
# Static dielectric constant tensor:
#      x y z
#    x 3.330770 0.000000 0.000000 
#    y 0.000000 3.492000 0.000000 
#    z 0.000000 0.000000 3.927100 
# 
# 
# High freq. dielectric constant tensor:
#      x y z
#    x 1.719520 0.000000 0.000000 
#    y 0.000000 1.734310 0.000000 
#    z 0.000000 0.000000 1.758360 
# 
# From -- ./inp_files/20292.got.cif
#   From: 2010.03.12/outbox.cif.g09.slc.cpg/sg59_11_cif.got.tgz:20292.got - 2010.04.16 16:29:54.
