data_PCOD8241318
_publ_section_title
;
Structure prediction by ZEFSAII (Michael W. Deem and Ramdas Pophale) SiO2 
 PCOD8241318
Probable space group: P M M N
;
_chemical_formula_sum "Si O2"
_cell_formula_units_Z 48
_cell_length_a 15.444695
_cell_length_b 9.193233
_cell_length_c 17.197177
_cell_angle_alpha 90.000000
_cell_angle_beta 90.000000
_cell_angle_gamma 90.000000
_cell_volume 2441.770063
_symmetry_space_group_name_H-M "P M M N"
_symmetry_group_IT_number 59
_space_group.IT_coordinate_system_code '2'
_symmetry_cell_setting 'orthorhombic'
loop_
_space_group_symop_operation_xyz
x,y,z
1/2-x,1/2-y,z
1/2+x,-y,-z
-x,1/2+y,-z
-x,-y,-z
1/2+x,1/2+y,-z
1/2-x,y,z
x,1/2-y,z
loop_
_atom_site_type_symbol
_atom_site_label
_atom_site_fract_x
_atom_site_fract_y
_atom_site_fract_z
Si Si1 0.647149 0.914658 0.646393
Si Si2 0.853167 0.085929 0.497669
Si Si3 0.401325 0.081430 0.186988
Si Si4 0.750000 0.576703 0.921737
Si Si5 0.351508 0.080894 0.654111
Si Si6 0.094687 0.918129 0.804348
Si Si7 0.250000 0.920416 0.915333
O O1 0.750000 0.917248 0.647862
O O2 0.613043 0.750000 0.635018
O O3 0.612591 0.985570 0.726915
O O4 0.610106 0.010429 0.575495
O O5 0.750000 0.082796 0.499169
O O6 0.888515 0.250000 0.493463
O O7 0.887128 0.997846 0.422950
O O8 0.377748 0.250000 0.195533
O O9 0.334880 0.016631 0.123697
O O10 0.499692 0.056491 0.158445
O O11 0.750000 0.750000 0.930688
O O12 0.750000 0.509260 0.006242
O O13 0.250000 0.052563 0.664945
O O14 0.373339 0.250000 0.647150
O O15 0.399968 0.014589 0.727712
O O16 0.109141 0.750000 0.780832
O O17 0.165205 0.967349 0.867228
O O18 0.250000 0.750000 0.934045
#
# Coordination Sequence:
#
# PCOD8241318 Si02
#       7
#     8   8   8   4   8   8   4
#     4   9  15  28  51  76 104 137 179 227 271 312
#     4   9  17  28  46  75 109 145 184 221 268 323
#     4   9  18  34  58  84 108 141 183 224 267 320
#     4  10  20  38  62  85 108 139 180 223 266 321
#     4  10  19  32  52  78 108 142 185 231 272 313
#     4  10  20  36  57  80 110 146 181 218 269 328
#     4  10  22  38  56  81 112 143 174 217 274 331
#
# _framework density 19.657871
#
# number of rings (size 3 to 8) (size 9 to 14) (size 15 to 20)
#    0.000    2.500    1.667    1.000    0.000    4.000 
#    0.000    3.333    0.000    0.000    0.000    0.000 
#    0.000    0.000    0.000    0.000    0.000    0.000 
#
# Total GULP energy -595206.874529 kJ/mol
# GULP energy per Si atom -12400.143219 kJ/mol
# Density = 1.961313 g / cm^3
# Si number density = 19.657871 Si / 1000 Ang^3
#
#
#
# Elastic Constant Matrix: (Units=GPa)
#
#
# Indices 1 2 3 4 5 6 
#
# 1 91.0109 31.7095 63.7860 0.0000 0.0000 0.0000
# 2 31.7095 79.1936 59.5218 0.0000 0.0000 0.0000
# 3 63.7860 59.5218 172.1658 0.0000 0.0000 0.0000
# 4 0.0000 0.0000 0.0000 32.1193 0.0000 0.0000
# 5 0.0000 0.0000 0.0000 0.0000 6.9537 0.0000
# 6 0.0000 0.0000 0.0000 0.0000 0.0000 10.6398
#
#
#
# Elastic Compliance Matrix: (Units=1/GPa)
#
#
# Indices 1 2 3 4 5 6 
#
# 1 0.015200 -0.002504 -0.004766 0.000000 0.000000 0.000000
# 2 -0.002504 0.017473 -0.005113 0.000000 0.000000 0.000000
# 3 -0.004766 -0.005113 0.009342 0.000000 0.000000 0.000000
# 4 0.000000 0.000000 0.000000 0.031134 0.000000 0.000000
# 5 0.000000 0.000000 0.000000 0.000000 0.143809 0.000000
# 6 0.000000 0.000000 0.000000 0.000000 0.000000 0.093987
#
#
# Mechanical properties :
#
#
# Convention : Reuss Voigt Hill
#
# Bulk Modulus (GPa) = 57.97499 72.48942 65.23220
# Shear Modulus (GPa) = 14.64299 22.43276 18.53787
#
# Velocity S-wave (km/s) = 2.73223 3.38177 3.07420
# Velocity P-wave (km/s) = 6.28566 7.22524 6.77176
#
# Compressibility (1/GPa) = 0.01724882
#
# Stress axis : x y z
#
# Youngs Moduli (GPa) = 65.78769 57.23141 107.04664
#
# Poissons Ratio (x) = 0.14333 0.51016
# Poissons Ratio (y) = 0.16475 0.54733
# Poissons Ratio (z) = 0.31353 0.29262
#
# Static dielectric constant tensor:
#      x y z
#    x 3.467910 0.000000 0.000000 
#    y 0.000000 3.411400 0.000000 
#    z 0.000000 0.000000 3.586970 
# 
# 
# High freq. dielectric constant tensor:
#      x y z
#    x 1.757430 0.000000 0.000000 
#    y 0.000000 1.741850 0.000000 
#    z 0.000000 0.000000 1.766580 
# 
# From -- ./inp_files/27477.got.cif
#   From: 2010.03.12/outbox.cif.g09.slc.cpg/sg59_14_cif.got.tgz:27477.got - 2010.04.16 16:29:54.
