data_PCOD8241556
_publ_section_title
;
Structure prediction by ZEFSAII (Michael W. Deem and Ramdas Pophale) SiO2 
 PCOD8241556
Probable space group: P M M N
;
_chemical_formula_sum "Si O2"
_cell_formula_units_Z 48
_cell_length_a 14.606797
_cell_length_b 9.086860
_cell_length_c 19.845036
_cell_angle_alpha 90.000000
_cell_angle_beta 90.000000
_cell_angle_gamma 90.000000
_cell_volume 2634.030029
_symmetry_space_group_name_H-M "P M M N"
_symmetry_group_IT_number 59
_space_group.IT_coordinate_system_code '2'
_symmetry_cell_setting 'orthorhombic'
loop_
_space_group_symop_operation_xyz
x,y,z
1/2-x,1/2-y,z
1/2+x,-y,-z
-x,1/2+y,-z
-x,-y,-z
1/2+x,1/2+y,-z
1/2-x,y,z
x,1/2-y,z
loop_
_atom_site_type_symbol
_atom_site_label
_atom_site_fract_x
_atom_site_fract_y
_atom_site_fract_z
Si Si1 0.569702 0.079276 0.703002
Si Si2 0.568191 0.578677 0.183643
Si Si3 0.945496 0.422774 0.941527
Si Si4 0.750000 0.423924 0.984217
Si Si5 0.250000 0.574764 0.861885
Si Si6 0.070397 0.923393 0.451850
Si Si7 0.250000 0.084591 0.449274
Si Si8 0.250000 0.086107 0.289500
O O1 0.594844 0.250000 0.709537
O O2 0.477885 0.041232 0.744518
O O3 0.549442 0.035852 0.625839
O O4 0.657532 0.995516 0.734159
O O5 0.594472 0.750000 0.177657
O O6 0.491611 0.534226 0.128839
O O7 0.659863 0.484252 0.175766
O O8 0.949257 0.250000 0.954905
O O9 0.840042 0.479336 0.944163
O O10 0.000000 0.500000 0.000000
O O11 0.750000 0.250000 0.988210
O O12 0.750000 0.484134 0.061129
O O13 0.250000 0.750000 0.857837
O O14 0.070976 0.750000 0.463489
O O15 0.165053 0.992434 0.475988
O O16 0.000000 0.000000 0.500000
O O17 0.250000 0.250000 0.479457
O O18 0.250000 0.090577 0.369443
O O19 0.250000 0.250000 0.258829
#
# Coordination Sequence:
#
# PCOD8241556 Si02
#       8
#     8   8   8   4   4   8   4   4
#     4   9  19  35  54  78 108 142 176 216 264 316
#     4  10  21  36  56  79 103 136 180 221 259 311
#     4  10  19  33  53  76 102 132 170 213 255 304
#     4   9  18  32  50  75 105 135 166 206 258 308
#     4  11  21  35  55  75 104 142 175 214 266 319
#     4  10  19  33  54  79 108 141 179 220 266 317
#     4   9  17  31  51  77 106 138 175 214 263 316
#     4   9  17  30  52  79 107 137 170 212 259 315
#
# _framework density 18.223026999999998
#
# number of rings (size 3 to 8) (size 9 to 14) (size 15 to 20)
#    0.000    2.333    1.667    1.250    0.000    4.000 
#    0.000    3.750    0.000    2.000    0.000    0.000 
#    0.000    0.000    0.000    0.000    0.000    0.000 
#
# Total GULP energy -595117.526255 kJ/mol
# GULP energy per Si atom -12398.281797 kJ/mol
# Density = 1.818155 g / cm^3
# Si number density = 18.223027 Si / 1000 Ang^3
#
#
#
# Elastic Constant Matrix: (Units=GPa)
#
#
# Indices 1 2 3 4 5 6 
#
# 1 178.2232 63.8613 68.4947 0.0000 0.0000 0.0000
# 2 63.8613 80.7269 43.9370 0.0000 0.0000 0.0000
# 3 68.4947 43.9370 80.1384 0.0000 0.0000 0.0000
# 4 0.0000 0.0000 0.0000 22.7979 0.0000 0.0000
# 5 0.0000 0.0000 0.0000 0.0000 31.1171 0.0000
# 6 0.0000 0.0000 0.0000 0.0000 0.0000 35.1549
#
#
#
# Elastic Compliance Matrix: (Units=1/GPa)
#
#
# Indices 1 2 3 4 5 6 
#
# 1 0.009306 -0.004322 -0.005584 0.000000 0.000000 0.000000
# 2 -0.004322 0.019664 -0.007087 0.000000 0.000000 0.000000
# 3 -0.005584 -0.007087 0.021136 0.000000 0.000000 0.000000
# 4 0.000000 0.000000 0.000000 0.043864 0.000000 0.000000
# 5 0.000000 0.000000 0.000000 0.000000 0.032137 0.000000
# 6 0.000000 0.000000 0.000000 0.000000 0.000000 0.028446
#
#
# Mechanical properties :
#
#
# Convention : Reuss Voigt Hill
#
# Bulk Modulus (GPa) = 62.03416 76.85273 69.44344
# Shear Modulus (GPa) = 25.78505 28.66700 27.22603
#
# Velocity S-wave (km/s) = 3.76569 3.97056 3.86948
# Velocity P-wave (km/s) = 7.28167 7.95521 7.62588
#
# Compressibility (1/GPa) = 0.01612015
#
# Stress axis : x y z
#
# Youngs Moduli (GPa) = 107.46050 50.85481 47.31215
#
# Poissons Ratio (x) = 0.21982 0.26418
# Poissons Ratio (y) = 0.46450 0.33528
# Poissons Ratio (z) = 0.60004 0.36038
#
# Static dielectric constant tensor:
#      x y z
#    x 3.854680 0.000000 0.000000 
#    y 0.000000 3.387720 0.000000 
#    z 0.000000 0.000000 4.705460 
# 
# 
# High freq. dielectric constant tensor:
#      x y z
#    x 1.716670 0.000000 0.000000 
#    y 0.000000 1.701850 0.000000 
#    z 0.000000 0.000000 1.686170 
# 
# From -- ./inp_files/27522.got.cif
#   From: 2010.03.12/outbox.cif.g09.slc.cpg/sg59_14_cif.got.tgz:27522.got - 2010.04.16 16:29:54.
