data_PCOD8241257
_publ_section_title
;
Structure prediction by ZEFSAII (Michael W. Deem and Ramdas Pophale) SiO2 
 PCOD8241257
Probable space group: P M M N
;
_chemical_formula_sum "Si O2"
_cell_formula_units_Z 64
_cell_length_a 29.402601
_cell_length_b 8.659173
_cell_length_c 14.867175
_cell_angle_alpha 90.000000
_cell_angle_beta 90.000000
_cell_angle_gamma 90.000000
_cell_volume 3785.215592
_symmetry_space_group_name_H-M "P M M N"
_symmetry_group_IT_number 59
_space_group.IT_coordinate_system_code '2'
_symmetry_cell_setting 'orthorhombic'
loop_
_space_group_symop_operation_xyz
x,y,z
1/2-x,1/2-y,z
1/2+x,-y,-z
-x,1/2+y,-z
-x,-y,-z
1/2+x,1/2+y,-z
1/2-x,y,z
x,1/2-y,z
loop_
_atom_site_type_symbol
_atom_site_label
_atom_site_fract_x
_atom_site_fract_y
_atom_site_fract_z
Si Si1 0.604160 0.428883 0.957827
Si Si2 0.441453 0.069500 0.868624
Si Si3 0.698747 0.926818 0.214553
Si Si4 0.699675 0.426812 0.025030
Si Si5 0.114110 0.927287 0.710555
Si Si6 0.434644 0.426333 0.559753
Si Si7 0.036167 0.071197 0.173897
Si Si8 0.025255 0.072039 0.377021
O O1 0.593733 0.250000 0.940889
O O2 0.582040 0.527376 0.878156
O O3 0.583846 0.475132 0.053987
O O4 0.658732 0.461776 0.955560
O O5 0.436657 0.250000 0.888923
O O6 0.418327 0.029371 0.773845
O O7 0.494499 0.026413 0.866047
O O8 0.750000 0.959003 0.246554
O O9 0.684653 0.750000 0.229720
O O10 0.692970 0.962279 0.109618
O O11 0.666816 0.035927 0.273675
O O12 0.750000 0.455400 0.981363
O O13 0.695718 0.250000 0.058908
O O14 0.103814 0.750000 0.731108
O O15 0.103163 0.966611 0.606704
O O16 0.421858 0.250000 0.578912
O O17 0.436103 0.459955 0.452506
O O18 0.483329 0.460149 0.604408
O O19 0.024766 0.250000 0.158610
O O20 0.045153 0.034878 0.278829
O O21 0.008561 0.250000 0.383658
#
# Coordination Sequence:
#
# PCOD8241257 Si02
#       8
#     8   8   8   8   8   8   8   8
#     4  11  22  35  51  73 101 135 172 210 252 303
#     4  12  23  35  50  71 100 136 176 213 248 293
#     4  10  20  33  51  75 101 130 167 209 250 297
#     4   9  18  33  52  72  97 130 166 206 251 297
#     4  12  22  33  50  74 104 138 170 204 251 307
#     4  10  19  32  52  75  98 128 166 208 250 296
#     4  11  22  36  52  71 101 137 173 212 252 299
#     4   9  19  34  51  72  99 130 166 208 252 295
#
# _framework density 16.907888
#
# number of rings (size 3 to 8) (size 9 to 14) (size 15 to 20)
#    0.000    1.500    2.500    4.125    0.000    2.250 
#    0.000    0.000    0.000    0.000    0.000    0.875 
#    0.000    5.000    0.000    0.000    0.000    0.000 
#
# Total GULP energy -793670.122516 kJ/mol
# GULP energy per Si atom -12401.095664 kJ/mol
# Density = 1.686940 g / cm^3
# Si number density = 16.907888 Si / 1000 Ang^3
#
#
#
# Elastic Constant Matrix: (Units=GPa)
#
#
# Indices 1 2 3 4 5 6 
#
# 1 102.1511 22.0772 41.1399 0.0000 0.0000 0.0000
# 2 22.0772 52.0746 16.9181 0.0000 0.0000 0.0000
# 3 41.1399 16.9181 76.6825 0.0000 0.0000 0.0000
# 4 0.0000 0.0000 0.0000 22.8314 0.0000 0.0000
# 5 0.0000 0.0000 0.0000 0.0000 22.1014 0.0000
# 6 0.0000 0.0000 0.0000 0.0000 0.0000 24.6311
#
#
#
# Elastic Compliance Matrix: (Units=1/GPa)
#
#
# Indices 1 2 3 4 5 6 
#
# 1 0.013058 -0.003512 -0.006231 0.000000 0.000000 0.000000
# 2 -0.003512 0.021630 -0.002888 0.000000 0.000000 0.000000
# 3 -0.006231 -0.002888 0.017021 0.000000 0.000000 0.000000
# 4 0.000000 0.000000 0.000000 0.043799 0.000000 0.000000
# 5 0.000000 0.000000 0.000000 0.000000 0.045246 0.000000
# 6 0.000000 0.000000 0.000000 0.000000 0.000000 0.040599
#
#
# Mechanical properties :
#
#
# Convention : Reuss Voigt Hill
#
# Bulk Modulus (GPa) = 37.81044 43.46429 40.63737
# Shear Modulus (GPa) = 23.20942 23.96433 23.58687
#
# Velocity S-wave (km/s) = 3.70901 3.76885 3.73905
# Velocity P-wave (km/s) = 6.38385 6.68590 6.53662
#
# Compressibility (1/GPa) = 0.02644772
#
# Stress axis : x y z
#
# Youngs Moduli (GPa) = 76.58342 46.23143 58.75197
#
# Poissons Ratio (x) = 0.16235 0.36606
# Poissons Ratio (y) = 0.26893 0.16969
# Poissons Ratio (z) = 0.47716 0.13353
#
# Static dielectric constant tensor:
#      x y z
#    x 3.246900 0.000000 0.000000 
#    y 0.000000 3.245670 0.000000 
#    z 0.000000 0.000000 3.129210 
# 
# 
# High freq. dielectric constant tensor:
#      x y z
#    x 1.637990 0.000000 0.000000 
#    y 0.000000 1.666540 0.000000 
#    z 0.000000 0.000000 1.627810 
# 
# From -- ./inp_files/25012.got.cif
#   From: 2010.03.12/outbox.cif.g09.slc.cpg/sg59_13_cif.got.tgz:25012.got - 2010.04.16 16:29:54.
