data_PCOD8241249
_publ_section_title
;
Structure prediction by ZEFSAII (Michael W. Deem and Ramdas Pophale) SiO2 
 PCOD8241249
Probable space group: P M M N
;
_chemical_formula_sum "Si O2"
_cell_formula_units_Z 64
_cell_length_a 29.226978
_cell_length_b 8.678867
_cell_length_c 14.830676
_cell_angle_alpha 90.000000
_cell_angle_beta 90.000000
_cell_angle_gamma 90.000000
_cell_volume 3761.905596
_symmetry_space_group_name_H-M "P M M N"
_symmetry_group_IT_number 59
_space_group.IT_coordinate_system_code '2'
_symmetry_cell_setting 'orthorhombic'
loop_
_space_group_symop_operation_xyz
x,y,z
1/2-x,1/2-y,z
1/2+x,-y,-z
-x,1/2+y,-z
-x,-y,-z
1/2+x,1/2+y,-z
1/2-x,y,z
x,1/2-y,z
loop_
_atom_site_type_symbol
_atom_site_label
_atom_site_fract_x
_atom_site_fract_y
_atom_site_fract_z
Si Si1 0.301504 0.424815 0.802866
Si Si2 0.433281 0.428844 0.549667
Si Si3 0.120349 0.571120 0.702151
Si Si4 0.539470 0.431501 0.827277
Si Si5 0.967181 0.070493 0.621018
Si Si6 0.801613 0.069986 0.007624
Si Si7 0.556112 0.430552 0.132957
Si Si8 0.392601 0.069425 0.035744
O O1 0.250000 0.439459 0.766666
O O2 0.312514 0.250000 0.833005
O O3 0.333897 0.475874 0.721746
O O4 0.310009 0.536063 0.887289
O O5 0.421979 0.250000 0.558727
O O6 0.395037 0.525373 0.602088
O O7 0.481248 0.473005 0.595391
O O8 0.433052 0.477524 0.444707
O O9 0.131920 0.750000 0.706661
O O10 0.081453 0.525429 0.774457
O O11 0.545993 0.250000 0.839558
O O12 0.541494 0.481903 0.723062
O O13 0.491424 0.478135 0.871941
O O14 0.580551 0.521051 0.874832
O O15 0.957862 0.250000 0.607110
O O16 0.750000 0.018130 0.979788
O O17 0.808539 0.250000 0.990454
O O18 0.839290 0.976745 0.950104
O O19 0.545659 0.250000 0.126599
O O20 0.587601 0.479090 0.049838
O O21 0.397299 0.250000 0.019160
#
# Coordination Sequence:
#
# PCOD8241249 Si02
#       8
#     8   8   8   8   8   8   8   8
#     4  10  20  33  51  75 103 134 169 211 257 306
#     4  10  19  32  52  75 101 131 167 210 254 300
#     4  11  21  32  51  75 104 139 174 211 251 305
#     4  11  22  37  54  72 102 139 178 219 258 303
#     4   9  19  34  51  73  99 131 168 209 255 300
#     4  10  20  35  54  75 100 131 169 212 258 306
#     4  11  22  35  50  72 103 140 180 215 252 300
#     4  12  24  36  52  74 103 138 176 215 257 308
#
# _framework density 17.012654000000001
#
# number of rings (size 3 to 8) (size 9 to 14) (size 15 to 20)
#    0.000    1.500    2.500    3.750    0.000    4.000 
#    0.000    0.000    0.000    0.000    0.000    0.875 
#    0.000    1.000    0.000    0.000    0.000    0.000 
#
# Total GULP energy -793874.150873 kJ/mol
# GULP energy per Si atom -12404.283607 kJ/mol
# Density = 1.697393 g / cm^3
# Si number density = 17.012654 Si / 1000 Ang^3
#
#
#
# Elastic Constant Matrix: (Units=GPa)
#
#
# Indices 1 2 3 4 5 6 
#
# 1 98.2550 28.8104 36.2537 0.0000 0.0000 0.0000
# 2 28.8104 46.8011 20.8058 0.0000 0.0000 0.0000
# 3 36.2537 20.8058 72.4442 0.0000 0.0000 0.0000
# 4 0.0000 0.0000 0.0000 25.9219 0.0000 0.0000
# 5 0.0000 0.0000 0.0000 0.0000 19.6084 0.0000
# 6 0.0000 0.0000 0.0000 0.0000 0.0000 29.0794
#
#
#
# Elastic Compliance Matrix: (Units=1/GPa)
#
#
# Indices 1 2 3 4 5 6 
#
# 1 0.013924 -0.006275 -0.005166 0.000000 0.000000 0.000000
# 2 -0.006275 0.027322 -0.004707 0.000000 0.000000 0.000000
# 3 -0.005166 -0.004707 0.017741 0.000000 0.000000 0.000000
# 4 0.000000 0.000000 0.000000 0.038577 0.000000 0.000000
# 5 0.000000 0.000000 0.000000 0.000000 0.050999 0.000000
# 6 0.000000 0.000000 0.000000 0.000000 0.000000 0.034389
#
#
# Mechanical properties :
#
#
# Convention : Reuss Voigt Hill
#
# Bulk Modulus (GPa) = 37.46467 43.24887 40.35677
# Shear Modulus (GPa) = 22.30724 23.69730 23.00227
#
# Velocity S-wave (km/s) = 3.62500 3.73624 3.68104
# Velocity P-wave (km/s) = 6.29208 6.63998 6.46837
#
# Compressibility (1/GPa) = 0.02669182
#
# Stress axis : x y z
#
# Youngs Moduli (GPa) = 71.82096 36.60041 56.36783
#
# Poissons Ratio (x) = 0.22966 0.29118
# Poissons Ratio (y) = 0.45066 0.26531
# Poissons Ratio (z) = 0.37101 0.17227
#
# Static dielectric constant tensor:
#      x y z
#    x 3.202030 0.000000 0.000000 
#    y 0.000000 3.222020 0.000000 
#    z 0.000000 0.000000 3.087130 
# 
# 
# High freq. dielectric constant tensor:
#      x y z
#    x 1.644300 0.000000 0.000000 
#    y 0.000000 1.671620 0.000000 
#    z 0.000000 0.000000 1.632760 
# 
# From -- ./inp_files/25046.got.cif
#   From: 2010.03.12/outbox.cif.g09.slc.cpg/sg59_13_cif.got.tgz:25046.got - 2010.04.16 16:29:54.
