data_PCOD8241562
_publ_section_title
;
Structure prediction by ZEFSAII (Michael W. Deem and Ramdas Pophale) SiO2 
 PCOD8241562
Probable space group: P M M N
;
_chemical_formula_sum "Si O2"
_cell_formula_units_Z 56
_cell_length_a 16.410039
_cell_length_b 9.484117
_cell_length_c 18.859031
_cell_angle_alpha 90.000000
_cell_angle_beta 90.000000
_cell_angle_gamma 90.000000
_cell_volume 2935.120195
_symmetry_space_group_name_H-M "P M M N"
_symmetry_group_IT_number 59
_space_group.IT_coordinate_system_code '2'
_symmetry_cell_setting 'orthorhombic'
loop_
_space_group_symop_operation_xyz
x,y,z
1/2-x,1/2-y,z
1/2+x,-y,-z
-x,1/2+y,-z
-x,-y,-z
1/2+x,1/2+y,-z
1/2-x,y,z
x,1/2-y,z
loop_
_atom_site_type_symbol
_atom_site_label
_atom_site_fract_x
_atom_site_fract_y
_atom_site_fract_z
Si Si1 0.750000 0.917369 0.028512
Si Si2 0.547972 0.908858 0.803758
Si Si3 0.842718 0.909410 0.674685
Si Si4 0.409106 0.417361 0.731498
Si Si5 0.596471 0.095069 0.551454
Si Si6 0.750000 0.917073 0.188044
Si Si7 0.075794 0.084038 0.034131
Si Si8 0.409678 0.095066 0.571153
O O1 0.750000 0.750000 0.026178
O O2 0.750000 0.977839 0.108488
O O3 0.665052 0.970203 0.992660
O O4 0.512481 0.750000 0.800348
O O5 0.627728 0.923163 0.755272
O O6 0.574554 0.948211 0.882652
O O7 0.481973 0.016869 0.775399
O O8 0.750000 0.956194 0.673189
O O9 0.855091 0.750000 0.646639
O O10 0.891545 0.014209 0.624728
O O11 0.420121 0.250000 0.733509
O O12 0.327950 0.471686 0.769514
O O13 0.406911 0.470337 0.650151
O O14 0.637787 0.250000 0.554089
O O15 0.500567 0.114134 0.542542
O O16 0.634827 0.009781 0.484432
O O17 0.750000 0.750000 0.184707
O O18 0.064719 0.250000 0.016991
O O19 0.000000 0.000000 0.000000
O O20 0.366908 0.250000 0.570714
#
# Coordination Sequence:
#
# PCOD8241562 Si02
#       8
#     4   8   8   8   8   4   8   8
#     4   9  18  34  57  83 112 147 184 224 273 331
#     4  10  21  35  56  83 110 141 181 226 276 329
#     4  10  21  36  54  77 107 144 183 228 278 327
#     4  10  19  35  57  81 110 143 183 226 270 323
#     4  10  19  33  53  77 104 139 181 227 272 322
#     4   9  18  32  55  83 106 137 180 222 263 317
#     4  10  21  37  58  85 115 148 187 231 280 338
#     4   9  18  32  52  77 105 139 178 220 268 321
#
# _framework density 19.079287000000001
#
# number of rings (size 3 to 8) (size 9 to 14) (size 15 to 20)
#    0.000    2.286    1.429    1.286    1.000    3.143 
#    1.286    0.714    0.000    2.571    0.000    0.000 
#    0.000    0.000    0.000    0.000    0.000    0.000 
#
# Total GULP energy -694197.643828 kJ/mol
# GULP energy per Si atom -12396.386497 kJ/mol
# Density = 1.903586 g / cm^3
# Si number density = 19.079287 Si / 1000 Ang^3
#
#
#
# Elastic Constant Matrix: (Units=GPa)
#
#
# Indices 1 2 3 4 5 6 
#
# 1 72.0792 27.0399 35.3796 0.0000 0.0000 0.0000
# 2 27.0399 70.4790 49.5710 0.0000 0.0000 0.0000
# 3 35.3796 49.5710 156.3651 0.0000 0.0000 0.0000
# 4 0.0000 0.0000 0.0000 27.2264 0.0000 0.0000
# 5 0.0000 0.0000 0.0000 0.0000 12.2259 0.0000
# 6 0.0000 0.0000 0.0000 0.0000 0.0000 17.8880
#
#
#
# Elastic Compliance Matrix: (Units=1/GPa)
#
#
# Indices 1 2 3 4 5 6 
#
# 1 0.016806 -0.004856 -0.002263 0.000000 0.000000 0.000000
# 2 -0.004856 0.019663 -0.005135 0.000000 0.000000 0.000000
# 3 -0.002263 -0.005135 0.008535 0.000000 0.000000 0.000000
# 4 0.000000 0.000000 0.000000 0.036729 0.000000 0.000000
# 5 0.000000 0.000000 0.000000 0.000000 0.081793 0.000000
# 6 0.000000 0.000000 0.000000 0.000000 0.000000 0.055903
#
#
# Mechanical properties :
#
#
# Convention : Reuss Voigt Hill
#
# Bulk Modulus (GPa) = 48.78893 58.10049 53.44471
# Shear Modulus (GPa) = 19.93851 23.93024 21.93438
#
# Velocity S-wave (km/s) = 3.23621 3.54538 3.39432
# Velocity P-wave (km/s) = 6.29216 6.87589 6.59049
#
# Compressibility (1/GPa) = 0.02049645
#
# Stress axis : x y z
#
# Youngs Moduli (GPa) = 59.50187 50.85611 117.16136
#
# Poissons Ratio (x) = 0.24696 0.26515
# Poissons Ratio (y) = 0.28895 0.60162
# Poissons Ratio (z) = 0.13466 0.26114
#
# Static dielectric constant tensor:
#      x y z
#    x 3.466590 0.000000 0.000000 
#    y 0.000000 3.538210 0.000000 
#    z 0.000000 0.000000 3.660630 
# 
# 
# High freq. dielectric constant tensor:
#      x y z
#    x 1.728800 0.000000 0.000000 
#    y 0.000000 1.723520 0.000000 
#    z 0.000000 0.000000 1.756420 
# 
# From -- ./inp_files/30514.got.cif
#   From: 2010.03.12/outbox.cif.g09.slc.cpg/sg59_16_cif.got.tgz:30514.got - 2010.04.16 16:29:54.
