data_PCOD8241310
_publ_section_title
;
Structure prediction by ZEFSAII (Michael W. Deem and Ramdas Pophale) SiO2 
 PCOD8241310
Probable space group: P M M N
;
_chemical_formula_sum "Si O2"
_cell_formula_units_Z 64
_cell_length_a 8.807478
_cell_length_b 18.547505
_cell_length_c 20.615465
_cell_angle_alpha 90.000000
_cell_angle_beta 90.000000
_cell_angle_gamma 90.000000
_cell_volume 3367.675202
_symmetry_space_group_name_H-M "P M M N"
_symmetry_group_IT_number 59
_space_group.IT_coordinate_system_code '2'
_symmetry_cell_setting 'orthorhombic'
loop_
_space_group_symop_operation_xyz
x,y,z
1/2-x,1/2-y,z
1/2+x,-y,-z
-x,1/2+y,-z
-x,-y,-z
1/2+x,1/2+y,-z
1/2-x,y,z
x,1/2-y,z
loop_
_atom_site_type_symbol
_atom_site_label
_atom_site_fract_x
_atom_site_fract_y
_atom_site_fract_z
Si Si1 0.929597 0.417894 0.874113
Si Si2 0.430416 0.669567 0.619324
Si Si3 0.069696 0.669202 0.762836
Si Si4 0.074800 0.666926 0.375974
Si Si5 0.569714 0.169005 0.998743
Si Si6 0.927543 0.833048 0.241621
Si Si7 0.069837 0.922119 0.500431
Si Si8 0.069221 0.574335 0.880659
O O1 0.750000 0.424918 0.874100
O O2 0.982558 0.384339 0.806682
O O3 0.999407 0.495845 0.885259
O O4 0.987724 0.366532 0.932004
O O5 0.250000 0.670693 0.615264
O O6 0.492943 0.750000 0.606922
O O7 0.482065 0.643182 0.691046
O O8 0.496988 0.617574 0.564108
O O9 0.250000 0.671508 0.767115
O O10 0.007559 0.750000 0.776796
O O11 0.006459 0.613412 0.815844
O O12 0.250000 0.651206 0.359388
O O13 0.050863 0.750000 0.394972
O O14 0.016734 0.620260 0.436468
O O15 0.974339 0.645052 0.314239
O O16 0.750000 0.172406 0.000213
O O17 0.502596 0.250000 0.003856
O O18 0.510582 0.121184 0.058567
O O19 0.750000 0.846383 0.232711
O O20 0.972320 0.750000 0.228051
O O21 0.250000 0.926597 0.503371
O O22 0.000000 0.000000 0.500000
O O23 0.250000 0.567682 0.880252
#
# Coordination Sequence:
#
# PCOD8241310 Si02
#       8
#     8   8   8   8   8   8   8   8
#     4  11  22  35  52  75 107 144 176 208 254 314
#     4   8  14  27  48  72  96 124 163 207 245 287
#     4   8  14  26  48  77 102 126 163 211 258 301
#     4   9  18  34  55  76 100 135 178 219 260 310
#     4   9  18  33  54  77 100 133 179 225 263 301
#     4  10  21  37  57  80 103 129 168 219 269 315
#     4  10  20  32  48  73 104 137 171 209 254 302
#     4  10  19  32  52  78 107 136 170 215 261 304
#
# _framework density 19.004207999999998
#
# number of rings (size 3 to 8) (size 9 to 14) (size 15 to 20)
#    0.000    2.625    0.000    3.000    0.000    5.750 
#    0.000    1.875    0.000    4.125    0.000    1.750 
#    0.000    0.000    0.000    0.000    0.000    0.000 
#
# Total GULP energy -793542.560209 kJ/mol
# GULP energy per Si atom -12399.102503 kJ/mol
# Density = 1.896095 g / cm^3
# Si number density = 19.004208 Si / 1000 Ang^3
#
#
#
# Elastic Constant Matrix: (Units=GPa)
#
#
# Indices 1 2 3 4 5 6 
#
# 1 25.5112 26.3068 25.4749 0.0000 0.0000 0.0000
# 2 26.3068 148.4953 93.3947 0.0000 0.0000 0.0000
# 3 25.4749 93.3947 155.6613 0.0000 0.0000 0.0000
# 4 0.0000 0.0000 0.0000 25.9874 0.0000 0.0000
# 5 0.0000 0.0000 0.0000 0.0000 15.4419 0.0000
# 6 0.0000 0.0000 0.0000 0.0000 0.0000 28.3872
#
#
#
# Elastic Compliance Matrix: (Units=1/GPa)
#
#
# Indices 1 2 3 4 5 6 
#
# 1 0.049930 -0.005952 -0.004600 0.000000 0.000000 0.000000
# 2 -0.005952 0.011525 -0.005941 0.000000 0.000000 0.000000
# 3 -0.004600 -0.005941 0.010741 0.000000 0.000000 0.000000
# 4 0.000000 0.000000 0.000000 0.038480 0.000000 0.000000
# 5 0.000000 0.000000 0.000000 0.000000 0.064759 0.000000
# 6 0.000000 0.000000 0.000000 0.000000 0.000000 0.035227
#
#
# Mechanical properties :
#
#
# Convention : Reuss Voigt Hill
#
# Bulk Modulus (GPa) = 25.50353 68.89119 47.19736
# Shear Modulus (GPa) = 19.47655 26.26271 22.86963
#
# Velocity S-wave (km/s) = 3.20481 3.72148 3.47277
# Velocity P-wave (km/s) = 5.20994 7.40237 6.40072
#
# Compressibility (1/GPa) = 0.03921026
#
# Stress axis : x y z
#
# Youngs Moduli (GPa) = 20.02809 86.76729 93.09741
#
# Poissons Ratio (x) = 0.51645 0.42826
# Poissons Ratio (y) = 0.11921 0.55307
# Poissons Ratio (z) = 0.09213 0.51547
#
# Static dielectric constant tensor:
#      x y z
#    x 3.039330 0.000000 0.000000 
#    y 0.000000 3.571470 0.000000 
#    z 0.000000 0.000000 3.861540 
# 
# 
# High freq. dielectric constant tensor:
#      x y z
#    x 1.693790 0.000000 0.000000 
#    y 0.000000 1.742580 0.000000 
#    z 0.000000 0.000000 1.757140 
# 
# From -- ./inp_files/29531.got.cif
#   From: 2010.03.12/outbox.cif.g09.slc.cpg/sg59_15_cif.got.tgz:29531.got - 2010.04.16 16:29:54.
