data_PCOD8241547
_publ_section_title
;
Structure prediction by ZEFSAII (Michael W. Deem and Ramdas Pophale) SiO2 
 PCOD8241547
Probable space group: P M M N
;
_chemical_formula_sum "Si O2"
_cell_formula_units_Z 64
_cell_length_a 20.596352
_cell_length_b 8.724134
_cell_length_c 18.650901
_cell_angle_alpha 90.000000
_cell_angle_beta 90.000000
_cell_angle_gamma 90.000000
_cell_volume 3351.293390
_symmetry_space_group_name_H-M "P M M N"
_symmetry_group_IT_number 59
_space_group.IT_coordinate_system_code '2'
_symmetry_cell_setting 'orthorhombic'
loop_
_space_group_symop_operation_xyz
x,y,z
1/2-x,1/2-y,z
1/2+x,-y,-z
-x,1/2+y,-z
-x,-y,-z
1/2+x,1/2+y,-z
1/2-x,y,z
x,1/2-y,z
loop_
_atom_site_type_symbol
_atom_site_label
_atom_site_fract_x
_atom_site_fract_y
_atom_site_fract_z
Si Si1 0.324858 0.571639 0.955578
Si Si2 0.060567 0.430858 0.041534
Si Si3 0.821277 0.067891 0.206036
Si Si4 0.822146 0.932360 0.700744
Si Si5 0.437437 0.431923 0.203065
Si Si6 0.941104 0.068122 0.297221
Si Si7 0.178334 0.067863 0.459843
Si Si8 0.056694 0.068320 0.547257
O O1 0.250000 0.543145 0.977452
O O2 0.342892 0.750000 0.962536
O O3 0.337264 0.512731 0.874529
O O4 0.370807 0.474858 0.007092
O O5 0.052663 0.250000 0.041341
O O6 0.059894 0.496511 0.122495
O O7 0.000000 0.500000 0.000000
O O8 0.750000 0.007089 0.229552
O O9 0.821320 0.250000 0.204932
O O10 0.874360 0.006638 0.261930
O O11 0.750000 0.987262 0.723657
O O12 0.825558 0.750000 0.701291
O O13 0.874508 0.001265 0.756174
O O14 0.838217 0.991428 0.620385
O O15 0.432926 0.250000 0.201514
O O16 0.501498 0.484756 0.244908
O O17 0.940685 0.250000 0.308634
O O18 0.951186 0.986738 0.372214
O O19 0.250000 0.008342 0.483023
O O20 0.178049 0.250000 0.459195
O O21 0.125025 0.005670 0.515609
O O22 0.053123 0.250000 0.543572
O O23 0.000000 0.000000 0.500000
#
# Coordination Sequence:
#
# PCOD8241547 Si02
#       8
#     8   8   8   8   8   8   8   8
#     4   9  18  35  58  81 107 141 179 218 264 319
#     4  11  22  35  53  77 106 140 180 224 270 321
#     4   8  15  30  53  77 101 135 176 212 252 310
#     4   8  13  24  44  68  92 119 155 198 241 288
#     4   9  18  31  48  71  98 131 168 208 256 308
#     4  10  19  33  53  74  98 129 170 217 258 299
#     4   8  15  29  50  74  98 126 160 198 241 291
#     4  11  22  35  52  75 104 136 170 208 253 306
#
# _framework density 19.097104000000002
#
# number of rings (size 3 to 8) (size 9 to 14) (size 15 to 20)
#    0.000    2.750    0.000    3.750    0.000    5.250 
#    0.000    4.375    0.000    1.875    0.000    0.000 
#    0.000    0.000    0.000    0.000    0.000    0.000 
#
# Total GULP energy -793399.566395 kJ/mol
# GULP energy per Si atom -12396.868225 kJ/mol
# Density = 1.905364 g / cm^3
# Si number density = 19.097104 Si / 1000 Ang^3
#
#
#
# Elastic Constant Matrix: (Units=GPa)
#
#
# Indices 1 2 3 4 5 6 
#
# 1 155.5477 28.3662 92.9278 0.0000 0.0000 0.0000
# 2 28.3662 31.8620 27.6714 0.0000 0.0000 0.0000
# 3 92.9278 27.6714 152.1567 0.0000 0.0000 0.0000
# 4 0.0000 0.0000 0.0000 23.7274 0.0000 0.0000
# 5 0.0000 0.0000 0.0000 0.0000 43.0205 0.0000
# 6 0.0000 0.0000 0.0000 0.0000 0.0000 18.4706
#
#
#
# Elastic Compliance Matrix: (Units=1/GPa)
#
#
# Indices 1 2 3 4 5 6 
#
# 1 0.010650 -0.004552 -0.005677 0.000000 0.000000 0.000000
# 2 -0.004552 0.039217 -0.004352 0.000000 0.000000 0.000000
# 3 -0.005677 -0.004352 0.010831 0.000000 0.000000 0.000000
# 4 0.000000 0.000000 0.000000 0.042145 0.000000 0.000000
# 5 0.000000 0.000000 0.000000 0.000000 0.023245 0.000000
# 6 0.000000 0.000000 0.000000 0.000000 0.000000 0.054140
#
#
# Mechanical properties :
#
#
# Convention : Reuss Voigt Hill
#
# Bulk Modulus (GPa) = 31.70875 70.83303 51.27089
# Shear Modulus (GPa) = 22.73732 29.75042 26.24387
#
# Velocity S-wave (km/s) = 3.45427 3.95124 3.71109
# Velocity P-wave (km/s) = 5.70520 7.61498 6.72820
#
# Compressibility (1/GPa) = 0.03153704
#
# Stress axis : x y z
#
# Youngs Moduli (GPa) = 93.89287 25.49888 92.32984
#
# Poissons Ratio (x) = 0.11606 0.52414
# Poissons Ratio (y) = 0.42737 0.40184
# Poissons Ratio (z) = 0.53302 0.11098
#
# Static dielectric constant tensor:
#      x y z
#    x 3.942170 0.000000 0.000000 
#    y 0.000000 2.969560 0.000000 
#    z 0.000000 0.000000 3.660910 
# 
# 
# High freq. dielectric constant tensor:
#      x y z
#    x 1.762310 0.000000 0.000000 
#    y 0.000000 1.688550 0.000000 
#    z 0.000000 0.000000 1.747240 
# 
# From -- ./inp_files/28211.got.cif
#   From: 2010.03.12/outbox.cif.g09.slc.cpg/sg59_15_cif.got.tgz:28211.got - 2010.04.16 16:29:54.
