data_PCOD8241118
_publ_section_title
;
Structure prediction by ZEFSAII (Michael W. Deem and Ramdas Pophale) SiO2 
 PCOD8241118
Probable space group: P M M N
;
_chemical_formula_sum "Si O2"
_cell_formula_units_Z 48
_cell_length_a 9.054180
_cell_length_b 32.718605
_cell_length_c 9.136534
_cell_angle_alpha 90.000000
_cell_angle_beta 90.000000
_cell_angle_gamma 90.000000
_cell_volume 2706.608102
_symmetry_space_group_name_H-M "P M M N"
_symmetry_group_IT_number 59
_space_group.IT_coordinate_system_code '2'
_symmetry_cell_setting 'orthorhombic'
loop_
_space_group_symop_operation_xyz
x,y,z
1/2-x,1/2-y,z
1/2+x,-y,-z
-x,1/2+y,-z
-x,-y,-z
1/2+x,1/2+y,-z
1/2-x,y,z
x,1/2-y,z
loop_
_atom_site_type_symbol
_atom_site_label
_atom_site_fract_x
_atom_site_fract_y
_atom_site_fract_z
Si Si1 0.912365 0.836602 0.621384
Si Si2 0.925650 0.129452 0.944955
Si Si3 0.924834 0.460262 0.435743
Si Si4 0.921730 0.379927 0.613639
Si Si5 0.083844 0.417781 0.188507
Si Si6 0.423382 0.203611 0.093768
O O1 0.750000 0.824919 0.564292
O O2 0.909240 0.878195 0.711790
O O3 0.012519 0.841921 0.478382
O O4 0.970772 0.802269 0.735328
O O5 0.750000 0.127390 0.964419
O O6 0.978350 0.121666 0.779423
O O7 0.981759 0.174302 0.990246
O O8 0.999150 0.093285 0.039155
O O9 0.750000 0.466308 0.422026
O O10 0.966596 0.423249 0.544323
O O11 0.000000 0.500000 0.500000
O O12 0.992311 0.452526 0.274473
O O13 0.750000 0.372880 0.607256
O O14 0.250000 0.433493 0.153767
O O15 0.250000 0.192397 0.077974
O O16 0.455944 0.250000 0.046667
#
# Coordination Sequence:
#
# PCOD8241118 Si02
#       6
#     8   8   8   8   8   8
#     4   8  15  28  48  70  91 119 157 196 232 276
#     4  10  19  32  50  73 100 130 163 198 240 291
#     4  10  19  33  52  74  99 128 163 205 250 292
#     4   9  19  33  49  70  98 128 158 196 241 290
#     4   9  17  31  50  72  96 126 163 199 237 285
#     4   9  18  33  51  72  98 127 161 201 242 285
#
# _framework density 17.734375
#
# number of rings (size 3 to 8) (size 9 to 14) (size 15 to 20)
#    0.000    2.833    0.000    2.500    0.000    6.333 
#    0.000    1.667    0.000    3.000    0.000    0.000 
#    0.000    0.000    0.000    0.000    0.000    0.000 
#
# Total GULP energy -595017.352094 kJ/mol
# GULP energy per Si atom -12396.194835 kJ/mol
# Density = 1.769401 g / cm^3
# Si number density = 17.734375 Si / 1000 Ang^3
#
#
#
# Elastic Constant Matrix: (Units=GPa)
#
#
# Indices 1 2 3 4 5 6 
#
# 1 77.6083 29.9791 53.2657 0.0000 0.0000 0.0000
# 2 29.9791 51.5769 29.9081 0.0000 0.0000 0.0000
# 3 53.2657 29.9081 129.1309 0.0000 0.0000 0.0000
# 4 0.0000 0.0000 0.0000 17.1877 0.0000 0.0000
# 5 0.0000 0.0000 0.0000 0.0000 27.7081 0.0000
# 6 0.0000 0.0000 0.0000 0.0000 0.0000 24.0001
#
#
#
# Elastic Compliance Matrix: (Units=1/GPa)
#
#
# Indices 1 2 3 4 5 6 
#
# 1 0.020548 -0.008119 -0.006596 0.000000 0.000000 0.000000
# 2 -0.008119 0.025605 -0.002581 0.000000 0.000000 0.000000
# 3 -0.006596 -0.002581 0.011063 0.000000 0.000000 0.000000
# 4 0.000000 0.000000 0.000000 0.058181 0.000000 0.000000
# 5 0.000000 0.000000 0.000000 0.000000 0.036090 0.000000
# 6 0.000000 0.000000 0.000000 0.000000 0.000000 0.041667
#
#
# Mechanical properties :
#
#
# Convention : Reuss Voigt Hill
#
# Bulk Modulus (GPa) = 44.20160 53.84687 49.02423
# Shear Modulus (GPa) = 21.25067 23.45673 22.35370
#
# Velocity S-wave (km/s) = 3.46537 3.64080 3.55417
# Velocity P-wave (km/s) = 6.40235 6.93562 6.67431
#
# Compressibility (1/GPa) = 0.02262362
#
# Stress axis : x y z
#
# Youngs Moduli (GPa) = 48.66564 39.05560 90.39507
#
# Poissons Ratio (x) = 0.31710 0.59621
# Poissons Ratio (y) = 0.39512 0.23333
# Poissons Ratio (z) = 0.32098 0.10081
#
# Static dielectric constant tensor:
#      x y z
#    x 3.435870 0.000000 0.000000 
#    y 0.000000 3.178720 0.000000 
#    z 0.000000 0.000000 3.552240 
# 
# 
# High freq. dielectric constant tensor:
#      x y z
#    x 1.691490 0.000000 0.000000 
#    y 0.000000 1.661510 0.000000 
#    z 0.000000 0.000000 1.681690 
# 
# From -- ./inp_files/6325.got.cif
#   From: 2010.03.12/outbox.cif.g09.slc.cpg/sg59_4_cif.got.tgz:6325.got - 2010.04.16 16:29:54.
