data_PCOD8241053
_publ_section_title
;
Structure prediction by ZEFSAII (Michael W. Deem and Ramdas Pophale) SiO2 
 PCOD8241053
Probable space group: P M M N
;
_chemical_formula_sum "Si O2"
_cell_formula_units_Z 64
_cell_length_a 9.081732
_cell_length_b 28.381082
_cell_length_c 15.686784
_cell_angle_alpha 90.000000
_cell_angle_beta 90.000000
_cell_angle_gamma 90.000000
_cell_volume 4043.258860
_symmetry_space_group_name_H-M "P M M N"
_symmetry_group_IT_number 59
_space_group.IT_coordinate_system_code '2'
_symmetry_cell_setting 'orthorhombic'
loop_
_space_group_symop_operation_xyz
x,y,z
1/2-x,1/2-y,z
1/2+x,-y,-z
-x,1/2+y,-z
-x,-y,-z
1/2+x,1/2+y,-z
1/2-x,y,z
x,1/2-y,z
loop_
_atom_site_type_symbol
_atom_site_label
_atom_site_fract_x
_atom_site_fract_y
_atom_site_fract_z
Si Si1 0.073988 0.302797 0.182105
Si Si2 0.420106 0.805430 0.508995
Si Si3 0.089114 0.305822 0.999638
Si Si4 0.575057 0.638610 0.657041
Si Si5 0.574303 0.696747 0.184069
Si Si6 0.579438 0.146569 0.664872
Si Si7 0.079043 0.547825 0.602507
Si Si8 0.581383 0.454375 0.594690
O O1 0.250000 0.302492 0.176849
O O2 0.017334 0.250000 0.203411
O O3 0.009536 0.320169 0.089254
O O4 0.018368 0.337550 0.255663
O O5 0.250000 0.819751 0.524335
O O6 0.444977 0.750000 0.515030
O O7 0.519624 0.830389 0.578678
O O8 0.471798 0.822978 0.416315
O O9 0.250000 0.329809 0.998926
O O10 0.108200 0.250000 0.001129
O O11 0.010332 0.319125 0.909680
O O12 0.750000 0.635796 0.652443
O O13 0.508455 0.586449 0.656542
O O14 0.750000 0.694297 0.182435
O O15 0.522592 0.750000 0.205584
O O16 0.513227 0.661180 0.253514
O O17 0.750000 0.156013 0.683496
O O18 0.547164 0.091624 0.649830
O O19 0.250000 0.551359 0.624886
O O20 0.046738 0.557804 0.503368
O O21 0.021751 0.496175 0.628580
O O22 0.750000 0.470671 0.603779
#
# Coordination Sequence:
#
# PCOD8241053 Si02
#       8
#     8   8   8   8   8   8   8   8
#     4   8  14  25  42  65  92 121 153 187 222 262
#     4  10  20  33  45  59  88 129 162 183 215 265
#     4   7  11  23  42  62  87 118 149 185 227 263
#     4  11  20  29  45  69  94 119 153 191 225 263
#     4   9  17  28  44  68  94 119 152 191 224 259
#     4  10  19  32  47  64  89 122 153 182 222 273
#     4  10  19  33  50  66  88 116 149 187 232 276
#     4   9  18  33  50  66  85 112 152 192 226 268
#
# _framework density 15.828816
#
# number of rings (size 3 to 8) (size 9 to 14) (size 15 to 20)
#    0.000    2.750    1.250    3.000    0.000    3.000 
#    0.000    0.000    0.000    1.500    0.000    4.375 
#    0.000    0.000    0.000    0.000    0.000    0.000 
#
# Total GULP energy -793198.465511 kJ/mol
# GULP energy per Si atom -12393.726024 kJ/mol
# Density = 1.579279 g / cm^3
# Si number density = 15.828816 Si / 1000 Ang^3
#
#
#
# Elastic Constant Matrix: (Units=GPa)
#
#
# Indices 1 2 3 4 5 6 
#
# 1 44.1861 33.0078 35.5303 0.0000 0.0000 0.0000
# 2 33.0078 80.8157 54.8564 0.0000 0.0000 0.0000
# 3 35.5303 54.8564 117.5270 0.0000 0.0000 0.0000
# 4 0.0000 0.0000 0.0000 9.8073 0.0000 0.0000
# 5 0.0000 0.0000 0.0000 0.0000 7.5326 0.0000
# 6 0.0000 0.0000 0.0000 0.0000 0.0000 24.9880
#
#
#
# Elastic Compliance Matrix: (Units=1/GPa)
#
#
# Indices 1 2 3 4 5 6 
#
# 1 0.035015 -0.010416 -0.005724 0.000000 0.000000 0.000000
# 2 -0.010416 0.021211 -0.006751 0.000000 0.000000 0.000000
# 3 -0.005724 -0.006751 0.013390 0.000000 0.000000 0.000000
# 4 0.000000 0.000000 0.000000 0.101965 0.000000 0.000000
# 5 0.000000 0.000000 0.000000 0.000000 0.132757 0.000000
# 6 0.000000 0.000000 0.000000 0.000000 0.000000 0.040019
#
#
# Mechanical properties :
#
#
# Convention : Reuss Voigt Hill
#
# Bulk Modulus (GPa) = 41.95735 54.36865 48.16300
# Shear Modulus (GPa) = 12.56016 16.40785 14.48401
#
# Velocity S-wave (km/s) = 2.81997 3.22309 3.02825
# Velocity P-wave (km/s) = 6.09651 6.94792 6.53609
#
# Compressibility (1/GPa) = 0.02383373
#
# Stress axis : x y z
#
# Youngs Moduli (GPa) = 28.55906 47.14574 74.68082
#
# Poissons Ratio (x) = 0.49107 0.42746
# Poissons Ratio (y) = 0.29747 0.50419
# Poissons Ratio (z) = 0.16347 0.31830
#
# Static dielectric constant tensor:
#      x y z
#    x 2.798190 0.000000 0.000000 
#    y 0.000000 2.929860 0.000000 
#    z 0.000000 0.000000 3.256050 
# 
# 
# High freq. dielectric constant tensor:
#      x y z
#    x 1.586450 0.000000 0.000000 
#    y 0.000000 1.591620 0.000000 
#    z 0.000000 0.000000 1.603570 
# 
# From -- ./inp_files/21934.got.cif
#   From: 2010.03.12/outbox.cif.g09.slc.cpg/sg59_11_cif.got.tgz:21934.got - 2010.04.16 16:29:54.
