data_PCOD8241658
_publ_section_title
;
Structure prediction by ZEFSAII (Michael W. Deem and Ramdas Pophale) SiO2 
 PCOD8241658
Probable space group: P M M N
;
_chemical_formula_sum "Si O2"
_cell_formula_units_Z 64
_cell_length_a 8.973626
_cell_length_b 20.031435
_cell_length_c 19.728974
_cell_angle_alpha 90.000000
_cell_angle_beta 90.000000
_cell_angle_gamma 90.000000
_cell_volume 3546.373947
_symmetry_space_group_name_H-M "P M M N"
_symmetry_group_IT_number 59
_space_group.IT_coordinate_system_code '2'
_symmetry_cell_setting 'orthorhombic'
loop_
_space_group_symop_operation_xyz
x,y,z
1/2-x,1/2-y,z
1/2+x,-y,-z
-x,1/2+y,-z
-x,-y,-z
1/2+x,1/2+y,-z
1/2-x,y,z
x,1/2-y,z
loop_
_atom_site_type_symbol
_atom_site_label
_atom_site_fract_x
_atom_site_fract_y
_atom_site_fract_z
Si Si1 0.077774 0.077137 0.160364
Si Si2 0.423195 0.325778 0.915590
Si Si3 0.075490 0.458649 0.662062
Si Si4 0.076172 0.441047 0.814519
Si Si5 0.421807 0.405526 0.315093
Si Si6 0.078894 0.825511 0.579727
Si Si7 0.925147 0.065805 0.529709
Si Si8 0.925315 0.326443 0.054405
O O1 0.250000 0.074490 0.140175
O O2 0.052928 0.105860 0.235522
O O3 0.994334 0.126787 0.110878
O O4 0.013584 0.002618 0.153697
O O5 0.250000 0.332744 0.933647
O O6 0.463101 0.250000 0.894174
O O7 0.468274 0.373714 0.853671
O O8 0.514902 0.348465 0.981154
O O9 0.250000 0.455165 0.647393
O O10 0.033612 0.429333 0.735874
O O11 0.023971 0.535065 0.657012
O O12 0.989423 0.417243 0.604361
O O13 0.250000 0.458185 0.821552
O O14 0.250000 0.421999 0.330645
O O15 0.475455 0.340053 0.355019
O O16 0.250000 0.837321 0.600792
O O17 0.050232 0.750000 0.556649
O O18 0.032683 0.871595 0.516839
O O19 0.750000 0.053924 0.534382
O O20 0.000000 0.000000 0.500000
O O21 0.750000 0.335945 0.054900
O O22 0.971675 0.250000 0.069512
#
# Coordination Sequence:
#
# PCOD8241658 Si02
#       8
#     8   8   8   8   8   8   8   8
#     4  10  21  35  53  79 109 141 177 219 266 315
#     4   9  18  35  58  80 104 138 179 223 271 320
#     4  10  19  33  54  80 108 138 175 217 262 316
#     4   9  19  35  55  80 109 140 176 220 268 319
#     4  10  20  34  53  77 104 136 176 219 263 312
#     4  10  22  38  54  75 106 143 179 217 265 319
#     4  11  21  34  56  81 105 138 180 222 263 315
#     4  10  21  36  54  77 105 140 181 221 264 321
#
# _framework density 18.046603000000001
#
# number of rings (size 3 to 8) (size 9 to 14) (size 15 to 20)
#    0.000    2.125    1.250    1.875    0.000    5.000 
#    0.000    3.125    0.000    0.750    0.000    0.000 
#    0.000    0.000    0.000    0.000    0.000    0.000 
#
# Total GULP energy -793781.669495 kJ/mol
# GULP energy per Si atom -12402.838586 kJ/mol
# Density = 1.800553 g / cm^3
# Si number density = 18.046603 Si / 1000 Ang^3
#
#
#
# Elastic Constant Matrix: (Units=GPa)
#
#
# Indices 1 2 3 4 5 6 
#
# 1 78.9959 49.3653 58.3803 0.0000 0.0000 0.0000
# 2 49.3653 109.3745 78.3898 0.0000 0.0000 0.0000
# 3 58.3803 78.3898 127.5837 0.0000 0.0000 0.0000
# 4 0.0000 0.0000 0.0000 32.1626 0.0000 0.0000
# 5 0.0000 0.0000 0.0000 0.0000 32.6123 0.0000
# 6 0.0000 0.0000 0.0000 0.0000 0.0000 23.0357
#
#
#
# Elastic Compliance Matrix: (Units=1/GPa)
#
#
# Indices 1 2 3 4 5 6 
#
# 1 0.020281 -0.004472 -0.006533 0.000000 0.000000 0.000000
# 2 -0.004472 0.017323 -0.008597 0.000000 0.000000 0.000000
# 3 -0.006533 -0.008597 0.016110 0.000000 0.000000 0.000000
# 4 0.000000 0.000000 0.000000 0.031092 0.000000 0.000000
# 5 0.000000 0.000000 0.000000 0.000000 0.030663 0.000000
# 6 0.000000 0.000000 0.000000 0.000000 0.000000 0.043411
#
#
# Mechanical properties :
#
#
# Convention : Reuss Voigt Hill
#
# Bulk Modulus (GPa) = 68.91748 76.46941 72.69345
# Shear Modulus (GPa) = 24.64016 26.21671 25.42844
#
# Velocity S-wave (km/s) = 3.69909 3.81560 3.75779
# Velocity P-wave (km/s) = 7.51770 7.86619 7.69392
#
# Compressibility (1/GPa) = 0.01451011
#
# Stress axis : x y z
#
# Youngs Moduli (GPa) = 49.30664 57.72685 62.07393
#
# Poissons Ratio (x) = 0.25813 0.40553
# Poissons Ratio (y) = 0.22047 0.53368
# Poissons Ratio (z) = 0.32212 0.49630
#
# Static dielectric constant tensor:
#      x y z
#    x 3.417100 0.000000 0.000000 
#    y 0.000000 3.260150 0.000000 
#    z 0.000000 0.000000 3.525060 
# 
# 
# High freq. dielectric constant tensor:
#      x y z
#    x 1.707830 0.000000 0.000000 
#    y 0.000000 1.683460 0.000000 
#    z 0.000000 0.000000 1.705540 
# 
# From -- ./inp_files/29583.got.cif
#   From: 2010.03.12/outbox.cif.g09.slc.cpg/sg59_15_cif.got.tgz:29583.got - 2010.04.16 16:29:54.
