data_PCOD8241289
_publ_section_title
;
Structure prediction by ZEFSAII (Michael W. Deem and Ramdas Pophale) SiO2 
 PCOD8241289
Probable space group: P M M N
;
_chemical_formula_sum "Si O2"
_cell_formula_units_Z 48
_cell_length_a 8.645456
_cell_length_b 30.879492
_cell_length_c 9.795839
_cell_angle_alpha 90.000000
_cell_angle_beta 90.000000
_cell_angle_gamma 90.000000
_cell_volume 2615.168585
_symmetry_space_group_name_H-M "P M M N"
_symmetry_group_IT_number 59
_space_group.IT_coordinate_system_code '2'
_symmetry_cell_setting 'orthorhombic'
loop_
_space_group_symop_operation_xyz
x,y,z
1/2-x,1/2-y,z
1/2+x,-y,-z
-x,1/2+y,-z
-x,-y,-z
1/2+x,1/2+y,-z
1/2-x,y,z
x,1/2-y,z
loop_
_atom_site_type_symbol
_atom_site_label
_atom_site_fract_x
_atom_site_fract_y
_atom_site_fract_z
Si Si1 0.071926 0.052709 0.858304
Si Si2 0.923532 0.702843 0.334035
Si Si3 0.928999 0.047375 0.142551
Si Si4 0.566170 0.888913 0.644830
Si Si5 0.423698 0.204351 0.341820
Si Si6 0.428551 0.883787 0.351600
O O1 0.250000 0.065064 0.833576
O O2 0.963049 0.080050 0.760066
O O3 0.038192 0.002690 0.825478
O O4 0.029358 0.063315 0.014493
O O5 0.750000 0.694880 0.278496
O O6 0.984166 0.750000 0.280581
O O7 0.921150 0.703649 0.496107
O O8 0.031591 0.663285 0.285718
O O9 0.750000 0.055157 0.108865
O O10 0.978707 0.073667 0.275468
O O11 0.750000 0.892727 0.663980
O O12 0.503194 0.841911 0.702836
O O13 0.529569 0.893842 0.485137
O O14 0.250000 0.205957 0.284911
O O15 0.507115 0.250000 0.293569
O O16 0.250000 0.885051 0.392463
#
# Coordination Sequence:
#
# PCOD8241289 Si02
#       6
#     8   8   8   8   8   8
#     4  10  21  38  57  74  97 133 172 207 253 316
#     4   8  14  27  47  70  99 135 171 205 246 301
#     4  10  21  37  56  77 100 128 166 213 261 308
#     4  10  19  32  52  77 105 137 171 208 253 304
#     4   7  11  22  42  68  96 127 164 201 235 280
#     4  11  21  32  50  78 109 136 168 215 260 294
#
# _framework density 18.354458000000001
#
# number of rings (size 3 to 8) (size 9 to 14) (size 15 to 20)
#    0.000    2.667    0.000    5.000    0.000    3.000 
#    0.000    0.000    0.000    2.500    0.000    2.333 
#    0.000    0.000    0.000    0.000    0.000    0.000 
#
# Total GULP energy -594721.632866 kJ/mol
# GULP energy per Si atom -12390.034018 kJ/mol
# Density = 1.831268 g / cm^3
# Si number density = 18.354458 Si / 1000 Ang^3
#
#
#
# Elastic Constant Matrix: (Units=GPa)
#
#
# Indices 1 2 3 4 5 6 
#
# 1 55.4085 37.1124 8.7184 0.0000 0.0000 0.0000
# 2 37.1124 117.8128 46.1929 0.0000 0.0000 0.0000
# 3 8.7184 46.1929 44.1293 0.0000 0.0000 0.0000
# 4 0.0000 0.0000 0.0000 -0.3506 0.0000 0.0000
# 5 0.0000 0.0000 0.0000 0.0000 24.8373 0.0000
# 6 0.0000 0.0000 0.0000 0.0000 0.0000 25.1310
#
#
#
# Elastic Compliance Matrix: (Units=1/GPa)
#
#
# Indices 1 2 3 4 5 6 
#
# 1 0.023579 -0.009500 0.005286 0.000000 0.000000 0.000000
# 2 -0.009500 0.018225 -0.017200 0.000000 0.000000 0.000000
# 3 0.005286 -0.017200 0.039621 0.000000 0.000000 0.000000
# 4 0.000000 0.000000 0.000000 -2.852142 0.000000 0.000000
# 5 0.000000 0.000000 0.000000 0.000000 0.040262 0.000000
# 6 0.000000 0.000000 0.000000 0.000000 0.000000 0.039791
#
#
# Mechanical properties :
#
#
# Convention : Reuss Voigt Hill
#
# Bulk Modulus (GPa) = 25.90917 44.59976 35.25447
# Shear Modulus (GPa) = -1.89755 18.27868 8.19056
#
# Velocity S-wave (km/s) = -1.01788 3.15917 2.11474
# Velocity P-wave (km/s) = 3.57284 6.13669 5.02117
#
# Compressibility (1/GPa) = 0.03859637
#
# Stress axis : x y z
#
# Youngs Moduli (GPa) = 42.41002 54.87064 25.23936
#
# Poissons Ratio (x) = 0.52130 -0.13342
# Poissons Ratio (y) = 0.40291 0.43412
# Poissons Ratio (z) = -0.22419 0.94377
#
# Static dielectric constant tensor:
#      x y z
#    x 3.233020 0.000000 0.000000 
#    y 0.000000 4.115850 0.000000 
#    z 0.000000 0.000000 2.902050 
# 
# 
# High freq. dielectric constant tensor:
#      x y z
#    x 1.697750 0.000000 0.000000 
#    y 0.000000 1.735080 0.000000 
#    z 0.000000 0.000000 1.662520 
# 
# From -- ./inp_files/6304.got.cif
#   From: 2010.03.12/outbox.cif.g09.slc.cpg/sg59_4_cif.got.tgz:6304.got - 2010.04.16 16:29:54.
