data_PCOD8241775
_publ_section_title
;
Structure prediction by ZEFSAII (Michael W. Deem and Ramdas Pophale) SiO2 
 PCOD8241775
Probable space group: P M M N
;
_chemical_formula_sum "Si O2"
_cell_formula_units_Z 56
_cell_length_a 15.337719
_cell_length_b 8.996900
_cell_length_c 22.253768
_cell_angle_alpha 90.000000
_cell_angle_beta 90.000000
_cell_angle_gamma 90.000000
_cell_volume 3070.840264
_symmetry_space_group_name_H-M "P M M N"
_symmetry_group_IT_number 59
_space_group.IT_coordinate_system_code '2'
_symmetry_cell_setting 'orthorhombic'
loop_
_space_group_symop_operation_xyz
x,y,z
1/2-x,1/2-y,z
1/2+x,-y,-z
-x,1/2+y,-z
-x,-y,-z
1/2+x,1/2+y,-z
1/2-x,y,z
x,1/2-y,z
loop_
_atom_site_type_symbol
_atom_site_label
_atom_site_fract_x
_atom_site_fract_y
_atom_site_fract_z
Si Si1 0.647050 0.913536 0.505333
Si Si2 0.499085 0.074754 0.300465
Si Si3 0.059662 0.081753 0.173287
Si Si4 0.937704 0.427265 0.952547
Si Si5 0.851065 0.075704 0.623592
Si Si6 0.149928 0.425497 0.627766
Si Si7 0.750000 0.420941 0.952948
Si Si8 0.750000 0.914526 0.836661
O O1 0.750000 0.899527 0.501680
O O2 0.608031 0.750000 0.520273
O O3 0.616215 0.967814 0.439392
O O4 0.618468 0.029085 0.556501
O O5 0.494885 0.250000 0.311186
O O6 0.500586 0.035255 0.229325
O O7 0.412828 0.004212 0.329124
O O8 0.588849 0.010938 0.325872
O O9 0.039271 0.250000 0.153007
O O10 0.159432 0.069694 0.199580
O O11 0.041970 0.979406 0.115377
O O12 0.945094 0.250000 0.953511
O O13 0.842242 0.485622 0.976019
O O14 0.000000 0.500000 0.000000
O O15 0.750000 0.030054 0.635078
O O16 0.864358 0.250000 0.629913
O O17 0.250000 0.476128 0.638257
O O18 0.140889 0.250000 0.637777
O O19 0.750000 0.250000 0.967669
O O20 0.750000 0.448705 0.882129
O O21 0.750000 0.750000 0.868420
#
# Coordination Sequence:
#
# PCOD8241775 Si02
#       8
#     8   8   8   8   8   8   4   4
#     4   8  15  31  54  76  98 130 173 220 271 322
#     4  11  23  35  53  79 108 142 179 219 264 320
#     4   9  19  34  52  77 107 140 179 215 255 306
#     4  10  19  33  56  82 110 142 175 215 260 307
#     4  10  21  35  51  76 110 144 176 215 264 319
#     4   9  19  37  59  78  99 132 176 228 279 323
#     4   8  16  30  48  76 108 136 168 203 246 297
#     4   8  14  28  50  72  98 134 170 207 244 291
#
# _framework density 18.236051
#
# number of rings (size 3 to 8) (size 9 to 14) (size 15 to 20)
#    0.000    2.714    0.000    2.143    1.000    4.000 
#    0.000    1.429    1.571    0.000    0.000    0.000 
#    0.000    0.000    0.000    0.000    0.000    0.000 
#
# Total GULP energy -693748.379452 kJ/mol
# GULP energy per Si atom -12388.363919 kJ/mol
# Density = 1.819455 g / cm^3
# Si number density = 18.236051 Si / 1000 Ang^3
#
#
#
# Elastic Constant Matrix: (Units=GPa)
#
#
# Indices 1 2 3 4 5 6 
#
# 1 101.4083 50.8560 64.7447 0.0000 0.0000 0.0000
# 2 50.8560 75.1735 56.2436 0.0000 0.0000 0.0000
# 3 64.7447 56.2436 110.9856 0.0000 0.0000 0.0000
# 4 0.0000 0.0000 0.0000 29.7598 0.0000 0.0000
# 5 0.0000 0.0000 0.0000 0.0000 30.7205 0.0000
# 6 0.0000 0.0000 0.0000 0.0000 0.0000 28.4715
#
#
#
# Elastic Compliance Matrix: (Units=1/GPa)
#
#
# Indices 1 2 3 4 5 6 
#
# 1 0.017649 -0.006824 -0.006837 0.000000 0.000000 0.000000
# 2 -0.006824 0.024065 -0.008214 0.000000 0.000000 0.000000
# 3 -0.006837 -0.008214 0.017162 0.000000 0.000000 0.000000
# 4 0.000000 0.000000 0.000000 0.033602 0.000000 0.000000
# 5 0.000000 0.000000 0.000000 0.000000 0.032552 0.000000
# 6 0.000000 0.000000 0.000000 0.000000 0.000000 0.035123
#
#
# Mechanical properties :
#
#
# Convention : Reuss Voigt Hill
#
# Bulk Modulus (GPa) = 66.12151 70.13957 68.13054
# Shear Modulus (GPa) = 23.92973 25.50523 24.71748
#
# Velocity S-wave (km/s) = 3.62639 3.74386 3.68560
# Velocity P-wave (km/s) = 7.33973 7.56533 7.45338
#
# Compressibility (1/GPa) = 0.01512367
#
# Stress axis : x y z
#
# Youngs Moduli (GPa) = 56.66129 41.55414 58.26945
#
# Poissons Ratio (x) = 0.28356 0.39841
# Poissons Ratio (y) = 0.38666 0.47865
# Poissons Ratio (z) = 0.38742 0.34134
#
# Static dielectric constant tensor:
#      x y z
#    x 3.473990 0.000000 0.000000 
#    y 0.000000 3.515830 0.000000 
#    z 0.000000 0.000000 3.212520 
# 
# 
# High freq. dielectric constant tensor:
#      x y z
#    x 1.701620 0.000000 0.000000 
#    y 0.000000 1.707760 0.000000 
#    z 0.000000 0.000000 1.685820 
# 
# From -- ./inp_files/30429.got.cif
#   From: 2010.03.12/outbox.cif.g09.slc.cpg/sg59_16_cif.got.tgz:30429.got - 2010.04.16 16:29:54.
