data_PCOD8241026
_publ_section_title
;
Structure prediction by ZEFSAII (Michael W. Deem and Ramdas Pophale) SiO2 
 PCOD8241026
Probable space group: P M M N
;
_chemical_formula_sum "Si O2"
_cell_formula_units_Z 64
_cell_length_a 8.915721
_cell_length_b 20.602385
_cell_length_c 19.419754
_cell_angle_alpha 90.000000
_cell_angle_beta 90.000000
_cell_angle_gamma 90.000000
_cell_volume 3567.119778
_symmetry_space_group_name_H-M "P M M N"
_symmetry_group_IT_number 59
_space_group.IT_coordinate_system_code '2'
_symmetry_cell_setting 'orthorhombic'
loop_
_space_group_symop_operation_xyz
x,y,z
1/2-x,1/2-y,z
1/2+x,-y,-z
-x,1/2+y,-z
-x,-y,-z
1/2+x,1/2+y,-z
1/2-x,y,z
x,1/2-y,z
loop_
_atom_site_type_symbol
_atom_site_label
_atom_site_fract_x
_atom_site_fract_y
_atom_site_fract_z
Si Si1 0.076733 0.127199 0.172024
Si Si2 0.422859 0.438054 0.966282
Si Si3 0.076463 0.482495 0.670620
Si Si4 0.078767 0.493183 0.823752
Si Si5 0.420817 0.383844 0.324921
Si Si6 0.921926 0.823266 0.533833
Si Si7 0.926398 0.060044 0.539742
Si Si8 0.922399 0.323419 0.043310
O O1 0.250000 0.135095 0.152984
O O2 0.043289 0.148424 0.250824
O O3 0.982931 0.172539 0.121221
O O4 0.031487 0.052512 0.160677
O O5 0.250000 0.439870 0.987718
O O6 0.443573 0.439959 0.883475
O O7 0.500000 0.500000 0.000000
O O8 0.491352 0.370891 0.991996
O O9 0.250000 0.473985 0.651708
O O10 0.041832 0.461171 0.749468
O O11 0.033133 0.557447 0.659954
O O12 0.980110 0.438284 0.619026
O O13 0.250000 0.519530 0.823240
O O14 0.250000 0.410999 0.324559
O O15 0.443350 0.330471 0.383923
O O16 0.750000 0.838322 0.513564
O O17 0.966101 0.750000 0.513769
O O18 0.029682 0.871720 0.493592
O O19 0.750000 0.050697 0.536332
O O20 0.000000 0.000000 0.500000
O O21 0.750000 0.344335 0.043602
O O22 0.944020 0.250000 0.016753
#
# Coordination Sequence:
#
# PCOD8241026 Si02
#       8
#     8   8   8   8   8   8   8   8
#     4  10  19  31  52  80 109 144 185 225 266 319
#     4  11  21  35  58  85 110 141 180 226 273 325
#     4  10  19  33  55  82 110 142 177 222 274 325
#     4   9  19  34  54  81 113 141 174 220 274 329
#     4   9  18  32  51  78 111 145 182 221 266 322
#     4  10  21  37  56  79 110 147 183 223 273 327
#     4  12  23  36  56  82 110 143 185 231 273 320
#     4  11  24  39  53  74 109 151 190 230 276 325
#
# _framework density 17.941647
#
# number of rings (size 3 to 8) (size 9 to 14) (size 15 to 20)
#    0.000    1.750    2.500    2.625    0.000    3.250 
#    0.000    1.250    0.000    0.750    0.000    1.750 
#    0.000    0.000    0.000    0.000    0.000    0.000 
#
# Total GULP energy -793649.832080 kJ/mol
# GULP energy per Si atom -12400.778626 kJ/mol
# Density = 1.790081 g / cm^3
# Si number density = 17.941647 Si / 1000 Ang^3
#
#
#
# Elastic Constant Matrix: (Units=GPa)
#
#
# Indices 1 2 3 4 5 6 
#
# 1 117.1158 50.3722 52.2917 0.0000 0.0000 0.0000
# 2 50.3722 87.1585 51.1134 0.0000 0.0000 0.0000
# 3 52.2917 51.1134 109.6014 0.0000 0.0000 0.0000
# 4 0.0000 0.0000 0.0000 24.0373 0.0000 0.0000
# 5 0.0000 0.0000 0.0000 0.0000 28.1953 0.0000
# 6 0.0000 0.0000 0.0000 0.0000 0.0000 26.6222
#
#
#
# Elastic Compliance Matrix: (Units=1/GPa)
#
#
# Indices 1 2 3 4 5 6 
#
# 1 0.012269 -0.005035 -0.003506 0.000000 0.000000 0.000000
# 2 -0.005035 0.017859 -0.005926 0.000000 0.000000 0.000000
# 3 -0.003506 -0.005926 0.013560 0.000000 0.000000 0.000000
# 4 0.000000 0.000000 0.000000 0.041602 0.000000 0.000000
# 5 0.000000 0.000000 0.000000 0.000000 0.035467 0.000000
# 6 0.000000 0.000000 0.000000 0.000000 0.000000 0.037563
#
#
# Mechanical properties :
#
#
# Convention : Reuss Voigt Hill
#
# Bulk Modulus (GPa) = 67.77642 69.04782 68.41212
# Shear Modulus (GPa) = 26.01832 26.44419 26.23125
#
# Velocity S-wave (km/s) = 3.81223 3.84331 3.82780
# Velocity P-wave (km/s) = 7.56542 7.63301 7.59929
#
# Compressibility (1/GPa) = 0.01475439
#
# Stress axis : x y z
#
# Youngs Moduli (GPa) = 81.50318 55.99501 73.74456
#
# Poissons Ratio (x) = 0.28194 0.25853
# Poissons Ratio (y) = 0.41038 0.43703
# Poissons Ratio (z) = 0.28573 0.33184
#
# Static dielectric constant tensor:
#      x y z
#    x 3.439190 0.000000 0.000000 
#    y 0.000000 2.985030 0.000000 
#    z 0.000000 0.000000 3.644330 
# 
# 
# High freq. dielectric constant tensor:
#      x y z
#    x 1.705580 0.000000 0.000000 
#    y 0.000000 1.657910 0.000000 
#    z 0.000000 0.000000 1.703770 
# 
# From -- ./inp_files/29581.got.cif
#   From: 2010.03.12/outbox.cif.g09.slc.cpg/sg59_15_cif.got.tgz:29581.got - 2010.04.16 16:29:54.
