data_PCOD8241215
_publ_section_title
;
Structure prediction by ZEFSAII (Michael W. Deem and Ramdas Pophale) SiO2 
 PCOD8241215
Probable space group: P M M N
;
_chemical_formula_sum "Si O2"
_cell_formula_units_Z 64
_cell_length_a 18.062463
_cell_length_b 13.182559
_cell_length_c 14.186941
_cell_angle_alpha 90.000000
_cell_angle_beta 90.000000
_cell_angle_gamma 90.000000
_cell_volume 3378.045204
_symmetry_space_group_name_H-M "P M M N"
_symmetry_group_IT_number 59
_space_group.IT_coordinate_system_code '2'
_symmetry_cell_setting 'orthorhombic'
loop_
_space_group_symop_operation_xyz
x,y,z
1/2-x,1/2-y,z
1/2+x,-y,-z
-x,1/2+y,-z
-x,-y,-z
1/2+x,1/2+y,-z
1/2-x,y,z
x,1/2-y,z
loop_
_atom_site_type_symbol
_atom_site_label
_atom_site_fract_x
_atom_site_fract_y
_atom_site_fract_z
Si Si1 0.095061 0.631535 0.239892
Si Si2 0.394499 0.368397 0.520663
Si Si3 0.165917 0.514804 0.860284
Si Si4 0.553813 0.365046 0.462584
Si Si5 0.666946 0.453387 0.591528
Si Si6 0.169122 0.868535 0.679877
Si Si7 0.163881 0.634216 0.042390
Si Si8 0.074922 0.366665 0.735676
O O1 0.112184 0.750000 0.262828
O O2 0.147258 0.552716 0.297642
O O3 0.112262 0.609074 0.130987
O O4 0.010848 0.602431 0.264423
O O5 0.381720 0.250000 0.497399
O O6 0.474306 0.412856 0.486749
O O7 0.338689 0.435651 0.458192
O O8 0.387636 0.386478 0.633172
O O9 0.250000 0.475150 0.868081
O O10 0.160091 0.610030 0.789617
O O11 0.116414 0.424810 0.819420
O O12 0.138053 0.556710 0.960506
O O13 0.536184 0.250000 0.437670
O O14 0.609399 0.371530 0.550179
O O15 0.599780 0.419566 0.376969
O O16 0.750000 0.414899 0.576184
O O17 0.250000 0.910114 0.644623
O O18 0.166052 0.750000 0.660844
O O19 0.250000 0.617426 0.068115
O O20 0.151549 0.750000 0.008673
O O21 0.082508 0.250000 0.762739
#
# Coordination Sequence:
#
# PCOD8241215 Si02
#       8
#     8   8   8   8   8   8   8   8
#     4  10  21  37  57  83 112 144 180 224 279 334
#     4  10  22  39  55  74 107 154 194 224 265 321
#     4  10  20  33  53  79 106 140 181 224 272 326
#     4  10  19  32  51  76 106 140 176 219 273 328
#     4  12  23  33  54  83 109 142 185 231 273 321
#     4   9  17  28  45  75 110 137 167 215 275 331
#     4   9  18  35  58  82 111 142 171 213 275 343
#     4  10  21  37  56  77 107 146 187 230 272 318
#
# _framework density 18.945868000000001
#
# number of rings (size 3 to 8) (size 9 to 14) (size 15 to 20)
#    0.000    2.000    1.250    2.625    1.750    6.000 
#    0.000    1.250    0.000    0.750    0.000    1.750 
#    0.000    0.000    0.000    0.000    0.000    0.000 
#
# Total GULP energy -793047.020376 kJ/mol
# GULP energy per Si atom -12391.359693 kJ/mol
# Density = 1.890275 g / cm^3
# Si number density = 18.945868 Si / 1000 Ang^3
#
#
#
# Elastic Constant Matrix: (Units=GPa)
#
#
# Indices 1 2 3 4 5 6 
#
# 1 74.4386 12.2158 35.7979 0.0000 0.0000 0.0000
# 2 12.2158 54.1173 32.5799 0.0000 0.0000 0.0000
# 3 35.7979 32.5799 110.5364 0.0000 0.0000 0.0000
# 4 0.0000 0.0000 0.0000 32.0252 0.0000 0.0000
# 5 0.0000 0.0000 0.0000 0.0000 28.8820 0.0000
# 6 0.0000 0.0000 0.0000 0.0000 0.0000 18.9100
#
#
#
# Elastic Compliance Matrix: (Units=1/GPa)
#
#
# Indices 1 2 3 4 5 6 
#
# 1 0.015928 -0.000596 -0.004983 0.000000 0.000000 0.000000
# 2 -0.000596 0.022487 -0.006435 0.000000 0.000000 0.000000
# 3 -0.004983 -0.006435 0.012557 0.000000 0.000000 0.000000
# 4 0.000000 0.000000 0.000000 0.031225 0.000000 0.000000
# 5 0.000000 0.000000 0.000000 0.000000 0.034624 0.000000
# 6 0.000000 0.000000 0.000000 0.000000 0.000000 0.052882
#
#
# Mechanical properties :
#
#
# Convention : Reuss Voigt Hill
#
# Bulk Modulus (GPa) = 37.11242 44.47549 40.79395
# Shear Modulus (GPa) = 24.66560 26.53001 25.59781
#
# Velocity S-wave (km/s) = 3.61210 3.74613 3.67972
# Velocity P-wave (km/s) = 6.08502 6.49902 6.29543
#
# Compressibility (1/GPa) = 0.02694516
#
# Stress axis : x y z
#
# Youngs Moduli (GPa) = 62.78301 44.47049 79.63579
#
# Poissons Ratio (x) = 0.02649 0.39681
# Poissons Ratio (y) = 0.03739 0.51245
# Poissons Ratio (z) = 0.31283 0.28617
#
# Static dielectric constant tensor:
#      x y z
#    x 3.550750 0.000000 0.000000 
#    y 0.000000 3.284150 0.000000 
#    z 0.000000 0.000000 3.475740 
# 
# 
# High freq. dielectric constant tensor:
#      x y z
#    x 1.733840 0.000000 0.000000 
#    y 0.000000 1.726420 0.000000 
#    z 0.000000 0.000000 1.727900 
# 
# From -- ./inp_files/24046.got.cif
#   From: 2010.03.12/outbox.cif.g09.slc.cpg/sg59_13_cif.got.tgz:24046.got - 2010.04.16 16:29:54.
