data_PCOD8241455
_publ_section_title
;
Structure prediction by ZEFSAII (Michael W. Deem and Ramdas Pophale) SiO2 
 PCOD8241455
Probable space group: P M M N
;
_chemical_formula_sum "Si O2"
_cell_formula_units_Z 64
_cell_length_a 9.171744
_cell_length_b 19.521341
_cell_length_c 19.122806
_cell_angle_alpha 90.000000
_cell_angle_beta 90.000000
_cell_angle_gamma 90.000000
_cell_volume 3423.837870
_symmetry_space_group_name_H-M "P M M N"
_symmetry_group_IT_number 59
_space_group.IT_coordinate_system_code '2'
_symmetry_cell_setting 'orthorhombic'
loop_
_space_group_symop_operation_xyz
x,y,z
1/2-x,1/2-y,z
1/2+x,-y,-z
-x,1/2+y,-z
-x,-y,-z
1/2+x,1/2+y,-z
1/2-x,y,z
x,1/2-y,z
loop_
_atom_site_type_symbol
_atom_site_label
_atom_site_fract_x
_atom_site_fract_y
_atom_site_fract_z
Si Si1 0.917993 0.410687 0.439994
Si Si2 0.418294 0.070619 0.576427
Si Si3 0.915641 0.830637 0.177628
Si Si4 0.921773 0.823678 0.022968
Si Si5 0.578013 0.170304 0.302474
Si Si6 0.420679 0.580085 0.286091
Si Si7 0.921264 0.546566 0.943517
Si Si8 0.578909 0.560140 0.786059
O O1 0.750000 0.396593 0.458423
O O2 0.943907 0.489463 0.420626
O O3 0.970793 0.362153 0.376716
O O4 0.014242 0.393817 0.507831
O O5 0.250000 0.090505 0.579057
O O6 0.497778 0.101832 0.643440
O O7 0.750000 0.856985 0.190280
O O8 0.923518 0.750000 0.191173
O O9 0.972380 0.848695 0.099652
O O10 0.028517 0.868246 0.227049
O O11 0.750000 0.814946 0.028249
O O12 0.992648 0.750000 0.004220
O O13 0.966096 0.875992 0.962768
O O14 0.750000 0.162046 0.292787
O O15 0.530509 0.250000 0.299888
O O16 0.501427 0.128838 0.239755
O O17 0.250000 0.588595 0.297784
O O18 0.459862 0.502109 0.265396
O O19 0.750000 0.532736 0.950992
O O20 0.974157 0.537174 0.863678
O O21 0.000000 0.500000 0.000000
O O22 0.750000 0.576517 0.787928
#
# Coordination Sequence:
#
# PCOD8241455 Si02
#       8
#     8   8   8   8   8   8   8   8
#     4   9  18  34  54  79 107 136 174 222 271 317
#     4  10  19  32  55  81 104 137 178 219 265 315
#     4   9  18  33  53  76 101 132 174 222 271 326
#     4   8  15  30  52  74  96 130 176 218 260 317
#     4  10  21  38  59  82 111 148 188 228 274 329
#     4  11  21  33  51  77 110 145 179 219 266 321
#     4  10  20  34  53  79 108 140 177 225 277 323
#     4  10  22  36  52  79 113 146 186 228 272 326
#
# _framework density 18.692474000000001
#
# number of rings (size 3 to 8) (size 9 to 14) (size 15 to 20)
#    0.000    2.375    1.250    2.250    0.000    3.000 
#    0.000    1.875    0.000    3.375    0.000    0.000 
#    0.000    0.000    0.000    0.000    0.000    0.000 
#
# Total GULP energy -793504.111841 kJ/mol
# GULP energy per Si atom -12398.501748 kJ/mol
# Density = 1.864993 g / cm^3
# Si number density = 18.692474 Si / 1000 Ang^3
#
#
#
# Elastic Constant Matrix: (Units=GPa)
#
#
# Indices 1 2 3 4 5 6 
#
# 1 57.4783 27.6085 49.7704 0.0000 0.0000 0.0000
# 2 27.6085 56.4229 37.3823 0.0000 0.0000 0.0000
# 3 49.7704 37.3823 120.2922 0.0000 0.0000 0.0000
# 4 0.0000 0.0000 0.0000 14.3290 0.0000 0.0000
# 5 0.0000 0.0000 0.0000 0.0000 29.2077 0.0000
# 6 0.0000 0.0000 0.0000 0.0000 0.0000 23.8742
#
#
#
# Elastic Compliance Matrix: (Units=1/GPa)
#
#
# Indices 1 2 3 4 5 6 
#
# 1 0.029766 -0.008066 -0.009809 0.000000 0.000000 0.000000
# 2 -0.008066 0.024504 -0.004278 0.000000 0.000000 0.000000
# 3 -0.009809 -0.004278 0.013701 0.000000 0.000000 0.000000
# 4 0.000000 0.000000 0.000000 0.069788 0.000000 0.000000
# 5 0.000000 0.000000 0.000000 0.000000 0.034238 0.000000
# 6 0.000000 0.000000 0.000000 0.000000 0.000000 0.041886
#
#
# Mechanical properties :
#
#
# Convention : Reuss Voigt Hill
#
# Bulk Modulus (GPa) = 42.25541 51.52398 46.88970
# Shear Modulus (GPa) = 18.79159 21.44433 20.11796
#
# Velocity S-wave (km/s) = 3.17409 3.39073 3.28420
# Velocity P-wave (km/s) = 6.00731 6.55388 6.28654
#
# Compressibility (1/GPa) = 0.02366561
#
# Stress axis : x y z
#
# Youngs Moduli (GPa) = 33.59575 40.80925 72.98842
#
# Poissons Ratio (x) = 0.32917 0.71593
# Poissons Ratio (y) = 0.27098 0.31222
# Poissons Ratio (z) = 0.32953 0.17457
#
# Static dielectric constant tensor:
#      x y z
#    x 3.267170 0.000000 0.000000 
#    y 0.000000 3.229220 0.000000 
#    z 0.000000 0.000000 3.558120 
# 
# 
# High freq. dielectric constant tensor:
#      x y z
#    x 1.709820 0.000000 0.000000 
#    y 0.000000 1.713610 0.000000 
#    z 0.000000 0.000000 1.734990 
# 
# From -- ./inp_files/26298.got.cif
#   From: 2010.03.12/outbox.cif.g09.slc.cpg/sg59_14_cif.got.tgz:26298.got - 2010.04.16 16:29:54.
