data_PCOD8241419
_publ_section_title
;
Structure prediction by ZEFSAII (Michael W. Deem and Ramdas Pophale) SiO2 
 PCOD8241419
Probable space group: P M M N
;
_chemical_formula_sum "Si O2"
_cell_formula_units_Z 48
_cell_length_a 30.807517
_cell_length_b 8.917397
_cell_length_c 9.630652
_cell_angle_alpha 90.000000
_cell_angle_beta 90.000000
_cell_angle_gamma 90.000000
_cell_volume 2645.760258
_symmetry_space_group_name_H-M "P M M N"
_symmetry_group_IT_number 59
_space_group.IT_coordinate_system_code '2'
_symmetry_cell_setting 'orthorhombic'
loop_
_space_group_symop_operation_xyz
x,y,z
1/2-x,1/2-y,z
1/2+x,-y,-z
-x,1/2+y,-z
-x,-y,-z
1/2+x,1/2+y,-z
1/2-x,y,z
x,1/2-y,z
loop_
_atom_site_type_symbol
_atom_site_label
_atom_site_fract_x
_atom_site_fract_y
_atom_site_fract_z
Si Si1 0.982554 0.576752 0.862235
Si Si2 0.392809 0.927736 0.209575
Si Si3 0.864565 0.424689 0.488683
Si Si4 0.427484 0.920624 0.751712
Si Si5 0.363402 0.073952 0.944261
Si Si6 0.200992 0.427246 0.706745
O O1 0.971316 0.750000 0.892269
O O2 0.940624 0.494617 0.804276
O O3 0.020533 0.561298 0.746224
O O4 0.000000 0.500000 0.000000
O O5 0.396228 0.750000 0.199937
O O6 0.373186 0.981504 0.355979
O O7 0.360451 0.989476 0.091263
O O8 0.854193 0.250000 0.486519
O O9 0.907253 0.463333 0.397295
O O10 0.822421 0.507359 0.428677
O O11 0.414854 0.750000 0.792454
O O12 0.408521 0.029259 0.870582
O O13 0.362671 0.250000 0.971543
O O14 0.323461 0.021071 0.847351
O O15 0.250000 0.488581 0.713348
O O16 0.199764 0.250000 0.693781
#
# Coordination Sequence:
#
# PCOD8241419 Si02
#       6
#     8   8   8   8   8   8
#     4  11  21  32  51  77 106 141 185 228 266 310
#     4  11  22  35  51  75 110 145 177 220 264 307
#     4   9  20  37  55  77 107 143 179 216 264 316
#     4   9  18  34  53  73 101 139 181 223 262 304
#     4  10  19  32  54  79 104 136 175 215 260 316
#     4   9  19  37  60  84 106 130 167 216 267 321
#
# _framework density 18.142233000000001
#
# number of rings (size 3 to 8) (size 9 to 14) (size 15 to 20)
#    0.000    2.167    1.667    1.500    0.000    3.667 
#    0.000    0.833    0.000    3.000    0.000    0.000 
#    0.000    0.000    0.000    0.000    0.000    0.000 
#
# Total GULP energy -595230.635045 kJ/mol
# GULP energy per Si atom -12400.638230 kJ/mol
# Density = 1.810094 g / cm^3
# Si number density = 18.142233 Si / 1000 Ang^3
#
#
#
# Elastic Constant Matrix: (Units=GPa)
#
#
# Indices 1 2 3 4 5 6 
#
# 1 131.5458 38.1544 70.0214 0.0000 0.0000 0.0000
# 2 38.1544 66.5761 48.3994 0.0000 0.0000 0.0000
# 3 70.0214 48.3994 150.7031 0.0000 0.0000 0.0000
# 4 0.0000 0.0000 0.0000 26.2149 0.0000 0.0000
# 5 0.0000 0.0000 0.0000 0.0000 21.3479 0.0000
# 6 0.0000 0.0000 0.0000 0.0000 0.0000 26.9201
#
#
#
# Elastic Compliance Matrix: (Units=1/GPa)
#
#
# Indices 1 2 3 4 5 6 
#
# 1 0.010615 -0.003259 -0.003886 0.000000 0.000000 0.000000
# 2 -0.003259 0.020596 -0.005100 0.000000 0.000000 0.000000
# 3 -0.003886 -0.005100 0.010079 0.000000 0.000000 0.000000
# 4 0.000000 0.000000 0.000000 0.038146 0.000000 0.000000
# 5 0.000000 0.000000 0.000000 0.000000 0.046843 0.000000
# 6 0.000000 0.000000 0.000000 0.000000 0.000000 0.037147
#
#
# Mechanical properties :
#
#
# Convention : Reuss Voigt Hill
#
# Bulk Modulus (GPa) = 59.52181 73.55283 66.53732
# Shear Modulus (GPa) = 25.83759 27.71323 26.77541
#
# Velocity S-wave (km/s) = 3.77791 3.91263 3.84586
# Velocity P-wave (km/s) = 7.20484 7.81293 7.51504
#
# Compressibility (1/GPa) = 0.01680057
#
# Stress axis : x y z
#
# Youngs Moduli (GPa) = 94.20215 48.55338 99.21632
#
# Poissons Ratio (x) = 0.15823 0.38552
# Poissons Ratio (y) = 0.30699 0.50604
# Poissons Ratio (z) = 0.36604 0.24764
#
# Static dielectric constant tensor:
#      x y z
#    x 2.519250 0.000000 0.000000 
#    y 0.000000 3.378910 0.000000 
#    z 0.000000 0.000000 3.214440 
# 
# 
# High freq. dielectric constant tensor:
#      x y z
#    x 1.692260 0.000000 0.000000 
#    y 0.000000 1.707550 0.000000 
#    z 0.000000 0.000000 1.698580 
# 
# From -- ./inp_files/6321.got.cif
#   From: 2010.03.12/outbox.cif.g09.slc.cpg/sg59_4_cif.got.tgz:6321.got - 2010.04.16 16:29:54.
