data_PCOD8241370
_publ_section_title
;
Structure prediction by ZEFSAII (Michael W. Deem and Ramdas Pophale) SiO2 
 PCOD8241370
Probable space group: P M M N
;
_chemical_formula_sum "Si O2"
_cell_formula_units_Z 64
_cell_length_a 9.031242
_cell_length_b 13.983355
_cell_length_c 26.050197
_cell_angle_alpha 90.000000
_cell_angle_beta 90.000000
_cell_angle_gamma 90.000000
_cell_volume 3289.802869
_symmetry_space_group_name_H-M "P M M N"
_symmetry_group_IT_number 59
_space_group.IT_coordinate_system_code '2'
_symmetry_cell_setting 'orthorhombic'
loop_
_space_group_symop_operation_xyz
x,y,z
1/2-x,1/2-y,z
1/2+x,-y,-z
-x,1/2+y,-z
-x,-y,-z
1/2+x,1/2+y,-z
1/2-x,y,z
x,1/2-y,z
loop_
_atom_site_type_symbol
_atom_site_label
_atom_site_fract_x
_atom_site_fract_y
_atom_site_fract_z
Si Si1 0.924347 0.861962 0.231056
Si Si2 0.075790 0.860702 0.628707
Si Si3 0.075319 0.527533 0.322879
Si Si4 0.575426 0.954647 0.126328
Si Si5 0.913924 0.137298 0.966714
Si Si6 0.425974 0.854818 0.920093
Si Si7 0.917084 0.636355 0.524955
Si Si8 0.077556 0.640550 0.424643
O O1 0.750000 0.879923 0.238331
O O2 0.962131 0.750000 0.230878
O O3 0.986405 0.908060 0.178378
O O4 0.013000 0.912872 0.275854
O O5 0.250000 0.878247 0.627089
O O6 0.037853 0.750000 0.639611
O O7 0.006884 0.896419 0.574964
O O8 0.002178 0.923359 0.674089
O O9 0.250000 0.514624 0.316504
O O10 0.031369 0.584268 0.374056
O O11 0.750000 0.946369 0.127046
O O12 0.522925 0.898147 0.076825
O O13 0.523907 0.065961 0.121659
O O14 0.750000 0.092449 0.958743
O O15 0.902466 0.250000 0.962920
O O16 0.979364 0.111183 0.023194
O O17 0.250000 0.847037 0.922549
O O18 0.491684 0.750000 0.905228
O O19 0.750000 0.596770 0.529784
O O20 0.919721 0.750000 0.521268
O O21 0.992557 0.594727 0.473424
O O22 0.250000 0.632183 0.436766
O O23 0.030205 0.750000 0.415718
#
# Coordination Sequence:
#
# PCOD8241370 Si02
#       8
#     8   8   8   8   8   8   8   8
#     4  10  22  39  56  77 108 140 172 218 272 323
#     4  10  21  38  59  81 108 142 177 215 262 318
#     4  11  23  38  58  81 104 136 180 228 274 319
#     4  10  19  32  53  78 104 139 183 226 265 309
#     4   9  17  29  47  74 108 143 177 216 266 322
#     4   8  15  29  49  75 108 143 177 215 262 316
#     4   9  17  30  51  80 111 142 176 214 258 310
#     4   9  18  33  52  76 107 140 175 216 264 320
#
# _framework density 19.454052999999998
#
# number of rings (size 3 to 8) (size 9 to 14) (size 15 to 20)
#    0.000    2.500    0.000    3.000    0.000    5.750 
#    0.000    1.875    0.000    3.375    0.000    0.000 
#    0.000    0.000    0.000    0.000    0.000    0.000 
#
# Total GULP energy -793497.869049 kJ/mol
# GULP energy per Si atom -12398.404204 kJ/mol
# Density = 1.940977 g / cm^3
# Si number density = 19.454053 Si / 1000 Ang^3
#
#
#
# Elastic Constant Matrix: (Units=GPa)
#
#
# Indices 1 2 3 4 5 6 
#
# 1 63.1204 45.9589 49.7746 0.0000 0.0000 0.0000
# 2 45.9589 92.0634 86.1292 0.0000 0.0000 0.0000
# 3 49.7746 86.1292 122.9663 0.0000 0.0000 0.0000
# 4 0.0000 0.0000 0.0000 35.0973 0.0000 0.0000
# 5 0.0000 0.0000 0.0000 0.0000 26.1846 0.0000
# 6 0.0000 0.0000 0.0000 0.0000 0.0000 22.4478
#
#
#
# Elastic Compliance Matrix: (Units=1/GPa)
#
#
# Indices 1 2 3 4 5 6 
#
# 1 0.025580 -0.008943 -0.004090 0.000000 0.000000 0.000000
# 2 -0.008943 0.034636 -0.020640 0.000000 0.000000 0.000000
# 3 -0.004090 -0.020640 0.024245 0.000000 0.000000 0.000000
# 4 0.000000 0.000000 0.000000 0.028492 0.000000 0.000000
# 5 0.000000 0.000000 0.000000 0.000000 0.038190 0.000000
# 6 0.000000 0.000000 0.000000 0.000000 0.000000 0.044548
#
#
# Mechanical properties :
#
#
# Convention : Reuss Voigt Hill
#
# Bulk Modulus (GPa) = 58.43193 71.31949 64.87571
# Shear Modulus (GPa) = 18.60509 23.16512 20.88511
#
# Velocity S-wave (km/s) = 3.09586 3.45448 3.28008
# Velocity P-wave (km/s) = 6.54830 7.25612 6.91128
#
# Compressibility (1/GPa) = 0.01711393
#
# Stress axis : x y z
#
# Youngs Moduli (GPa) = 39.09344 28.87132 41.24541
#
# Poissons Ratio (x) = 0.25820 0.16871
# Poissons Ratio (y) = 0.34961 0.85132
# Poissons Ratio (z) = 0.15990 0.59592
#
# Static dielectric constant tensor:
#      x y z
#    x 3.459060 0.000000 0.000000 
#    y 0.000000 3.798590 0.000000 
#    z 0.000000 0.000000 3.568890 
# 
# 
# High freq. dielectric constant tensor:
#      x y z
#    x 1.741380 0.000000 0.000000 
#    y 0.000000 1.769840 0.000000 
#    z 0.000000 0.000000 1.743990 
# 
# From -- ./inp_files/31420.got.cif
#   From: 2010.03.12/outbox.cif.g09.slc.cpg/sg59_16_cif.got.tgz:31420.got - 2010.04.16 16:29:54.
