data_PCOD8241195
_publ_section_title
;
Structure prediction by ZEFSAII (Michael W. Deem and Ramdas Pophale) SiO2 
 PCOD8241195
Probable space group: P M M N
;
_chemical_formula_sum "Si O2"
_cell_formula_units_Z 48
_cell_length_a 17.886821
_cell_length_b 9.105551
_cell_length_c 16.465564
_cell_angle_alpha 90.000000
_cell_angle_beta 90.000000
_cell_angle_gamma 90.000000
_cell_volume 2681.735885
_symmetry_space_group_name_H-M "P M M N"
_symmetry_group_IT_number 59
_space_group.IT_coordinate_system_code '2'
_symmetry_cell_setting 'orthorhombic'
loop_
_space_group_symop_operation_xyz
x,y,z
1/2-x,1/2-y,z
1/2+x,-y,-z
-x,1/2+y,-z
-x,-y,-z
1/2+x,1/2+y,-z
1/2-x,y,z
x,1/2-y,z
loop_
_atom_site_type_symbol
_atom_site_label
_atom_site_fract_x
_atom_site_fract_y
_atom_site_fract_z
Si Si1 0.921624 0.421840 0.506295
Si Si2 0.604189 0.081565 0.684532
Si Si3 0.050933 0.421348 0.766992
Si Si4 0.162782 0.920769 0.654821
Si Si5 0.481584 0.424906 0.084206
Si Si6 0.832385 0.579127 0.830289
O O1 0.938403 0.250000 0.505562
O O2 0.882270 0.465929 0.591348
O O3 0.867390 0.469312 0.433403
O O4 0.000000 0.500000 0.500000
O O5 0.624419 0.250000 0.698951
O O6 0.517794 0.050359 0.706281
O O7 0.659236 0.991467 0.741797
O O8 0.061014 0.250000 0.787958
O O9 0.125182 0.482137 0.724641
O O10 0.038922 0.511793 0.849668
O O11 0.250000 0.954469 0.657150
O O12 0.145224 0.750000 0.671075
O O13 0.490537 0.250000 0.077953
O O14 0.396818 0.473608 0.107793
O O15 0.500000 0.500000 0.000000
O O16 0.750000 0.539376 0.865516
O O17 0.841285 0.750000 0.815810
#
# Coordination Sequence:
#
# PCOD8241195 Si02
#       6
#     8   8   8   8   8   8
#     4  10  19  32  51  75 104 141 183 226 267 312
#     4   9  18  31  50  77 104 136 177 217 259 313
#     4  10  19  34  55  78 104 136 176 219 264 318
#     4  10  21  35  51  74 106 144 184 226 273 320
#     4  10  20  36  59  84 109 139 175 217 262 320
#     4   9  19  35  54  78 108 139 171 212 264 316
#
# _framework density 17.898852999999999
#
# number of rings (size 3 to 8) (size 9 to 14) (size 15 to 20)
#    0.000    2.333    1.667    1.000    0.000    3.333 
#    0.000    2.500    0.000    3.000    0.000    0.000 
#    0.000    0.000    0.000    0.000    0.000    0.000 
#
# Total GULP energy -595210.023468 kJ/mol
# GULP energy per Si atom -12400.208822 kJ/mol
# Density = 1.785811 g / cm^3
# Si number density = 17.898853 Si / 1000 Ang^3
#
#
#
# Elastic Constant Matrix: (Units=GPa)
#
#
# Indices 1 2 3 4 5 6 
#
# 1 104.0880 45.8464 64.8542 0.0000 0.0000 0.0000
# 2 45.8464 62.3910 55.1258 0.0000 0.0000 0.0000
# 3 64.8542 55.1258 148.3588 0.0000 0.0000 0.0000
# 4 0.0000 0.0000 0.0000 31.6297 0.0000 0.0000
# 5 0.0000 0.0000 0.0000 0.0000 20.9941 0.0000
# 6 0.0000 0.0000 0.0000 0.0000 0.0000 24.9746
#
#
#
# Elastic Compliance Matrix: (Units=1/GPa)
#
#
# Indices 1 2 3 4 5 6 
#
# 1 0.015516 -0.008052 -0.003791 0.000000 0.000000 0.000000
# 2 -0.008052 0.028041 -0.006899 0.000000 0.000000 0.000000
# 3 -0.003791 -0.006899 0.010961 0.000000 0.000000 0.000000
# 4 0.000000 0.000000 0.000000 0.031616 0.000000 0.000000
# 5 0.000000 0.000000 0.000000 0.000000 0.047632 0.000000
# 6 0.000000 0.000000 0.000000 0.000000 0.000000 0.040041
#
#
# Mechanical properties :
#
#
# Convention : Reuss Voigt Hill
#
# Bulk Modulus (GPa) = 58.70777 71.83228 65.27003
# Shear Modulus (GPa) = 23.04489 25.45378 24.24933
#
# Velocity S-wave (km/s) = 3.59208 3.77515 3.68475
# Velocity P-wave (km/s) = 7.07637 7.69557 7.39246
#
# Compressibility (1/GPa) = 0.01703352
#
# Stress axis : x y z
#
# Youngs Moduli (GPa) = 64.45088 35.66264 91.23226
#
# Poissons Ratio (x) = 0.28716 0.34583
# Poissons Ratio (y) = 0.51896 0.62943
# Poissons Ratio (z) = 0.24431 0.24604
#
# Static dielectric constant tensor:
#      x y z
#    x 3.414400 0.000000 0.000000 
#    y 0.000000 3.322270 0.000000 
#    z 0.000000 0.000000 3.432120 
# 
# 
# High freq. dielectric constant tensor:
#      x y z
#    x 1.683720 0.000000 0.000000 
#    y 0.000000 1.694080 0.000000 
#    z 0.000000 0.000000 1.690510 
# 
# From -- ./inp_files/20363.got.cif
#   From: 2010.03.12/outbox.cif.g09.slc.cpg/sg59_11_cif.got.tgz:20363.got - 2010.04.16 16:29:54.
