data_PCOD8241452
_publ_section_title
;
Structure prediction by ZEFSAII (Michael W. Deem and Ramdas Pophale) SiO2 
 PCOD8241452
Probable space group: P M M N
;
_chemical_formula_sum "Si O2"
_cell_formula_units_Z 64
_cell_length_a 26.809887
_cell_length_b 13.044818
_cell_length_c 9.977400
_cell_angle_alpha 90.000000
_cell_angle_beta 90.000000
_cell_angle_gamma 90.000000
_cell_volume 3489.397065
_symmetry_space_group_name_H-M "P M M N"
_symmetry_group_IT_number 59
_space_group.IT_coordinate_system_code '2'
_symmetry_cell_setting 'orthorhombic'
loop_
_space_group_symop_operation_xyz
x,y,z
1/2-x,1/2-y,z
1/2+x,-y,-z
-x,1/2+y,-z
-x,-y,-z
1/2+x,1/2+y,-z
1/2-x,y,z
x,1/2-y,z
loop_
_atom_site_type_symbol
_atom_site_label
_atom_site_fract_x
_atom_site_fract_y
_atom_site_fract_z
Si Si1 0.307208 0.132526 0.307979
Si Si2 0.478471 0.367320 0.256663
Si Si3 0.894367 0.495294 0.633175
Si Si4 0.113870 0.992126 0.871251
Si Si5 0.692725 0.866256 0.001475
Si Si6 0.473948 0.367546 0.949225
Si Si7 0.411169 0.868719 0.629877
Si Si8 0.586002 0.366467 0.881502
O O1 0.250000 0.096959 0.328338
O O2 0.313171 0.250000 0.355358
O O3 0.343813 0.060033 0.394331
O O4 0.323704 0.122867 0.153009
O O5 0.461002 0.250000 0.256877
O O6 0.440670 0.428107 0.351010
O O7 0.478138 0.408634 0.102860
O O8 0.532694 0.379028 0.318721
O O9 0.905531 0.414945 0.516922
O O10 0.886797 0.431598 0.768341
O O11 0.162296 0.058260 0.904054
O O12 0.122720 0.937271 0.728748
O O13 0.065989 0.066559 0.868046
O O14 0.106313 0.900667 0.975404
O O15 0.750000 0.896656 0.017312
O O16 0.683362 0.750000 0.049043
O O17 0.456230 0.250000 0.950005
O O18 0.526289 0.378963 0.873333
O O19 0.394101 0.750000 0.628362
O O20 0.601948 0.250000 0.861404
#
# Coordination Sequence:
#
# PCOD8241452 Si02
#       8
#     8   8   8   8   8   8   8   8
#     4   9  18  35  61  91 115 135 169 222 282 335
#     4  10  19  34  55  82 113 145 181 223 277 333
#     4  12  21  36  56  81 109 148 189 224 269 323
#     4  12  19  35  58  79 106 147 188 220 273 329
#     4   9  18  34  59  92 118 133 164 223 287 335
#     4  10  19  32  54  86 114 138 180 231 277 325
#     4  11  25  39  51  74 115 156 187 224 268 316
#     4  11  21  32  52  78 107 143 190 232 257 305
#
# _framework density 18.341277000000002
#
# number of rings (size 3 to 8) (size 9 to 14) (size 15 to 20)
#    0.000    1.500    3.750    3.750    0.000    2.000 
#    0.000    4.375    0.000    6.000    0.000    0.000 
#    0.000    0.000    0.000    0.000    0.000    0.000 
#
# Total GULP energy -793752.538471 kJ/mol
# GULP energy per Si atom -12402.383414 kJ/mol
# Density = 1.829953 g / cm^3
# Si number density = 18.341277 Si / 1000 Ang^3
#
#
#
# Elastic Constant Matrix: (Units=GPa)
#
#
# Indices 1 2 3 4 5 6 
#
# 1 58.4430 35.9299 9.9354 0.0000 0.0000 0.0000
# 2 35.9299 97.4479 20.2059 0.0000 0.0000 0.0000
# 3 9.9354 20.2059 55.5177 0.0000 0.0000 0.0000
# 4 0.0000 0.0000 0.0000 33.3803 0.0000 0.0000
# 5 0.0000 0.0000 0.0000 0.0000 14.2335 0.0000
# 6 0.0000 0.0000 0.0000 0.0000 0.0000 28.0838
#
#
#
# Elastic Compliance Matrix: (Units=1/GPa)
#
#
# Indices 1 2 3 4 5 6 
#
# 1 0.022185 -0.007957 -0.001074 0.000000 0.000000 0.000000
# 2 -0.007957 0.013954 -0.003654 0.000000 0.000000 0.000000
# 3 -0.001074 -0.003654 0.019535 0.000000 0.000000 0.000000
# 4 0.000000 0.000000 0.000000 0.029958 0.000000 0.000000
# 5 0.000000 0.000000 0.000000 0.000000 0.070257 0.000000
# 6 0.000000 0.000000 0.000000 0.000000 0.000000 0.035608
#
#
# Mechanical properties :
#
#
# Convention : Reuss Voigt Hill
#
# Bulk Modulus (GPa) = 33.00145 38.17235 35.58690
# Shear Modulus (GPa) = 22.02956 24.82867 23.42912
#
# Velocity S-wave (km/s) = 3.46944 3.68326 3.57795
# Velocity P-wave (km/s) = 5.83793 6.24068 6.04266
#
# Compressibility (1/GPa) = 0.03030170
#
# Stress axis : x y z
#
# Youngs Moduli (GPa) = 45.07496 71.66650 51.19135
#
# Poissons Ratio (x) = 0.57026 0.05499
# Poissons Ratio (y) = 0.35867 0.18707
# Poissons Ratio (z) = 0.04842 0.26190
#
# Static dielectric constant tensor:
#      x y z
#    x 3.200110 0.000000 0.000000 
#    y 0.000000 3.601560 0.000000 
#    z 0.000000 0.000000 3.148990 
# 
# 
# High freq. dielectric constant tensor:
#      x y z
#    x 1.691810 0.000000 0.000000 
#    y 0.000000 1.730400 0.000000 
#    z 0.000000 0.000000 1.685270 
# 
# From -- ./inp_files/12232.got.cif
#   From: 2010.03.12/outbox.cif.g09.slc.cpg/sg59_7_cif.got.tgz:12232.got - 2010.04.16 16:29:54.
