data_PCOD8241855
_publ_section_title
;
Structure prediction by ZEFSAII (Michael W. Deem and Ramdas Pophale) SiO2 
 PCOD8241855
Probable space group: P M M N
;
_chemical_formula_sum "Si O2"
_cell_formula_units_Z 48
_cell_length_a 8.738773
_cell_length_b 9.451845
_cell_length_c 29.391020
_cell_angle_alpha 90.000000
_cell_angle_beta 90.000000
_cell_angle_gamma 90.000000
_cell_volume 2427.625594
_symmetry_space_group_name_H-M "P M M N"
_symmetry_group_IT_number 59
_space_group.IT_coordinate_system_code '2'
_symmetry_cell_setting 'orthorhombic'
loop_
_space_group_symop_operation_xyz
x,y,z
1/2-x,1/2-y,z
1/2+x,-y,-z
-x,1/2+y,-z
-x,-y,-z
1/2+x,1/2+y,-z
1/2-x,y,z
x,1/2-y,z
loop_
_atom_site_type_symbol
_atom_site_label
_atom_site_fract_x
_atom_site_fract_y
_atom_site_fract_z
Si Si1 0.569145 0.415335 0.124720
Si Si2 0.069252 0.250000 0.462079
Si Si3 0.931221 0.085763 0.958231
Si Si4 0.430439 0.592717 0.705346
Si Si5 0.568139 0.590288 0.212587
Si Si6 0.572117 0.750000 0.437023
Si Si7 0.929950 0.036068 0.394833
O O1 0.750000 0.428251 0.116870
O O2 0.519595 0.250000 0.124246
O O3 0.483419 0.504475 0.086599
O O4 0.516969 0.487902 0.171731
O O5 0.250000 0.250000 0.463887
O O6 0.994862 0.250000 0.512892
O O7 0.012042 0.385297 0.435478
O O8 0.750000 0.081960 0.962035
O O9 0.988216 0.250000 0.957966
O O10 0.000000 0.000000 0.000000
O O11 0.250000 0.569907 0.702316
O O12 0.470077 0.750000 0.723172
O O13 0.498312 0.478379 0.740845
O O14 0.498775 0.573720 0.654705
O O15 0.750000 0.596070 0.214584
O O16 0.502507 0.750000 0.206685
O O17 0.750000 0.750000 0.447558
O O18 0.525269 0.623250 0.404601
O O19 0.750000 0.070015 0.396586
#
# Coordination Sequence:
#
# PCOD8241855 Si02
#       7
#     8   4   8   8   8   4   8
#     4  10  20  35  56  83 116 151 186 225 271 327
#     4  11  21  35  51  73 103 139 177 217 264 325
#     4  11  24  40  59  85 116 151 193 238 281 326
#     4   9  16  27  46  73 102 132 169 216 268 319
#     4   9  17  28  47  78 112 141 172 219 276 324
#     4   9  20  33  51  77 105 133 173 223 270 319
#     4  10  19  34  54  77 103 135 174 221 271 320
#
# _framework density 19.772407000000001
#
# number of rings (size 3 to 8) (size 9 to 14) (size 15 to 20)
#    0.000    2.167    0.833    2.750    1.167    6.333 
#    0.000    1.250    0.000    1.000    0.000    0.000 
#    0.000    0.000    0.000    0.000    0.000    0.000 
#
# Total GULP energy -594947.242815 kJ/mol
# GULP energy per Si atom -12394.734225 kJ/mol
# Density = 1.972740 g / cm^3
# Si number density = 19.772407 Si / 1000 Ang^3
#
#
#
# Elastic Constant Matrix: (Units=GPa)
#
#
# Indices 1 2 3 4 5 6 
#
# 1 28.2254 23.5146 19.0881 0.0000 0.0000 0.0000
# 2 23.5146 173.1185 69.9028 0.0000 0.0000 0.0000
# 3 19.0881 69.9028 138.3834 0.0000 0.0000 0.0000
# 4 0.0000 0.0000 0.0000 42.5502 0.0000 0.0000
# 5 0.0000 0.0000 0.0000 0.0000 21.8247 0.0000
# 6 0.0000 0.0000 0.0000 0.0000 0.0000 21.4874
#
#
#
# Elastic Compliance Matrix: (Units=1/GPa)
#
#
# Indices 1 2 3 4 5 6 
#
# 1 0.041329 -0.004160 -0.003599 0.000000 0.000000 0.000000
# 2 -0.004160 0.007675 -0.003303 0.000000 0.000000 0.000000
# 3 -0.003599 -0.003303 0.009391 0.000000 0.000000 0.000000
# 4 0.000000 0.000000 0.000000 0.023502 0.000000 0.000000
# 5 0.000000 0.000000 0.000000 0.000000 0.045820 0.000000
# 6 0.000000 0.000000 0.000000 0.000000 0.000000 0.046539
#
#
# Mechanical properties :
#
#
# Convention : Reuss Voigt Hill
#
# Bulk Modulus (GPa) = 27.57087 62.74869 45.15978
# Shear Modulus (GPa) = 23.98407 32.32059 28.15233
#
# Velocity S-wave (km/s) = 3.48660 4.04744 3.77745
# Velocity P-wave (km/s) = 5.49390 7.32440 6.47417
#
# Compressibility (1/GPa) = 0.03627017
#
# Stress axis : x y z
#
# Youngs Moduli (GPa) = 24.19596 130.28841 106.48109
#
# Poissons Ratio (x) = 0.54205 0.38325
# Poissons Ratio (y) = 0.10066 0.35173
# Poissons Ratio (z) = 0.08709 0.43037
#
# Static dielectric constant tensor:
#      x y z
#    x 3.063590 0.000000 0.000000 
#    y 0.000000 3.935840 0.000000 
#    z 0.000000 0.000000 4.354470 
# 
# 
# High freq. dielectric constant tensor:
#      x y z
#    x 1.713420 0.000000 0.000000 
#    y 0.000000 1.791970 0.000000 
#    z 0.000000 0.000000 1.789620 
# 
# From -- ./inp_files/33058.got.cif
#   From: 2010.03.12/outbox.cif.g09.slc.cpg/sg59_17_cif.got.tgz:33058.got - 2010.04.16 16:29:54.
