data_PCOD8241097
_publ_section_title
;
Structure prediction by ZEFSAII (Michael W. Deem and Ramdas Pophale) SiO2 
 PCOD8241097
Probable space group: P M M N
;
_chemical_formula_sum "Si O2"
_cell_formula_units_Z 56
_cell_length_a 12.855641
_cell_length_b 13.160550
_cell_length_c 18.817314
_cell_angle_alpha 90.000000
_cell_angle_beta 90.000000
_cell_angle_gamma 90.000000
_cell_volume 3183.650665
_symmetry_space_group_name_H-M "P M M N"
_symmetry_group_IT_number 59
_space_group.IT_coordinate_system_code '2'
_symmetry_cell_setting 'orthorhombic'
loop_
_space_group_symop_operation_xyz
x,y,z
1/2-x,1/2-y,z
1/2+x,-y,-z
-x,1/2+y,-z
-x,-y,-z
1/2+x,1/2+y,-z
1/2-x,y,z
x,1/2-y,z
loop_
_atom_site_type_symbol
_atom_site_label
_atom_site_fract_x
_atom_site_fract_y
_atom_site_fract_z
Si Si1 0.126746 0.129560 0.497772
Si Si2 0.127163 0.960283 0.849541
Si Si3 0.020688 0.633880 0.135472
Si Si4 0.368498 0.633779 0.279737
Si Si5 0.503116 0.006323 0.609575
Si Si6 0.633740 0.129786 0.004226
Si Si7 0.127075 0.635837 0.704136
O O1 0.250000 0.110705 0.510107
O O2 0.105554 0.250000 0.485655
O O3 0.057944 0.090738 0.563867
O O4 0.088409 0.061347 0.431707
O O5 0.250000 0.966977 0.848905
O O6 0.085384 0.906144 0.920955
O O7 0.086375 0.897689 0.781708
O O8 0.083298 0.073751 0.844924
O O9 0.986592 0.750000 0.127276
O O10 0.106328 0.619588 0.196679
O O11 0.066493 0.589697 0.061884
O O12 0.250000 0.601244 0.291763
O O13 0.386946 0.750000 0.302909
O O14 0.440153 0.563064 0.326926
O O15 0.417388 0.931656 0.641150
O O16 0.750000 0.085537 0.995993
O O17 0.636862 0.250000 0.003121
O O18 0.250000 0.626678 0.700466
O O19 0.088713 0.750000 0.691243
#
# Coordination Sequence:
#
# PCOD8241097 Si02
#       7
#     8   8   8   8   8   8   8
#     4  10  22  38  56  80 108 138 170 206 254 312
#     4  10  19  32  49  73 104 137 175 216 258 306
#     4  10  19  32  49  73 104 137 175 216 258 306
#     4  10  20  34  53  78 106 136 173 217 260 303
#     4  11  20  36  58  79 106 136 172 213 254 308
#     4   9  17  30  50  74  99 133 176 218 258 298
#     4  10  20  34  53  78 106 136 173 217 260 303
#
# _framework density 17.589870000000001
#
# number of rings (size 3 to 8) (size 9 to 14) (size 15 to 20)
#    0.000    2.000    1.429    3.000    0.000    3.714 
#    0.000    0.000    0.000    6.857    0.000    0.000 
#    0.000    0.000    0.000    0.000    0.000    0.000 
#
# Total GULP energy -694321.370834 kJ/mol
# GULP energy per Si atom -12398.595908 kJ/mol
# Density = 1.754983 g / cm^3
# Si number density = 17.589870 Si / 1000 Ang^3
#
#
#
# Elastic Constant Matrix: (Units=GPa)
#
#
# Indices 1 2 3 4 5 6 
#
# 1 38.3336 23.3704 13.4463 0.0000 0.0000 0.0000
# 2 23.3704 64.3366 18.6737 0.0000 0.0000 0.0000
# 3 13.4463 18.6737 72.0132 0.0000 0.0000 0.0000
# 4 0.0000 0.0000 0.0000 30.9324 0.0000 0.0000
# 5 0.0000 0.0000 0.0000 0.0000 25.4501 0.0000
# 6 0.0000 0.0000 0.0000 0.0000 0.0000 29.8648
#
#
#
# Elastic Compliance Matrix: (Units=1/GPa)
#
#
# Indices 1 2 3 4 5 6 
#
# 1 0.034273 -0.011454 -0.003429 0.000000 0.000000 0.000000
# 2 -0.011454 0.020636 -0.003212 0.000000 0.000000 0.000000
# 3 -0.003429 -0.003212 0.015360 0.000000 0.000000 0.000000
# 4 0.000000 0.000000 0.000000 0.032329 0.000000 0.000000
# 5 0.000000 0.000000 0.000000 0.000000 0.039293 0.000000
# 6 0.000000 0.000000 0.000000 0.000000 0.000000 0.033484
#
#
# Mechanical properties :
#
#
# Convention : Reuss Voigt Hill
#
# Bulk Modulus (GPa) = 29.34533 31.74045 30.54289
# Shear Modulus (GPa) = 22.42902 25.19567 23.81235
#
# Velocity S-wave (km/s) = 3.57474 3.78881 3.68333
# Velocity P-wave (km/s) = 5.81014 6.10115 5.95742
#
# Compressibility (1/GPa) = 0.03407697
#
# Stress axis : x y z
#
# Youngs Moduli (GPa) = 29.17756 48.45783 65.10557
#
# Poissons Ratio (x) = 0.55505 0.22326
# Poissons Ratio (y) = 0.33421 0.20915
# Poissons Ratio (z) = 0.10006 0.15567
#
# Static dielectric constant tensor:
#      x y z
#    x 3.170070 0.000000 0.000000 
#    y 0.000000 3.255330 0.000000 
#    z 0.000000 0.000000 3.456600 
# 
# 
# High freq. dielectric constant tensor:
#      x y z
#    x 1.671260 0.000000 0.000000 
#    y 0.000000 1.680210 0.000000 
#    z 0.000000 0.000000 1.693430 
# 
# From -- ./inp_files/30066.got.cif
#   From: 2010.03.12/outbox.cif.g09.slc.cpg/sg59_16_cif.got.tgz:30066.got - 2010.04.16 16:29:54.
