data_PCOD8241260
_publ_section_title
;
Structure prediction by ZEFSAII (Michael W. Deem and Ramdas Pophale) SiO2 
 PCOD8241260
Probable space group: P M M N
;
_chemical_formula_sum "Si O2"
_cell_formula_units_Z 64
_cell_length_a 9.302340
_cell_length_b 19.593321
_cell_length_c 20.673336
_cell_angle_alpha 90.000000
_cell_angle_beta 90.000000
_cell_angle_gamma 90.000000
_cell_volume 3767.999407
_symmetry_space_group_name_H-M "P M M N"
_symmetry_group_IT_number 59
_space_group.IT_coordinate_system_code '2'
_symmetry_cell_setting 'orthorhombic'
loop_
_space_group_symop_operation_xyz
x,y,z
1/2-x,1/2-y,z
1/2+x,-y,-z
-x,1/2+y,-z
-x,-y,-z
1/2+x,1/2+y,-z
1/2-x,y,z
x,1/2-y,z
loop_
_atom_site_type_symbol
_atom_site_label
_atom_site_fract_x
_atom_site_fract_y
_atom_site_fract_z
Si Si1 0.916235 0.671834 0.869498
Si Si2 0.079985 0.549504 0.814522
Si Si3 0.919681 0.823504 0.015712
Si Si4 0.580993 0.966328 0.059303
Si Si5 0.585010 0.825762 0.621842
Si Si6 0.917347 0.034138 0.558961
Si Si7 0.083982 0.825228 0.493420
Si Si8 0.417048 0.038418 0.310680
O O1 0.750000 0.649497 0.862545
O O2 0.935665 0.750000 0.847098
O O3 0.013125 0.624358 0.824219
O O4 0.973310 0.662253 0.942748
O O5 0.250000 0.555603 0.806942
O O6 0.035064 0.500500 0.873666
O O7 0.012644 0.515885 0.750277
O O8 0.750000 0.816920 0.012069
O O9 0.982260 0.750000 0.040526
O O10 0.964907 0.886067 0.062103
O O11 0.750000 0.974302 0.046438
O O12 0.500000 0.000000 0.000000
O O13 0.750000 0.829420 0.600512
O O14 0.544722 0.750000 0.647849
O O15 0.497070 0.845274 0.558544
O O16 0.553991 0.881077 0.677247
O O17 0.750000 0.016960 0.549449
O O18 0.946616 0.115999 0.559539
O O19 0.970516 0.004895 0.627494
O O20 0.000000 0.000000 0.500000
O O21 0.250000 0.824001 0.512168
O O22 0.035604 0.750000 0.467456
O O23 0.250000 0.024017 0.295802
#
# Coordination Sequence:
#
# PCOD8241260 Si02
#       8
#     8   8   8   8   8   8   8   8
#     4   9  17  31  52  74  97 132 173 204 237 292
#     4  11  23  34  47  73 105 135 165 206 258 299
#     4   8  14  27  50  76  97 122 161 203 241 289
#     4  10  19  32  52  76 100 127 163 205 251 296
#     4   9  17  30  48  70  96 126 163 202 237 283
#     4  10  19  32  52  76  99 127 167 208 249 293
#     4   9  17  29  48  75 103 127 154 196 251 301
#     4  10  21  35  49  68  97 136 175 205 240 294
#
# _framework density 16.985140000000001
#
# number of rings (size 3 to 8) (size 9 to 14) (size 15 to 20)
#    0.000    2.500    2.500    1.125    0.000    2.250 
#    0.000    1.250    0.000    1.125    0.000    0.000 
#    0.000    0.000    0.000    0.000    0.000    0.000 
#
# Total GULP energy -793293.252132 kJ/mol
# GULP energy per Si atom -12395.207065 kJ/mol
# Density = 1.694648 g / cm^3
# Si number density = 16.985140 Si / 1000 Ang^3
#
#
#
# Elastic Constant Matrix: (Units=GPa)
#
#
# Indices 1 2 3 4 5 6 
#
# 1 48.3860 35.2564 46.6568 0.0000 0.0000 0.0000
# 2 35.2564 105.2745 63.2267 0.0000 0.0000 0.0000
# 3 46.6568 63.2267 115.1265 0.0000 0.0000 0.0000
# 4 0.0000 0.0000 0.0000 21.6093 0.0000 0.0000
# 5 0.0000 0.0000 0.0000 0.0000 25.2529 0.0000
# 6 0.0000 0.0000 0.0000 0.0000 0.0000 19.0474
#
#
#
# Elastic Compliance Matrix: (Units=1/GPa)
#
#
# Indices 1 2 3 4 5 6 
#
# 1 0.035508 -0.004848 -0.011728 0.000000 0.000000 0.000000
# 2 -0.004848 0.014836 -0.006183 0.000000 0.000000 0.000000
# 3 -0.011728 -0.006183 0.016835 0.000000 0.000000 0.000000
# 4 0.000000 0.000000 0.000000 0.046276 0.000000 0.000000
# 5 0.000000 0.000000 0.000000 0.000000 0.039599 0.000000
# 6 0.000000 0.000000 0.000000 0.000000 0.000000 0.052501
#
#
# Mechanical properties :
#
#
# Convention : Reuss Voigt Hill
#
# Bulk Modulus (GPa) = 46.16563 62.11854 54.14209
# Shear Modulus (GPa) = 19.35778 21.42506 20.39142
#
# Velocity S-wave (km/s) = 3.37959 3.55547 3.46865
# Velocity P-wave (km/s) = 6.51674 7.31484 6.92729
#
# Compressibility (1/GPa) = 0.02166114
#
# Stress axis : x y z
#
# Youngs Moduli (GPa) = 28.16234 67.40295 59.40115
#
# Poissons Ratio (x) = 0.32678 0.69664
# Poissons Ratio (y) = 0.13654 0.36728
# Poissons Ratio (z) = 0.33028 0.41676
#
# Static dielectric constant tensor:
#      x y z
#    x 3.073470 0.000000 0.000000 
#    y 0.000000 3.959970 0.000000 
#    z 0.000000 0.000000 3.008380 
# 
# 
# High freq. dielectric constant tensor:
#      x y z
#    x 1.640800 0.000000 0.000000 
#    y 0.000000 1.665170 0.000000 
#    z 0.000000 0.000000 1.627530 
# 
# From -- ./inp_files/26289.got.cif
#   From: 2010.03.12/outbox.cif.g09.slc.cpg/sg59_14_cif.got.tgz:26289.got - 2010.04.16 16:29:54.
