data_PCOD8241757
_publ_section_title
;
Structure prediction by ZEFSAII (Michael W. Deem and Ramdas Pophale) SiO2 
 PCOD8241757
Probable space group: P M M N
;
_chemical_formula_sum "Si O2"
_cell_formula_units_Z 48
_cell_length_a 7.586471
_cell_length_b 18.190298
_cell_length_c 17.343474
_cell_angle_alpha 90.000000
_cell_angle_beta 90.000000
_cell_angle_gamma 90.000000
_cell_volume 2393.402330
_symmetry_space_group_name_H-M "P M M N"
_symmetry_group_IT_number 59
_space_group.IT_coordinate_system_code '2'
_symmetry_cell_setting 'orthorhombic'
loop_
_space_group_symop_operation_xyz
x,y,z
1/2-x,1/2-y,z
1/2+x,-y,-z
-x,1/2+y,-z
-x,-y,-z
1/2+x,1/2+y,-z
1/2-x,y,z
x,1/2-y,z
loop_
_atom_site_type_symbol
_atom_site_label
_atom_site_fract_x
_atom_site_fract_y
_atom_site_fract_z
Si Si1 0.957184 0.928214 0.231209
Si Si2 0.040417 0.332700 0.908882
Si Si3 0.250000 0.836839 0.494979
Si Si4 0.041405 0.168099 0.078429
Si Si5 0.449989 0.407155 0.231111
Si Si6 0.549239 0.664175 0.381109
Si Si7 0.250000 0.837599 0.668700
O O1 0.750000 0.941969 0.224217
O O2 0.035198 0.887973 0.155378
O O3 0.004376 0.878453 0.304197
O O4 0.052061 0.005699 0.240650
O O5 0.250000 0.332903 0.903947
O O6 0.971930 0.250000 0.892645
O O7 0.974014 0.358366 0.994000
O O8 0.250000 0.750000 0.500002
O O9 0.424952 0.863844 0.450305
O O10 0.250000 0.868307 0.581315
O O11 0.250000 0.170497 0.075427
O O12 0.968606 0.250000 0.096104
O O13 0.976759 0.113576 0.145746
O O14 0.250000 0.377963 0.242842
O O15 0.572955 0.368532 0.293504
O O16 0.750000 0.647620 0.405660
O O17 0.520619 0.750000 0.363642
O O18 0.250000 0.750000 0.673853
#
# Coordination Sequence:
#
# PCOD8241757 Si02
#       7
#     8   8   4   8   8   8   4
#     4  10  19  33  55  83 121 155 190 233 279 340
#     4   8  14  27  52  84 114 151 198 240 279 329
#     4   9  20  38  62  89 113 140 183 237 289 338
#     4   8  15  30  52  79 109 146 196 242 282 331
#     4  11  23  38  58  84 117 155 191 233 287 340
#     4   9  18  34  59  87 115 150 190 230 280 340
#     4  11  24  44  66  87 110 140 189 243 286 340
#
# _framework density 20.055129999999998
#
# number of rings (size 3 to 8) (size 9 to 14) (size 15 to 20)
#    0.000    2.667    0.833    2.000    1.167    4.333 
#    0.000    2.500    1.833    0.000    0.000    0.000 
#    0.000    0.000    0.000    0.000    0.000    0.000 
#
# Total GULP energy -595053.617268 kJ/mol
# GULP energy per Si atom -12396.950360 kJ/mol
# Density = 2.000948 g / cm^3
# Si number density = 20.055130 Si / 1000 Ang^3
#
#
#
# Elastic Constant Matrix: (Units=GPa)
#
#
# Indices 1 2 3 4 5 6 
#
# 1 80.3884 31.7213 65.2785 0.0000 0.0000 0.0000
# 2 31.7213 94.1320 68.3148 0.0000 0.0000 0.0000
# 3 65.2785 68.3148 186.4026 0.0000 0.0000 0.0000
# 4 0.0000 0.0000 0.0000 8.2430 0.0000 0.0000
# 5 0.0000 0.0000 0.0000 0.0000 -9.0747 0.0000
# 6 0.0000 0.0000 0.0000 0.0000 0.0000 6.5091
#
#
#
# Elastic Compliance Matrix: (Units=1/GPa)
#
#
# Indices 1 2 3 4 5 6 
#
# 1 0.017653 -0.001992 -0.005452 0.000000 0.000000 0.000000
# 2 -0.001992 0.014698 -0.004689 0.000000 0.000000 0.000000
# 3 -0.005452 -0.004689 0.008992 0.000000 0.000000 0.000000
# 4 0.000000 0.000000 0.000000 0.121316 0.000000 0.000000
# 5 0.000000 0.000000 0.000000 0.000000 -0.110197 0.000000
# 6 0.000000 0.000000 0.000000 0.000000 0.000000 0.153630
#
#
# Mechanical properties :
#
#
# Convention : Reuss Voigt Hill
#
# Bulk Modulus (GPa) = 58.55832 76.83912 67.69872
# Shear Modulus (GPa) = 21.18192 14.17605 17.67899
#
# Velocity S-wave (km/s) = 3.25343 2.66156 2.97226
# Velocity P-wave (km/s) = 6.58598 6.91681 6.75342
#
# Compressibility (1/GPa) = 0.01707699
#
# Stress axis : x y z
#
# Youngs Moduli (GPa) = 56.64787 68.03837 111.20430
#
# Poissons Ratio (x) = 0.13554 0.60628
# Poissons Ratio (y) = 0.11285 0.52142
# Poissons Ratio (z) = 0.30884 0.31902
#
# Static dielectric constant tensor:
#      x y z
#    x 3.451540 0.000000 0.000000 
#    y 0.000000 3.536860 0.000000 
#    z 0.000000 0.000000 3.989160 
# 
# 
# High freq. dielectric constant tensor:
#      x y z
#    x 1.770990 0.000000 0.000000 
#    y 0.000000 1.764960 0.000000 
#    z 0.000000 0.000000 1.786110 
# 
# From -- ./inp_files/20496.got.cif
#   From: 2010.03.12/outbox.cif.g09.slc.cpg/sg59_11_cif.got.tgz:20496.got - 2010.04.16 16:29:54.
