data_PCOD8241850
_publ_section_title
;
Structure prediction by ZEFSAII (Michael W. Deem and Ramdas Pophale) SiO2 
 PCOD8241850
Probable space group: P M M N
;
_chemical_formula_sum "Si O2"
_cell_formula_units_Z 56
_cell_length_a 16.192713
_cell_length_b 9.452455
_cell_length_c 19.129428
_cell_angle_alpha 90.000000
_cell_angle_beta 90.000000
_cell_angle_gamma 90.000000
_cell_volume 2927.967293
_symmetry_space_group_name_H-M "P M M N"
_symmetry_group_IT_number 59
_space_group.IT_coordinate_system_code '2'
_symmetry_cell_setting 'orthorhombic'
loop_
_space_group_symop_operation_xyz
x,y,z
1/2-x,1/2-y,z
1/2+x,-y,-z
-x,1/2+y,-z
-x,-y,-z
1/2+x,1/2+y,-z
1/2-x,y,z
x,1/2-y,z
loop_
_atom_site_type_symbol
_atom_site_label
_atom_site_fract_x
_atom_site_fract_y
_atom_site_fract_z
Si Si1 0.655882 0.590970 0.164226
Si Si2 0.750000 0.581802 0.939147
Si Si3 0.750000 0.580684 0.780284
Si Si4 0.657088 0.590928 0.400359
Si Si5 0.399094 0.087472 0.310027
Si Si6 0.416702 0.085011 0.983485
Si Si7 0.429104 0.087929 0.463155
Si Si8 0.917795 0.412233 0.285536
O O1 0.750000 0.568958 0.139997
O O2 0.642387 0.750000 0.192317
O O3 0.597860 0.561295 0.098505
O O4 0.635614 0.484513 0.225974
O O5 0.750000 0.750000 0.944638
O O6 0.750000 0.524284 0.859649
O O7 0.664799 0.527074 0.975383
O O8 0.750000 0.750000 0.783118
O O9 0.670657 0.517868 0.739029
O O10 0.750000 0.552820 0.379473
O O11 0.634752 0.750000 0.375948
O O12 0.648333 0.579604 0.484177
O O13 0.597557 0.482023 0.360990
O O14 0.374741 0.250000 0.320402
O O15 0.403368 0.020494 0.388193
O O16 0.485365 0.070469 0.269196
O O17 0.430904 0.250000 0.001534
O O18 0.500000 0.000000 0.000000
O O19 0.459474 0.250000 0.452123
O O20 0.500000 0.000000 0.500000
O O21 0.890882 0.250000 0.289529
#
# Coordination Sequence:
#
# PCOD8241850 Si02
#       8
#     8   4   4   8   8   8   8   8
#     4  10  21  39  59  80 111 152 191 226 271 334
#     4   9  18  36  61  87 116 149 190 232 281 345
#     4   9  18  32  54  81 110 143 178 228 281 323
#     4  10  21  35  53  78 106 145 190 228 271 332
#     4   9  19  33  50  78 111 141 178 227 282 330
#     4  10  21  38  61  89 118 152 191 233 280 338
#     4  10  19  34  54  76 105 140 182 230 276 327
#     4  11  22  35  54  83 113 141 180 235 288 334
#
# _framework density 19.125896000000001
#
# number of rings (size 3 to 8) (size 9 to 14) (size 15 to 20)
#    0.000    2.143    2.143    0.857    3.000    2.857 
#    0.000    0.357    0.000    0.000    0.000    4.000 
#    0.000    0.000    0.000    0.000    0.000    0.000 
#
# Total GULP energy -694234.652404 kJ/mol
# GULP energy per Si atom -12397.047364 kJ/mol
# Density = 1.908237 g / cm^3
# Si number density = 19.125896 Si / 1000 Ang^3
#
#
#
# Elastic Constant Matrix: (Units=GPa)
#
#
# Indices 1 2 3 4 5 6 
#
# 1 106.9089 39.5073 40.8582 0.0000 0.0000 0.0000
# 2 39.5073 64.5096 33.3263 0.0000 0.0000 0.0000
# 3 40.8582 33.3263 105.4904 0.0000 0.0000 0.0000
# 4 0.0000 0.0000 0.0000 18.5538 0.0000 0.0000
# 5 0.0000 0.0000 0.0000 0.0000 35.6835 0.0000
# 6 0.0000 0.0000 0.0000 0.0000 0.0000 26.1525
#
#
#
# Elastic Compliance Matrix: (Units=1/GPa)
#
#
# Indices 1 2 3 4 5 6 
#
# 1 0.012824 -0.006319 -0.002971 0.000000 0.000000 0.000000
# 2 -0.006319 0.021639 -0.004389 0.000000 0.000000 0.000000
# 3 -0.002971 -0.004389 0.012017 0.000000 0.000000 0.000000
# 4 0.000000 0.000000 0.000000 0.053897 0.000000 0.000000
# 5 0.000000 0.000000 0.000000 0.000000 0.028024 0.000000
# 6 0.000000 0.000000 0.000000 0.000000 0.000000 0.038237
#
#
# Mechanical properties :
#
#
# Convention : Reuss Voigt Hill
#
# Bulk Modulus (GPa) = 52.29388 56.03250 54.16319
# Shear Modulus (GPa) = 24.95390 26.95910 25.95650
#
# Velocity S-wave (km/s) = 3.61601 3.75848 3.68793
# Velocity P-wave (km/s) = 6.69592 6.94228 6.82021
#
# Compressibility (1/GPa) = 0.01912270
#
# Stress axis : x y z
#
# Youngs Moduli (GPa) = 77.97686 46.21338 83.21850
#
# Poissons Ratio (x) = 0.29203 0.24722
# Poissons Ratio (y) = 0.49275 0.36521
# Poissons Ratio (z) = 0.23165 0.20281
#
# Static dielectric constant tensor:
#      x y z
#    x 3.563260 0.000000 0.000000 
#    y 0.000000 3.192780 0.000000 
#    z 0.000000 0.000000 3.692210 
# 
# 
# High freq. dielectric constant tensor:
#      x y z
#    x 1.749240 0.000000 0.000000 
#    y 0.000000 1.703770 0.000000 
#    z 0.000000 0.000000 1.755250 
# 
# From -- ./inp_files/30517.got.cif
#   From: 2010.03.12/outbox.cif.g09.slc.cpg/sg59_16_cif.got.tgz:30517.got - 2010.04.16 16:29:54.
