data_PCOD8241068
_publ_section_title
;
Structure prediction by ZEFSAII (Michael W. Deem and Ramdas Pophale) SiO2 
 PCOD8241068
Probable space group: P M M N
;
_chemical_formula_sum "Si O2"
_cell_formula_units_Z 64
_cell_length_a 23.472620
_cell_length_b 9.137428
_cell_length_c 18.158392
_cell_angle_alpha 90.000000
_cell_angle_beta 90.000000
_cell_angle_gamma 90.000000
_cell_volume 3894.600571
_symmetry_space_group_name_H-M "P M M N"
_symmetry_group_IT_number 59
_space_group.IT_coordinate_system_code '2'
_symmetry_cell_setting 'orthorhombic'
loop_
_space_group_symop_operation_xyz
x,y,z
1/2-x,1/2-y,z
1/2+x,-y,-z
-x,1/2+y,-z
-x,-y,-z
1/2+x,1/2+y,-z
1/2-x,y,z
x,1/2-y,z
loop_
_atom_site_type_symbol
_atom_site_label
_atom_site_fract_x
_atom_site_fract_y
_atom_site_fract_z
Si Si1 0.496149 0.424004 0.079405
Si Si2 0.613077 0.077470 0.864815
Si Si3 0.116940 0.577109 0.859975
Si Si4 0.182283 0.912683 0.560929
Si Si5 0.186015 0.575310 0.722475
Si Si6 0.686699 0.423981 0.002743
Si Si7 0.184996 0.578853 0.277381
Si Si8 0.182183 0.413578 0.422035
O O1 0.491014 0.250000 0.067551
O O2 0.444554 0.485816 0.127642
O O3 0.551465 0.465708 0.127690
O O4 0.500000 0.500000 0.000000
O O5 0.599545 0.250000 0.869586
O O6 0.654596 0.025706 0.929609
O O7 0.643819 0.034386 0.789147
O O8 0.124534 0.750000 0.859682
O O9 0.141656 0.513290 0.783144
O O10 0.153817 0.510958 0.926939
O O11 0.250000 0.904728 0.555300
O O12 0.156692 0.750000 0.551100
O O13 0.166011 0.978839 0.641318
O O14 0.156812 0.012877 0.495933
O O15 0.250000 0.518657 0.740866
O O16 0.186862 0.750000 0.721493
O O17 0.750000 0.490474 0.001426
O O18 0.689111 0.250000 0.006217
O O19 0.250000 0.531558 0.258539
O O20 0.182699 0.750000 0.293188
O O21 0.161320 0.499196 0.349857
O O22 0.250000 0.415453 0.425367
O O23 0.157997 0.250000 0.417781
#
# Coordination Sequence:
#
# PCOD8241068 Si02
#       8
#     8   8   8   8   8   8   8   8
#     4  11  21  34  50  67  88 119 157 197 234 270
#     4  10  19  32  48  69  92 117 152 191 232 274
#     4   9  16  26  42  66  91 115 149 190 229 266
#     4   8  13  22  38  61  89 118 146 176 215 264
#     4   8  13  22  39  66  95 117 142 184 231 268
#     4   9  15  24  42  67  92 116 145 183 224 267
#     4   9  17  29  46  68  94 121 151 190 231 271
#     4   9  16  25  39  61  91 125 155 179 211 263
#
# _framework density 16.433008000000001
#
# number of rings (size 3 to 8) (size 9 to 14) (size 15 to 20)
#    0.000    2.875    1.250    2.250    0.000    5.000 
#    0.000    0.000    0.000    2.625    0.000    0.875 
#    0.000    0.000    0.000    0.000    0.000    0.000 
#
# Total GULP energy -793287.139434 kJ/mol
# GULP energy per Si atom -12395.111554 kJ/mol
# Density = 1.639561 g / cm^3
# Si number density = 16.433008 Si / 1000 Ang^3
#
#
#
# Elastic Constant Matrix: (Units=GPa)
#
#
# Indices 1 2 3 4 5 6 
#
# 1 102.1295 31.8812 68.8836 0.0000 0.0000 0.0000
# 2 31.8812 46.2892 48.9833 0.0000 0.0000 0.0000
# 3 68.8836 48.9833 171.7807 0.0000 0.0000 0.0000
# 4 0.0000 0.0000 0.0000 10.4368 0.0000 0.0000
# 5 0.0000 0.0000 0.0000 0.0000 8.8778 0.0000
# 6 0.0000 0.0000 0.0000 0.0000 0.0000 18.0951
#
#
#
# Elastic Compliance Matrix: (Units=1/GPa)
#
#
# Indices 1 2 3 4 5 6 
#
# 1 0.014312 -0.005419 -0.004194 0.000000 0.000000 0.000000
# 2 -0.005419 0.032991 -0.007234 0.000000 0.000000 0.000000
# 3 -0.004194 -0.007234 0.009566 0.000000 0.000000 0.000000
# 4 0.000000 0.000000 0.000000 0.095815 0.000000 0.000000
# 5 0.000000 0.000000 0.000000 0.000000 0.112641 0.000000
# 6 0.000000 0.000000 0.000000 0.000000 0.000000 0.055264
#
#
# Mechanical properties :
#
#
# Convention : Reuss Voigt Hill
#
# Bulk Modulus (GPa) = 43.15142 68.85508 56.00325
# Shear Modulus (GPa) = 13.81188 18.84535 16.32861
#
# Velocity S-wave (km/s) = 2.90228 3.39012 3.15564
# Velocity P-wave (km/s) = 6.12756 7.57069 6.88702
#
# Compressibility (1/GPa) = 0.02317421
#
# Stress axis : x y z
#
# Youngs Moduli (GPa) = 69.87289 30.31118 104.53831
#
# Poissons Ratio (x) = 0.16427 0.43840
# Poissons Ratio (y) = 0.37866 0.75626
# Poissons Ratio (z) = 0.29302 0.21928
#
# Static dielectric constant tensor:
#      x y z
#    x 2.952010 0.000000 0.000000 
#    y 0.000000 2.840830 0.000000 
#    z 0.000000 0.000000 3.391400 
# 
# 
# High freq. dielectric constant tensor:
#      x y z
#    x 1.597410 0.000000 0.000000 
#    y 0.000000 1.597360 0.000000 
#    z 0.000000 0.000000 1.645350 
# 
# From -- ./inp_files/28405.got.cif
#   From: 2010.03.12/outbox.cif.g09.slc.cpg/sg59_15_cif.got.tgz:28405.got - 2010.04.16 16:29:54.
