data_PCOD8241487
_publ_section_title
;
Structure prediction by ZEFSAII (Michael W. Deem and Ramdas Pophale) SiO2 
 PCOD8241487
Probable space group: P M M N
;
_chemical_formula_sum "Si O2"
_cell_formula_units_Z 64
_cell_length_a 9.354841
_cell_length_b 28.240499
_cell_length_c 15.332981
_cell_angle_alpha 90.000000
_cell_angle_beta 90.000000
_cell_angle_gamma 90.000000
_cell_volume 4050.749380
_symmetry_space_group_name_H-M "P M M N"
_symmetry_group_IT_number 59
_space_group.IT_coordinate_system_code '2'
_symmetry_cell_setting 'orthorhombic'
loop_
_space_group_symop_operation_xyz
x,y,z
1/2-x,1/2-y,z
1/2+x,-y,-z
-x,1/2+y,-z
-x,-y,-z
1/2+x,1/2+y,-z
1/2-x,y,z
x,1/2-y,z
loop_
_atom_site_type_symbol
_atom_site_label
_atom_site_fract_x
_atom_site_fract_y
_atom_site_fract_z
Si Si1 0.915876 0.805227 0.499824
Si Si2 0.413648 0.541595 0.397795
Si Si3 0.415643 0.547299 0.597904
Si Si4 0.583923 0.144557 0.653305
Si Si5 0.411600 0.193663 0.996641
Si Si6 0.585201 0.304692 0.162216
Si Si7 0.584629 0.195053 0.830511
Si Si8 0.917201 0.150085 0.344909
O O1 0.750000 0.819454 0.505650
O O2 0.935636 0.750000 0.481277
O O3 0.987731 0.833463 0.421559
O O4 0.991424 0.817775 0.590406
O O5 0.250000 0.526136 0.393205
O O6 0.458729 0.553450 0.496910
O O7 0.503172 0.497517 0.360147
O O8 0.443489 0.588288 0.340732
O O9 0.250000 0.536971 0.609868
O O10 0.461280 0.595195 0.646774
O O11 0.750000 0.155251 0.631472
O O12 0.537874 0.166399 0.745227
O O13 0.250000 0.174415 0.996058
O O14 0.416912 0.250000 0.996646
O O15 0.490795 0.174859 0.083039
O O16 0.492370 0.174884 0.910769
O O17 0.750000 0.310930 0.135827
O O18 0.549804 0.250000 0.181674
O O19 0.545642 0.334563 0.247246
O O20 0.750000 0.186973 0.853483
O O21 0.552181 0.250000 0.812512
O O22 0.750000 0.157506 0.367098
#
# Coordination Sequence:
#
# PCOD8241487 Si02
#       8
#     8   8   8   8   8   8   8   8
#     4  11  23  33  42  63  96 129 158 189 226 271
#     4   9  17  30  47  67  90 117 152 193 234 275
#     4   9  17  30  47  67  90 117 152 193 234 275
#     4  10  19  33  50  68  90 122 161 195 228 271
#     4   9  17  29  45  65  92 123 150 183 228 273
#     4   9  17  29  47  69  91 118 154 192 226 265
#     4   9  17  29  47  69  91 118 154 192 226 265
#     4  10  19  33  50  68  90 122 161 195 228 271
#
# _framework density 15.799545999999999
#
# number of rings (size 3 to 8) (size 9 to 14) (size 15 to 20)
#    0.000    2.500    1.250    1.500    0.000    5.500 
#    0.000    2.500    0.000    0.000    0.000    0.875 
#    0.000    0.000    0.000    0.000    0.000    0.000 
#
# Total GULP energy -793685.451015 kJ/mol
# GULP energy per Si atom -12401.335172 kJ/mol
# Density = 1.576359 g / cm^3
# Si number density = 15.799546 Si / 1000 Ang^3
#
#
#
# Elastic Constant Matrix: (Units=GPa)
#
#
# Indices 1 2 3 4 5 6 
#
# 1 68.5352 29.7433 45.1663 0.0000 0.0000 0.0000
# 2 29.7433 66.5132 33.2863 0.0000 0.0000 0.0000
# 3 45.1663 33.2863 94.2569 0.0000 0.0000 0.0000
# 4 0.0000 0.0000 0.0000 7.3159 0.0000 0.0000
# 5 0.0000 0.0000 0.0000 0.0000 15.7088 0.0000
# 6 0.0000 0.0000 0.0000 0.0000 0.0000 23.9433
#
#
#
# Elastic Compliance Matrix: (Units=1/GPa)
#
#
# Indices 1 2 3 4 5 6 
#
# 1 0.023032 -0.005802 -0.008988 0.000000 0.000000 0.000000
# 2 -0.005802 0.019723 -0.004185 0.000000 0.000000 0.000000
# 3 -0.008988 -0.004185 0.016394 0.000000 0.000000 0.000000
# 4 0.000000 0.000000 0.000000 0.136689 0.000000 0.000000
# 5 0.000000 0.000000 0.000000 0.000000 0.063658 0.000000
# 6 0.000000 0.000000 0.000000 0.000000 0.000000 0.041765
#
#
# Mechanical properties :
#
#
# Convention : Reuss Voigt Hill
#
# Bulk Modulus (GPa) = 47.16882 49.52192 48.34537
# Shear Modulus (GPa) = 14.43929 17.46757 15.95343
#
# Velocity S-wave (km/s) = 3.02637 3.32862 3.18109
# Velocity P-wave (km/s) = 6.49086 6.79595 6.64515
#
# Compressibility (1/GPa) = 0.02120045
#
# Stress axis : x y z
#
# Youngs Moduli (GPa) = 43.41794 50.70119 60.99759
#
# Poissons Ratio (x) = 0.29414 0.54823
# Poissons Ratio (y) = 0.25189 0.25529
# Poissons Ratio (z) = 0.39023 0.21220
#
# Static dielectric constant tensor:
#      x y z
#    x 3.072940 0.000000 0.000000 
#    y 0.000000 2.942320 0.000000 
#    z 0.000000 0.000000 2.968660 
# 
# 
# High freq. dielectric constant tensor:
#      x y z
#    x 1.610310 0.000000 0.000000 
#    y 0.000000 1.587060 0.000000 
#    z 0.000000 0.000000 1.593010 
# 
# From -- ./inp_files/21889.got.cif
#   From: 2010.03.12/outbox.cif.g09.slc.cpg/sg59_11_cif.got.tgz:21889.got - 2010.04.16 16:29:54.
