data_PCOD8241197
_publ_section_title
;
Structure prediction by ZEFSAII (Michael W. Deem and Ramdas Pophale) SiO2 
 PCOD8241197
Probable space group: P M M N
;
_chemical_formula_sum "Si O2"
_cell_formula_units_Z 40
_cell_length_a 7.767662
_cell_length_b 19.273123
_cell_length_c 14.453101
_cell_angle_alpha 90.000000
_cell_angle_beta 90.000000
_cell_angle_gamma 90.000000
_cell_volume 2163.731911
_symmetry_space_group_name_H-M "P M M N"
_symmetry_group_IT_number 59
_space_group.IT_coordinate_system_code '2'
_symmetry_cell_setting 'orthorhombic'
loop_
_space_group_symop_operation_xyz
x,y,z
1/2-x,1/2-y,z
1/2+x,-y,-z
-x,1/2+y,-z
-x,-y,-z
1/2+x,1/2+y,-z
1/2-x,y,z
x,1/2-y,z
loop_
_atom_site_type_symbol
_atom_site_label
_atom_site_fract_x
_atom_site_fract_y
_atom_site_fract_z
Si Si1 0.250000 0.332421 0.395686
Si Si2 0.054294 0.078079 0.108574
Si Si3 0.058452 0.829442 0.731203
Si Si4 0.446899 0.831310 0.266014
Si Si5 0.750000 0.667806 0.398178
Si Si6 0.548101 0.077726 0.908415
O O1 0.250000 0.250000 0.402606
O O2 0.421270 0.358726 0.342947
O O3 0.250000 0.364688 0.498902
O O4 0.250000 0.082963 0.142451
O O5 0.943429 0.127171 0.174397
O O6 0.982585 0.999515 0.117176
O O7 0.040729 0.103855 0.002605
O O8 0.250000 0.835224 0.687896
O O9 0.013368 0.750000 0.756156
O O10 0.250000 0.849720 0.294539
O O11 0.467409 0.750000 0.246897
O O12 0.576173 0.856943 0.346222
O O13 0.502857 0.869871 0.172614
O O14 0.750000 0.750000 0.404212
O O15 0.750000 0.075707 0.926641
#
# Coordination Sequence:
#
# PCOD8241197 Si02
#       6
#     4   8   8   8   4   8
#     4   9  18  34  53  77 105 129 165 214 260 308
#     4  10  19  32  51  75 105 139 174 210 250 303
#     4  10  20  34  53  77 103 134 171 211 258 304
#     4   9  18  33  52  76 104 134 169 209 254 300
#     4   9  18  32  53  79 103 129 167 212 258 308
#     4   9  19  33  49  75 106 138 175 208 248 304
#
# _framework density 18.486578000000002
#
# number of rings (size 3 to 8) (size 9 to 14) (size 15 to 20)
#    0.000    2.600    1.000    0.600    1.400    2.400 
#    0.000    6.000    0.000    1.200    0.000    0.000 
#    0.000    0.000    0.000    0.000    0.000    0.000 
#
# Total GULP energy -495973.842498 kJ/mol
# GULP energy per Si atom -12399.346062 kJ/mol
# Density = 1.844450 g / cm^3
# Si number density = 18.486578 Si / 1000 Ang^3
#
#
#
# Elastic Constant Matrix: (Units=GPa)
#
#
# Indices 1 2 3 4 5 6 
#
# 1 106.9007 28.6430 67.2881 0.0000 0.0000 0.0000
# 2 28.6430 46.2914 49.9720 0.0000 0.0000 0.0000
# 3 67.2881 49.9720 144.4258 0.0000 0.0000 0.0000
# 4 0.0000 0.0000 0.0000 5.4182 0.0000 0.0000
# 5 0.0000 0.0000 0.0000 0.0000 29.0457 0.0000
# 6 0.0000 0.0000 0.0000 0.0000 0.0000 15.7727
#
#
#
# Elastic Compliance Matrix: (Units=1/GPa)
#
#
# Indices 1 2 3 4 5 6 
#
# 1 0.013412 -0.002479 -0.005391 0.000000 0.000000 0.000000
# 2 -0.002479 0.034940 -0.010934 0.000000 0.000000 0.000000
# 3 -0.005391 -0.010934 0.013219 0.000000 0.000000 0.000000
# 4 0.000000 0.000000 0.000000 0.184563 0.000000 0.000000
# 5 0.000000 0.000000 0.000000 0.000000 0.034429 0.000000
# 6 0.000000 0.000000 0.000000 0.000000 0.000000 0.063401
#
#
# Mechanical properties :
#
#
# Convention : Reuss Voigt Hill
#
# Bulk Modulus (GPa) = 41.73258 65.49157 53.61207
# Shear Modulus (GPa) = 12.83500 20.16163 16.49831
#
# Velocity S-wave (km/s) = 2.63779 3.30602 2.99063
# Velocity P-wave (km/s) = 5.64808 7.07647 6.40224
#
# Compressibility (1/GPa) = 0.02396209
#
# Stress axis : x y z
#
# Youngs Moduli (GPa) = 74.56018 28.62042 75.64940
#
# Poissons Ratio (x) = 0.07096 0.40781
# Poissons Ratio (y) = 0.18486 0.82718
# Poissons Ratio (z) = 0.40194 0.31295
#
# Static dielectric constant tensor:
#      x y z
#    x 3.516180 0.000000 0.000000 
#    y 0.000000 3.175670 0.000000 
#    z 0.000000 0.000000 3.421380 
# 
# 
# High freq. dielectric constant tensor:
#      x y z
#    x 1.730130 0.000000 0.000000 
#    y 0.000000 1.685660 0.000000 
#    z 0.000000 0.000000 1.707360 
# 
# From -- ./inp_files/14127.got.cif
#   From: 2010.03.12/outbox.cif.g09.slc.cpg/sg59_8_cif.got.tgz:14127.got - 2010.04.16 16:29:54.
