data_PCOD8241067
_publ_section_title
;
Structure prediction by ZEFSAII (Michael W. Deem and Ramdas Pophale) SiO2 
 PCOD8241067
Probable space group: P M M N
;
_chemical_formula_sum "Si O2"
_cell_formula_units_Z 48
_cell_length_a 25.886929
_cell_length_b 8.816285
_cell_length_c 11.813919
_cell_angle_alpha 90.000000
_cell_angle_beta 90.000000
_cell_angle_gamma 90.000000
_cell_volume 2696.249903
_symmetry_space_group_name_H-M "P M M N"
_symmetry_group_IT_number 59
_space_group.IT_coordinate_system_code '2'
_symmetry_cell_setting 'orthorhombic'
loop_
_space_group_symop_operation_xyz
x,y,z
1/2-x,1/2-y,z
1/2+x,-y,-z
-x,1/2+y,-z
-x,-y,-z
1/2+x,1/2+y,-z
1/2-x,y,z
x,1/2-y,z
loop_
_atom_site_type_symbol
_atom_site_label
_atom_site_fract_x
_atom_site_fract_y
_atom_site_fract_z
Si Si1 0.537042 0.078330 0.355717
Si Si2 0.874982 0.430700 0.515332
Si Si3 0.427797 0.069866 0.289818
Si Si4 0.054665 0.429080 0.033681
Si Si5 0.810246 0.925530 0.331547
Si Si6 0.114019 0.923115 0.841213
O O1 0.529576 0.250000 0.394153
O O2 0.575086 0.002100 0.447211
O O3 0.480497 0.003280 0.347340
O O4 0.561948 0.069703 0.231841
O O5 0.871138 0.250000 0.511789
O O6 0.879851 0.491431 0.644087
O O7 0.825094 0.497370 0.451579
O O8 0.423745 0.250000 0.301327
O O9 0.427997 0.021278 0.159289
O O10 0.048623 0.250000 0.023424
O O11 0.101649 0.486409 0.955584
O O12 0.000000 0.500000 0.000000
O O13 0.750000 0.949713 0.312223
O O14 0.825709 0.750000 0.336371
O O15 0.838554 0.002380 0.225473
O O16 0.128873 0.750000 0.869511
#
# Coordination Sequence:
#
# PCOD8241067 Si02
#       6
#     8   8   8   8   8   8
#     4   8  15  29  46  69 102 138 173 211 252 302
#     4  10  20  32  50  77 106 136 175 219 266 315
#     4  10  19  32  48  69 106 148 183 214 253 307
#     4  11  21  33  51  75 108 151 190 223 261 311
#     4  10  21  38  60  83 105 133 172 218 272 329
#     4  10  19  34  54  79 109 139 179 225 268 314
#
# _framework density 17.802503999999999
#
# number of rings (size 3 to 8) (size 9 to 14) (size 15 to 20)
#    0.000    2.167    1.667    3.500    0.000    2.667 
#    0.000    0.833    0.000    1.000    0.000    7.000 
#    0.000    0.000    0.000    0.000    0.000    0.000 
#
# Total GULP energy -595018.703718 kJ/mol
# GULP energy per Si atom -12396.222994 kJ/mol
# Density = 1.776198 g / cm^3
# Si number density = 17.802504 Si / 1000 Ang^3
#
#
#
# Elastic Constant Matrix: (Units=GPa)
#
#
# Indices 1 2 3 4 5 6 
#
# 1 67.9585 36.9486 37.0884 0.0000 0.0000 0.0000
# 2 36.9486 88.0456 48.4920 0.0000 0.0000 0.0000
# 3 37.0884 48.4920 104.2602 0.0000 0.0000 0.0000
# 4 0.0000 0.0000 0.0000 30.3362 0.0000 0.0000
# 5 0.0000 0.0000 0.0000 0.0000 17.5680 0.0000
# 6 0.0000 0.0000 0.0000 0.0000 0.0000 24.3864
#
#
#
# Elastic Compliance Matrix: (Units=1/GPa)
#
#
# Indices 1 2 3 4 5 6 
#
# 1 0.020475 -0.006158 -0.004419 0.000000 0.000000 0.000000
# 2 -0.006158 0.017121 -0.005773 0.000000 0.000000 0.000000
# 3 -0.004419 -0.005773 0.013848 0.000000 0.000000 0.000000
# 4 0.000000 0.000000 0.000000 0.032964 0.000000 0.000000
# 5 0.000000 0.000000 0.000000 0.000000 0.056922 0.000000
# 6 0.000000 0.000000 0.000000 0.000000 0.000000 0.041007
#
#
# Mechanical properties :
#
#
# Convention : Reuss Voigt Hill
#
# Bulk Modulus (GPa) = 53.34964 56.14693 54.74828
# Shear Modulus (GPa) = 22.59526 23.64046 23.11786
#
# Velocity S-wave (km/s) = 3.56647 3.64803 3.60748
# Velocity P-wave (km/s) = 6.85509 7.02506 6.94059
#
# Compressibility (1/GPa) = 0.01874427
#
# Stress axis : x y z
#
# Youngs Moduli (GPa) = 48.84016 58.40635 72.21118
#
# Poissons Ratio (x) = 0.35969 0.31912
# Poissons Ratio (y) = 0.30078 0.41684
# Poissons Ratio (z) = 0.21584 0.33715
#
# Static dielectric constant tensor:
#      x y z
#    x 3.082760 0.000000 0.000000 
#    y 0.000000 3.232570 0.000000 
#    z 0.000000 0.000000 3.419000 
# 
# 
# High freq. dielectric constant tensor:
#      x y z
#    x 1.657400 0.000000 0.000000 
#    y 0.000000 1.687950 0.000000 
#    z 0.000000 0.000000 1.690850 
# 
# From -- ./inp_files/14383.got.cif
#   From: 2010.03.12/outbox.cif.g09.slc.cpg/sg59_8_cif.got.tgz:14383.got - 2010.04.16 16:29:54.
