data_PCOD8241508
_publ_section_title
;
Structure prediction by ZEFSAII (Michael W. Deem and Ramdas Pophale) SiO2 
 PCOD8241508
Probable space group: P M M N
;
_chemical_formula_sum "Si O2"
_cell_formula_units_Z 48
_cell_length_a 16.495358
_cell_length_b 14.716750
_cell_length_c 10.220908
_cell_angle_alpha 90.000000
_cell_angle_beta 90.000000
_cell_angle_gamma 90.000000
_cell_volume 2481.207796
_symmetry_space_group_name_H-M "P M M N"
_symmetry_group_IT_number 59
_space_group.IT_coordinate_system_code '2'
_symmetry_cell_setting 'orthorhombic'
loop_
_space_group_symop_operation_xyz
x,y,z
1/2-x,1/2-y,z
1/2+x,-y,-z
-x,1/2+y,-z
-x,-y,-z
1/2+x,1/2+y,-z
1/2-x,y,z
x,1/2-y,z
loop_
_atom_site_type_symbol
_atom_site_label
_atom_site_fract_x
_atom_site_fract_y
_atom_site_fract_z
Si Si1 0.653160 0.852438 0.444066
Si Si2 0.844402 0.942170 0.176988
Si Si3 0.387759 0.149366 0.092169
Si Si4 0.552585 0.082421 0.055164
Si Si5 0.841568 0.526118 0.674720
Si Si6 0.345151 0.852439 0.185991
O O1 0.750000 0.850094 0.451204
O O2 0.619450 0.750000 0.463399
O O3 0.622982 0.890503 0.305143
O O4 0.615178 0.917975 0.557536
O O5 0.750000 0.962414 0.188743
O O6 0.888634 0.040134 0.165770
O O7 0.863703 0.878254 0.054275
O O8 0.354504 0.250000 0.119559
O O9 0.485604 0.150744 0.113905
O O10 0.344262 0.081242 0.190382
O O11 0.605948 0.133189 0.947290
O O12 0.500000 0.000000 0.000000
O O13 0.750000 0.512930 0.629286
O O14 0.877105 0.424848 0.704471
O O15 0.250000 0.869565 0.156614
O O16 0.360123 0.750000 0.237593
#
# Coordination Sequence:
#
# PCOD8241508 Si02
#       6
#     8   8   8   8   8   8
#     4   9  18  32  51  78 113 144 170 213 271 324
#     4  10  19  33  54  79 107 140 181 218 262 317
#     4  11  21  32  53  80 109 140 172 218 267 321
#     4  10  19  33  51  75 107 139 170 219 268 312
#     4  10  19  33  53  80 107 137 176 219 269 316
#     4  10  19  33  55  78 102 137 182 225 262 309
#
# _framework density 19.345417999999999
#
# number of rings (size 3 to 8) (size 9 to 14) (size 15 to 20)
#    0.000    2.000    3.333    2.500    0.000    2.667 
#    0.000    0.833    0.000    2.000    0.000    7.000 
#    0.000    0.000    0.000    0.000    0.000    0.000 
#
# Total GULP energy -594861.581079 kJ/mol
# GULP energy per Si atom -12392.949606 kJ/mol
# Density = 1.930139 g / cm^3
# Si number density = 19.345418 Si / 1000 Ang^3
#
#
#
# Elastic Constant Matrix: (Units=GPa)
#
#
# Indices 1 2 3 4 5 6 
#
# 1 41.2480 3.4202 4.9454 0.0000 0.0000 0.0000
# 2 3.4202 117.2586 65.1636 0.0000 0.0000 0.0000
# 3 4.9454 65.1636 109.0658 0.0000 0.0000 0.0000
# 4 0.0000 0.0000 0.0000 30.5915 0.0000 0.0000
# 5 0.0000 0.0000 0.0000 0.0000 6.0668 0.0000
# 6 0.0000 0.0000 0.0000 0.0000 0.0000 19.6537
#
#
#
# Elastic Compliance Matrix: (Units=1/GPa)
#
#
# Indices 1 2 3 4 5 6 
#
# 1 0.024378 -0.000145 -0.001019 0.000000 0.000000 0.000000
# 2 -0.000145 0.012768 -0.007622 0.000000 0.000000 0.000000
# 3 -0.001019 -0.007622 0.013769 0.000000 0.000000 0.000000
# 4 0.000000 0.000000 0.000000 0.032689 0.000000 0.000000
# 5 0.000000 0.000000 0.000000 0.000000 0.164832 0.000000
# 6 0.000000 0.000000 0.000000 0.000000 0.000000 0.050881
#
#
# Mechanical properties :
#
#
# Convention : Reuss Voigt Hill
#
# Bulk Modulus (GPa) = 29.99093 46.07008 38.03050
# Shear Modulus (GPa) = 15.24380 24.19860 19.72120
#
# Velocity S-wave (km/s) = 2.81014 3.54060 3.19631
# Velocity P-wave (km/s) = 5.10546 6.37029 5.77262
#
# Compressibility (1/GPa) = 0.03334342
#
# Stress axis : x y z
#
# Youngs Moduli (GPa) = 41.02097 78.31993 72.62736
#
# Poissons Ratio (x) = 0.01134 0.07399
# Poissons Ratio (y) = 0.00594 0.55357
# Poissons Ratio (z) = 0.04179 0.59696
#
# Static dielectric constant tensor:
#      x y z
#    x 3.783770 0.000000 0.000000 
#    y 0.000000 3.906890 0.000000 
#    z 0.000000 0.000000 3.458590 
# 
# 
# High freq. dielectric constant tensor:
#      x y z
#    x 1.734630 0.000000 0.000000 
#    y 0.000000 1.759730 0.000000 
#    z 0.000000 0.000000 1.729280 
# 
# From -- ./inp_files/8998.got.cif
#   From: 2010.03.12/outbox.cif.g09.slc.cpg/sg59_5_cif.got.tgz:8998.got - 2010.04.16 16:29:54.
