data_PCOD8241628
_publ_section_title
;
Structure prediction by ZEFSAII (Michael W. Deem and Ramdas Pophale) SiO2 
 PCOD8241628
Probable space group: P M M N
;
_chemical_formula_sum "Si O2"
_cell_formula_units_Z 64
_cell_length_a 9.372864
_cell_length_b 18.328106
_cell_length_c 20.015546
_cell_angle_alpha 90.000000
_cell_angle_beta 90.000000
_cell_angle_gamma 90.000000
_cell_volume 3438.407497
_symmetry_space_group_name_H-M "P M M N"
_symmetry_group_IT_number 59
_space_group.IT_coordinate_system_code '2'
_symmetry_cell_setting 'orthorhombic'
loop_
_space_group_symop_operation_xyz
x,y,z
1/2-x,1/2-y,z
1/2+x,-y,-z
-x,1/2+y,-z
-x,-y,-z
1/2+x,1/2+y,-z
1/2-x,y,z
x,1/2-y,z
loop_
_atom_site_type_symbol
_atom_site_label
_atom_site_fract_x
_atom_site_fract_y
_atom_site_fract_z
Si Si1 0.914687 0.403859 0.032979
Si Si2 0.917453 0.072871 0.522232
Si Si3 0.419544 0.670288 0.838283
Si Si4 0.916929 0.166230 0.649896
Si Si5 0.919899 0.427086 0.278666
Si Si6 0.081067 0.085714 0.758164
Si Si7 0.581910 0.168812 0.398673
Si Si8 0.915012 0.563052 0.089591
O O1 0.750000 0.396914 0.013935
O O2 0.968134 0.343542 0.085683
O O3 0.946022 0.479392 0.071409
O O4 0.000228 0.389545 0.964830
O O5 0.750000 0.054040 0.521532
O O6 0.965434 0.107804 0.593084
O O7 0.955379 0.136727 0.470549
O O8 0.000000 0.000000 0.500000
O O9 0.250000 0.663661 0.835933
O O10 0.471809 0.750000 0.815992
O O11 0.484755 0.612144 0.786780
O O12 0.750000 0.157081 0.663929
O O13 0.950290 0.250000 0.628146
O O14 0.001377 0.150051 0.718624
O O15 0.750000 0.422989 0.277641
O O16 0.967781 0.510890 0.277946
O O17 0.983291 0.385836 0.343231
O O18 0.250000 0.097880 0.753239
O O19 0.032438 0.082504 0.835690
O O20 0.750000 0.174277 0.387896
O O21 0.515047 0.250000 0.392184
O O22 0.750000 0.582195 0.082850
#
# Coordination Sequence:
#
# PCOD8241628 Si02
#       8
#     8   8   8   8   8   8   8   8
#     4   9  16  28  46  70  98 128 166 209 253 306
#     4  10  20  35  55  79 105 134 170 212 255 302
#     4   9  15  24  41  67 100 133 162 199 250 302
#     4  10  22  39  56  76 107 143 176 216 267 317
#     4   9  15  25  43  71 103 130 160 203 249 294
#     4  10  19  33  54  78 103 132 172 219 260 304
#     4   9  16  26  44  71 100 130 163 198 241 293
#     4   9  17  30  48  70  97 128 164 212 262 304
#
# _framework density 18.613268999999999
#
# number of rings (size 3 to 8) (size 9 to 14) (size 15 to 20)
#    0.000    2.625    1.250    1.500    0.000    5.250 
#    0.000    0.625    0.000    3.750    0.000    0.000 
#    0.000    3.000    0.000    0.000    0.000    0.000 
#
# Total GULP energy -793197.519637 kJ/mol
# GULP energy per Si atom -12393.711244 kJ/mol
# Density = 1.857090 g / cm^3
# Si number density = 18.613269 Si / 1000 Ang^3
#
#
#
# Elastic Constant Matrix: (Units=GPa)
#
#
# Indices 1 2 3 4 5 6 
#
# 1 28.3822 24.7589 35.0144 0.0000 0.0000 0.0000
# 2 24.7589 78.7721 40.9372 0.0000 0.0000 0.0000
# 3 35.0144 40.9372 133.5280 0.0000 0.0000 0.0000
# 4 0.0000 0.0000 0.0000 28.6035 0.0000 0.0000
# 5 0.0000 0.0000 0.0000 0.0000 25.5022 0.0000
# 6 0.0000 0.0000 0.0000 0.0000 0.0000 20.1510
#
#
#
# Elastic Compliance Matrix: (Units=1/GPa)
#
#
# Indices 1 2 3 4 5 6 
#
# 1 0.061612 -0.013048 -0.012156 0.000000 0.000000 0.000000
# 2 -0.013048 0.017864 -0.002055 0.000000 0.000000 0.000000
# 3 -0.012156 -0.002055 0.011307 0.000000 0.000000 0.000000
# 4 0.000000 0.000000 0.000000 0.034961 0.000000 0.000000
# 5 0.000000 0.000000 0.000000 0.000000 0.039212 0.000000
# 6 0.000000 0.000000 0.000000 0.000000 0.000000 0.049625
#
#
# Mechanical properties :
#
#
# Convention : Reuss Voigt Hill
#
# Bulk Modulus (GPa) = 27.57519 49.12259 38.34889
# Shear Modulus (GPa) = 17.78169 24.18278 20.98224
#
# Velocity S-wave (km/s) = 3.09418 3.60838 3.36113
# Velocity P-wave (km/s) = 5.25474 6.61884 5.97584
#
# Compressibility (1/GPa) = 0.03626448
#
# Stress axis : x y z
#
# Youngs Moduli (GPa) = 16.23059 55.97830 88.44258
#
# Poissons Ratio (x) = 0.73040 1.07510
# Poissons Ratio (y) = 0.21178 0.18177
# Poissons Ratio (z) = 0.19730 0.11505
#
# Static dielectric constant tensor:
#      x y z
#    x 2.948240 0.000000 0.000000 
#    y 0.000000 3.477070 0.000000 
#    z 0.000000 0.000000 3.639830 
# 
# 
# High freq. dielectric constant tensor:
#      x y z
#    x 1.666070 0.000000 0.000000 
#    y 0.000000 1.718280 0.000000 
#    z 0.000000 0.000000 1.737960 
# 
# From -- ./inp_files/29511.got.cif
#   From: 2010.03.12/outbox.cif.g09.slc.cpg/sg59_15_cif.got.tgz:29511.got - 2010.04.16 16:29:54.
