data_PCOD8241890
_publ_section_title
;
Structure prediction by ZEFSAII (Michael W. Deem and Ramdas Pophale) SiO2 
 PCOD8241890
Probable space group: P M M N
;
_chemical_formula_sum "Si O2"
_cell_formula_units_Z 48
_cell_length_a 8.970775
_cell_length_b 19.184426
_cell_length_c 15.046387
_cell_angle_alpha 90.000000
_cell_angle_beta 90.000000
_cell_angle_gamma 90.000000
_cell_volume 2589.470701
_symmetry_space_group_name_H-M "P M M N"
_symmetry_group_IT_number 59
_space_group.IT_coordinate_system_code '2'
_symmetry_cell_setting 'orthorhombic'
loop_
_space_group_symop_operation_xyz
x,y,z
1/2-x,1/2-y,z
1/2+x,-y,-z
-x,1/2+y,-z
-x,-y,-z
1/2+x,1/2+y,-z
1/2-x,y,z
x,1/2-y,z
loop_
_atom_site_type_symbol
_atom_site_label
_atom_site_fract_x
_atom_site_fract_y
_atom_site_fract_z
Si Si1 0.076526 0.169195 0.066366
Si Si2 0.075938 0.942516 0.259188
Si Si3 0.575025 0.067651 0.539315
Si Si4 0.578349 0.170483 0.885142
Si Si5 0.573081 0.327736 0.392140
Si Si6 0.073159 0.586801 0.777309
O O1 0.250000 0.151931 0.075452
O O2 0.041967 0.250000 0.085810
O O3 0.984868 0.123077 0.134437
O O4 0.023885 0.148837 0.967862
O O5 0.250000 0.960998 0.254312
O O6 0.027875 0.921455 0.358767
O O7 0.034097 0.877141 0.197989
O O8 0.984339 0.008355 0.225581
O O9 0.750000 0.057169 0.528822
O O10 0.521459 0.134723 0.482975
O O11 0.500000 0.000000 0.500000
O O12 0.750000 0.159666 0.912919
O O13 0.548018 0.250000 0.856355
O O14 0.750000 0.323516 0.386880
O O15 0.504129 0.250000 0.390528
O O16 0.511582 0.371047 0.308047
O O17 0.250000 0.586003 0.779066
#
# Coordination Sequence:
#
# PCOD8241890 Si02
#       6
#     8   8   8   8   8   8
#     4  10  21  37  57  81 110 144 180 224 278 328
#     4  10  21  35  55  82 111 143 180 228 279 326
#     4  10  19  34  55  78 108 144 179 220 269 322
#     4   9  19  37  58  80 107 141 183 228 274 327
#     4   9  18  32  52  80 109 139 180 224 265 315
#     4  11  21  34  55  81 111 148 185 224 269 326
#
# _framework density 18.536607
#
# number of rings (size 3 to 8) (size 9 to 14) (size 15 to 20)
#    0.000    2.167    1.667    1.500    0.000    3.667 
#    0.000    3.333    0.000    1.500    0.000    2.333 
#    0.000    0.000    0.000    0.000    0.000    0.000 
#
# Total GULP energy -595315.141737 kJ/mol
# GULP energy per Si atom -12402.398786 kJ/mol
# Density = 1.849442 g / cm^3
# Si number density = 18.536607 Si / 1000 Ang^3
#
#
#
# Elastic Constant Matrix: (Units=GPa)
#
#
# Indices 1 2 3 4 5 6 
#
# 1 46.4901 39.6739 43.3905 0.0000 0.0000 0.0000
# 2 39.6739 133.5236 86.9649 0.0000 0.0000 0.0000
# 3 43.3905 86.9649 153.4534 0.0000 0.0000 0.0000
# 4 0.0000 0.0000 0.0000 41.2526 0.0000 0.0000
# 5 0.0000 0.0000 0.0000 0.0000 21.6036 0.0000
# 6 0.0000 0.0000 0.0000 0.0000 0.0000 25.3282
#
#
#
# Elastic Compliance Matrix: (Units=1/GPa)
#
#
# Indices 1 2 3 4 5 6 
#
# 1 0.031726 -0.005681 -0.005751 0.000000 0.000000 0.000000
# 2 -0.005681 0.012888 -0.005698 0.000000 0.000000 0.000000
# 3 -0.005751 -0.005698 0.011372 0.000000 0.000000 0.000000
# 4 0.000000 0.000000 0.000000 0.024241 0.000000 0.000000
# 5 0.000000 0.000000 0.000000 0.000000 0.046289 0.000000
# 6 0.000000 0.000000 0.000000 0.000000 0.000000 0.039482
#
#
# Mechanical properties :
#
#
# Convention : Reuss Voigt Hill
#
# Bulk Modulus (GPa) = 46.02742 74.83621 60.43182
# Shear Modulus (GPa) = 24.09652 28.53272 26.31462
#
# Velocity S-wave (km/s) = 3.60938 3.92760 3.77185
# Velocity P-wave (km/s) = 6.50036 7.81203 7.18618
#
# Compressibility (1/GPa) = 0.02172618
#
# Stress axis : x y z
#
# Youngs Moduli (GPa) = 31.52007 77.59041 87.93616
#
# Poissons Ratio (x) = 0.44077 0.50576
# Poissons Ratio (y) = 0.17906 0.50103
# Poissons Ratio (z) = 0.18128 0.44209
#
# Static dielectric constant tensor:
#      x y z
#    x 3.257050 0.000000 0.000000 
#    y 0.000000 3.426310 0.000000 
#    z 0.000000 0.000000 3.575540 
# 
# 
# High freq. dielectric constant tensor:
#      x y z
#    x 1.701830 0.000000 0.000000 
#    y 0.000000 1.723410 0.000000 
#    z 0.000000 0.000000 1.730360 
# 
# From -- ./inp_files/20372.got.cif
#   From: 2010.03.12/outbox.cif.g09.slc.cpg/sg59_11_cif.got.tgz:20372.got - 2010.04.16 16:29:54.
