data_PCOD8241571
_publ_section_title
;
Structure prediction by ZEFSAII (Michael W. Deem and Ramdas Pophale) SiO2 
 PCOD8241571
Probable space group: P M M N
;
_chemical_formula_sum "Si O2"
_cell_formula_units_Z 64
_cell_length_a 19.370787
_cell_length_b 9.140392
_cell_length_c 18.863244
_cell_angle_alpha 90.000000
_cell_angle_beta 90.000000
_cell_angle_gamma 90.000000
_cell_volume 3339.861593
_symmetry_space_group_name_H-M "P M M N"
_symmetry_group_IT_number 59
_space_group.IT_coordinate_system_code '2'
_symmetry_cell_setting 'orthorhombic'
loop_
_space_group_symop_operation_xyz
x,y,z
1/2-x,1/2-y,z
1/2+x,-y,-z
-x,1/2+y,-z
-x,-y,-z
1/2+x,1/2+y,-z
1/2-x,y,z
x,1/2-y,z
loop_
_atom_site_type_symbol
_atom_site_label
_atom_site_fract_x
_atom_site_fract_y
_atom_site_fract_z
Si Si1 0.824816 0.087792 0.696968
Si Si2 0.325706 0.422080 0.027763
Si Si3 0.047240 0.076430 0.940715
Si Si4 0.365944 0.085319 0.178606
Si Si5 0.977000 0.417988 0.206257
Si Si6 0.920268 0.077328 0.575625
Si Si7 0.441894 0.081296 0.651219
Si Si8 0.829964 0.919134 0.458882
O O1 0.750000 0.089178 0.659183
O O2 0.850018 0.250000 0.716549
O O3 0.879359 0.016908 0.643868
O O4 0.815966 0.000864 0.769572
O O5 0.250000 0.492899 0.016205
O O6 0.318840 0.250000 0.035674
O O7 0.360968 0.483853 0.099927
O O8 0.373941 0.459453 0.961661
O O9 0.031214 0.250000 0.940333
O O10 0.042498 0.010407 0.862810
O O11 0.000000 0.000000 0.000000
O O12 0.339089 0.250000 0.176137
O O13 0.441277 0.073957 0.212028
O O14 0.951811 0.250000 0.198208
O O15 0.944707 0.485521 0.277568
O O16 0.911110 0.250000 0.564242
O O17 0.000384 0.034752 0.591414
O O18 0.883689 0.001023 0.509641
O O19 0.455913 0.250000 0.672068
O O20 0.365006 0.061576 0.618710
O O21 0.750000 0.978808 0.458713
O O22 0.828998 0.750000 0.481177
#
# Coordination Sequence:
#
# PCOD8241571 Si02
#       8
#     8   8   8   8   8   8   8   8
#     4  10  20  32  47  74 113 150 182 219 270 332
#     4   9  18  34  55  80 110 144 184 228 276 330
#     4  11  21  36  59  85 114 150 190 233 279 330
#     4  10  19  33  53  77 108 144 184 227 270 328
#     4  11  22  37  58  87 114 144 190 237 283 336
#     4  10  20  35  57  83 112 148 188 229 279 338
#     4  10  21  39  61  84 112 149 189 234 286 335
#     4  10  22  39  59  85 115 147 189 238 286 339
#
# _framework density 19.162471
#
# number of rings (size 3 to 8) (size 9 to 14) (size 15 to 20)
#    0.000    1.875    2.500    1.875    0.000    3.500 
#    0.000    0.625    0.000    6.000    0.000    0.000 
#    0.000    0.000    0.000    0.000    0.000    0.000 
#
# Total GULP energy -793071.734209 kJ/mol
# GULP energy per Si atom -12391.745847 kJ/mol
# Density = 1.911886 g / cm^3
# Si number density = 19.162471 Si / 1000 Ang^3
#
#
#
# Elastic Constant Matrix: (Units=GPa)
#
#
# Indices 1 2 3 4 5 6 
#
# 1 95.8675 33.9831 49.9957 0.0000 0.0000 0.0000
# 2 33.9831 74.1374 50.8279 0.0000 0.0000 0.0000
# 3 49.9957 50.8279 109.3327 0.0000 0.0000 0.0000
# 4 0.0000 0.0000 0.0000 36.0071 0.0000 0.0000
# 5 0.0000 0.0000 0.0000 0.0000 25.7377 0.0000
# 6 0.0000 0.0000 0.0000 0.0000 0.0000 18.2270
#
#
#
# Elastic Compliance Matrix: (Units=1/GPa)
#
#
# Indices 1 2 3 4 5 6 
#
# 1 0.014140 -0.003007 -0.005068 0.000000 0.000000 0.000000
# 2 -0.003007 0.020438 -0.008127 0.000000 0.000000 0.000000
# 3 -0.005068 -0.008127 0.015242 0.000000 0.000000 0.000000
# 4 0.000000 0.000000 0.000000 0.027772 0.000000 0.000000
# 5 0.000000 0.000000 0.000000 0.000000 0.038854 0.000000
# 6 0.000000 0.000000 0.000000 0.000000 0.000000 0.054864
#
#
# Mechanical properties :
#
#
# Convention : Reuss Voigt Hill
#
# Bulk Modulus (GPa) = 57.41488 60.99456 59.20472
# Shear Modulus (GPa) = 23.86424 25.62975 24.74700
#
# Velocity S-wave (km/s) = 3.53280 3.66115 3.59755
# Velocity P-wave (km/s) = 6.83140 7.05488 6.94404
#
# Compressibility (1/GPa) = 0.01741709
#
# Stress axis : x y z
#
# Youngs Moduli (GPa) = 70.72148 48.92780 65.60856
#
# Poissons Ratio (x) = 0.14712 0.33251
# Poissons Ratio (y) = 0.21265 0.53318
# Poissons Ratio (z) = 0.35842 0.39762
#
# Static dielectric constant tensor:
#      x y z
#    x 3.764890 0.000000 0.000000 
#    y 0.000000 3.389780 0.000000 
#    z 0.000000 0.000000 3.457040 
# 
# 
# High freq. dielectric constant tensor:
#      x y z
#    x 1.748290 0.000000 0.000000 
#    y 0.000000 1.728600 0.000000 
#    z 0.000000 0.000000 1.742340 
# 
# From -- ./inp_files/28173.got.cif
#   From: 2010.03.12/outbox.cif.g09.slc.cpg/sg59_15_cif.got.tgz:28173.got - 2010.04.16 16:29:54.
