data_PCOD8241384
_publ_section_title
;
Structure prediction by ZEFSAII (Michael W. Deem and Ramdas Pophale) SiO2 
 PCOD8241384
Probable space group: P M M N
;
_chemical_formula_sum "Si O2"
_cell_formula_units_Z 64
_cell_length_a 8.776341
_cell_length_b 14.543713
_cell_length_c 25.127158
_cell_angle_alpha 90.000000
_cell_angle_beta 90.000000
_cell_angle_gamma 90.000000
_cell_volume 3207.245139
_symmetry_space_group_name_H-M "P M M N"
_symmetry_group_IT_number 59
_space_group.IT_coordinate_system_code '2'
_symmetry_cell_setting 'orthorhombic'
loop_
_space_group_symop_operation_xyz
x,y,z
1/2-x,1/2-y,z
1/2+x,-y,-z
-x,1/2+y,-z
-x,-y,-z
1/2+x,1/2+y,-z
1/2-x,y,z
x,1/2-y,z
loop_
_atom_site_type_symbol
_atom_site_label
_atom_site_fract_x
_atom_site_fract_y
_atom_site_fract_z
Si Si1 0.578443 0.651106 0.919169
Si Si2 0.927235 0.854805 0.129989
Si Si3 0.423104 0.144172 0.468121
Si Si4 0.568634 0.850297 0.411977
Si Si5 0.928419 0.405164 0.981435
Si Si6 0.931407 0.144597 0.270549
Si Si7 0.570416 0.974934 0.822966
Si Si8 0.929502 0.040496 0.373734
O O1 0.750000 0.629961 0.939326
O O2 0.573320 0.750000 0.889335
O O3 0.526452 0.571592 0.879146
O O4 0.466109 0.661470 0.969424
O O5 0.750000 0.879492 0.127033
O O6 0.953300 0.750000 0.149047
O O7 0.998442 0.866841 0.072003
O O8 0.006297 0.921300 0.173685
O O9 0.250000 0.108560 0.463411
O O10 0.433076 0.250000 0.451079
O O11 0.487551 0.130982 0.527788
O O12 0.528470 0.086343 0.429232
O O13 0.750000 0.846537 0.413553
O O14 0.507147 0.750000 0.391968
O O15 0.511645 0.933769 0.374093
O O16 0.750000 0.414125 0.971361
O O17 0.000000 0.500000 0.000000
O O18 0.750000 0.143508 0.269725
O O19 0.991084 0.250000 0.267259
O O20 0.998310 0.097140 0.324118
O O21 0.991319 0.084066 0.222323
O O22 0.750000 0.975844 0.812801
O O23 0.750000 0.041073 0.368310
#
# Coordination Sequence:
#
# PCOD8241384 Si02
#       8
#     8   8   8   8   8   8   8   8
#     4  10  21  37  57  83 114 146 182 228 282 337
#     4  11  24  42  64  89 119 154 190 231 280 336
#     4   9  17  29  47  74 109 146 182 225 280 341
#     4   8  15  29  49  75 108 145 184 226 276 334
#     4  12  23  36  57  86 120 158 194 229 276 330
#     4  10  22  39  57  80 113 147 181 229 287 343
#     4  11  23  40  63  86 110 145 189 237 284 333
#     4  10  19  32  53  79 107 144 189 235 279 327
#
# _framework density 19.954820000000002
#
# number of rings (size 3 to 8) (size 9 to 14) (size 15 to 20)
#    0.000    1.875    1.250    4.125    0.000    5.250 
#    0.000    0.625    0.000    3.375    0.000    0.000 
#    0.000    0.000    0.000    0.000    0.000    0.000 
#
# Total GULP energy -793337.744382 kJ/mol
# GULP energy per Si atom -12395.902256 kJ/mol
# Density = 1.990940 g / cm^3
# Si number density = 19.954820 Si / 1000 Ang^3
#
#
#
# Elastic Constant Matrix: (Units=GPa)
#
#
# Indices 1 2 3 4 5 6 
#
# 1 30.7148 30.4849 20.0369 0.0000 0.0000 0.0000
# 2 30.4849 153.4431 66.1718 0.0000 0.0000 0.0000
# 3 20.0369 66.1718 81.9611 0.0000 0.0000 0.0000
# 4 0.0000 0.0000 0.0000 34.5094 0.0000 0.0000
# 5 0.0000 0.0000 0.0000 0.0000 24.7597 0.0000
# 6 0.0000 0.0000 0.0000 0.0000 0.0000 23.3906
#
#
#
# Elastic Compliance Matrix: (Units=1/GPa)
#
#
# Indices 1 2 3 4 5 6 
#
# 1 0.042070 -0.006018 -0.005426 0.000000 0.000000 0.000000
# 2 -0.006018 0.010859 -0.007296 0.000000 0.000000 0.000000
# 3 -0.005426 -0.007296 0.019418 0.000000 0.000000 0.000000
# 4 0.000000 0.000000 0.000000 0.028978 0.000000 0.000000
# 5 0.000000 0.000000 0.000000 0.000000 0.040388 0.000000
# 6 0.000000 0.000000 0.000000 0.000000 0.000000 0.042752
#
#
# Mechanical properties :
#
#
# Convention : Reuss Voigt Hill
#
# Bulk Modulus (GPa) = 28.68043 55.50069 42.09056
# Shear Modulus (GPa) = 21.40707 26.49364 23.95035
#
# Velocity S-wave (km/s) = 3.27888 3.64769 3.46819
# Velocity P-wave (km/s) = 5.36084 6.75384 6.09725
#
# Compressibility (1/GPa) = 0.03486699
#
# Stress axis : x y z
#
# Youngs Moduli (GPa) = 23.76968 92.08910 51.49935
#
# Poissons Ratio (x) = 0.55422 0.27943
# Poissons Ratio (y) = 0.14305 0.37573
# Poissons Ratio (z) = 0.12897 0.67187
#
# Static dielectric constant tensor:
#      x y z
#    x 3.565210 0.000000 0.000000 
#    y 0.000000 4.178660 0.000000 
#    z 0.000000 0.000000 3.564560 
# 
# 
# High freq. dielectric constant tensor:
#      x y z
#    x 1.758650 0.000000 0.000000 
#    y 0.000000 1.801770 0.000000 
#    z 0.000000 0.000000 1.756310 
# 
# From -- ./inp_files/31398.got.cif
#   From: 2010.03.12/outbox.cif.g09.slc.cpg/sg59_16_cif.got.tgz:31398.got - 2010.04.16 16:29:54.
