data_PCOD8241172
_publ_section_title
;
Structure prediction by ZEFSAII (Michael W. Deem and Ramdas Pophale) SiO2 
 PCOD8241172
Probable space group: P M M N
;
_chemical_formula_sum "Si O2"
_cell_formula_units_Z 64
_cell_length_a 9.105137
_cell_length_b 23.898453
_cell_length_c 14.902319
_cell_angle_alpha 90.000000
_cell_angle_beta 90.000000
_cell_angle_gamma 90.000000
_cell_volume 3242.725072
_symmetry_space_group_name_H-M "P M M N"
_symmetry_group_IT_number 59
_space_group.IT_coordinate_system_code '2'
_symmetry_cell_setting 'orthorhombic'
loop_
_space_group_symop_operation_xyz
x,y,z
1/2-x,1/2-y,z
1/2+x,-y,-z
-x,1/2+y,-z
-x,-y,-z
1/2+x,1/2+y,-z
1/2-x,y,z
x,1/2-y,z
loop_
_atom_site_type_symbol
_atom_site_label
_atom_site_fract_x
_atom_site_fract_y
_atom_site_fract_z
Si Si1 0.076280 0.531100 0.419027
Si Si2 0.576646 0.610469 0.147959
Si Si3 0.080402 0.846581 0.463142
Si Si4 0.424267 0.687377 0.654357
Si Si5 0.582934 0.188795 0.725039
Si Si6 0.424499 0.313841 0.016290
Si Si7 0.578427 0.878065 0.807045
Si Si8 0.078671 0.505335 0.217844
O O1 0.250000 0.524144 0.428452
O O2 0.019647 0.594228 0.429100
O O3 0.024337 0.508857 0.321350
O O4 0.000000 0.500000 0.500000
O O5 0.750000 0.602895 0.143221
O O6 0.531709 0.644950 0.235840
O O7 0.505221 0.549009 0.153169
O O8 0.516188 0.646592 0.063724
O O9 0.250000 0.852981 0.485918
O O10 0.008068 0.824641 0.555231
O O11 0.053317 0.804065 0.381279
O O12 0.250000 0.681147 0.656915
O O13 0.471277 0.750000 0.682687
O O14 0.493190 0.642378 0.720176
O O15 0.750000 0.166971 0.741110
O O16 0.560362 0.250000 0.768909
O O17 0.250000 0.311970 0.012376
O O18 0.486505 0.250000 0.009179
O O19 0.478865 0.342631 0.108009
O O20 0.750000 0.867956 0.791096
O O21 0.545231 0.943731 0.821032
O O22 0.250000 0.520045 0.212950
#
# Coordination Sequence:
#
# PCOD8241172 Si02
#       8
#     8   8   8   8   8   8   8   8
#     4  10  19  32  51  74 107 146 185 229 272 322
#     4  11  22  36  57  83 113 148 187 232 279 332
#     4   9  17  32  52  75 107 148 184 217 272 338
#     4  10  20  34  54  82 114 146 185 234 281 331
#     4  10  19  34  57  81 109 147 187 225 273 335
#     4   9  19  37  59  83 112 147 186 227 283 349
#     4  10  21  38  61  83 108 148 191 233 282 338
#     4  10  21  38  57  82 115 147 187 236 283 334
#
# _framework density 19.736488000000001
#
# number of rings (size 3 to 8) (size 9 to 14) (size 15 to 20)
#    0.000    2.125    1.250    2.250    0.000    4.500 
#    0.000    1.875    0.000    4.500    0.000    0.000 
#    0.000    0.000    0.000    0.000    0.000    0.000 
#
# Total GULP energy -793395.881740 kJ/mol
# GULP energy per Si atom -12396.810652 kJ/mol
# Density = 1.969157 g / cm^3
# Si number density = 19.736488 Si / 1000 Ang^3
#
#
#
# Elastic Constant Matrix: (Units=GPa)
#
#
# Indices 1 2 3 4 5 6 
#
# 1 34.7337 35.2388 24.2868 0.0000 0.0000 0.0000
# 2 35.2388 135.7745 54.5552 0.0000 0.0000 0.0000
# 3 24.2868 54.5552 107.3923 0.0000 0.0000 0.0000
# 4 0.0000 0.0000 0.0000 40.7614 0.0000 0.0000
# 5 0.0000 0.0000 0.0000 0.0000 19.5561 0.0000
# 6 0.0000 0.0000 0.0000 0.0000 0.0000 24.9459
#
#
#
# Elastic Compliance Matrix: (Units=1/GPa)
#
#
# Indices 1 2 3 4 5 6 
#
# 1 0.041004 -0.008690 -0.004859 0.000000 0.000000 0.000000
# 2 -0.008690 0.011096 -0.003671 0.000000 0.000000 0.000000
# 3 -0.004859 -0.003671 0.012275 0.000000 0.000000 0.000000
# 4 0.000000 0.000000 0.000000 0.024533 0.000000 0.000000
# 5 0.000000 0.000000 0.000000 0.000000 0.051135 0.000000
# 6 0.000000 0.000000 0.000000 0.000000 0.000000 0.040087
#
#
# Mechanical properties :
#
#
# Convention : Reuss Voigt Hill
#
# Bulk Modulus (GPa) = 33.40523 56.22911 44.81717
# Shear Modulus (GPa) = 22.26694 27.97401 25.12047
#
# Velocity S-wave (km/s) = 3.36253 3.76889 3.57149
# Velocity P-wave (km/s) = 5.66020 6.89138 6.30591
#
# Compressibility (1/GPa) = 0.02993543
#
# Stress axis : x y z
#
# Youngs Moduli (GPa) = 24.38783 90.12488 81.46318
#
# Poissons Ratio (x) = 0.78318 0.39580
# Poissons Ratio (y) = 0.21193 0.29908
# Poissons Ratio (z) = 0.11849 0.33088
#
# Static dielectric constant tensor:
#      x y z
#    x 3.200780 0.000000 0.000000 
#    y 0.000000 4.365550 0.000000 
#    z 0.000000 0.000000 3.679670 
# 
# 
# High freq. dielectric constant tensor:
#      x y z
#    x 1.728250 0.000000 0.000000 
#    y 0.000000 1.786150 0.000000 
#    z 0.000000 0.000000 1.772800 
# 
# From -- ./inp_files/21544.got.cif
#   From: 2010.03.12/outbox.cif.g09.slc.cpg/sg59_11_cif.got.tgz:21544.got - 2010.04.16 16:29:54.
