data_PCOD8241961
_publ_section_title
;
Structure prediction by ZEFSAII (Michael W. Deem and Ramdas Pophale) SiO2 
 PCOD8241961
Probable space group: P M M N
;
_chemical_formula_sum "Si O2"
_cell_formula_units_Z 48
_cell_length_a 8.933975
_cell_length_b 14.607018
_cell_length_c 20.180116
_cell_angle_alpha 90.000000
_cell_angle_beta 90.000000
_cell_angle_gamma 90.000000
_cell_volume 2633.479583
_symmetry_space_group_name_H-M "P M M N"
_symmetry_group_IT_number 59
_space_group.IT_coordinate_system_code '2'
_symmetry_cell_setting 'orthorhombic'
loop_
_space_group_symop_operation_xyz
x,y,z
1/2-x,1/2-y,z
1/2+x,-y,-z
-x,1/2+y,-z
-x,-y,-z
1/2+x,1/2+y,-z
1/2-x,y,z
x,1/2-y,z
loop_
_atom_site_type_symbol
_atom_site_label
_atom_site_fract_x
_atom_site_fract_y
_atom_site_fract_z
Si Si1 0.571013 0.551850 0.700410
Si Si2 0.585269 0.250000 0.420851
Si Si3 0.426228 0.056521 0.813262
Si Si4 0.074305 0.554086 0.940840
Si Si5 0.920178 0.051510 0.441496
Si Si6 0.078619 0.250000 0.291936
Si Si7 0.925281 0.250000 0.014058
Si Si8 0.425141 0.250000 0.871792
O O1 0.750000 0.550724 0.694451
O O2 0.515141 0.470951 0.747523
O O3 0.502283 0.534936 0.628192
O O4 0.513099 0.650857 0.731508
O O5 0.750000 0.250000 0.384318
O O6 0.573660 0.341915 0.464058
O O7 0.446897 0.250000 0.370596
O O8 0.250000 0.048108 0.800133
O O9 0.473066 0.160221 0.830870
O O10 0.479503 0.988652 0.871687
O O11 0.250000 0.541292 0.949067
O O12 0.026191 0.660750 0.943860
O O13 0.000000 0.500000 0.000000
O O14 0.750000 0.016874 0.434269
O O15 0.000000 0.000000 0.500000
O O16 0.250000 0.250000 0.273200
O O17 0.750000 0.250000 0.000959
O O18 0.999936 0.250000 0.942893
O O19 0.250000 0.250000 0.885636
#
# Coordination Sequence:
#
# PCOD8241961 Si02
#       8
#     8   4   8   8   8   4   4   4
#     4  10  20  35  55  80 109 141 178 220 268 320
#     4   8  16  30  50  76 104 137 174 210 255 312
#     4  10  21  36  54  77 106 140 179 221 268 320
#     4  10  20  34  53  77 105 135 174 219 266 316
#     4  10  19  34  56  82 111 143 180 221 267 317
#     4   8  16  31  51  74 103 134 167 210 260 315
#     4  10  20  33  53  82 109 135 174 225 271 319
#     4  10  20  36  56  76 102 142 183 219 264 322
#
# _framework density 18.226837
#
# number of rings (size 3 to 8) (size 9 to 14) (size 15 to 20)
#    0.000    2.333    1.667    1.000    0.000    3.333 
#    0.000    1.667    0.000    0.000    0.000    0.000 
#    0.000    0.000    0.000    0.000    0.000    0.000 
#
# Total GULP energy -594799.839259 kJ/mol
# GULP energy per Si atom -12391.663318 kJ/mol
# Density = 1.818535 g / cm^3
# Si number density = 18.226837 Si / 1000 Ang^3
#
#
#
# Elastic Constant Matrix: (Units=GPa)
#
#
# Indices 1 2 3 4 5 6 
#
# 1 56.1353 43.6861 44.0536 0.0000 0.0000 0.0000
# 2 43.6861 159.1212 76.9094 0.0000 0.0000 0.0000
# 3 44.0536 76.9094 113.8196 0.0000 0.0000 0.0000
# 4 0.0000 0.0000 0.0000 31.2415 0.0000 0.0000
# 5 0.0000 0.0000 0.0000 0.0000 31.7536 0.0000
# 6 0.0000 0.0000 0.0000 0.0000 0.0000 23.3304
#
#
#
# Elastic Compliance Matrix: (Units=1/GPa)
#
#
# Indices 1 2 3 4 5 6 
#
# 1 0.026827 -0.003485 -0.008029 0.000000 0.000000 0.000000
# 2 -0.003485 0.009785 -0.005263 0.000000 0.000000 0.000000
# 3 -0.008029 -0.005263 0.015450 0.000000 0.000000 0.000000
# 4 0.000000 0.000000 0.000000 0.032009 0.000000 0.000000
# 5 0.000000 0.000000 0.000000 0.000000 0.031492 0.000000
# 6 0.000000 0.000000 0.000000 0.000000 0.000000 0.042863
#
#
# Mechanical properties :
#
#
# Convention : Reuss Voigt Hill
#
# Bulk Modulus (GPa) = 54.02896 73.15267 63.59082
# Shear Modulus (GPa) = 25.23373 28.22689 26.73031
#
# Velocity S-wave (km/s) = 3.72483 3.93955 3.83369
# Velocity P-wave (km/s) = 6.94305 7.80482 7.38651
#
# Compressibility (1/GPa) = 0.01850859
#
# Stress axis : x y z
#
# Youngs Moduli (GPa) = 37.27649 102.19596 64.72623
#
# Poissons Ratio (x) = 0.35611 0.51966
# Poissons Ratio (y) = 0.12989 0.34067
# Poissons Ratio (z) = 0.29928 0.53788
#
# Static dielectric constant tensor:
#      x y z
#    x 3.034170 0.000000 0.000000 
#    y 0.000000 3.818320 0.000000 
#    z 0.000000 0.000000 3.071640 
# 
# 
# High freq. dielectric constant tensor:
#      x y z
#    x 1.705440 0.000000 0.000000 
#    y 0.000000 1.722610 0.000000 
#    z 0.000000 0.000000 1.679750 
# 
# From -- ./inp_files/25689.got.cif
#   From: 2010.03.12/outbox.cif.g09.slc.cpg/sg59_13_cif.got.tgz:25689.got - 2010.04.16 16:29:54.
