data_PCOD8241497
_publ_section_title
;
Structure prediction by ZEFSAII (Michael W. Deem and Ramdas Pophale) SiO2 
 PCOD8241497
Probable space group: P M M N
;
_chemical_formula_sum "Si O2"
_cell_formula_units_Z 64
_cell_length_a 23.810815
_cell_length_b 9.144725
_cell_length_c 16.270864
_cell_angle_alpha 90.000000
_cell_angle_beta 90.000000
_cell_angle_gamma 90.000000
_cell_volume 3542.872519
_symmetry_space_group_name_H-M "P M M N"
_symmetry_group_IT_number 59
_space_group.IT_coordinate_system_code '2'
_symmetry_cell_setting 'orthorhombic'
loop_
_space_group_symop_operation_xyz
x,y,z
1/2-x,1/2-y,z
1/2+x,-y,-z
-x,1/2+y,-z
-x,-y,-z
1/2+x,1/2+y,-z
1/2-x,y,z
x,1/2-y,z
loop_
_atom_site_type_symbol
_atom_site_label
_atom_site_fract_x
_atom_site_fract_y
_atom_site_fract_z
Si Si1 0.108737 0.084272 0.617644
Si Si2 0.606381 0.079190 0.124524
Si Si3 0.814457 0.421050 0.698638
Si Si4 0.908302 0.920462 0.794143
Si Si5 0.557531 0.577605 0.978426
Si Si6 0.973042 0.079790 0.273594
Si Si7 0.814004 0.577117 0.529313
Si Si8 0.813595 0.586419 0.227594
O O1 0.089634 0.250000 0.602254
O O2 0.139860 0.021198 0.536736
O O3 0.154726 0.070987 0.687484
O O4 0.052795 0.997607 0.645534
O O5 0.603900 0.250000 0.103730
O O6 0.557635 0.032340 0.188880
O O7 0.665848 0.034847 0.163213
O O8 0.602851 0.985558 0.041603
O O9 0.750000 0.453015 0.723701
O O10 0.825728 0.250000 0.689174
O O11 0.854428 0.485618 0.768938
O O12 0.829785 0.497983 0.613400
O O13 0.893433 0.750000 0.786607
O O14 0.923138 0.962569 0.887136
O O15 0.961342 0.959652 0.735639
O O16 0.549774 0.750000 0.988973
O O17 0.500000 0.500000 0.000000
O O18 0.963448 0.250000 0.287151
O O19 0.750000 0.537226 0.502177
O O20 0.819336 0.750000 0.542062
O O21 0.750000 0.551506 0.248082
O O22 0.821825 0.750000 0.191199
#
# Coordination Sequence:
#
# PCOD8241497 Si02
#       8
#     8   8   8   8   8   8   8   8
#     4   9  17  29  49  79 108 138 179 221 260 310
#     4  10  19  33  50  74 107 139 175 218 262 309
#     4  10  22  39  58  82 108 133 171 223 272 316
#     4  10  21  38  58  80 106 138 177 215 261 320
#     4  11  21  35  56  82 108 135 173 218 262 311
#     4   9  18  33  50  74 109 142 171 212 261 311
#     4   9  17  32  55  79 105 140 180 221 265 314
#     4   9  17  30  48  72 105 143 180 218 261 311
#
# _framework density 18.064437999999999
#
# number of rings (size 3 to 8) (size 9 to 14) (size 15 to 20)
#    0.000    2.375    1.250    1.500    0.000    5.000 
#    0.000    1.250    0.000    3.000    0.000    0.000 
#    0.000    0.000    0.000    0.000    0.000    0.000 
#
# Total GULP energy -793499.201986 kJ/mol
# GULP energy per Si atom -12398.425031 kJ/mol
# Density = 1.802332 g / cm^3
# Si number density = 18.064438 Si / 1000 Ang^3
#
#
#
# Elastic Constant Matrix: (Units=GPa)
#
#
# Indices 1 2 3 4 5 6 
#
# 1 84.1363 37.8286 46.6641 0.0000 0.0000 0.0000
# 2 37.8286 64.4825 49.8754 0.0000 0.0000 0.0000
# 3 46.6641 49.8754 97.0574 0.0000 0.0000 0.0000
# 4 0.0000 0.0000 0.0000 29.5404 0.0000 0.0000
# 5 0.0000 0.0000 0.0000 0.0000 27.7047 0.0000
# 6 0.0000 0.0000 0.0000 0.0000 0.0000 31.6573
#
#
#
# Elastic Compliance Matrix: (Units=1/GPa)
#
#
# Indices 1 2 3 4 5 6 
#
# 1 0.017617 -0.006280 -0.005243 0.000000 0.000000 0.000000
# 2 -0.006280 0.027977 -0.011357 0.000000 0.000000 0.000000
# 3 -0.005243 -0.011357 0.018660 0.000000 0.000000 0.000000
# 4 0.000000 0.000000 0.000000 0.033852 0.000000 0.000000
# 5 0.000000 0.000000 0.000000 0.000000 0.036095 0.000000
# 6 0.000000 0.000000 0.000000 0.000000 0.000000 0.031588
#
#
# Mechanical properties :
#
#
# Convention : Reuss Voigt Hill
#
# Bulk Modulus (GPa) = 54.07237 57.15694 55.61466
# Shear Modulus (GPa) = 22.96600 25.20101 24.08350
#
# Velocity S-wave (km/s) = 3.56945 3.73910 3.65526
# Velocity P-wave (km/s) = 6.85463 7.09581 6.97626
#
# Compressibility (1/GPa) = 0.01849373
#
# Stress axis : x y z
#
# Youngs Moduli (GPa) = 56.76416 35.74422 53.58985
#
# Poissons Ratio (x) = 0.22446 0.28097
# Poissons Ratio (y) = 0.35645 0.60864
# Poissons Ratio (z) = 0.29762 0.40596
#
# Static dielectric constant tensor:
#      x y z
#    x 3.360790 0.000000 0.000000 
#    y 0.000000 3.368420 0.000000 
#    z 0.000000 0.000000 3.419150 
# 
# 
# High freq. dielectric constant tensor:
#      x y z
#    x 1.693310 0.000000 0.000000 
#    y 0.000000 1.697980 0.000000 
#    z 0.000000 0.000000 1.690960 
# 
# From -- ./inp_files/21506.got.cif
#   From: 2010.03.12/outbox.cif.g09.slc.cpg/sg59_11_cif.got.tgz:21506.got - 2010.04.16 16:29:54.
