data_PCOD8241486
_publ_section_title
;
Structure prediction by ZEFSAII (Michael W. Deem and Ramdas Pophale) SiO2 
 PCOD8241486
Probable space group: P M M N
;
_chemical_formula_sum "Si O2"
_cell_formula_units_Z 64
_cell_length_a 27.785430
_cell_length_b 9.065125
_cell_length_c 14.253322
_cell_angle_alpha 90.000000
_cell_angle_beta 90.000000
_cell_angle_gamma 90.000000
_cell_volume 3590.103885
_symmetry_space_group_name_H-M "P M M N"
_symmetry_group_IT_number 59
_space_group.IT_coordinate_system_code '2'
_symmetry_cell_setting 'orthorhombic'
loop_
_space_group_symop_operation_xyz
x,y,z
1/2-x,1/2-y,z
1/2+x,-y,-z
-x,1/2+y,-z
-x,-y,-z
1/2+x,1/2+y,-z
1/2-x,y,z
x,1/2-y,z
loop_
_atom_site_type_symbol
_atom_site_label
_atom_site_fract_x
_atom_site_fract_y
_atom_site_fract_z
Si Si1 0.110987 0.078147 0.845274
Si Si2 0.451580 0.585629 0.515121
Si Si3 0.627656 0.574974 0.599056
Si Si4 0.963575 0.087004 0.273565
Si Si5 0.050920 0.075553 0.022960
Si Si6 0.930248 0.576987 0.771324
Si Si7 0.195133 0.925129 0.738186
Si Si8 0.193557 0.913051 0.528364
O O1 0.121460 0.250000 0.834094
O O2 0.065949 0.034605 0.781757
O O3 0.159603 0.993969 0.815781
O O4 0.093853 0.037314 0.950593
O O5 0.500000 0.500000 0.500000
O O6 0.453940 0.750000 0.470289
O O7 0.409570 0.487214 0.475221
O O8 0.440943 0.599326 0.624633
O O9 0.627430 0.750000 0.596469
O O10 0.612940 0.516846 0.703850
O O11 0.678250 0.515051 0.559856
O O12 0.960221 0.250000 0.224960
O O13 0.019181 0.035689 0.277976
O O14 0.040928 0.250000 0.025500
O O15 0.070439 0.013521 0.123001
O O16 0.000000 0.000000 0.000000
O O17 0.923613 0.750000 0.777357
O O18 0.250000 0.974420 0.761165
O O19 0.190687 0.750000 0.743816
O O20 0.180477 0.976825 0.632314
O O21 0.250000 0.898023 0.522296
O O22 0.170005 0.750000 0.516663
#
# Coordination Sequence:
#
# PCOD8241486 Si02
#       8
#     8   8   8   8   8   8   8   8
#     4  11  22  32  50  82 108 129 166 221 272 305
#     4  11  21  32  46  68 100 137 173 206 249 301
#     4  11  21  34  52  76 103 136 178 214 256 307
#     4  10  19  33  50  67  97 143 179 201 245 308
#     4  10  20  35  53  73 101 137 177 216 258 304
#     4   9  18  34  51  68  98 140 177 210 248 302
#     4   9  19  37  59  79 102 138 176 204 248 321
#     4   9  19  37  58  80 106 137 174 213 257 311
#
# _framework density 17.826782000000001
#
# number of rings (size 3 to 8) (size 9 to 14) (size 15 to 20)
#    0.000    2.000    2.500    2.625    0.000    5.500 
#    0.000    2.500    0.000    0.750    0.000    5.250 
#    0.000    0.000    0.000    0.000    0.000    0.000 
#
# Total GULP energy -793116.805678 kJ/mol
# GULP energy per Si atom -12392.450089 kJ/mol
# Density = 1.778621 g / cm^3
# Si number density = 17.826782 Si / 1000 Ang^3
#
#
#
# Elastic Constant Matrix: (Units=GPa)
#
#
# Indices 1 2 3 4 5 6 
#
# 1 66.7411 30.0280 51.5278 0.0000 0.0000 0.0000
# 2 30.0280 54.6373 36.5177 0.0000 0.0000 0.0000
# 3 51.5278 36.5177 131.0290 0.0000 0.0000 0.0000
# 4 0.0000 0.0000 0.0000 21.8828 0.0000 0.0000
# 5 0.0000 0.0000 0.0000 0.0000 29.7836 0.0000
# 6 0.0000 0.0000 0.0000 0.0000 0.0000 30.0791
#
#
#
# Elastic Compliance Matrix: (Units=1/GPa)
#
#
# Indices 1 2 3 4 5 6 
#
# 1 0.024416 -0.008604 -0.007204 0.000000 0.000000 0.000000
# 2 -0.008604 0.025524 -0.003730 0.000000 0.000000 0.000000
# 3 -0.007204 -0.003730 0.011504 0.000000 0.000000 0.000000
# 4 0.000000 0.000000 0.000000 0.045698 0.000000 0.000000
# 5 0.000000 0.000000 0.000000 0.000000 0.033576 0.000000
# 6 0.000000 0.000000 0.000000 0.000000 0.000000 0.033246
#
#
# Mechanical properties :
#
#
# Convention : Reuss Voigt Hill
#
# Bulk Modulus (GPa) = 44.70470 54.28381 49.49425
# Shear Modulus (GPa) = 22.67616 25.30469 23.99043
#
# Velocity S-wave (km/s) = 3.57042 3.77168 3.67243
# Velocity P-wave (km/s) = 6.49068 7.03450 6.76806
#
# Compressibility (1/GPa) = 0.02236901
#
# Stress axis : x y z
#
# Youngs Moduli (GPa) = 40.95656 39.17853 86.92333
#
# Poissons Ratio (x) = 0.33709 0.62618
# Poissons Ratio (y) = 0.35239 0.32422
# Poissons Ratio (z) = 0.29504 0.14614
#
# Static dielectric constant tensor:
#      x y z
#    x 3.160060 0.000000 0.000000 
#    y 0.000000 3.166800 0.000000 
#    z 0.000000 0.000000 3.712280 
# 
# 
# High freq. dielectric constant tensor:
#      x y z
#    x 1.677960 0.000000 0.000000 
#    y 0.000000 1.680490 0.000000 
#    z 0.000000 0.000000 1.685600 
# 
# From -- ./inp_files/25019.got.cif
#   From: 2010.03.12/outbox.cif.g09.slc.cpg/sg59_13_cif.got.tgz:25019.got - 2010.04.16 16:29:54.
