data_PCOD8241580
_publ_section_title
;
Structure prediction by ZEFSAII (Michael W. Deem and Ramdas Pophale) SiO2 
 PCOD8241580
Probable space group: P M M N
;
_chemical_formula_sum "Si O2"
_cell_formula_units_Z 40
_cell_length_a 8.799261
_cell_length_b 22.682127
_cell_length_c 10.524722
_cell_angle_alpha 90.000000
_cell_angle_beta 90.000000
_cell_angle_gamma 90.000000
_cell_volume 2100.586697
_symmetry_space_group_name_H-M "P M M N"
_symmetry_group_IT_number 59
_space_group.IT_coordinate_system_code '2'
_symmetry_cell_setting 'orthorhombic'
loop_
_space_group_symop_operation_xyz
x,y,z
1/2-x,1/2-y,z
1/2+x,-y,-z
-x,1/2+y,-z
-x,-y,-z
1/2+x,1/2+y,-z
1/2-x,y,z
x,1/2-y,z
loop_
_atom_site_type_symbol
_atom_site_label
_atom_site_fract_x
_atom_site_fract_y
_atom_site_fract_z
Si Si1 0.069081 0.683395 0.447012
Si Si2 0.076888 0.985674 0.831372
Si Si3 0.420865 0.631531 0.707674
Si Si4 0.930324 0.109355 0.792219
Si Si5 0.071787 0.382256 0.045633
O O1 0.250000 0.681563 0.448847
O O2 0.008298 0.750000 0.435488
O O3 0.004655 0.654732 0.577270
O O4 0.008370 0.646027 0.328082
O O5 0.250000 0.998712 0.876786
O O6 0.996430 0.043884 0.781394
O O7 0.078956 0.940024 0.711418
O O8 0.982053 0.951590 0.943733
O O9 0.250000 0.656406 0.721102
O O10 0.516220 0.654557 0.830719
O O11 0.750000 0.106848 0.796748
O O12 0.992854 0.142323 0.918122
O O13 0.250000 0.377505 0.031683
#
# Coordination Sequence:
#
# PCOD8241580 Si02
#       5
#     8   8   8   8   8
#     4   9  19  37  58  78 102 136 180 226 266 306
#     4   9  18  32  53  81 111 140 170 213 265 318
#     4   8  17  34  55  78 104 135 173 217 260 310
#     4  11  20  31  53  83 112 140 172 214 263 318
#     4  10  19  33  53  79 109 142 173 209 258 313
#
# _framework density 19.042297000000001
#
# number of rings (size 3 to 8) (size 9 to 14) (size 15 to 20)
#    1.200    1.400    0.000    3.000    0.000    0.800 
#    0.000    3.000    0.000   11.400    0.000    0.000 
#    0.000    0.000    0.000    0.000    0.000    0.000 
#
# Total GULP energy -495653.521931 kJ/mol
# GULP energy per Si atom -12391.338048 kJ/mol
# Density = 1.899896 g / cm^3
# Si number density = 19.042297 Si / 1000 Ang^3
#
#
#
# Elastic Constant Matrix: (Units=GPa)
#
#
# Indices 1 2 3 4 5 6 
#
# 1 93.9632 20.0503 41.1517 0.0000 0.0000 0.0000
# 2 20.0503 46.5691 45.0086 0.0000 0.0000 0.0000
# 3 41.1517 45.0086 157.9506 0.0000 0.0000 0.0000
# 4 0.0000 0.0000 0.0000 12.7003 0.0000 0.0000
# 5 0.0000 0.0000 0.0000 0.0000 15.9907 0.0000
# 6 0.0000 0.0000 0.0000 0.0000 0.0000 14.6256
#
#
#
# Elastic Compliance Matrix: (Units=1/GPa)
#
#
# Indices 1 2 3 4 5 6 
#
# 1 0.012317 -0.003038 -0.002343 0.000000 0.000000 0.000000
# 2 -0.003038 0.030385 -0.007867 0.000000 0.000000 0.000000
# 3 -0.002343 -0.007867 0.009183 0.000000 0.000000 0.000000
# 4 0.000000 0.000000 0.000000 0.078739 0.000000 0.000000
# 5 0.000000 0.000000 0.000000 0.000000 0.062537 0.000000
# 6 0.000000 0.000000 0.000000 0.000000 0.000000 0.068373
#
#
# Mechanical properties :
#
#
# Convention : Reuss Voigt Hill
#
# Bulk Modulus (GPa) = 39.38804 56.76715 48.07760
# Shear Modulus (GPa) = 16.86383 21.48145 19.17264
#
# Velocity S-wave (km/s) = 2.97913 3.36235 3.17652
# Velocity P-wave (km/s) = 5.70640 6.70445 6.22546
#
# Compressibility (1/GPa) = 0.02538842
#
# Stress axis : x y z
#
# Youngs Moduli (GPa) = 81.18839 32.91136 108.89443
#
# Poissons Ratio (x) = 0.10000 0.25516
# Poissons Ratio (y) = 0.24668 0.85663
# Poissons Ratio (z) = 0.19024 0.25890
#
# Static dielectric constant tensor:
#      x y z
#    x 3.232880 0.000000 0.000000 
#    y 0.000000 3.266100 0.000000 
#    z 0.000000 0.000000 3.675520 
# 
# 
# High freq. dielectric constant tensor:
#      x y z
#    x 1.724500 0.000000 0.000000 
#    y 0.000000 1.709440 0.000000 
#    z 0.000000 0.000000 1.746010 
# 
# From -- ./inp_files/6037.got.cif
#   From: 2010.03.12/outbox.cif.g09.slc.cpg/sg59_4_cif.got.tgz:6037.got - 2010.04.16 16:29:54.
