data_PCOD8241698
_publ_section_title
;
Structure prediction by ZEFSAII (Michael W. Deem and Ramdas Pophale) SiO2 
 PCOD8241698
Probable space group: P M M N
;
_chemical_formula_sum "Si O2"
_cell_formula_units_Z 40
_cell_length_a 8.986799
_cell_length_b 20.262015
_cell_length_c 11.670863
_cell_angle_alpha 90.000000
_cell_angle_beta 90.000000
_cell_angle_gamma 90.000000
_cell_volume 2125.155101
_symmetry_space_group_name_H-M "P M M N"
_symmetry_group_IT_number 59
_space_group.IT_coordinate_system_code '2'
_symmetry_cell_setting 'orthorhombic'
loop_
_space_group_symop_operation_xyz
x,y,z
1/2-x,1/2-y,z
1/2+x,-y,-z
-x,1/2+y,-z
-x,-y,-z
1/2+x,1/2+y,-z
1/2-x,y,z
x,1/2-y,z
loop_
_atom_site_type_symbol
_atom_site_label
_atom_site_fract_x
_atom_site_fract_y
_atom_site_fract_z
Si Si1 0.073671 0.943365 0.575973
Si Si2 0.414556 0.672705 0.225035
Si Si3 0.920513 0.901765 0.041676
Si Si4 0.079826 0.959892 0.838077
Si Si5 0.924689 0.826984 0.453525
O O1 0.250000 0.944480 0.556948
O O2 0.029354 0.957035 0.706961
O O3 0.009660 0.871066 0.546761
O O4 0.000000 0.000000 0.500000
O O5 0.250000 0.640259 0.236296
O O6 0.398077 0.750000 0.230377
O O7 0.487626 0.655337 0.103787
O O8 0.518927 0.648971 0.329151
O O9 0.750000 0.880469 0.034754
O O10 0.945997 0.966584 0.117390
O O11 0.979907 0.910235 0.912684
O O12 0.250000 0.937882 0.852980
O O13 0.750000 0.841075 0.459551
O O14 0.960926 0.750000 0.477063
#
# Coordination Sequence:
#
# PCOD8241698 Si02
#       5
#     8   8   8   8   8
#     4  11  22  36  57  83 112 145 183 226 271 325
#     4  10  20  34  54  79 106 138 176 216 261 315
#     4  10  19  33  55  79 104 135 172 217 266 313
#     4   9  20  36  52  75 106 139 174 213 261 315
#     4  10  21  37  56  79 110 145 182 227 275 322
#
# _framework density 18.822154999999999
#
# number of rings (size 3 to 8) (size 9 to 14) (size 15 to 20)
#    0.000    2.000    0.000    3.600    0.000    6.400 
#    0.000    1.000    0.000    1.200    0.000    0.000 
#    0.000    0.000    0.000    0.000    0.000    0.000 
#
# Total GULP energy -496104.246916 kJ/mol
# GULP energy per Si atom -12402.606173 kJ/mol
# Density = 1.877931 g / cm^3
# Si number density = 18.822155 Si / 1000 Ang^3
#
#
#
# Elastic Constant Matrix: (Units=GPa)
#
#
# Indices 1 2 3 4 5 6 
#
# 1 122.1725 38.8043 68.2982 0.0000 0.0000 0.0000
# 2 38.8043 46.4810 41.8650 0.0000 0.0000 0.0000
# 3 68.2982 41.8650 146.4797 0.0000 0.0000 0.0000
# 4 0.0000 0.0000 0.0000 33.1200 0.0000 0.0000
# 5 0.0000 0.0000 0.0000 0.0000 37.2385 0.0000
# 6 0.0000 0.0000 0.0000 0.0000 0.0000 32.2806
#
#
#
# Elastic Compliance Matrix: (Units=1/GPa)
#
#
# Indices 1 2 3 4 5 6 
#
# 1 0.012570 -0.007023 -0.003854 0.000000 0.000000 0.000000
# 2 -0.007023 0.032896 -0.006127 0.000000 0.000000 0.000000
# 3 -0.003854 -0.006127 0.010375 0.000000 0.000000 0.000000
# 4 0.000000 0.000000 0.000000 0.030193 0.000000 0.000000
# 5 0.000000 0.000000 0.000000 0.000000 0.026854 0.000000
# 6 0.000000 0.000000 0.000000 0.000000 0.000000 0.030978
#
#
# Mechanical properties :
#
#
# Convention : Reuss Voigt Hill
#
# Bulk Modulus (GPa) = 45.80236 68.11869 56.96053
# Shear Modulus (GPa) = 27.00470 31.60554 29.30512
#
# Velocity S-wave (km/s) = 3.79189 4.10221 3.95010
# Velocity P-wave (km/s) = 6.59988 7.66203 7.15070
#
# Compressibility (1/GPa) = 0.02183293
#
# Stress axis : x y z
#
# Youngs Moduli (GPa) = 79.55331 30.39867 96.38542
#
# Poissons Ratio (x) = 0.21349 0.37145
# Poissons Ratio (y) = 0.55871 0.59059
# Poissons Ratio (z) = 0.30658 0.18626
#
# Static dielectric constant tensor:
#      x y z
#    x 3.809940 0.000000 0.000000 
#    y 0.000000 3.300710 0.000000 
#    z 0.000000 0.000000 3.526660 
# 
# 
# High freq. dielectric constant tensor:
#      x y z
#    x 1.747510 0.000000 0.000000 
#    y 0.000000 1.716060 0.000000 
#    z 0.000000 0.000000 1.730330 
# 
# From -- ./inp_files/13858.got.cif
#   From: 2010.03.12/outbox.cif.g09.slc.cpg/sg59_7_cif.got.tgz:13858.got - 2010.04.16 16:29:54.
