data_PCOD8241870
_publ_section_title
;
Structure prediction by ZEFSAII (Michael W. Deem and Ramdas Pophale) SiO2 
 PCOD8241870
Probable space group: P M M N
;
_chemical_formula_sum "Si O2"
_cell_formula_units_Z 64
_cell_length_a 9.282539
_cell_length_b 18.909575
_cell_length_c 20.587153
_cell_angle_alpha 90.000000
_cell_angle_beta 90.000000
_cell_angle_gamma 90.000000
_cell_volume 3613.639649
_symmetry_space_group_name_H-M "P M M N"
_symmetry_group_IT_number 59
_space_group.IT_coordinate_system_code '2'
_symmetry_cell_setting 'orthorhombic'
loop_
_space_group_symop_operation_xyz
x,y,z
1/2-x,1/2-y,z
1/2+x,-y,-z
-x,1/2+y,-z
-x,-y,-z
1/2+x,1/2+y,-z
1/2-x,y,z
x,1/2-y,z
loop_
_atom_site_type_symbol
_atom_site_label
_atom_site_fract_x
_atom_site_fract_y
_atom_site_fract_z
Si Si1 0.582878 0.830797 0.241143
Si Si2 0.581015 0.954302 0.691530
Si Si3 0.085057 0.669782 0.744463
Si Si4 0.419878 0.039116 0.057583
Si Si5 0.917707 0.452689 0.813242
Si Si6 0.582739 0.469187 0.560627
Si Si7 0.917587 0.330645 0.106279
Si Si8 0.584391 0.170673 0.626998
O O1 0.750000 0.850117 0.245918
O O2 0.558960 0.750000 0.219456
O O3 0.507104 0.879637 0.186978
O O4 0.513473 0.845071 0.311172
O O5 0.750000 0.942794 0.693988
O O6 0.508489 0.877903 0.696586
O O7 0.529825 0.002275 0.751488
O O8 0.530806 0.990305 0.625007
O O9 0.250000 0.646957 0.737613
O O10 0.062265 0.750000 0.721678
O O11 0.035579 0.660801 0.818899
O O12 0.250000 0.043732 0.043791
O O13 0.483490 0.118144 0.063178
O O14 0.455131 0.995999 0.122565
O O15 0.500000 0.000000 0.000000
O O16 0.750000 0.433898 0.809159
O O17 0.500000 0.500000 0.500000
O O18 0.750000 0.481785 0.547747
O O19 0.548163 0.385587 0.570271
O O20 0.750000 0.350437 0.097052
O O21 0.944711 0.250000 0.083536
O O22 0.750000 0.160248 0.649525
O O23 0.557739 0.250000 0.599878
#
# Coordination Sequence:
#
# PCOD8241870 Si02
#       8
#     8   8   8   8   8   8   8   8
#     4  10  20  32  51  83 114 138 173 224 275 319
#     4  10  19  34  54  79 108 137 177 223 264 315
#     4   9  18  32  52  81 112 141 177 222 271 319
#     4  11  23  38  57  82 112 146 185 227 273 326
#     4  10  20  36  56  79 107 141 180 219 264 321
#     4  10  21  36  53  77 108 141 178 220 267 320
#     4   9  18  34  56  82 112 144 180 223 271 324
#     4   9  17  33  56  77 102 139 179 219 265 320
#
# _framework density 17.710675999999999
#
# number of rings (size 3 to 8) (size 9 to 14) (size 15 to 20)
#    0.000    2.250    2.500    1.500    0.000    3.750 
#    0.000    2.500    0.000    3.000    0.000    0.000 
#    0.000    0.000    0.000    0.000    0.000    0.000 
#
# Total GULP energy -793666.770191 kJ/mol
# GULP energy per Si atom -12401.043284 kJ/mol
# Density = 1.767037 g / cm^3
# Si number density = 17.710676 Si / 1000 Ang^3
#
#
#
# Elastic Constant Matrix: (Units=GPa)
#
#
# Indices 1 2 3 4 5 6 
#
# 1 74.5590 63.8476 50.2120 0.0000 0.0000 0.0000
# 2 63.8476 131.6876 62.2196 0.0000 0.0000 0.0000
# 3 50.2120 62.2196 101.3111 0.0000 0.0000 0.0000
# 4 0.0000 0.0000 0.0000 28.0577 0.0000 0.0000
# 5 0.0000 0.0000 0.0000 0.0000 30.5585 0.0000
# 6 0.0000 0.0000 0.0000 0.0000 0.0000 35.8650
#
#
#
# Elastic Compliance Matrix: (Units=1/GPa)
#
#
# Indices 1 2 3 4 5 6 
#
# 1 0.026305 -0.009289 -0.007332 0.000000 0.000000 0.000000
# 2 -0.009289 0.013978 -0.003981 0.000000 0.000000 0.000000
# 3 -0.007332 -0.003981 0.015949 0.000000 0.000000 0.000000
# 4 0.000000 0.000000 0.000000 0.035641 0.000000 0.000000
# 5 0.000000 0.000000 0.000000 0.000000 0.032724 0.000000
# 6 0.000000 0.000000 0.000000 0.000000 0.000000 0.027882
#
#
# Mechanical properties :
#
#
# Convention : Reuss Voigt Hill
#
# Bulk Modulus (GPa) = 66.54277 73.34623 69.94450
# Shear Modulus (GPa) = 25.16429 27.64814 26.40622
#
# Velocity S-wave (km/s) = 3.77351 3.95536 3.86551
# Velocity P-wave (km/s) = 7.52592 7.89705 7.71372
#
# Compressibility (1/GPa) = 0.01502793
#
# Stress axis : x y z
#
# Youngs Moduli (GPa) = 38.01562 71.53894 62.69835
#
# Poissons Ratio (x) = 0.66455 0.45972
# Poissons Ratio (y) = 0.35314 0.24959
# Poissons Ratio (z) = 0.27874 0.28478
#
# Static dielectric constant tensor:
#      x y z
#    x 3.240880 0.000000 0.000000 
#    y 0.000000 3.476660 0.000000 
#    z 0.000000 0.000000 3.063080 
# 
# 
# High freq. dielectric constant tensor:
#      x y z
#    x 1.684770 0.000000 0.000000 
#    y 0.000000 1.698700 0.000000 
#    z 0.000000 0.000000 1.655790 
# 
# From -- ./inp_files/26272.got.cif
#   From: 2010.03.12/outbox.cif.g09.slc.cpg/sg59_14_cif.got.tgz:26272.got - 2010.04.16 16:29:54.
