data_PCOD8241762
_publ_section_title
;
Structure prediction by ZEFSAII (Michael W. Deem and Ramdas Pophale) SiO2 
 PCOD8241762
Probable space group: P M M N
;
_chemical_formula_sum "Si O2"
_cell_formula_units_Z 40
_cell_length_a 8.829775
_cell_length_b 15.441464
_cell_length_c 14.571569
_cell_angle_alpha 90.000000
_cell_angle_beta 90.000000
_cell_angle_gamma 90.000000
_cell_volume 1986.755516
_symmetry_space_group_name_H-M "P M M N"
_symmetry_group_IT_number 59
_space_group.IT_coordinate_system_code '2'
_symmetry_cell_setting 'orthorhombic'
loop_
_space_group_symop_operation_xyz
x,y,z
1/2-x,1/2-y,z
1/2+x,-y,-z
-x,1/2+y,-z
-x,-y,-z
1/2+x,1/2+y,-z
1/2-x,y,z
x,1/2-y,z
loop_
_atom_site_type_symbol
_atom_site_label
_atom_site_fract_x
_atom_site_fract_y
_atom_site_fract_z
Si Si1 0.576436 0.398096 0.413628
Si Si2 0.424220 0.848741 0.217628
Si Si3 0.070737 0.655069 0.781791
Si Si4 0.570150 0.995992 0.099607
Si Si5 0.077267 0.102135 0.598370
O O1 0.750000 0.372784 0.432360
O O2 0.510361 0.352963 0.322374
O O3 0.480107 0.364302 0.499786
O O4 0.558698 0.499691 0.396807
O O5 0.250000 0.877928 0.211515
O O6 0.443931 0.750000 0.184028
O O7 0.523129 0.908726 0.151332
O O8 0.477876 0.855219 0.322372
O O9 0.250000 0.643614 0.778224
O O10 0.024448 0.750000 0.820407
O O11 0.004409 0.579658 0.846150
O O12 0.750000 0.998701 0.092265
O O13 0.500000 0.000000 0.000000
O O14 0.250000 0.131209 0.612090
#
# Coordination Sequence:
#
# PCOD8241762 Si02
#       5
#     8   8   8   8   8
#     4   9  17  32  54  84 119 158 199 235 284 350
#     4  11  24  41  62  88 118 158 206 252 301 358
#     4   9  18  35  60  87 116 151 193 238 285 347
#     4  11  23  42  65  91 119 153 195 244 306 363
#     4  10  19  33  55  86 121 158 198 242 294 349
#
# _framework density 20.133329
#
# number of rings (size 3 to 8) (size 9 to 14) (size 15 to 20)
#    0.000    2.000    2.000    1.800    0.000    4.000 
#    0.000    4.000    0.000    4.200    0.000    0.000 
#    0.000    0.000    0.000    0.000    0.000    0.000 
#
# Total GULP energy -496027.263687 kJ/mol
# GULP energy per Si atom -12400.681592 kJ/mol
# Density = 2.008750 g / cm^3
# Si number density = 20.133329 Si / 1000 Ang^3
#
#
#
# Elastic Constant Matrix: (Units=GPa)
#
#
# Indices 1 2 3 4 5 6 
#
# 1 72.2057 34.7166 35.8423 0.0000 0.0000 0.0000
# 2 34.7166 105.6801 63.9161 0.0000 0.0000 0.0000
# 3 35.8423 63.9161 142.3663 0.0000 0.0000 0.0000
# 4 0.0000 0.0000 0.0000 9.2395 0.0000 0.0000
# 5 0.0000 0.0000 0.0000 0.0000 37.2436 0.0000
# 6 0.0000 0.0000 0.0000 0.0000 0.0000 23.4441
#
#
#
# Elastic Compliance Matrix: (Units=1/GPa)
#
#
# Indices 1 2 3 4 5 6 
#
# 1 0.017043 -0.004123 -0.002440 0.000000 0.000000 0.000000
# 2 -0.004123 0.013987 -0.005242 0.000000 0.000000 0.000000
# 3 -0.002440 -0.005242 0.009992 0.000000 0.000000 0.000000
# 4 0.000000 0.000000 0.000000 0.108231 0.000000 0.000000
# 5 0.000000 0.000000 0.000000 0.000000 0.026850 0.000000
# 6 0.000000 0.000000 0.000000 0.000000 0.000000 0.042655
#
#
# Mechanical properties :
#
#
# Convention : Reuss Voigt Hill
#
# Bulk Modulus (GPa) = 57.42892 65.46688 61.44790
# Shear Modulus (GPa) = 20.14743 26.37056 23.25900
#
# Velocity S-wave (km/s) = 3.16682 3.62304 3.40258
# Velocity P-wave (km/s) = 6.47749 7.07737 6.78406
#
# Compressibility (1/GPa) = 0.01741283
#
# Stress axis : x y z
#
# Youngs Moduli (GPa) = 58.67602 71.49431 100.08476
#
# Poissons Ratio (x) = 0.29478 0.24416
# Poissons Ratio (y) = 0.24193 0.52460
# Poissons Ratio (z) = 0.14314 0.37474
#
# Static dielectric constant tensor:
#      x y z
#    x 3.524270 0.000000 0.000000 
#    y 0.000000 3.755530 0.000000 
#    z 0.000000 0.000000 3.752730 
# 
# 
# High freq. dielectric constant tensor:
#      x y z
#    x 1.767490 0.000000 0.000000 
#    y 0.000000 1.789740 0.000000 
#    z 0.000000 0.000000 1.788660 
# 
# From -- ./inp_files/19838.got.cif
#   From: 2010.03.12/outbox.cif.g09.slc.cpg/sg59_10_cif.got.tgz:19838.got - 2010.04.16 16:29:54.
