data_PCOD8241723
_publ_section_title
;
Structure prediction by ZEFSAII (Michael W. Deem and Ramdas Pophale) SiO2 
 PCOD8241723
Probable space group: P M M N
;
_chemical_formula_sum "Si O2"
_cell_formula_units_Z 56
_cell_length_a 8.744140
_cell_length_b 24.123473
_cell_length_c 14.785149
_cell_angle_alpha 90.000000
_cell_angle_beta 90.000000
_cell_angle_gamma 90.000000
_cell_volume 3118.764917
_symmetry_space_group_name_H-M "P M M N"
_symmetry_group_IT_number 59
_space_group.IT_coordinate_system_code '2'
_symmetry_cell_setting 'orthorhombic'
loop_
_space_group_symop_operation_xyz
x,y,z
1/2-x,1/2-y,z
1/2+x,-y,-z
-x,1/2+y,-z
-x,-y,-z
1/2+x,1/2+y,-z
1/2-x,y,z
x,1/2-y,z
loop_
_atom_site_type_symbol
_atom_site_label
_atom_site_fract_x
_atom_site_fract_y
_atom_site_fract_z
Si Si1 0.430242 0.953265 0.174181
Si Si2 0.073439 0.080395 0.447945
Si Si3 0.430614 0.250000 0.013350
Si Si4 0.571999 0.067330 0.125773
Si Si5 0.069437 0.129808 0.959249
Si Si6 0.572907 0.458076 0.619962
Si Si7 0.570698 0.750000 0.785992
Si Si8 0.574069 0.356794 0.293672
O O1 0.250000 0.963985 0.166784
O O2 0.478054 0.897353 0.123383
O O3 0.481258 0.946481 0.278095
O O4 0.516959 0.004035 0.126661
O O5 0.250000 0.096263 0.440598
O O6 0.023215 0.081180 0.552831
O O7 0.975331 0.125260 0.393738
O O8 0.037196 0.021426 0.403223
O O9 0.250000 0.250000 0.024161
O O10 0.504769 0.250000 0.113847
O O11 0.482015 0.305594 0.960917
O O12 0.750000 0.069246 0.098517
O O13 0.540829 0.093472 0.223827
O O14 0.474624 0.101364 0.053468
O O15 0.250000 0.123339 0.944076
O O16 0.750000 0.444101 0.606126
O O17 0.750000 0.750000 0.795667
O O18 0.522784 0.803765 0.731685
O O19 0.750000 0.339828 0.293791
#
# Coordination Sequence:
#
# PCOD8241723 Si02
#       8
#     8   8   4   8   8   8   4   8
#     4  11  22  37  55  80 113 148 184 224 276 331
#     4  10  19  33  55  81 108 142 180 220 270 326
#     4   9  20  37  57  78 103 140 183 229 274 320
#     4  11  22  35  53  80 112 148 183 222 271 328
#     4  11  22  38  57  78 107 144 186 230 278 327
#     4   9  19  34  53  78 110 143 177 222 271 324
#     4  11  21  37  59  80 107 144 189 227 274 332
#     4  11  22  35  54  82 115 146 182 226 276 327
#
# _framework density 17.955825000000001
#
# number of rings (size 3 to 8) (size 9 to 14) (size 15 to 20)
#    0.000    1.571    2.857    2.786    0.000    2.857 
#    0.000    1.429    0.000    0.857    0.000    2.000 
#    0.000    0.000    0.000    0.000    0.000    0.000 
#
# Total GULP energy -694624.321045 kJ/mol
# GULP energy per Si atom -12404.005733 kJ/mol
# Density = 1.791496 g / cm^3
# Si number density = 17.955825 Si / 1000 Ang^3
#
#
#
# Elastic Constant Matrix: (Units=GPa)
#
#
# Indices 1 2 3 4 5 6 
#
# 1 52.2721 24.8095 25.9043 0.0000 0.0000 0.0000
# 2 24.8095 100.9214 44.4387 0.0000 0.0000 0.0000
# 3 25.9043 44.4387 93.7183 0.0000 0.0000 0.0000
# 4 0.0000 0.0000 0.0000 -593.7844 0.0000 0.0000
# 5 0.0000 0.0000 0.0000 0.0000 30.1883 0.0000
# 6 0.0000 0.0000 0.0000 0.0000 0.0000 26.0718
#
#
#
# Elastic Compliance Matrix: (Units=1/GPa)
#
#
# Indices 1 2 3 4 5 6 
#
# 1 0.023177 -0.003636 -0.004682 0.000000 0.000000 0.000000
# 2 -0.003636 0.013094 -0.005204 0.000000 0.000000 0.000000
# 3 -0.004682 -0.005204 0.014432 0.000000 0.000000 0.000000
# 4 0.000000 0.000000 0.000000 -0.001684 0.000000 0.000000
# 5 0.000000 0.000000 0.000000 0.000000 0.033125 0.000000
# 6 0.000000 0.000000 0.000000 0.000000 0.000000 0.038356
#
#
# Mechanical properties :
#
#
# Convention : Reuss Voigt Hill
#
# Bulk Modulus (GPa) = 42.26736 48.57963 45.42349
# Shear Modulus (GPa) = 32.16901 -97.38755 -32.60927
#
# Velocity S-wave (km/s) = 4.23728 -7.37259 -4.26618
# Velocity P-wave (km/s) = 6.89421 6.73495 1.04176
#
# Compressibility (1/GPa) = 0.02365892
#
# Stress axis : x y z
#
# Youngs Moduli (GPa) = 43.14698 76.37153 69.29069
#
# Poissons Ratio (x) = 0.27767 0.32443
# Poissons Ratio (y) = 0.15687 0.36058
# Poissons Ratio (z) = 0.20202 0.39742
#
# Static dielectric constant tensor:
#      x y z
#    x 3.307100 0.000000 0.000000 
#    y 0.000000 2.978210 0.000000 
#    z 0.000000 0.000000 3.367990 
# 
# 
# High freq. dielectric constant tensor:
#      x y z
#    x 1.701510 0.000000 0.000000 
#    y 0.000000 1.678550 0.000000 
#    z 0.000000 0.000000 1.693560 
# 
# From -- ./inp_files/21208.got.cif
#   From: 2010.03.12/outbox.cif.g09.slc.cpg/sg59_11_cif.got.tgz:21208.got - 2010.04.16 16:29:54.
