data_PCOD8241305
_publ_section_title
;
Structure prediction by ZEFSAII (Michael W. Deem and Ramdas Pophale) SiO2 
 PCOD8241305
Probable space group: P M M N
;
_chemical_formula_sum "Si O2"
_cell_formula_units_Z 64
_cell_length_a 19.279596
_cell_length_b 9.633614
_cell_length_c 20.212484
_cell_angle_alpha 90.000000
_cell_angle_beta 90.000000
_cell_angle_gamma 90.000000
_cell_volume 3754.108837
_symmetry_space_group_name_H-M "P M M N"
_symmetry_group_IT_number 59
_space_group.IT_coordinate_system_code '2'
_symmetry_cell_setting 'orthorhombic'
loop_
_space_group_symop_operation_xyz
x,y,z
1/2-x,1/2-y,z
1/2+x,-y,-z
-x,1/2+y,-z
-x,-y,-z
1/2+x,1/2+y,-z
1/2-x,y,z
x,1/2-y,z
loop_
_atom_site_type_symbol
_atom_site_label
_atom_site_fract_x
_atom_site_fract_y
_atom_site_fract_z
Si Si1 0.082975 0.088195 0.798088
Si Si2 0.956115 0.910991 0.345732
Si Si3 0.565420 0.907740 0.486798
Si Si4 0.590663 0.591233 0.626980
Si Si5 0.830045 0.088174 0.104684
Si Si6 0.672332 0.588663 0.751986
Si Si7 0.933083 0.091743 0.989650
Si Si8 0.571506 0.407901 0.839246
O O1 0.099700 0.250000 0.808944
O O2 0.085152 0.046394 0.720355
O O3 0.008507 0.049064 0.829196
O O4 0.141951 0.998693 0.833329
O O5 0.977280 0.750000 0.339569
O O6 0.907566 0.938813 0.411609
O O7 0.027105 0.995222 0.351311
O O8 0.539651 0.750000 0.488261
O O9 0.616009 0.935133 0.550081
O O10 0.500000 0.000000 0.500000
O O11 0.565402 0.750000 0.635172
O O12 0.655298 0.561251 0.674756
O O13 0.750000 0.050315 0.092742
O O14 0.839651 0.250000 0.120966
O O15 0.871449 0.045325 0.038432
O O16 0.750000 0.534961 0.764787
O O17 0.665304 0.750000 0.769806
O O18 0.619759 0.506687 0.797369
O O19 0.955181 0.250000 0.003288
O O20 0.906048 0.073627 0.915134
O O21 0.000000 0.000000 0.000000
O O22 0.582248 0.250000 0.815187
#
# Coordination Sequence:
#
# PCOD8241305 Si02
#       8
#     8   8   8   8   8   8   8   8
#     4  10  19  32  52  78 105 132 164 205 253 300
#     4   9  16  27  45  70  99 125 157 204 249 292
#     4   8  14  24  40  64  92 122 155 197 245 289
#     4   9  16  27  44  65  93 128 166 204 246 294
#     4  10  22  38  55  77 103 133 168 204 246 297
#     4  10  21  34  47  68 100 136 172 211 254 300
#     4  10  20  35  56  79 103 131 166 206 246 294
#     4  10  20  34  53  77 101 130 168 207 250 301
#
# _framework density 17.047986999999999
#
# number of rings (size 3 to 8) (size 9 to 14) (size 15 to 20)
#    0.000    2.500    2.500    0.000    0.000    2.500 
#    0.000    1.250    0.000    0.750    0.000    3.500 
#    0.000    0.000    0.000    0.000    0.000    0.000 
#
# Total GULP energy -793043.125346 kJ/mol
# GULP energy per Si atom -12391.298834 kJ/mol
# Density = 1.700919 g / cm^3
# Si number density = 17.047987 Si / 1000 Ang^3
#
#
#
# Elastic Constant Matrix: (Units=GPa)
#
#
# Indices 1 2 3 4 5 6 
#
# 1 93.8949 42.0878 54.8464 0.0000 0.0000 0.0000
# 2 42.0878 50.1928 42.8999 0.0000 0.0000 0.0000
# 3 54.8464 42.8999 140.9411 0.0000 0.0000 0.0000
# 4 0.0000 0.0000 0.0000 25.0853 0.0000 0.0000
# 5 0.0000 0.0000 0.0000 0.0000 19.7841 0.0000
# 6 0.0000 0.0000 0.0000 0.0000 0.0000 21.3905
#
#
#
# Elastic Compliance Matrix: (Units=1/GPa)
#
#
# Indices 1 2 3 4 5 6 
#
# 1 0.018120 -0.012391 -0.003280 0.000000 0.000000 0.000000
# 2 -0.012391 0.035402 -0.005954 0.000000 0.000000 0.000000
# 3 -0.003280 -0.005954 0.010184 0.000000 0.000000 0.000000
# 4 0.000000 0.000000 0.000000 0.039864 0.000000 0.000000
# 5 0.000000 0.000000 0.000000 0.000000 0.050546 0.000000
# 6 0.000000 0.000000 0.000000 0.000000 0.000000 0.046750
#
#
# Mechanical properties :
#
#
# Convention : Reuss Voigt Hill
#
# Bulk Modulus (GPa) = 48.88363 62.74411 55.81387
# Shear Modulus (GPa) = 19.92561 22.93162 21.42862
#
# Velocity S-wave (km/s) = 3.42247 3.67157 3.54921
# Velocity P-wave (km/s) = 6.65989 7.40663 7.04317
#
# Compressibility (1/GPa) = 0.02045675
#
# Stress axis : x y z
#
# Youngs Moduli (GPa) = 55.18722 28.24697 98.19590
#
# Poissons Ratio (x) = 0.35001 0.32206
# Poissons Ratio (y) = 0.68382 0.58465
# Poissons Ratio (z) = 0.18100 0.16818
#
# Static dielectric constant tensor:
#      x y z
#    x 2.955650 0.000000 0.000000 
#    y 0.000000 3.222890 0.000000 
#    z 0.000000 0.000000 3.797640 
# 
# 
# High freq. dielectric constant tensor:
#      x y z
#    x 1.612860 0.000000 0.000000 
#    y 0.000000 1.659860 0.000000 
#    z 0.000000 0.000000 1.682720 
# 
# From -- ./inp_files/30761.got.cif
#   From: 2010.03.12/outbox.cif.g09.slc.cpg/sg59_16_cif.got.tgz:30761.got - 2010.04.16 16:29:54.
