data_PCOD8241886
_publ_section_title
;
Structure prediction by ZEFSAII (Michael W. Deem and Ramdas Pophale) SiO2 
 PCOD8241886
Probable space group: P M M N
;
_chemical_formula_sum "Si O2"
_cell_formula_units_Z 48
_cell_length_a 8.730003
_cell_length_b 15.640364
_cell_length_c 19.104957
_cell_angle_alpha 90.000000
_cell_angle_beta 90.000000
_cell_angle_gamma 90.000000
_cell_volume 2608.598942
_symmetry_space_group_name_H-M "P M M N"
_symmetry_group_IT_number 59
_space_group.IT_coordinate_system_code '2'
_symmetry_cell_setting 'orthorhombic'
loop_
_space_group_symop_operation_xyz
x,y,z
1/2-x,1/2-y,z
1/2+x,-y,-z
-x,1/2+y,-z
-x,-y,-z
1/2+x,1/2+y,-z
1/2-x,y,z
x,1/2-y,z
loop_
_atom_site_type_symbol
_atom_site_label
_atom_site_fract_x
_atom_site_fract_y
_atom_site_fract_z
Si Si1 0.416776 0.250000 0.788666
Si Si2 0.571303 0.924477 0.705220
Si Si3 0.932022 0.427961 0.950610
Si Si4 0.933061 0.567898 0.200721
Si Si5 0.420280 0.250000 0.954439
Si Si6 0.421289 0.750000 0.540031
Si Si7 0.576709 0.250000 0.293625
Si Si8 0.927830 0.923065 0.541808
O O1 0.250000 0.250000 0.753090
O O2 0.497049 0.340249 0.768653
O O3 0.403144 0.250000 0.871887
O O4 0.750000 0.933822 0.721882
O O5 0.513114 0.833163 0.733808
O O6 0.535163 0.934231 0.623431
O O7 0.475205 0.996656 0.743666
O O8 0.750000 0.429358 0.953347
O O9 0.987428 0.451124 0.872778
O O10 0.989449 0.335330 0.977664
O O11 0.000000 0.500000 0.000000
O O12 0.750000 0.572533 0.189710
O O13 0.250000 0.250000 0.988568
O O14 0.250000 0.750000 0.510122
O O15 0.423568 0.750000 0.623232
O O16 0.505082 0.665524 0.511990
O O17 0.750000 0.250000 0.264292
O O18 0.750000 0.921496 0.526835
O O19 0.000000 0.000000 0.500000
#
# Coordination Sequence:
#
# PCOD8241886 Si02
#       8
#     4   8   8   8   4   4   4   8
#     4   7  14  29  50  73  98 129 167 206 245 293
#     4  10  20  34  52  77 106 136 170 214 261 307
#     4  11  21  35  55  80 108 140 176 215 259 308
#     4  10  19  34  55  78 104 137 175 215 257 306
#     4   9  17  33  54  77 104 137 176 215 255 307
#     4   9  17  31  52  75 100 131 171 213 257 309
#     4   9  17  31  52  75  98 133 174 210 251 309
#     4  10  20  34  53  76 104 137 175 214 257 307
#
# _framework density 18.400683000000001
#
# number of rings (size 3 to 8) (size 9 to 14) (size 15 to 20)
#    0.000    2.333    0.000    4.750    0.000    4.000 
#    0.000    2.917    0.000    4.000    0.000    0.000 
#    0.000    0.000    0.000    0.000    0.000    0.000 
#
# Total GULP energy -594998.881307 kJ/mol
# GULP energy per Si atom -12395.810027 kJ/mol
# Density = 1.835880 g / cm^3
# Si number density = 18.400683 Si / 1000 Ang^3
#
#
#
# Elastic Constant Matrix: (Units=GPa)
#
#
# Indices 1 2 3 4 5 6 
#
# 1 132.1243 76.8310 41.4856 0.0000 0.0000 0.0000
# 2 76.8310 198.6339 54.7784 0.0000 0.0000 0.0000
# 3 41.4856 54.7784 39.0003 0.0000 0.0000 0.0000
# 4 0.0000 0.0000 0.0000 29.4715 0.0000 0.0000
# 5 0.0000 0.0000 0.0000 0.0000 25.6910 0.0000
# 6 0.0000 0.0000 0.0000 0.0000 0.0000 37.2878
#
#
#
# Elastic Compliance Matrix: (Units=1/GPa)
#
#
# Indices 1 2 3 4 5 6 
#
# 1 0.011742 -0.001791 -0.009975 0.000000 0.000000 0.000000
# 2 -0.001791 0.008491 -0.010020 0.000000 0.000000 0.000000
# 3 -0.009975 -0.010020 0.050326 0.000000 0.000000 0.000000
# 4 0.000000 0.000000 0.000000 0.033931 0.000000 0.000000
# 5 0.000000 0.000000 0.000000 0.000000 0.038924 0.000000
# 6 0.000000 0.000000 0.000000 0.000000 0.000000 0.026818
#
#
# Mechanical properties :
#
#
# Convention : Reuss Voigt Hill
#
# Bulk Modulus (GPa) = 37.05647 79.54983 58.30315
# Shear Modulus (GPa) = 22.44172 31.60095 27.02134
#
# Velocity S-wave (km/s) = 3.49609 4.14862 3.83625
# Velocity P-wave (km/s) = 6.03980 8.14088 7.16774
#
# Compressibility (1/GPa) = 0.02698584
#
# Stress axis : x y z
#
# Youngs Moduli (GPa) = 85.16370 117.77862 19.87063
#
# Poissons Ratio (x) = 0.21094 0.19821
# Poissons Ratio (y) = 0.15253 0.19911
# Poissons Ratio (z) = 0.84949 1.18018
#
# Static dielectric constant tensor:
#      x y z
#    x 3.515380 0.000000 0.000000 
#    y 0.000000 4.065900 0.000000 
#    z 0.000000 0.000000 2.977390 
# 
# 
# High freq. dielectric constant tensor:
#      x y z
#    x 1.724030 0.000000 0.000000 
#    y 0.000000 1.738410 0.000000 
#    z 0.000000 0.000000 1.667240 
# 
# From -- ./inp_files/25690.got.cif
#   From: 2010.03.12/outbox.cif.g09.slc.cpg/sg59_13_cif.got.tgz:25690.got - 2010.04.16 16:29:54.
