data_PCOD8241921
_publ_section_title
;
Structure prediction by ZEFSAII (Michael W. Deem and Ramdas Pophale) SiO2 
 PCOD8241921
Probable space group: P M M N
;
_chemical_formula_sum "Si O2"
_cell_formula_units_Z 48
_cell_length_a 9.067362
_cell_length_b 17.734676
_cell_length_c 16.047618
_cell_angle_alpha 90.000000
_cell_angle_beta 90.000000
_cell_angle_gamma 90.000000
_cell_volume 2580.564931
_symmetry_space_group_name_H-M "P M M N"
_symmetry_group_IT_number 59
_space_group.IT_coordinate_system_code '2'
_symmetry_cell_setting 'orthorhombic'
loop_
_space_group_symop_operation_xyz
x,y,z
1/2-x,1/2-y,z
1/2+x,-y,-z
-x,1/2+y,-z
-x,-y,-z
1/2+x,1/2+y,-z
1/2-x,y,z
x,1/2-y,z
loop_
_atom_site_type_symbol
_atom_site_label
_atom_site_fract_x
_atom_site_fract_y
_atom_site_fract_z
Si Si1 0.918057 0.886637 0.973704
Si Si2 0.419086 0.540904 0.121061
Si Si3 0.576159 0.164183 0.561032
Si Si4 0.422876 0.108070 0.397978
Si Si5 0.924001 0.250000 0.110332
Si Si6 0.423734 0.958624 0.308386
Si Si7 0.579776 0.750000 0.715932
O O1 0.750000 0.858841 0.982342
O O2 0.019681 0.822581 0.937274
O O3 0.929096 0.955635 0.910101
O O4 0.978238 0.906547 0.064945
O O5 0.250000 0.569782 0.116889
O O6 0.485306 0.545065 0.214404
O O7 0.750000 0.163436 0.546784
O O8 0.517327 0.250000 0.569510
O O9 0.503385 0.121088 0.484666
O O10 0.532873 0.118481 0.644460
O O11 0.250000 0.102422 0.416540
O O12 0.459428 0.176602 0.336951
O O13 0.487024 0.031466 0.357195
O O14 0.750000 0.250000 0.109801
O O15 0.978111 0.250000 0.204347
O O16 0.250000 0.969888 0.302635
O O17 0.750000 0.750000 0.744316
#
# Coordination Sequence:
#
# PCOD8241921 Si02
#       7
#     8   8   8   8   4   8   4
#     4  10  20  36  58  81 113 147 177 225 283 331
#     4   9  18  36  59  81 107 143 187 229 272 330
#     4  10  20  34  51  74 109 145 178 222 272 318
#     4  10  19  34  56  78 104 140 182 225 272 326
#     4  12  24  36  54  83 112 143 184 225 268 331
#     4   9  18  33  54  79 105 140 185 225 265 322
#     4  10  20  34  54  79 106 137 174 225 284 329
#
# _framework density 18.600577999999999
#
# number of rings (size 3 to 8) (size 9 to 14) (size 15 to 20)
#    0.000    2.167    0.833    2.750    0.000    4.000 
#    1.500    1.667    0.000    0.000    0.000    0.000 
#    0.000    0.000    0.000    0.000    0.000    0.000 
#
# Total GULP energy -595295.366736 kJ/mol
# GULP energy per Si atom -12401.986807 kJ/mol
# Density = 1.855824 g / cm^3
# Si number density = 18.600578 Si / 1000 Ang^3
#
#
#
# Elastic Constant Matrix: (Units=GPa)
#
#
# Indices 1 2 3 4 5 6 
#
# 1 68.3108 28.8471 51.7490 0.0000 0.0000 0.0000
# 2 28.8471 68.1930 62.0010 0.0000 0.0000 0.0000
# 3 51.7490 62.0010 168.9036 0.0000 0.0000 0.0000
# 4 0.0000 0.0000 0.0000 19.3226 0.0000 0.0000
# 5 0.0000 0.0000 0.0000 0.0000 28.0430 0.0000
# 6 0.0000 0.0000 0.0000 0.0000 0.0000 23.0906
#
#
#
# Elastic Compliance Matrix: (Units=1/GPa)
#
#
# Indices 1 2 3 4 5 6 
#
# 1 0.019873 -0.004309 -0.004507 0.000000 0.000000 0.000000
# 2 -0.004309 0.022944 -0.007102 0.000000 0.000000 0.000000
# 3 -0.004507 -0.007102 0.009908 0.000000 0.000000 0.000000
# 4 0.000000 0.000000 0.000000 0.051753 0.000000 0.000000
# 5 0.000000 0.000000 0.000000 0.000000 0.035659 0.000000
# 6 0.000000 0.000000 0.000000 0.000000 0.000000 0.043308
#
#
# Mechanical properties :
#
#
# Convention : Reuss Voigt Hill
#
# Bulk Modulus (GPa) = 47.87098 65.62240 56.74669
# Shear Modulus (GPa) = 22.49769 24.94527 23.72148
#
# Velocity S-wave (km/s) = 3.48158 3.66608 3.57502
# Velocity P-wave (km/s) = 6.47719 7.29908 6.90038
#
# Compressibility (1/GPa) = 0.02088948
#
# Stress axis : x y z
#
# Youngs Moduli (GPa) = 50.31993 43.58366 100.92373
#
# Poissons Ratio (x) = 0.18780 0.45486
# Poissons Ratio (y) = 0.21682 0.71678
# Poissons Ratio (z) = 0.22679 0.30954
#
# Static dielectric constant tensor:
#      x y z
#    x 3.274060 0.000000 0.000000 
#    y 0.000000 3.667840 0.000000 
#    z 0.000000 0.000000 3.541760 
# 
# 
# High freq. dielectric constant tensor:
#      x y z
#    x 1.701550 0.000000 0.000000 
#    y 0.000000 1.727940 0.000000 
#    z 0.000000 0.000000 1.731260 
# 
# From -- ./inp_files/20493.got.cif
#   From: 2010.03.12/outbox.cif.g09.slc.cpg/sg59_11_cif.got.tgz:20493.got - 2010.04.16 16:29:54.
