data_PCOD8241361
_publ_section_title
;
Structure prediction by ZEFSAII (Michael W. Deem and Ramdas Pophale) SiO2 
 PCOD8241361
Probable space group: P M M N
;
_chemical_formula_sum "Si O2"
_cell_formula_units_Z 64
_cell_length_a 13.888921
_cell_length_b 10.352959
_cell_length_c 23.904962
_cell_angle_alpha 90.000000
_cell_angle_beta 90.000000
_cell_angle_gamma 90.000000
_cell_volume 3437.328662
_symmetry_space_group_name_H-M "P M M N"
_symmetry_group_IT_number 59
_space_group.IT_coordinate_system_code '2'
_symmetry_cell_setting 'orthorhombic'
loop_
_space_group_symop_operation_xyz
x,y,z
1/2-x,1/2-y,z
1/2+x,-y,-z
-x,1/2+y,-z
-x,-y,-z
1/2+x,1/2+y,-z
1/2-x,y,z
x,1/2-y,z
loop_
_atom_site_type_symbol
_atom_site_label
_atom_site_fract_x
_atom_site_fract_y
_atom_site_fract_z
Si Si1 0.355504 0.902192 0.052501
Si Si2 0.478964 0.899075 0.261906
Si Si3 0.436834 0.390763 0.436348
Si Si4 0.637211 0.897779 0.680867
Si Si5 0.636451 0.106240 0.071380
Si Si6 0.145702 0.400194 0.657761
Si Si7 0.640324 0.472229 0.457059
Si Si8 0.477238 0.101602 0.867515
O O1 0.250000 0.965648 0.063036
O O2 0.344071 0.750000 0.056092
O O3 0.427624 0.949887 0.100636
O O4 0.395992 0.938542 0.990940
O O5 0.450923 0.750000 0.276989
O O6 0.564932 0.955629 0.300795
O O7 0.509793 0.908007 0.198205
O O8 0.390993 0.998629 0.271245
O O9 0.389940 0.250000 0.437823
O O10 0.415973 0.449054 0.375247
O O11 0.552059 0.373803 0.447115
O O12 0.378235 0.470073 0.482118
O O13 0.750000 0.904873 0.671351
O O14 0.606150 0.750000 0.696413
O O15 0.750000 0.116170 0.072394
O O16 0.594190 0.250000 0.085671
O O17 0.606512 0.997114 0.115644
O O18 0.250000 0.462053 0.673470
O O19 0.149494 0.250000 0.668669
O O20 0.125944 0.422579 0.591971
O O21 0.750000 0.413000 0.455384
O O22 0.452049 0.250000 0.884573
#
# Coordination Sequence:
#
# PCOD8241361 Si02
#       8
#     8   8   8   8   8   8   8   8
#     4   8  15  30  51  75 104 138 176 216 262 316
#     4  10  21  36  53  78 108 138 179 223 261 307
#     4  10  20  34  53  77 105 135 171 217 267 323
#     4  10  21  38  57  76 104 142 180 220 268 319
#     4   9  18  33  53  76 105 141 176 212 259 317
#     4   9  17  31  51  72  99 135 171 209 256 310
#     4  10  19  32  53  78 102 131 169 213 264 318
#     4  10  20  32  52  80 107 138 175 220 267 308
#
# _framework density 18.619109000000002
#
# number of rings (size 3 to 8) (size 9 to 14) (size 15 to 20)
#    0.000    2.500    1.250    1.875    0.000    3.500 
#    0.000    2.500    0.000    3.000    0.000    0.000 
#    0.000    0.000    0.000    0.000    0.000    0.000 
#
# Total GULP energy -792940.539638 kJ/mol
# GULP energy per Si atom -12389.695932 kJ/mol
# Density = 1.857673 g / cm^3
# Si number density = 18.619109 Si / 1000 Ang^3
#
#
#
# Elastic Constant Matrix: (Units=GPa)
#
#
# Indices 1 2 3 4 5 6 
#
# 1 70.3303 29.9116 30.1686 0.0000 0.0000 0.0000
# 2 29.9116 68.3016 39.3766 0.0000 0.0000 0.0000
# 3 30.1686 39.3766 86.6921 0.0000 0.0000 0.0000
# 4 0.0000 0.0000 0.0000 24.0156 0.0000 0.0000
# 5 0.0000 0.0000 0.0000 0.0000 20.9925 0.0000
# 6 0.0000 0.0000 0.0000 0.0000 0.0000 22.7767
#
#
#
# Elastic Compliance Matrix: (Units=1/GPa)
#
#
# Indices 1 2 3 4 5 6 
#
# 1 0.018308 -0.005886 -0.003698 0.000000 0.000000 0.000000
# 2 -0.005886 0.021727 -0.007820 0.000000 0.000000 0.000000
# 3 -0.003698 -0.007820 0.016374 0.000000 0.000000 0.000000
# 4 0.000000 0.000000 0.000000 0.041640 0.000000 0.000000
# 5 0.000000 0.000000 0.000000 0.000000 0.047636 0.000000
# 6 0.000000 0.000000 0.000000 0.000000 0.000000 0.043905
#
#
# Mechanical properties :
#
#
# Convention : Reuss Voigt Hill
#
# Bulk Modulus (GPa) = 46.29403 47.13752 46.71578
# Shear Modulus (GPa) = 21.58912 21.94809 21.76860
#
# Velocity S-wave (km/s) = 3.40886 3.43708 3.42300
# Velocity P-wave (km/s) = 6.35700 6.41273 6.38492
#
# Compressibility (1/GPa) = 0.02160106
#
# Stress axis : x y z
#
# Youngs Moduli (GPa) = 54.62070 46.02525 61.07244
#
# Poissons Ratio (x) = 0.27090 0.22583
# Poissons Ratio (y) = 0.32150 0.47761
# Poissons Ratio (z) = 0.20197 0.35994
#
# Static dielectric constant tensor:
#      x y z
#    x 3.721230 0.000000 0.000000 
#    y 0.000000 3.231150 0.000000 
#    z 0.000000 0.000000 3.413260 
# 
# 
# High freq. dielectric constant tensor:
#      x y z
#    x 1.725070 0.000000 0.000000 
#    y 0.000000 1.695970 0.000000 
#    z 0.000000 0.000000 1.719700 
# 
# From -- ./inp_files/31973.got.cif
#   From: 2010.03.12/outbox.cif.g09.slc.cpg/sg59_16_cif.got.tgz:31973.got - 2010.04.16 16:29:54.
