data_PCOD8241055
_publ_section_title
;
Structure prediction by ZEFSAII (Michael W. Deem and Ramdas Pophale) SiO2 
 PCOD8241055
Probable space group: P M M N
;
_chemical_formula_sum "Si O2"
_cell_formula_units_Z 64
_cell_length_a 18.322041
_cell_length_b 21.875965
_cell_length_c 9.587645
_cell_angle_alpha 90.000000
_cell_angle_beta 90.000000
_cell_angle_gamma 90.000000
_cell_volume 3842.846309
_symmetry_space_group_name_H-M "P M M N"
_symmetry_group_IT_number 59
_space_group.IT_coordinate_system_code '2'
_symmetry_cell_setting 'orthorhombic'
loop_
_space_group_symop_operation_xyz
x,y,z
1/2-x,1/2-y,z
1/2+x,-y,-z
-x,1/2+y,-z
-x,-y,-z
1/2+x,1/2+y,-z
1/2-x,y,z
x,1/2-y,z
loop_
_atom_site_type_symbol
_atom_site_label
_atom_site_fract_x
_atom_site_fract_y
_atom_site_fract_z
Si Si1 0.551044 0.423077 0.879721
Si Si2 0.912553 0.897697 0.796538
Si Si3 0.664979 0.486305 0.711662
Si Si4 0.166173 0.009372 0.610566
Si Si5 0.446145 0.968807 0.823272
Si Si6 0.830158 0.817379 0.597287
Si Si7 0.945033 0.678813 0.064153
Si Si8 0.832137 0.853373 0.297152
O O1 0.615932 0.429005 0.765631
O O2 0.480513 0.463661 0.838189
O O3 0.521646 0.353431 0.891348
O O4 0.583675 0.446612 0.027005
O O5 0.893047 0.857643 0.663295
O O6 0.993549 0.921515 0.768995
O O7 0.856903 0.955089 0.806622
O O8 0.908620 0.856603 0.934486
O O9 0.750000 0.470913 0.731713
O O10 0.644807 0.499605 0.550894
O O11 0.250000 0.991487 0.634110
O O12 0.118256 0.966265 0.710273
O O13 0.149385 0.078178 0.655140
O O14 0.750000 0.847092 0.628291
O O15 0.833674 0.750000 0.662826
O O16 0.841269 0.811450 0.432616
O O17 0.960635 0.750000 0.029083
O O18 0.886856 0.674059 0.186220
O O19 0.750000 0.849512 0.236438
#
# Coordination Sequence:
#
# PCOD8241055 Si02
#       8
#     8   8   8   8   8   8   8   8
#     4   9  19  34  50  72 100 129 167 207 252 295
#     4  10  20  33  50  72 101 130 168 205 247 292
#     4  10  20  33  52  77 104 129 161 207 255 305
#     4  10  19  32  51  76 103 131 162 200 252 303
#     4   9  18  33  49  72 100 129 161 204 252 296
#     4  10  19  32  47  65  96 136 174 205 235 279
#     4  11  22  36  51  70 101 136 173 209 242 287
#     4  10  20  33  47  68 101 134 169 205 239 287
#
# _framework density 16.654323000000002
#
# number of rings (size 3 to 8) (size 9 to 14) (size 15 to 20)
#    0.000    2.125    2.500    1.875    0.000    5.250 
#    0.000    0.000    0.000    0.375    0.000    0.000 
#    0.000    6.500    0.000    0.000    0.000    0.000 
#
# Total GULP energy -793422.194492 kJ/mol
# GULP energy per Si atom -12397.221789 kJ/mol
# Density = 1.661642 g / cm^3
# Si number density = 16.654323 Si / 1000 Ang^3
#
#
#
# Elastic Constant Matrix: (Units=GPa)
#
#
# Indices 1 2 3 4 5 6 
#
# 1 74.2460 36.6159 50.0368 0.0000 0.0000 0.0000
# 2 36.6159 69.2270 39.9642 0.0000 0.0000 0.0000
# 3 50.0368 39.9642 79.7041 0.0000 0.0000 0.0000
# 4 0.0000 0.0000 0.0000 18.7039 0.0000 0.0000
# 5 0.0000 0.0000 0.0000 0.0000 26.8459 0.0000
# 6 0.0000 0.0000 0.0000 0.0000 0.0000 20.4399
#
#
#
# Elastic Compliance Matrix: (Units=1/GPa)
#
#
# Indices 1 2 3 4 5 6 
#
# 1 0.024917 -0.005839 -0.012715 0.000000 0.000000 0.000000
# 2 -0.005839 0.021698 -0.007214 0.000000 0.000000 0.000000
# 3 -0.012715 -0.007214 0.024146 0.000000 0.000000 0.000000
# 4 0.000000 0.000000 0.000000 0.053465 0.000000 0.000000
# 5 0.000000 0.000000 0.000000 0.000000 0.037250 0.000000
# 6 0.000000 0.000000 0.000000 0.000000 0.000000 0.048924
#
#
# Mechanical properties :
#
#
# Convention : Reuss Voigt Hill
#
# Bulk Modulus (GPa) = 52.01469 52.93456 52.47462
# Shear Modulus (GPa) = 18.63277 19.63529 19.13403
#
# Velocity S-wave (km/s) = 3.34847 3.43737 3.39321
# Velocity P-wave (km/s) = 6.80069 6.89980 6.85043
#
# Compressibility (1/GPa) = 0.01922534
#
# Stress axis : x y z
#
# Youngs Moduli (GPa) = 40.13245 46.08659 41.41518
#
# Poissons Ratio (x) = 0.26911 0.52659
# Poissons Ratio (y) = 0.23434 0.29877
# Poissons Ratio (z) = 0.51028 0.33246
#
# Static dielectric constant tensor:
#      x y z
#    x 3.027230 0.000000 0.000000 
#    y 0.000000 3.056600 0.000000 
#    z 0.000000 0.000000 3.191130 
# 
# 
# High freq. dielectric constant tensor:
#      x y z
#    x 1.626100 0.000000 0.000000 
#    y 0.000000 1.620830 0.000000 
#    z 0.000000 0.000000 1.648030 
# 
# From -- ./inp_files/10699.got.cif
#   From: 2010.03.12/outbox.cif.g09.slc.cpg/sg59_6_cif.got.tgz:10699.got - 2010.04.16 16:29:54.
