data_PCOD8241675
_publ_section_title
;
Structure prediction by ZEFSAII (Michael W. Deem and Ramdas Pophale) SiO2 
 PCOD8241675
Probable space group: P M M N
;
_chemical_formula_sum "Si O2"
_cell_formula_units_Z 64
_cell_length_a 22.361292
_cell_length_b 8.987666
_cell_length_c 17.480345
_cell_angle_alpha 90.000000
_cell_angle_beta 90.000000
_cell_angle_gamma 90.000000
_cell_volume 3513.126737
_symmetry_space_group_name_H-M "P M M N"
_symmetry_group_IT_number 59
_space_group.IT_coordinate_system_code '2'
_symmetry_cell_setting 'orthorhombic'
loop_
_space_group_symop_operation_xyz
x,y,z
1/2-x,1/2-y,z
1/2+x,-y,-z
-x,1/2+y,-z
-x,-y,-z
1/2+x,1/2+y,-z
1/2-x,y,z
x,1/2-y,z
loop_
_atom_site_type_symbol
_atom_site_label
_atom_site_fract_x
_atom_site_fract_y
_atom_site_fract_z
Si Si1 0.681056 0.079457 0.936487
Si Si2 0.452442 0.925167 0.324196
Si Si3 0.419171 0.924370 0.653719
Si Si4 0.594364 0.579316 0.820426
Si Si5 0.682962 0.580442 0.253834
Si Si6 0.139854 0.078724 0.911699
Si Si7 0.061048 0.920159 0.489619
Si Si8 0.519978 0.079576 0.076504
O O1 0.750000 0.067263 0.913795
O O2 0.660144 0.250000 0.943395
O O3 0.644562 0.000685 0.869865
O O4 0.670851 0.001065 0.017365
O O5 0.458199 0.750000 0.307787
O O6 0.415819 0.958655 0.403981
O O7 0.519446 0.992082 0.324880
O O8 0.410670 0.000205 0.261119
O O9 0.430265 0.750000 0.667832
O O10 0.398856 0.957994 0.564738
O O11 0.364576 0.974373 0.706177
O O12 0.613211 0.750000 0.809093
O O13 0.530668 0.565537 0.860544
O O14 0.750000 0.537068 0.280329
O O15 0.668007 0.750000 0.276640
O O16 0.681509 0.562652 0.162183
O O17 0.128697 0.250000 0.934434
O O18 0.077368 0.002744 0.889835
O O19 0.043906 0.750000 0.491786
O O20 0.000000 0.000000 0.500000
O O21 0.535336 0.250000 0.057706
O O22 0.500000 0.000000 0.000000
#
# Coordination Sequence:
#
# PCOD8241675 Si02
#       8
#     8   8   8   8   8   8   8   8
#     4  11  24  40  58  78 101 135 179 224 269 318
#     4  10  19  33  55  82 112 144 177 217 269 326
#     4  10  19  33  54  81 112 142 177 220 267 321
#     4  11  23  37  55  81 110 141 177 220 269 316
#     4  10  22  38  54  75 106 145 187 226 267 320
#     4  11  22  37  57  79 105 140 179 223 270 316
#     4   8  16  30  50  78 109 139 170 207 255 312
#     4  11  22  35  53  78 108 140 175 217 268 323
#
# _framework density 18.217390000000002
#
# number of rings (size 3 to 8) (size 9 to 14) (size 15 to 20)
#    0.000    1.750    1.250    3.375    0.000    7.250 
#    0.000    0.000    0.000    0.750    0.000    1.750 
#    0.000    0.000    0.000    0.000    0.000    0.000 
#
# Total GULP energy -793318.772618 kJ/mol
# GULP energy per Si atom -12395.605822 kJ/mol
# Density = 1.817593 g / cm^3
# Si number density = 18.217390 Si / 1000 Ang^3
#
#
#
# Elastic Constant Matrix: (Units=GPa)
#
#
# Indices 1 2 3 4 5 6 
#
# 1 70.6739 39.5847 33.4005 0.0000 0.0000 0.0000
# 2 39.5847 123.3526 60.6146 0.0000 0.0000 0.0000
# 3 33.4005 60.6146 127.0931 0.0000 0.0000 0.0000
# 4 0.0000 0.0000 0.0000 30.1797 0.0000 0.0000
# 5 0.0000 0.0000 0.0000 0.0000 15.7818 0.0000
# 6 0.0000 0.0000 0.0000 0.0000 0.0000 23.5637
#
#
#
# Elastic Compliance Matrix: (Units=1/GPa)
#
#
# Indices 1 2 3 4 5 6 
#
# 1 0.017866 -0.004475 -0.002561 0.000000 0.000000 0.000000
# 2 -0.004475 0.011709 -0.004408 0.000000 0.000000 0.000000
# 3 -0.002561 -0.004408 0.010644 0.000000 0.000000 0.000000
# 4 0.000000 0.000000 0.000000 0.033135 0.000000 0.000000
# 5 0.000000 0.000000 0.000000 0.000000 0.063364 0.000000
# 6 0.000000 0.000000 0.000000 0.000000 0.000000 0.042438
#
#
# Mechanical properties :
#
#
# Convention : Reuss Voigt Hill
#
# Bulk Modulus (GPa) = 57.70215 65.36881 61.53548
# Shear Modulus (GPa) = 24.05905 26.40635 25.23270
#
# Velocity S-wave (km/s) = 3.63804 3.81138 3.72572
# Velocity P-wave (km/s) = 7.02781 7.43837 7.23600
#
# Compressibility (1/GPa) = 0.01733038
#
# Stress axis : x y z
#
# Youngs Moduli (GPa) = 55.97135 85.40341 93.95113
#
# Poissons Ratio (x) = 0.38217 0.24062
# Poissons Ratio (y) = 0.25047 0.41418
# Poissons Ratio (z) = 0.14335 0.37649
#
# Static dielectric constant tensor:
#      x y z
#    x 2.966700 0.000000 0.000000 
#    y 0.000000 3.364150 0.000000 
#    z 0.000000 0.000000 -0.326130 
# 
# 
# High freq. dielectric constant tensor:
#      x y z
#    x 1.677480 0.000000 0.000000 
#    y 0.000000 1.723840 0.000000 
#    z 0.000000 0.000000 1.716950 
# 
# From -- ./inp_files/28309.got.cif
#   From: 2010.03.12/outbox.cif.g09.slc.cpg/sg59_15_cif.got.tgz:28309.got - 2010.04.16 16:29:54.
