data_PCOD8241386
_publ_section_title
;
Structure prediction by ZEFSAII (Michael W. Deem and Ramdas Pophale) SiO2 
 PCOD8241386
Probable space group: P M M N
;
_chemical_formula_sum "Si O2"
_cell_formula_units_Z 40
_cell_length_a 19.672962
_cell_length_b 8.881516
_cell_length_c 12.548032
_cell_angle_alpha 90.000000
_cell_angle_beta 90.000000
_cell_angle_gamma 90.000000
_cell_volume 2192.464011
_symmetry_space_group_name_H-M "P M M N"
_symmetry_group_IT_number 59
_space_group.IT_coordinate_system_code '2'
_symmetry_cell_setting 'orthorhombic'
loop_
_space_group_symop_operation_xyz
x,y,z
1/2-x,1/2-y,z
1/2+x,-y,-z
-x,1/2+y,-z
-x,-y,-z
1/2+x,1/2+y,-z
1/2-x,y,z
x,1/2-y,z
loop_
_atom_site_type_symbol
_atom_site_label
_atom_site_fract_x
_atom_site_fract_y
_atom_site_fract_z
Si Si1 0.671000 0.422293 0.886859
Si Si2 0.892160 0.574583 0.689851
Si Si3 0.072213 0.924827 0.511790
Si Si4 0.951221 0.078558 0.256024
Si Si5 0.431572 0.072956 0.956991
O O1 0.750000 0.434037 0.913587
O O2 0.645858 0.250000 0.886660
O O3 0.657783 0.493159 0.771383
O O4 0.632381 0.513782 0.977710
O O5 0.875299 0.750000 0.687416
O O6 0.877354 0.506313 0.571703
O O7 0.969594 0.542204 0.724201
O O8 0.066799 0.750000 0.482124
O O9 0.093199 0.945562 0.635949
O O10 0.000000 0.000000 0.500000
O O11 0.943987 0.250000 0.215962
O O12 0.921415 0.967972 0.166932
O O13 0.436513 0.250000 0.972105
O O14 0.500000 0.000000 0.000000
#
# Coordination Sequence:
#
# PCOD8241386 Si02
#       5
#     8   8   8   8   8
#     4  11  24  40  58  80 109 147 189 233 284 341
#     4  10  19  32  53  79 110 144 179 223 275 331
#     4   9  17  29  48  75 109 142 176 219 267 322
#     4   9  18  32  51  79 111 144 181 224 275 325
#     4  12  23  35  56  82 112 148 187 233 281 334
#
# _framework density 18.244313999999999
#
# number of rings (size 3 to 8) (size 9 to 14) (size 15 to 20)
#    0.000    1.800    2.000    4.800    0.000    5.600 
#    0.000    0.000    0.000    1.200    0.000    8.400 
#    0.000    0.000    0.000    0.000    0.000    0.000 
#
# Total GULP energy -495963.527154 kJ/mol
# GULP energy per Si atom -12399.088179 kJ/mol
# Density = 1.820279 g / cm^3
# Si number density = 18.244314 Si / 1000 Ang^3
#
#
#
# Elastic Constant Matrix: (Units=GPa)
#
#
# Indices 1 2 3 4 5 6 
#
# 1 50.2032 41.1762 36.0124 0.0000 0.0000 0.0000
# 2 41.1762 156.2039 74.1550 0.0000 0.0000 0.0000
# 3 36.0124 74.1550 135.2339 0.0000 0.0000 0.0000
# 4 0.0000 0.0000 0.0000 38.6460 0.0000 0.0000
# 5 0.0000 0.0000 0.0000 0.0000 22.3994 0.0000
# 6 0.0000 0.0000 0.0000 0.0000 0.0000 21.5980
#
#
#
# Elastic Compliance Matrix: (Units=1/GPa)
#
#
# Indices 1 2 3 4 5 6 
#
# 1 0.027293 -0.005062 -0.004492 0.000000 0.000000 0.000000
# 2 -0.005062 0.009594 -0.003913 0.000000 0.000000 0.000000
# 3 -0.004492 -0.003913 0.010736 0.000000 0.000000 0.000000
# 4 0.000000 0.000000 0.000000 0.025876 0.000000 0.000000
# 5 0.000000 0.000000 0.000000 0.000000 0.044644 0.000000
# 6 0.000000 0.000000 0.000000 0.000000 0.000000 0.046301
#
#
# Mechanical properties :
#
#
# Convention : Reuss Voigt Hill
#
# Bulk Modulus (GPa) = 48.33407 71.59203 59.96305
# Shear Modulus (GPa) = 25.21753 29.21518 27.21636
#
# Velocity S-wave (km/s) = 3.72185 4.00600 3.86654
# Velocity P-wave (km/s) = 6.70967 7.79252 7.27128
#
# Compressibility (1/GPa) = 0.02068934
#
# Stress axis : x y z
#
# Youngs Moduli (GPa) = 36.63885 104.23468 93.14080
#
# Poissons Ratio (x) = 0.52763 0.41843
# Poissons Ratio (y) = 0.18547 0.36443
# Poissons Ratio (z) = 0.16460 0.40784
#
# Static dielectric constant tensor:
#      x y z
#    x 2.935450 0.000000 0.000000 
#    y 0.000000 3.598900 0.000000 
#    z 0.000000 0.000000 3.990470 
# 
# 
# High freq. dielectric constant tensor:
#      x y z
#    x 1.650390 0.000000 0.000000 
#    y 0.000000 1.724600 0.000000 
#    z 0.000000 0.000000 1.726770 
# 
# From -- ./inp_files/14025.got.cif
#   From: 2010.03.12/outbox.cif.g09.slc.cpg/sg59_8_cif.got.tgz:14025.got - 2010.04.16 16:29:54.
