data_PCOD8241587
_publ_section_title
;
Structure prediction by ZEFSAII (Michael W. Deem and Ramdas Pophale) SiO2 
 PCOD8241587
Probable space group: P M M N
;
_chemical_formula_sum "Si O2"
_cell_formula_units_Z 48
_cell_length_a 34.016267
_cell_length_b 7.759380
_cell_length_c 9.386690
_cell_angle_alpha 90.000000
_cell_angle_beta 90.000000
_cell_angle_gamma 90.000000
_cell_volume 2477.571223
_symmetry_space_group_name_H-M "P M M N"
_symmetry_group_IT_number 59
_space_group.IT_coordinate_system_code '2'
_symmetry_cell_setting 'orthorhombic'
loop_
_space_group_symop_operation_xyz
x,y,z
1/2-x,1/2-y,z
1/2+x,-y,-z
-x,1/2+y,-z
-x,-y,-z
1/2+x,1/2+y,-z
1/2-x,y,z
x,1/2-y,z
loop_
_atom_site_type_symbol
_atom_site_label
_atom_site_fract_x
_atom_site_fract_y
_atom_site_fract_z
Si Si1 0.796741 0.750000 0.910715
Si Si2 0.584506 0.948476 0.676586
Si Si3 0.703996 0.054490 0.430621
Si Si4 0.296540 0.250000 0.768581
Si Si5 0.668174 0.443336 0.732648
Si Si6 0.992397 0.047470 0.838428
Si Si7 0.461305 0.048917 0.581717
O O1 0.750000 0.750000 0.901395
O O2 0.813020 0.750000 0.071795
O O3 0.812734 0.576263 0.841135
O O4 0.597324 0.750000 0.666522
O O5 0.574234 0.025488 0.516716
O O6 0.620910 0.053303 0.740229
O O7 0.547478 0.960163 0.783251
O O8 0.750000 0.028110 0.460245
O O9 0.695040 0.250000 0.380434
O O10 0.681528 0.006828 0.574473
O O11 0.688430 0.922754 0.310578
O O12 0.250000 0.250000 0.772953
O O13 0.682358 0.250000 0.772524
O O14 0.987200 0.250000 0.818583
O O15 0.030828 0.983971 0.744450
O O16 0.000000 0.000000 0.000000
O O17 0.454284 0.250000 0.582191
O O18 0.500000 0.000000 0.500000
#
# Coordination Sequence:
#
# PCOD8241587 Si02
#       7
#     4   8   8   4   8   8   8
#     4  11  23  39  59  87 121 161 203 243 301 369
#     4  10  19  35  56  79 109 147 188 240 293 343
#     4   9  18  34  57  83 110 144 191 241 287 342
#     4   9  19  35  57  81 109 147 187 233 287 349
#     4  11  22  37  59  88 118 153 197 248 305 348
#     4  10  19  33  53  80 110 148 190 232 282 344
#     4   8  16  30  51  75 100 132 177 223 271 327
#
# _framework density 19.373812000000001
#
# number of rings (size 3 to 8) (size 9 to 14) (size 15 to 20)
#    0.000    2.333    0.833    2.000    0.000    3.667 
#    0.000    3.333    0.000    2.000    0.000    0.000 
#    0.000    0.000    0.000    0.000    0.000    0.000 
#
# Total GULP energy -594710.841065 kJ/mol
# GULP energy per Si atom -12389.809189 kJ/mol
# Density = 1.932972 g / cm^3
# Si number density = 19.373812 Si / 1000 Ang^3
#
#
#
# Elastic Constant Matrix: (Units=GPa)
#
#
# Indices 1 2 3 4 5 6 
#
# 1 66.0876 22.0494 38.7301 0.0000 0.0000 0.0000
# 2 22.0494 102.1441 58.7923 0.0000 0.0000 0.0000
# 3 38.7301 58.7923 153.8236 0.0000 0.0000 0.0000
# 4 0.0000 0.0000 0.0000 17.7009 0.0000 0.0000
# 5 0.0000 0.0000 0.0000 0.0000 1.8972 0.0000
# 6 0.0000 0.0000 0.0000 0.0000 0.0000 19.2574
#
#
#
# Elastic Compliance Matrix: (Units=1/GPa)
#
#
# Indices 1 2 3 4 5 6 
#
# 1 0.017961 -0.001634 -0.003898 0.000000 0.000000 0.000000
# 2 -0.001634 0.012700 -0.004443 0.000000 0.000000 0.000000
# 3 -0.003898 -0.004443 0.009180 0.000000 0.000000 0.000000
# 4 0.000000 0.000000 0.000000 0.056494 0.000000 0.000000
# 5 0.000000 0.000000 0.000000 0.000000 0.527089 0.000000
# 6 0.000000 0.000000 0.000000 0.000000 0.000000 0.051928
#
#
# Mechanical properties :
#
#
# Convention : Reuss Voigt Hill
#
# Bulk Modulus (GPa) = 50.26943 62.35544 56.31243
# Shear Modulus (GPa) = 7.12320 21.27000 14.19660
#
# Velocity S-wave (km/s) = 1.91956 3.31701 2.70991
# Velocity P-wave (km/s) = 5.56025 6.85021 6.23866
#
# Compressibility (1/GPa) = 0.01989281
#
# Stress axis : x y z
#
# Youngs Moduli (GPa) = 55.67700 78.74122 108.92816
#
# Poissons Ratio (x) = 0.12863 0.42458
# Poissons Ratio (y) = 0.09095 0.48393
# Poissons Ratio (z) = 0.21702 0.34982
#
# Static dielectric constant tensor:
#      x y z
#    x 3.580590 0.000000 0.000000 
#    y 0.000000 3.667500 0.000000 
#    z 0.000000 0.000000 4.011800 
# 
# 
# High freq. dielectric constant tensor:
#      x y z
#    x 1.732220 0.000000 0.000000 
#    y 0.000000 1.762970 0.000000 
#    z 0.000000 0.000000 1.749550 
# 
# From -- ./inp_files/13038.got.cif
#   From: 2010.03.12/outbox.cif.g09.slc.cpg/sg59_7_cif.got.tgz:13038.got - 2010.04.16 16:29:54.
