data_PCOD8241478
_publ_section_title
;
Structure prediction by ZEFSAII (Michael W. Deem and Ramdas Pophale) SiO2 
 PCOD8241478
Probable space group: P M M N
;
_chemical_formula_sum "Si O2"
_cell_formula_units_Z 56
_cell_length_a 15.945465
_cell_length_b 18.866002
_cell_length_c 9.380545
_cell_angle_alpha 90.000000
_cell_angle_beta 90.000000
_cell_angle_gamma 90.000000
_cell_volume 2821.922848
_symmetry_space_group_name_H-M "P M M N"
_symmetry_group_IT_number 59
_space_group.IT_coordinate_system_code '2'
_symmetry_cell_setting 'orthorhombic'
loop_
_space_group_symop_operation_xyz
x,y,z
1/2-x,1/2-y,z
1/2+x,-y,-z
-x,1/2+y,-z
-x,-y,-z
1/2+x,1/2+y,-z
1/2-x,y,z
x,1/2-y,z
loop_
_atom_site_type_symbol
_atom_site_label
_atom_site_fract_x
_atom_site_fract_y
_atom_site_fract_z
Si Si1 0.656337 0.831136 0.987405
Si Si2 0.342667 0.913346 0.363180
Si Si3 0.588143 0.964190 0.472537
Si Si4 0.403836 0.045603 0.845645
Si Si5 0.988352 0.333486 0.475402
Si Si6 0.011781 0.830637 0.847848
Si Si7 0.410784 0.565821 0.066641
O O1 0.750000 0.848211 0.929741
O O2 0.649718 0.750000 0.036229
O O3 0.633635 0.876334 0.127978
O O4 0.587436 0.849483 0.865953
O O5 0.250000 0.885543 0.403693
O O6 0.411321 0.859688 0.427688
O O7 0.348108 0.911645 0.191454
O O8 0.349924 0.995164 0.419158
O O9 0.622220 0.978309 0.312560
O O10 0.573400 0.879213 0.493617
O O11 0.500000 0.000000 0.500000
O O12 0.504639 0.040191 0.854357
O O13 0.367548 0.995370 0.970831
O O14 0.007006 0.250000 0.502265
O O15 0.961671 0.348456 0.312667
O O16 0.027994 0.750000 0.885145
O O17 0.070140 0.870859 0.958562
#
# Coordination Sequence:
#
# PCOD8241478 Si02
#       7
#     8   8   8   8   8   8   8
#     4   9  19  34  54  85 120 149 185 237 292 340
#     4  11  24  39  59  87 121 155 193 251 307 351
#     4  10  19  37  57  86 115 152 196 236 288 351
#     4  10  19  32  57  80 113 150 192 237 278 343
#     4  10  21  39  63  88 117 157 203 243 291 356
#     4   9  19  36  60  86 113 153 198 238 286 348
#     4  10  19  34  55  85 112 146 196 242 283 339
#
# _framework density 19.844625000000001
#
# number of rings (size 3 to 8) (size 9 to 14) (size 15 to 20)
#    0.000    2.143    2.857    1.714    4.000    2.571 
#    0.000    2.143    0.000    1.286    0.000    0.000 
#    0.000    0.000    0.000    0.000    0.000    0.000 
#
# Total GULP energy -694014.127518 kJ/mol
# GULP energy per Si atom -12393.109420 kJ/mol
# Density = 1.979946 g / cm^3
# Si number density = 19.844625 Si / 1000 Ang^3
#
#
#
# Elastic Constant Matrix: (Units=GPa)
#
#
# Indices 1 2 3 4 5 6 
#
# 1 53.7272 27.7042 21.1945 0.0000 0.0000 0.0000
# 2 27.7042 104.2223 50.5315 0.0000 0.0000 0.0000
# 3 21.1945 50.5315 130.9038 0.0000 0.0000 0.0000
# 4 0.0000 0.0000 0.0000 32.6322 0.0000 0.0000
# 5 0.0000 0.0000 0.0000 0.0000 12.8170 0.0000
# 6 0.0000 0.0000 0.0000 0.0000 0.0000 16.7487
#
#
#
# Elastic Compliance Matrix: (Units=1/GPa)
#
#
# Indices 1 2 3 4 5 6 
#
# 1 0.021836 -0.005032 -0.001593 0.000000 0.000000 0.000000
# 2 -0.005032 0.012964 -0.004190 0.000000 0.000000 0.000000
# 3 -0.001593 -0.004190 0.009514 0.000000 0.000000 0.000000
# 4 0.000000 0.000000 0.000000 0.030645 0.000000 0.000000
# 5 0.000000 0.000000 0.000000 0.000000 0.078021 0.000000
# 6 0.000000 0.000000 0.000000 0.000000 0.000000 0.059706
#
#
# Mechanical properties :
#
#
# Convention : Reuss Voigt Hill
#
# Bulk Modulus (GPa) = 44.08235 54.19040 49.13638
# Shear Modulus (GPa) = 20.67174 25.06781 22.86978
#
# Velocity S-wave (km/s) = 3.23101 3.55801 3.39845
# Velocity P-wave (km/s) = 6.01508 6.65176 6.34142
#
# Compressibility (1/GPa) = 0.02268482
#
# Stress axis : x y z
#
# Youngs Moduli (GPa) = 45.79669 77.13828 105.10435
#
# Poissons Ratio (x) = 0.38816 0.16742
# Poissons Ratio (y) = 0.23045 0.44034
# Poissons Ratio (z) = 0.07295 0.32317
#
# Static dielectric constant tensor:
#      x y z
#    x 3.395740 0.000000 0.000000 
#    y 0.000000 3.935590 0.000000 
#    z 0.000000 0.000000 3.682530 
# 
# 
# High freq. dielectric constant tensor:
#      x y z
#    x 1.736550 0.000000 0.000000 
#    y 0.000000 1.778040 0.000000 
#    z 0.000000 0.000000 1.776300 
# 
# From -- ./inp_files/9364.got.cif
#   From: 2010.03.12/outbox.cif.g09.slc.cpg/sg59_5_cif.got.tgz:9364.got - 2010.04.16 16:29:54.
