data_PCOD8241864
_publ_section_title
;
Structure prediction by ZEFSAII (Michael W. Deem and Ramdas Pophale) SiO2 
 PCOD8241864
Probable space group: P M M N
;
_chemical_formula_sum "Si O2"
_cell_formula_units_Z 64
_cell_length_a 30.379181
_cell_length_b 9.118694
_cell_length_c 12.014807
_cell_angle_alpha 90.000000
_cell_angle_beta 90.000000
_cell_angle_gamma 90.000000
_cell_volume 3328.323278
_symmetry_space_group_name_H-M "P M M N"
_symmetry_group_IT_number 59
_space_group.IT_coordinate_system_code '2'
_symmetry_cell_setting 'orthorhombic'
loop_
_space_group_symop_operation_xyz
x,y,z
1/2-x,1/2-y,z
1/2+x,-y,-z
-x,1/2+y,-z
-x,-y,-z
1/2+x,1/2+y,-z
1/2-x,y,z
x,1/2-y,z
loop_
_atom_site_type_symbol
_atom_site_label
_atom_site_fract_x
_atom_site_fract_y
_atom_site_fract_z
Si Si1 0.369002 0.081473 0.378478
Si Si2 0.199101 0.577819 0.527597
Si Si3 0.936050 0.420095 0.260733
Si Si4 0.514446 0.581275 0.891033
Si Si5 0.613793 0.581484 0.872282
Si Si6 0.953154 0.922289 0.480666
Si Si7 0.859534 0.421987 0.089302
Si Si8 0.801864 0.585537 0.251299
O O1 0.358647 0.250000 0.409400
O O2 0.364219 0.055009 0.246940
O O3 0.418469 0.042916 0.420371
O O4 0.331515 0.978260 0.428786
O O5 0.250000 0.537787 0.501906
O O6 0.192846 0.750000 0.543102
O O7 0.181990 0.501768 0.640163
O O8 0.931221 0.250000 0.294491
O O9 0.929349 0.519223 0.369182
O O10 0.901647 0.463240 0.164470
O O11 0.984319 0.457581 0.214365
O O12 0.509431 0.750000 0.920948
O O13 0.563232 0.536331 0.857686
O O14 0.500000 0.500000 0.000000
O O15 0.618613 0.750000 0.910627
O O16 0.635698 0.478091 0.963759
O O17 0.962368 0.750000 0.471177
O O18 0.000000 0.000000 0.500000
O O19 0.850945 0.250000 0.085744
O O20 0.817625 0.502189 0.141388
O O21 0.750000 0.589396 0.246008
O O22 0.821334 0.750000 0.255847
#
# Coordination Sequence:
#
# PCOD8241864 Si02
#       8
#     8   8   8   8   8   8   8   8
#     4  10  22  40  60  83 114 156 201 242 289 345
#     4  10  21  38  62  92 121 148 185 237 295 350
#     4  10  21  36  54  80 114 146 183 232 281 330
#     4  10  19  34  54  77 109 148 190 235 278 326
#     4  10  21  37  57  79 111 154 197 240 281 333
#     4  11  23  38  57  82 114 151 193 238 286 342
#     4  11  22  36  57  85 115 145 182 231 283 335
#     4  10  21  38  61  87 115 147 183 225 276 339
#
# _framework density 19.228902000000001
#
# number of rings (size 3 to 8) (size 9 to 14) (size 15 to 20)
#    0.000    1.750    1.250    3.000    0.000    8.500 
#    0.000    1.875    0.000    0.750    0.000    0.000 
#    0.000    0.000    0.000    0.000    0.000    0.000 
#
# Total GULP energy -793788.973568 kJ/mol
# GULP energy per Si atom -12402.952712 kJ/mol
# Density = 1.918514 g / cm^3
# Si number density = 19.228902 Si / 1000 Ang^3
#
#
#
# Elastic Constant Matrix: (Units=GPa)
#
#
# Indices 1 2 3 4 5 6 
#
# 1 56.2594 43.8261 34.0997 0.0000 0.0000 0.0000
# 2 43.8261 105.1290 60.1502 0.0000 0.0000 0.0000
# 3 34.0997 60.1502 113.6878 0.0000 0.0000 0.0000
# 4 0.0000 0.0000 0.0000 36.1928 0.0000 0.0000
# 5 0.0000 0.0000 0.0000 0.0000 33.1119 0.0000
# 6 0.0000 0.0000 0.0000 0.0000 0.0000 30.6330
#
#
#
# Elastic Compliance Matrix: (Units=1/GPa)
#
#
# Indices 1 2 3 4 5 6 
#
# 1 0.027055 -0.009516 -0.003080 0.000000 0.000000 0.000000
# 2 -0.009516 0.016989 -0.006134 0.000000 0.000000 0.000000
# 3 -0.003080 -0.006134 0.012965 0.000000 0.000000 0.000000
# 4 0.000000 0.000000 0.000000 0.027630 0.000000 0.000000
# 5 0.000000 0.000000 0.000000 0.000000 0.030201 0.000000
# 6 0.000000 0.000000 0.000000 0.000000 0.000000 0.032645
#
#
# Mechanical properties :
#
#
# Convention : Reuss Voigt Hill
#
# Bulk Modulus (GPa) = 51.15581 61.24757 56.20169
# Shear Modulus (GPa) = 26.11492 29.12088 27.61790
#
# Velocity S-wave (km/s) = 3.68925 3.89579 3.79393
# Velocity P-wave (km/s) = 6.69394 7.22200 6.96297
#
# Compressibility (1/GPa) = 0.01954812
#
# Stress axis : x y z
#
# Youngs Moduli (GPa) = 36.96190 58.86144 77.12878
#
# Poissons Ratio (x) = 0.56015 0.23755
# Poissons Ratio (y) = 0.35174 0.47313
# Poissons Ratio (z) = 0.11384 0.36107
#
# Static dielectric constant tensor:
#      x y z
#    x 3.490440 0.000000 0.000000 
#    y 0.000000 3.577120 0.000000 
#    z 0.000000 0.000000 3.411630 
# 
# 
# High freq. dielectric constant tensor:
#      x y z
#    x 1.745360 0.000000 0.000000 
#    y 0.000000 1.751950 0.000000 
#    z 0.000000 0.000000 1.749680 
# 
# From -- ./inp_files/19227.got.cif
#   From: 2010.03.12/outbox.cif.g09.slc.cpg/sg59_10_cif.got.tgz:19227.got - 2010.04.16 16:29:54.
