data_PCOD8241572
_publ_section_title
;
Structure prediction by ZEFSAII (Michael W. Deem and Ramdas Pophale) SiO2 
 PCOD8241572
Probable space group: P M M N
;
_chemical_formula_sum "Si O2"
_cell_formula_units_Z 64
_cell_length_a 30.923082
_cell_length_b 8.983326
_cell_length_c 12.037026
_cell_angle_alpha 90.000000
_cell_angle_beta 90.000000
_cell_angle_gamma 90.000000
_cell_volume 3343.791050
_symmetry_space_group_name_H-M "P M M N"
_symmetry_group_IT_number 59
_space_group.IT_coordinate_system_code '2'
_symmetry_cell_setting 'orthorhombic'
loop_
_space_group_symop_operation_xyz
x,y,z
1/2-x,1/2-y,z
1/2+x,-y,-z
-x,1/2+y,-z
-x,-y,-z
1/2+x,1/2+y,-z
1/2-x,y,z
x,1/2-y,z
loop_
_atom_site_type_symbol
_atom_site_label
_atom_site_fract_x
_atom_site_fract_y
_atom_site_fract_z
Si Si1 0.453305 0.575050 0.986426
Si Si2 0.065747 0.919116 0.740445
Si Si3 0.199941 0.074771 0.975694
Si Si4 0.611295 0.575942 0.651139
Si Si5 0.699955 0.080557 0.251450
Si Si6 0.136005 0.076797 0.597549
Si Si7 0.870994 0.426191 0.872775
Si Si8 0.482851 0.418443 0.393592
O O1 0.461737 0.750000 0.993188
O O2 0.417750 0.522805 0.077523
O O3 0.500000 0.500000 0.000000
O O4 0.431635 0.531720 0.868497
O O5 0.082607 0.750000 0.724097
O O6 0.015628 0.931962 0.708134
O O7 0.092910 0.027699 0.662268
O O8 0.250000 0.033953 0.001330
O O9 0.192314 0.250000 0.979019
O O10 0.169372 0.996791 0.063996
O O11 0.186464 0.015796 0.854754
O O12 0.613475 0.750000 0.681977
O O13 0.633344 0.543070 0.533103
O O14 0.634455 0.481622 0.746678
O O15 0.562382 0.514079 0.646382
O O16 0.750000 0.067992 0.278292
O O17 0.685693 0.250000 0.228886
O O18 0.676411 0.016533 0.359073
O O19 0.143271 0.250000 0.620211
O O20 0.866511 0.250000 0.879547
O O21 0.500000 0.500000 0.500000
O O22 0.474668 0.250000 0.431524
#
# Coordination Sequence:
#
# PCOD8241572 Si02
#       8
#     8   8   8   8   8   8   8   8
#     4  10  22  38  55  80 113 150 192 236 285 343
#     4  10  20  34  55  80 110 146 183 232 289 339
#     4  10  21  39  65  94 120 149 189 236 289 350
#     4  10  22  39  56  79 114 155 198 241 286 341
#     4  10  21  38  61  88 118 148 179 224 282 342
#     4  11  22  36  57  84 112 145 188 234 281 336
#     4  11  23  38  59  87 118 155 198 244 296 351
#     4  10  19  33  53  77 108 148 192 239 286 335
#
# _framework density 19.139952000000001
#
# number of rings (size 3 to 8) (size 9 to 14) (size 15 to 20)
#    0.000    1.750    1.250    3.000    0.000    6.500 
#    0.000    0.625    0.000    0.750    0.000    0.000 
#    0.000    0.000    0.000    0.000    0.000    0.000 
#
# Total GULP energy -793726.393173 kJ/mol
# GULP energy per Si atom -12401.974893 kJ/mol
# Density = 1.909639 g / cm^3
# Si number density = 19.139952 Si / 1000 Ang^3
#
#
#
# Elastic Constant Matrix: (Units=GPa)
#
#
# Indices 1 2 3 4 5 6 
#
# 1 101.9818 51.8092 59.1983 0.0000 0.0000 0.0000
# 2 51.8092 84.3342 53.6615 0.0000 0.0000 0.0000
# 3 59.1983 53.6615 127.7468 0.0000 0.0000 0.0000
# 4 0.0000 0.0000 0.0000 33.3978 0.0000 0.0000
# 5 0.0000 0.0000 0.0000 0.0000 32.0696 0.0000
# 6 0.0000 0.0000 0.0000 0.0000 0.0000 33.9275
#
#
#
# Elastic Compliance Matrix: (Units=1/GPa)
#
#
# Indices 1 2 3 4 5 6 
#
# 1 0.015923 -0.006943 -0.004462 0.000000 0.000000 0.000000
# 2 -0.006943 0.019210 -0.004852 0.000000 0.000000 0.000000
# 3 -0.004462 -0.004852 0.011934 0.000000 0.000000 0.000000
# 4 0.000000 0.000000 0.000000 0.029942 0.000000 0.000000
# 5 0.000000 0.000000 0.000000 0.000000 0.031182 0.000000
# 6 0.000000 0.000000 0.000000 0.000000 0.000000 0.029475
#
#
# Mechanical properties :
#
#
# Convention : Reuss Voigt Hill
#
# Bulk Modulus (GPa) = 68.71561 71.48899 70.10230
# Shear Modulus (GPa) = 28.56629 29.83858 29.20244
#
# Velocity S-wave (km/s) = 3.86747 3.95266 3.91030
# Velocity P-wave (km/s) = 7.47815 7.63303 7.55599
#
# Compressibility (1/GPa) = 0.01455273
#
# Stress axis : x y z
#
# Youngs Moduli (GPa) = 62.80205 52.05604 83.79323
#
# Poissons Ratio (x) = 0.36140 0.37393
# Poissons Ratio (y) = 0.43601 0.40658
# Poissons Ratio (z) = 0.28025 0.25259
#
# Static dielectric constant tensor:
#      x y z
#    x 3.278520 0.000000 0.000000 
#    y 0.000000 3.457050 0.000000 
#    z 0.000000 0.000000 3.598890 
# 
# 
# High freq. dielectric constant tensor:
#      x y z
#    x 1.745130 0.000000 0.000000 
#    y 0.000000 1.746130 0.000000 
#    z 0.000000 0.000000 1.747310 
# 
# From -- ./inp_files/15042.got.cif
#   From: 2010.03.12/outbox.cif.g09.slc.cpg/sg59_8_cif.got.tgz:15042.got - 2010.04.16 16:29:54.
