data_PCOD8241758
_publ_section_title
;
Structure prediction by ZEFSAII (Michael W. Deem and Ramdas Pophale) SiO2 
 PCOD8241758
Probable space group: P M M N
;
_chemical_formula_sum "Si O2"
_cell_formula_units_Z 64
_cell_length_a 8.980031
_cell_length_b 15.538317
_cell_length_c 23.723251
_cell_angle_alpha 90.000000
_cell_angle_beta 90.000000
_cell_angle_gamma 90.000000
_cell_volume 3310.213588
_symmetry_space_group_name_H-M "P M M N"
_symmetry_group_IT_number 59
_space_group.IT_coordinate_system_code '2'
_symmetry_cell_setting 'orthorhombic'
loop_
_space_group_symop_operation_xyz
x,y,z
1/2-x,1/2-y,z
1/2+x,-y,-z
-x,1/2+y,-z
-x,-y,-z
1/2+x,1/2+y,-z
1/2-x,y,z
x,1/2-y,z
loop_
_atom_site_type_symbol
_atom_site_label
_atom_site_fract_x
_atom_site_fract_y
_atom_site_fract_z
Si Si1 0.073030 0.512406 0.258031
Si Si2 0.926787 0.654995 0.678181
Si Si3 0.578982 0.652849 0.334791
Si Si4 0.575239 0.995120 0.139994
Si Si5 0.080084 0.077516 0.971684
Si Si6 0.577636 0.845331 0.917047
Si Si7 0.920129 0.394855 0.555334
Si Si8 0.920505 0.902337 0.557385
O O1 0.250000 0.513994 0.257990
O O2 0.011877 0.420084 0.280813
O O3 0.017854 0.589640 0.296800
O O4 0.013924 0.527934 0.195633
O O5 0.750000 0.649237 0.677788
O O6 0.979885 0.750000 0.698979
O O7 0.983341 0.640584 0.614393
O O8 0.750000 0.622108 0.334286
O O9 0.565105 0.750000 0.311078
O O10 0.518662 0.652888 0.398359
O O11 0.750000 0.997745 0.153944
O O12 0.526784 0.087850 0.115405
O O13 0.532759 0.918685 0.094527
O O14 0.250000 0.050742 0.970399
O O15 0.051432 0.157303 0.014158
O O16 0.000000 0.000000 0.000000
O O17 0.750000 0.868838 0.904375
O O18 0.539801 0.750000 0.894610
O O19 0.750000 0.364354 0.560628
O O20 0.935717 0.496050 0.565117
O O21 0.980105 0.368099 0.493943
O O22 0.750000 0.876067 0.545678
#
# Coordination Sequence:
#
# PCOD8241758 Si02
#       8
#     8   8   8   8   8   8   8   8
#     4  11  22  39  60  83 111 148 193 239 285 331
#     4   9  18  34  56  80 107 142 185 229 274 329
#     4  11  24  41  61  83 107 142 188 237 293 350
#     4  10  20  34  53  78 109 147 186 225 276 333
#     4   8  15  29  49  73 102 135 174 215 259 313
#     4   9  17  31  53  81 110 142 182 227 273 324
#     4  10  19  33  55  84 113 142 179 225 281 341
#     4   9  17  32  53  81 113 145 180 220 275 338
#
# _framework density 19.334101
#
# number of rings (size 3 to 8) (size 9 to 14) (size 15 to 20)
#    0.000    2.375    1.250    1.500    0.000    3.250 
#    0.000    3.125    0.000    4.875    0.000    0.000 
#    0.000    0.000    0.000    0.000    0.000    0.000 
#
# Total GULP energy -793081.146761 kJ/mol
# GULP energy per Si atom -12391.892918 kJ/mol
# Density = 1.929010 g / cm^3
# Si number density = 19.334101 Si / 1000 Ang^3
#
#
#
# Elastic Constant Matrix: (Units=GPa)
#
#
# Indices 1 2 3 4 5 6 
#
# 1 70.4194 22.0617 35.5174 0.0000 0.0000 0.0000
# 2 22.0617 55.5288 21.5446 0.0000 0.0000 0.0000
# 3 35.5174 21.5446 106.5091 0.0000 0.0000 0.0000
# 4 0.0000 0.0000 0.0000 13.5754 0.0000 0.0000
# 5 0.0000 0.0000 0.0000 0.0000 33.9330 0.0000
# 6 0.0000 0.0000 0.0000 0.0000 0.0000 21.8025
#
#
#
# Elastic Compliance Matrix: (Units=1/GPa)
#
#
# Indices 1 2 3 4 5 6 
#
# 1 0.018433 -0.005359 -0.005063 0.000000 0.000000 0.000000
# 2 -0.005359 0.021100 -0.002481 0.000000 0.000000 0.000000
# 3 -0.005063 -0.002481 0.011579 0.000000 0.000000 0.000000
# 4 0.000000 0.000000 0.000000 0.073663 0.000000 0.000000
# 5 0.000000 0.000000 0.000000 0.000000 0.029470 0.000000
# 6 0.000000 0.000000 0.000000 0.000000 0.000000 0.045866
#
#
# Mechanical properties :
#
#
# Convention : Reuss Voigt Hill
#
# Bulk Modulus (GPa) = 39.51553 43.41164 41.46358
# Shear Modulus (GPa) = 21.33530 24.08442 22.70986
#
# Velocity S-wave (km/s) = 3.32551 3.53327 3.43096
# Velocity P-wave (km/s) = 5.93532 6.25680 6.09817
#
# Compressibility (1/GPa) = 0.02530651
#
# Stress axis : x y z
#
# Youngs Moduli (GPa) = 54.25016 47.39224 86.36307
#
# Poissons Ratio (x) = 0.25398 0.43724
# Poissons Ratio (y) = 0.29074 0.21427
# Poissons Ratio (z) = 0.27466 0.11758
#
# Static dielectric constant tensor:
#      x y z
#    x 3.275900 0.000000 0.000000 
#    y 0.000000 4.386370 0.000000 
#    z 0.000000 0.000000 3.834610 
# 
# 
# High freq. dielectric constant tensor:
#      x y z
#    x 1.742080 0.000000 0.000000 
#    y 0.000000 1.737590 0.000000 
#    z 0.000000 0.000000 1.756850 
# 
# From -- ./inp_files/31423.got.cif
#   From: 2010.03.12/outbox.cif.g09.slc.cpg/sg59_16_cif.got.tgz:31423.got - 2010.04.16 16:29:54.
