data_PCOD8241549
_publ_section_title
;
Structure prediction by ZEFSAII (Michael W. Deem and Ramdas Pophale) SiO2 
 PCOD8241549
Probable space group: P M M N
;
_chemical_formula_sum "Si O2"
_cell_formula_units_Z 64
_cell_length_a 22.863484
_cell_length_b 9.248046
_cell_length_c 16.052450
_cell_angle_alpha 90.000000
_cell_angle_beta 90.000000
_cell_angle_gamma 90.000000
_cell_volume 3394.170990
_symmetry_space_group_name_H-M "P M M N"
_symmetry_group_IT_number 59
_space_group.IT_coordinate_system_code '2'
_symmetry_cell_setting 'orthorhombic'
loop_
_space_group_symop_operation_xyz
x,y,z
1/2-x,1/2-y,z
1/2+x,-y,-z
-x,1/2+y,-z
-x,-y,-z
1/2+x,1/2+y,-z
1/2-x,y,z
x,1/2-y,z
loop_
_atom_site_type_symbol
_atom_site_label
_atom_site_fract_x
_atom_site_fract_y
_atom_site_fract_z
Si Si1 0.313906 0.921635 0.150392
Si Si2 0.426627 0.914943 0.233459
Si Si3 0.010493 0.414395 0.915231
Si Si4 0.682237 0.408147 0.029723
Si Si5 0.629113 0.579098 0.171582
Si Si6 0.035809 0.418170 0.388835
Si Si7 0.411741 0.583008 0.533802
Si Si8 0.181627 0.580147 0.670430
O O1 0.250000 0.988770 0.171427
O O2 0.309558 0.750000 0.145726
O O3 0.359207 0.965549 0.222866
O O4 0.338465 0.971977 0.059709
O O5 0.432087 0.750000 0.266012
O O6 0.454009 0.929431 0.142108
O O7 0.457970 0.021088 0.296596
O O8 0.022762 0.250000 0.941546
O O9 0.065043 0.471108 0.859609
O O10 0.000000 0.500000 0.000000
O O11 0.750000 0.379827 0.020836
O O12 0.652826 0.250000 0.050207
O O13 0.672832 0.527001 0.100221
O O14 0.633462 0.750000 0.185144
O O15 0.647902 0.504175 0.257297
O O16 0.049013 0.250000 0.389574
O O17 0.084002 0.491030 0.449223
O O18 0.969250 0.454375 0.412699
O O19 0.410976 0.750000 0.507970
O O20 0.352852 0.543076 0.584767
O O21 0.250000 0.533169 0.662622
O O22 0.177156 0.750000 0.690209
#
# Coordination Sequence:
#
# PCOD8241549 Si02
#       8
#     8   8   8   8   8   8   8   8
#     4   8  15  29  50  73  93 120 164 212 250 285
#     4  10  19  33  53  75 101 132 167 207 251 301
#     4  10  22  36  51  75 106 143 183 222 268 318
#     4   9  17  31  51  71  93 129 178 221 252 291
#     4  11  22  33  47  73 108 140 173 215 265 319
#     4  10  20  34  56  83 106 131 165 206 255 310
#     4   9  19  37  58  79 103 131 166 210 256 301
#     4  10  21  37  57  80 106 140 182 221 260 315
#
# _framework density 18.855854999999998
#
# number of rings (size 3 to 8) (size 9 to 14) (size 15 to 20)
#    0.000    2.375    0.000    3.375    0.000    5.500 
#    0.000    1.250    0.000    4.875    0.000    0.000 
#    0.000    0.000    0.000    0.000    0.000    0.000 
#
# Total GULP energy -793265.025088 kJ/mol
# GULP energy per Si atom -12394.766017 kJ/mol
# Density = 1.881294 g / cm^3
# Si number density = 18.855855 Si / 1000 Ang^3
#
#
#
# Elastic Constant Matrix: (Units=GPa)
#
#
# Indices 1 2 3 4 5 6 
#
# 1 85.1957 35.7878 43.2359 0.0000 0.0000 0.0000
# 2 35.7878 54.6010 39.9605 0.0000 0.0000 0.0000
# 3 43.2359 39.9605 79.9894 0.0000 0.0000 0.0000
# 4 0.0000 0.0000 0.0000 29.7571 0.0000 0.0000
# 5 0.0000 0.0000 0.0000 0.0000 30.7453 0.0000
# 6 0.0000 0.0000 0.0000 0.0000 0.0000 20.2242
#
#
#
# Elastic Compliance Matrix: (Units=1/GPa)
#
#
# Indices 1 2 3 4 5 6 
#
# 1 0.017853 -0.007313 -0.005996 0.000000 0.000000 0.000000
# 2 -0.007313 0.031866 -0.011966 0.000000 0.000000 0.000000
# 3 -0.005996 -0.011966 0.021721 0.000000 0.000000 0.000000
# 4 0.000000 0.000000 0.000000 0.033605 0.000000 0.000000
# 5 0.000000 0.000000 0.000000 0.000000 0.032525 0.000000
# 6 0.000000 0.000000 0.000000 0.000000 0.000000 0.049446
#
#
# Mechanical properties :
#
#
# Convention : Reuss Voigt Hill
#
# Bulk Modulus (GPa) = 47.87480 50.86160 49.36820
# Shear Modulus (GPa) = 20.44741 22.86545 21.65643
#
# Velocity S-wave (km/s) = 3.29661 3.48608 3.39267
# Velocity P-wave (km/s) = 6.31943 6.57542 6.44869
#
# Compressibility (1/GPa) = 0.02088782
#
# Stress axis : x y z
#
# Youngs Moduli (GPa) = 56.01402 31.38181 46.03846
#
# Poissons Ratio (x) = 0.22949 0.27607
# Poissons Ratio (y) = 0.40962 0.55092
# Poissons Ratio (z) = 0.33589 0.37553
#
# Static dielectric constant tensor:
#      x y z
#    x 3.753890 0.000000 0.000000 
#    y 0.000000 3.358650 0.000000 
#    z 0.000000 0.000000 3.393880 
# 
# 
# High freq. dielectric constant tensor:
#      x y z
#    x 1.736040 0.000000 0.000000 
#    y 0.000000 1.713340 0.000000 
#    z 0.000000 0.000000 1.726900 
# 
# From -- ./inp_files/24780.got.cif
#   From: 2010.03.12/outbox.cif.g09.slc.cpg/sg59_13_cif.got.tgz:24780.got - 2010.04.16 16:29:54.
