data_PCOD8241951
_publ_section_title
;
Structure prediction by ZEFSAII (Michael W. Deem and Ramdas Pophale) SiO2 
 PCOD8241951
Probable space group: P M M N
;
_chemical_formula_sum "Si O2"
_cell_formula_units_Z 64
_cell_length_a 9.023141
_cell_length_b 28.819289
_cell_length_c 12.577938
_cell_angle_alpha 90.000000
_cell_angle_beta 90.000000
_cell_angle_gamma 90.000000
_cell_volume 3270.773389
_symmetry_space_group_name_H-M "P M M N"
_symmetry_group_IT_number 59
_space_group.IT_coordinate_system_code '2'
_symmetry_cell_setting 'orthorhombic'
loop_
_space_group_symop_operation_xyz
x,y,z
1/2-x,1/2-y,z
1/2+x,-y,-z
-x,1/2+y,-z
-x,-y,-z
1/2+x,1/2+y,-z
1/2-x,y,z
x,1/2-y,z
loop_
_atom_site_type_symbol
_atom_site_label
_atom_site_fract_x
_atom_site_fract_y
_atom_site_fract_z
Si Si1 0.417162 0.301401 0.651043
Si Si2 0.582299 0.326358 0.449474
Si Si3 0.575386 0.452306 0.738401
Si Si4 0.925163 0.141171 0.829343
Si Si5 0.573775 0.652873 0.760955
Si Si6 0.583185 0.066891 0.505834
Si Si7 0.923238 0.195799 0.036261
Si Si8 0.923665 0.551515 0.703928
O O1 0.250000 0.320527 0.638150
O O2 0.415711 0.250000 0.701230
O O3 0.494489 0.297038 0.536562
O O4 0.508213 0.334604 0.726968
O O5 0.750000 0.307603 0.436901
O O6 0.498168 0.320303 0.337780
O O7 0.581130 0.378710 0.487582
O O8 0.750000 0.446756 0.727173
O O9 0.522979 0.413296 0.824005
O O10 0.509215 0.442656 0.620788
O O11 0.533812 0.505303 0.773338
O O12 0.750000 0.146740 0.821567
O O13 0.981720 0.165614 0.936491
O O14 0.750000 0.656571 0.754343
O O15 0.517937 0.678072 0.865624
O O16 0.518981 0.598683 0.760285
O O17 0.750000 0.047262 0.499022
O O18 0.488423 0.042715 0.413474
O O19 0.750000 0.186986 0.058199
O O20 0.954651 0.250000 0.014563
O O21 0.750000 0.555687 0.688730
#
# Coordination Sequence:
#
# PCOD8241951 Si02
#       8
#     8   8   8   8   8   8   8   8
#     4  11  23  36  52  79 115 148 178 220 281 345
#     4  10  19  34  56  81 110 145 185 227 270 323
#     4   9  16  30  52  79 111 145 182 222 268 320
#     4  10  20  38  61  83 108 141 186 235 279 326
#     4  10  21  37  57  82 114 148 183 228 281 332
#     4   9  16  28  48  76 109 144 182 220 259 309
#     4  10  22  40  62  84 103 135 188 241 286 335
#     4   9  18  31  50  78 112 149 184 218 264 324
#
# _framework density 19.567238
#
# number of rings (size 3 to 8) (size 9 to 14) (size 15 to 20)
#    0.000    2.250    1.250    1.875    0.000    3.750 
#    0.000    1.250    0.000    0.000    0.000    0.000 
#    0.000    0.000    0.000    0.000    0.000    0.000 
#
# Total GULP energy -793271.520831 kJ/mol
# GULP energy per Si atom -12394.867513 kJ/mol
# Density = 1.952270 g / cm^3
# Si number density = 19.567238 Si / 1000 Ang^3
#
#
#
# Elastic Constant Matrix: (Units=GPa)
#
#
# Indices 1 2 3 4 5 6 
#
# 1 47.4487 11.6585 28.0995 0.0000 0.0000 0.0000
# 2 11.6585 57.6463 23.2232 0.0000 0.0000 0.0000
# 3 28.0995 23.2232 87.6348 0.0000 0.0000 0.0000
# 4 0.0000 0.0000 0.0000 24.8815 0.0000 0.0000
# 5 0.0000 0.0000 0.0000 0.0000 12.2906 0.0000
# 6 0.0000 0.0000 0.0000 0.0000 0.0000 16.3644
#
#
#
# Elastic Compliance Matrix: (Units=1/GPa)
#
#
# Indices 1 2 3 4 5 6 
#
# 1 0.026251 -0.002147 -0.007848 0.000000 0.000000 0.000000
# 2 -0.002147 0.019596 -0.004504 0.000000 0.000000 0.000000
# 3 -0.007848 -0.004504 0.015121 0.000000 0.000000 0.000000
# 4 0.000000 0.000000 0.000000 0.040191 0.000000 0.000000
# 5 0.000000 0.000000 0.000000 0.000000 0.081363 0.000000
# 6 0.000000 0.000000 0.000000 0.000000 0.000000 0.061108
#
#
# Mechanical properties :
#
#
# Convention : Reuss Voigt Hill
#
# Bulk Modulus (GPa) = 31.28107 35.41025 33.34566
# Shear Modulus (GPa) = 17.65003 19.35720 18.50362
#
# Velocity S-wave (km/s) = 3.00662 3.14867 3.07847
# Velocity P-wave (km/s) = 5.29851 5.59954 5.45110
#
# Compressibility (1/GPa) = 0.03196822
#
# Stress axis : x y z
#
# Youngs Moduli (GPa) = 38.09419 51.03053 66.13279
#
# Poissons Ratio (x) = 0.10958 0.51901
# Poissons Ratio (y) = 0.08180 0.29789
# Poissons Ratio (z) = 0.29897 0.22986
#
# Static dielectric constant tensor:
#      x y z
#    x 3.489740 0.000000 0.000000 
#    y 0.000000 3.991530 0.000000 
#    z 0.000000 0.000000 3.470340 
# 
# 
# High freq. dielectric constant tensor:
#      x y z
#    x 1.746650 0.000000 0.000000 
#    y 0.000000 1.776400 0.000000 
#    z 0.000000 0.000000 1.738960 
# 
# From -- ./inp_files/21952.got.cif
#   From: 2010.03.12/outbox.cif.g09.slc.cpg/sg59_11_cif.got.tgz:21952.got - 2010.04.16 16:29:54.
