data_PCOD8241409
_publ_section_title
;
Structure prediction by ZEFSAII (Michael W. Deem and Ramdas Pophale) SiO2 
 PCOD8241409
Probable space group: P M M N
;
_chemical_formula_sum "Si O2"
_cell_formula_units_Z 64
_cell_length_a 8.871918
_cell_length_b 19.884289
_cell_length_c 19.840910
_cell_angle_alpha 90.000000
_cell_angle_beta 90.000000
_cell_angle_gamma 90.000000
_cell_volume 3500.170280
_symmetry_space_group_name_H-M "P M M N"
_symmetry_group_IT_number 59
_space_group.IT_coordinate_system_code '2'
_symmetry_cell_setting 'orthorhombic'
loop_
_space_group_symop_operation_xyz
x,y,z
1/2-x,1/2-y,z
1/2+x,-y,-z
-x,1/2+y,-z
-x,-y,-z
1/2+x,1/2+y,-z
1/2-x,y,z
x,1/2-y,z
loop_
_atom_site_type_symbol
_atom_site_label
_atom_site_fract_x
_atom_site_fract_y
_atom_site_fract_z
Si Si1 0.574772 0.173229 0.590952
Si Si2 0.574650 0.915298 0.306350
Si Si3 0.927290 0.430041 0.977704
Si Si4 0.423855 0.173324 0.076003
Si Si5 0.421874 0.079331 0.194520
Si Si6 0.072848 0.930676 0.523115
Si Si7 0.925142 0.947134 0.657239
Si Si8 0.075875 0.445647 0.843032
O O1 0.750000 0.163310 0.607859
O O2 0.536467 0.250000 0.573468
O O3 0.478520 0.152239 0.656523
O O4 0.525085 0.128800 0.527110
O O5 0.750000 0.929916 0.319415
O O6 0.542612 0.906776 0.226705
O O7 0.478938 0.976124 0.337056
O O8 0.750000 0.438990 0.980027
O O9 0.979406 0.411258 0.902099
O O10 0.000000 0.500000 0.000000
O O11 0.974983 0.369524 0.025754
O O12 0.250000 0.166475 0.053959
O O13 0.479020 0.250000 0.073426
O O14 0.445491 0.147671 0.152774
O O15 0.250000 0.052673 0.187756
O O16 0.459132 0.092609 0.273163
O O17 0.532178 0.023709 0.163930
O O18 0.250000 0.940582 0.525562
O O19 0.013494 0.910160 0.597192
O O20 0.000000 0.000000 0.500000
O O21 0.750000 0.947937 0.639022
O O22 0.250000 0.441929 0.863297
#
# Coordination Sequence:
#
# PCOD8241409 Si02
#       8
#     8   8   8   8   8   8   8   8
#     4  10  22  39  57  78 109 150 190 230 282 340
#     4  10  20  34  55  83 111 141 181 228 278 331
#     4  12  23  36  57  85 115 149 191 237 284 335
#     4  10  21  38  59  83 114 152 191 234 286 339
#     4   9  18  33  54  80 110 146 184 226 277 332
#     4  11  21  34  55  82 111 145 186 234 283 331
#     4  10  19  32  53  82 113 144 182 228 275 326
#     4  10  20  34  55  84 113 142 180 231 283 330
#
# _framework density 18.284825999999999
#
# number of rings (size 3 to 8) (size 9 to 14) (size 15 to 20)
#    0.000    1.750    2.500    2.625    0.000    3.000 
#    0.000    1.250    0.000    1.500    0.000    0.000 
#    0.000    0.000    0.000    0.000    0.000    0.000 
#
# Total GULP energy -793766.193502 kJ/mol
# GULP energy per Si atom -12402.596773 kJ/mol
# Density = 1.824321 g / cm^3
# Si number density = 18.284826 Si / 1000 Ang^3
#
#
#
# Elastic Constant Matrix: (Units=GPa)
#
#
# Indices 1 2 3 4 5 6 
#
# 1 95.2288 48.3005 61.4132 0.0000 0.0000 0.0000
# 2 48.3005 110.5565 67.8614 0.0000 0.0000 0.0000
# 3 61.4132 67.8614 146.1136 0.0000 0.0000 0.0000
# 4 0.0000 0.0000 0.0000 27.0300 0.0000 0.0000
# 5 0.0000 0.0000 0.0000 0.0000 33.7717 0.0000
# 6 0.0000 0.0000 0.0000 0.0000 0.0000 22.5715
#
#
#
# Elastic Compliance Matrix: (Units=1/GPa)
#
#
# Indices 1 2 3 4 5 6 
#
# 1 0.015512 -0.003881 -0.004717 0.000000 0.000000 0.000000
# 2 -0.003881 0.013623 -0.004696 0.000000 0.000000 0.000000
# 3 -0.004717 -0.004696 0.011008 0.000000 0.000000 0.000000
# 4 0.000000 0.000000 0.000000 0.036996 0.000000 0.000000
# 5 0.000000 0.000000 0.000000 0.000000 0.029611 0.000000
# 6 0.000000 0.000000 0.000000 0.000000 0.000000 0.044304
#
#
# Mechanical properties :
#
#
# Convention : Reuss Voigt Hill
#
# Bulk Modulus (GPa) = 73.77924 78.56099 76.17012
# Shear Modulus (GPa) = 27.44850 28.29623 27.87237
#
# Velocity S-wave (km/s) = 3.87869 3.93813 3.90852
# Velocity P-wave (km/s) = 7.77795 7.98354 7.88142
#
# Compressibility (1/GPa) = 0.01355395
#
# Stress axis : x y z
#
# Youngs Moduli (GPa) = 64.46722 73.40389 90.84665
#
# Poissons Ratio (x) = 0.28491 0.42853
# Poissons Ratio (y) = 0.25023 0.42660
# Poissons Ratio (z) = 0.30410 0.34469
#
# Static dielectric constant tensor:
#      x y z
#    x 3.439320 0.000000 0.000000 
#    y 0.000000 3.118800 0.000000 
#    z 0.000000 0.000000 3.766100 
# 
# 
# High freq. dielectric constant tensor:
#      x y z
#    x 1.716880 0.000000 0.000000 
#    y 0.000000 1.672510 0.000000 
#    z 0.000000 0.000000 1.726330 
# 
# From -- ./inp_files/29467.got.cif
#   From: 2010.03.12/outbox.cif.g09.slc.cpg/sg59_15_cif.got.tgz:29467.got - 2010.04.16 16:29:54.
