data_PCOD8241065
_publ_section_title
;
Structure prediction by ZEFSAII (Michael W. Deem and Ramdas Pophale) SiO2 
 PCOD8241065
Probable space group: P M M N
;
_chemical_formula_sum "Si O2"
_cell_formula_units_Z 48
_cell_length_a 9.243701
_cell_length_b 20.799635
_cell_length_c 15.043156
_cell_angle_alpha 90.000000
_cell_angle_beta 90.000000
_cell_angle_gamma 90.000000
_cell_volume 2892.281517
_symmetry_space_group_name_H-M "P M M N"
_symmetry_group_IT_number 59
_space_group.IT_coordinate_system_code '2'
_symmetry_cell_setting 'orthorhombic'
loop_
_space_group_symop_operation_xyz
x,y,z
1/2-x,1/2-y,z
1/2+x,-y,-z
-x,1/2+y,-z
-x,-y,-z
1/2+x,1/2+y,-z
1/2-x,y,z
x,1/2-y,z
loop_
_atom_site_type_symbol
_atom_site_label
_atom_site_fract_x
_atom_site_fract_y
_atom_site_fract_z
Si Si1 0.084062 0.551716 0.890744
Si Si2 0.916940 0.453245 0.308981
Si Si3 0.083355 0.063312 0.471990
Si Si4 0.416316 0.674202 0.195389
Si Si5 0.414983 0.101003 0.660875
Si Si6 0.581773 0.907530 0.054705
O O1 0.250000 0.566026 0.915878
O O2 0.049748 0.572605 0.789784
O O3 0.052384 0.476028 0.899716
O O4 0.982090 0.593003 0.955041
O O5 0.750000 0.444005 0.334156
O O6 0.958681 0.528275 0.314325
O O7 0.011374 0.411827 0.379873
O O8 0.250000 0.046682 0.454321
O O9 0.068646 0.113197 0.554328
O O10 0.000000 0.000000 0.500000
O O11 0.250000 0.652652 0.188854
O O12 0.433402 0.750000 0.192779
O O13 0.480411 0.649507 0.288500
O O14 0.502516 0.646165 0.112031
O O15 0.250000 0.113705 0.691628
O O16 0.750000 0.890619 0.049580
#
# Coordination Sequence:
#
# PCOD8241065 Si02
#       6
#     8   8   8   8   8   8
#     4   9  17  30  47  69  98 126 154 192 237 285
#     4   9  16  28  45  68  97 125 153 185 227 279
#     4   9  17  27  41  64  93 122 153 186 224 272
#     4  11  23  35  48  68  93 124 163 203 241 283
#     4   9  17  31  46  64  92 124 158 194 229 275
#     4  10  19  32  48  68  93 124 160 196 237 286
#
# _framework density 16.595896
#
# number of rings (size 3 to 8) (size 9 to 14) (size 15 to 20)
#    0.000    2.500    1.667    2.500    0.000    6.000 
#    0.000    0.000    0.000    0.000    0.000    1.167 
#    0.000    6.667    0.000    0.000    0.000    0.000 
#
# Total GULP energy -595062.929438 kJ/mol
# GULP energy per Si atom -12397.144363 kJ/mol
# Density = 1.655812 g / cm^3
# Si number density = 16.595896 Si / 1000 Ang^3
#
#
#
# Elastic Constant Matrix: (Units=GPa)
#
#
# Indices 1 2 3 4 5 6 
#
# 1 121.0336 40.2674 77.9576 0.0000 0.0000 0.0000
# 2 40.2674 37.2537 33.3660 0.0000 0.0000 0.0000
# 3 77.9576 33.3660 137.6219 0.0000 0.0000 0.0000
# 4 0.0000 0.0000 0.0000 15.0991 0.0000 0.0000
# 5 0.0000 0.0000 0.0000 0.0000 37.3530 0.0000
# 6 0.0000 0.0000 0.0000 0.0000 0.0000 19.0923
#
#
#
# Elastic Compliance Matrix: (Units=1/GPa)
#
#
# Indices 1 2 3 4 5 6 
#
# 1 0.016335 -0.011967 -0.006352 0.000000 0.000000 0.000000
# 2 -0.011967 0.043056 -0.003660 0.000000 0.000000 0.000000
# 3 -0.006352 -0.003660 0.011751 0.000000 0.000000 0.000000
# 4 0.000000 0.000000 0.000000 0.066229 0.000000 0.000000
# 5 0.000000 0.000000 0.000000 0.000000 0.026772 0.000000
# 6 0.000000 0.000000 0.000000 0.000000 0.000000 0.052377
#
#
# Mechanical properties :
#
#
# Convention : Reuss Voigt Hill
#
# Bulk Modulus (GPa) = 36.78489 66.56570 51.67529
# Shear Modulus (GPa) = 18.55014 23.93009 21.24012
#
# Velocity S-wave (km/s) = 3.34691 3.80139 3.58137
# Velocity P-wave (km/s) = 6.09499 7.71131 6.95029
#
# Compressibility (1/GPa) = 0.02718507
#
# Stress axis : x y z
#
# Youngs Moduli (GPa) = 61.21943 23.22538 85.09563
#
# Poissons Ratio (x) = 0.27795 0.54049
# Poissons Ratio (y) = 0.73264 0.31143
# Poissons Ratio (z) = 0.38884 0.08500
#
# Static dielectric constant tensor:
#      x y z
#    x 3.302990 0.000000 0.000000 
#    y 0.000000 2.575410 0.000000 
#    z 0.000000 0.000000 3.661940 
# 
# 
# High freq. dielectric constant tensor:
#      x y z
#    x 1.650900 0.000000 0.000000 
#    y 0.000000 1.569270 0.000000 
#    z 0.000000 0.000000 1.657860 
# 
# From -- ./inp_files/20693.got.cif
#   From: 2010.03.12/outbox.cif.g09.slc.cpg/sg59_11_cif.got.tgz:20693.got - 2010.04.16 16:29:54.
