data_PCOD8241362
_publ_section_title
;
Structure prediction by ZEFSAII (Michael W. Deem and Ramdas Pophale) SiO2 
 PCOD8241362
Probable space group: P M M N
;
_chemical_formula_sum "Si O2"
_cell_formula_units_Z 56
_cell_length_a 14.636817
_cell_length_b 9.410476
_cell_length_c 21.563116
_cell_angle_alpha 90.000000
_cell_angle_beta 90.000000
_cell_angle_gamma 90.000000
_cell_volume 2970.090985
_symmetry_space_group_name_H-M "P M M N"
_symmetry_group_IT_number 59
_space_group.IT_coordinate_system_code '2'
_symmetry_cell_setting 'orthorhombic'
loop_
_space_group_symop_operation_xyz
x,y,z
1/2-x,1/2-y,z
1/2+x,-y,-z
-x,1/2+y,-z
-x,-y,-z
1/2+x,1/2+y,-z
1/2-x,y,z
x,1/2-y,z
loop_
_atom_site_type_symbol
_atom_site_label
_atom_site_fract_x
_atom_site_fract_y
_atom_site_fract_z
Si Si1 0.854341 0.910752 0.695511
Si Si2 0.351764 0.089765 0.674259
Si Si3 0.983081 0.584135 0.089508
Si Si4 0.610038 0.090470 0.445159
Si Si5 0.355717 0.915811 0.998579
Si Si6 0.893989 0.909343 0.559036
Si Si7 0.004503 0.583037 0.230118
O O1 0.750000 0.914355 0.716060
O O2 0.893466 0.750000 0.696938
O O3 0.865711 0.972132 0.625862
O O4 0.906040 0.006749 0.744668
O O5 0.250000 0.086199 0.702226
O O6 0.378396 0.250000 0.653345
O O7 0.418483 0.036135 0.728291
O O8 0.355530 0.987793 0.615713
O O9 0.960225 0.750000 0.084056
O O10 0.987278 0.532429 0.160233
O O11 0.898808 0.501034 0.058739
O O12 0.081704 0.549591 0.058654
O O13 0.649627 0.250000 0.445486
O O14 0.501943 0.092474 0.446289
O O15 0.648435 0.008864 0.505673
O O16 0.250000 0.962398 0.010514
O O17 0.360093 0.750000 0.982221
O O18 0.854188 0.750000 0.551045
O O19 0.022407 0.750000 0.232652
#
# Coordination Sequence:
#
# PCOD8241362 Si02
#       7
#     8   8   8   8   8   8   8
#     4  10  21  37  56  78 106 142 181 220 268 325
#     4  10  21  36  53  74 103 140 179 220 271 327
#     4   9  19  35  56  83 112 146 182 221 266 312
#     4  10  19  32  53  78 102 132 174 224 274 324
#     4   9  18  34  56  83 115 147 180 219 263 313
#     4   9  18  33  52  75 104 137 172 216 272 328
#     4  10  21  37  57  80 109 143 181 223 265 311
#
# _framework density 18.854641000000001
#
# number of rings (size 3 to 8) (size 9 to 14) (size 15 to 20)
#    0.000    2.429    1.429    0.429    0.000    4.286 
#    0.000    4.286    0.000    0.000    0.000    0.000 
#    0.000    0.000    0.000    0.000    0.000    0.000 
#
# Total GULP energy -694402.831168 kJ/mol
# GULP energy per Si atom -12400.050557 kJ/mol
# Density = 1.881173 g / cm^3
# Si number density = 18.854641 Si / 1000 Ang^3
#
#
#
# Elastic Constant Matrix: (Units=GPa)
#
#
# Indices 1 2 3 4 5 6 
#
# 1 90.5276 36.2414 46.8731 0.0000 0.0000 0.0000
# 2 36.2414 62.4622 47.4733 0.0000 0.0000 0.0000
# 3 46.8731 47.4733 134.0387 0.0000 0.0000 0.0000
# 4 0.0000 0.0000 0.0000 25.9939 0.0000 0.0000
# 5 0.0000 0.0000 0.0000 0.0000 -7.5863 0.0000
# 6 0.0000 0.0000 0.0000 0.0000 0.0000 20.3272
#
#
#
# Elastic Compliance Matrix: (Units=1/GPa)
#
#
# Indices 1 2 3 4 5 6 
#
# 1 0.015224 -0.006550 -0.003004 0.000000 0.000000 0.000000
# 2 -0.006550 0.024725 -0.006466 0.000000 0.000000 0.000000
# 3 -0.003004 -0.006466 0.010801 0.000000 0.000000 0.000000
# 4 0.000000 0.000000 0.000000 0.038471 0.000000 0.000000
# 5 0.000000 0.000000 0.000000 0.000000 -0.131817 0.000000
# 6 0.000000 0.000000 0.000000 0.000000 0.000000 0.049195
#
#
# Mechanical properties :
#
#
# Convention : Reuss Voigt Hill
#
# Bulk Modulus (GPa) = 53.44953 60.91158 57.18055
# Shear Modulus (GPa) = 111.41839 18.17634 64.79736
#
# Velocity S-wave (km/s) = 7.69556 3.10824 5.86868
# Velocity P-wave (km/s) = 10.36204 6.72738 8.73583
#
# Compressibility (1/GPa) = 0.01870924
#
# Stress axis : x y z
#
# Youngs Moduli (GPa) = 65.68605 40.44529 92.58199
#
# Poissons Ratio (x) = 0.26492 0.27811
# Poissons Ratio (y) = 0.43025 0.59867
# Poissons Ratio (z) = 0.19732 0.26153
#
# Static dielectric constant tensor:
#      x y z
#    x 3.475500 0.000000 0.000000 
#    y 0.000000 3.537410 0.000000 
#    z 0.000000 0.000000 3.447480 
# 
# 
# High freq. dielectric constant tensor:
#      x y z
#    x 1.735690 0.000000 0.000000 
#    y 0.000000 1.727250 0.000000 
#    z 0.000000 0.000000 1.725870 
# 
# From -- ./inp_files/29028.got.cif
#   From: 2010.03.12/outbox.cif.g09.slc.cpg/sg59_15_cif.got.tgz:29028.got - 2010.04.16 16:29:54.
