data_PCOD8241090
_publ_section_title
;
Structure prediction by ZEFSAII (Michael W. Deem and Ramdas Pophale) SiO2 
 PCOD8241090
Probable space group: P M M N
;
_chemical_formula_sum "Si O2"
_cell_formula_units_Z 64
_cell_length_a 8.708698
_cell_length_b 28.342019
_cell_length_c 14.491513
_cell_angle_alpha 90.000000
_cell_angle_beta 90.000000
_cell_angle_gamma 90.000000
_cell_volume 3576.825442
_symmetry_space_group_name_H-M "P M M N"
_symmetry_group_IT_number 59
_space_group.IT_coordinate_system_code '2'
_symmetry_cell_setting 'orthorhombic'
loop_
_space_group_symop_operation_xyz
x,y,z
1/2-x,1/2-y,z
1/2+x,-y,-z
-x,1/2+y,-z
-x,-y,-z
1/2+x,1/2+y,-z
1/2-x,y,z
x,1/2-y,z
loop_
_atom_site_type_symbol
_atom_site_label
_atom_site_fract_x
_atom_site_fract_y
_atom_site_fract_z
Si Si1 0.930585 0.571612 0.846981
Si Si2 0.072249 0.473612 0.641349
Si Si3 0.071503 0.304720 0.639111
Si Si4 0.932527 0.885872 0.031251
Si Si5 0.572337 0.526267 0.145786
Si Si6 0.068467 0.427204 0.359096
Si Si7 0.429816 0.887869 0.468329
Si Si8 0.432714 0.301855 0.847732
O O1 0.750000 0.568615 0.840120
O O2 0.994309 0.583447 0.744850
O O3 0.986826 0.521228 0.883285
O O4 0.981138 0.610706 0.923164
O O5 0.250000 0.484474 0.620746
O O6 0.043664 0.461299 0.747748
O O7 0.974142 0.519346 0.611824
O O8 0.020939 0.428375 0.584804
O O9 0.250000 0.317279 0.626110
O O10 0.040965 0.250000 0.615485
O O11 0.018598 0.315897 0.743898
O O12 0.971811 0.336492 0.570535
O O13 0.750000 0.884978 0.041560
O O14 0.997259 0.931042 0.086069
O O15 0.001822 0.838733 0.078048
O O16 0.750000 0.518474 0.124253
O O17 0.250000 0.420146 0.367632
O O18 0.982001 0.390165 0.424887
O O19 0.250000 0.896567 0.458883
O O20 0.250000 0.300704 0.851825
O O21 0.497832 0.250000 0.872657
#
# Coordination Sequence:
#
# PCOD8241090 Si02
#       8
#     8   8   8   8   8   8   8   8
#     4   9  18  30  45  65  93 126 158 196 234 268
#     4  10  19  32  49  71  99 129 161 197 239 287
#     4   9  18  34  55  77 100 126 155 189 234 287
#     4   9  15  25  43  68  95 123 155 189 228 273
#     4   9  17  28  45  67  94 126 156 189 230 281
#     4  10  20  34  48  65  94 131 168 205 244 282
#     4  12  23  33  49  72  96 126 163 200 241 288
#     4   8  14  26  47  74 100 123 148 181 225 279
#
# _framework density 17.892961
#
# number of rings (size 3 to 8) (size 9 to 14) (size 15 to 20)
#    0.000    2.500    0.000    4.125    0.000    3.250 
#    0.000    0.000    0.000    1.500    0.000    3.500 
#    0.000    0.000    0.000    0.000    0.000    0.000 
#
# Total GULP energy -793460.573885 kJ/mol
# GULP energy per Si atom -12397.821467 kJ/mol
# Density = 1.785224 g / cm^3
# Si number density = 17.892961 Si / 1000 Ang^3
#
#
#
# Elastic Constant Matrix: (Units=GPa)
#
#
# Indices 1 2 3 4 5 6 
#
# 1 30.4726 14.0208 21.2688 0.0000 0.0000 0.0000
# 2 14.0208 98.7395 72.6935 0.0000 0.0000 0.0000
# 3 21.2688 72.6935 108.2004 0.0000 0.0000 0.0000
# 4 0.0000 0.0000 0.0000 32.7045 0.0000 0.0000
# 5 0.0000 0.0000 0.0000 0.0000 15.9610 0.0000
# 6 0.0000 0.0000 0.0000 0.0000 0.0000 21.9362
#
#
#
# Elastic Compliance Matrix: (Units=1/GPa)
#
#
# Indices 1 2 3 4 5 6 
#
# 1 0.038037 0.000205 -0.007614 0.000000 0.000000 0.000000
# 2 0.000205 0.020041 -0.013504 0.000000 0.000000 0.000000
# 3 -0.007614 -0.013504 0.019812 0.000000 0.000000 0.000000
# 4 0.000000 0.000000 0.000000 0.030577 0.000000 0.000000
# 5 0.000000 0.000000 0.000000 0.000000 0.062653 0.000000
# 6 0.000000 0.000000 0.000000 0.000000 0.000000 0.045587
#
#
# Mechanical properties :
#
#
# Convention : Reuss Voigt Hill
#
# Bulk Modulus (GPa) = 27.73082 50.37540 39.05311
# Shear Modulus (GPa) = 18.48059 22.74896 20.61478
#
# Velocity S-wave (km/s) = 3.21727 3.56953 3.39797
# Velocity P-wave (km/s) = 5.41599 6.72336 6.10477
#
# Compressibility (1/GPa) = 0.03606096
#
# Stress axis : x y z
#
# Youngs Moduli (GPa) = 26.29037 49.89834 50.47535
#
# Poissons Ratio (x) = -0.01021 0.38433
# Poissons Ratio (y) = -0.00538 0.68164
# Poissons Ratio (z) = 0.20018 0.67385
#
# Static dielectric constant tensor:
#      x y z
#    x 3.040350 0.000000 0.000000 
#    y 0.000000 3.380170 0.000000 
#    z 0.000000 0.000000 3.647590 
# 
# 
# High freq. dielectric constant tensor:
#      x y z
#    x 1.667600 0.000000 0.000000 
#    y 0.000000 1.673080 0.000000 
#    z 0.000000 0.000000 1.699000 
# 
# From -- ./inp_files/21817.got.cif
#   From: 2010.03.12/outbox.cif.g09.slc.cpg/sg59_11_cif.got.tgz:21817.got - 2010.04.16 16:29:54.
