data_PCOD8241500
_publ_section_title
;
Structure prediction by ZEFSAII (Michael W. Deem and Ramdas Pophale) SiO2 
 PCOD8241500
Probable space group: P M M N
;
_chemical_formula_sum "Si O2"
_cell_formula_units_Z 64
_cell_length_a 9.108681
_cell_length_b 28.043621
_cell_length_c 15.404212
_cell_angle_alpha 90.000000
_cell_angle_beta 90.000000
_cell_angle_gamma 90.000000
_cell_volume 3934.858041
_symmetry_space_group_name_H-M "P M M N"
_symmetry_group_IT_number 59
_space_group.IT_coordinate_system_code '2'
_symmetry_cell_setting 'orthorhombic'
loop_
_space_group_symop_operation_xyz
x,y,z
1/2-x,1/2-y,z
1/2+x,-y,-z
-x,1/2+y,-z
-x,-y,-z
1/2+x,1/2+y,-z
1/2-x,y,z
x,1/2-y,z
loop_
_atom_site_type_symbol
_atom_site_label
_atom_site_fract_x
_atom_site_fract_y
_atom_site_fract_z
Si Si1 0.588104 0.306535 0.506419
Si Si2 0.917265 0.045148 0.903055
Si Si3 0.579768 0.450586 0.103403
Si Si4 0.424188 0.140648 0.161629
Si Si5 0.577553 0.804635 0.326162
Si Si6 0.578581 0.305515 0.313119
Si Si7 0.580424 0.146797 0.830304
Si Si8 0.418108 0.693669 0.991691
O O1 0.750000 0.326618 0.528598
O O2 0.593839 0.250000 0.503371
O O3 0.477316 0.324375 0.580711
O O4 0.539772 0.323589 0.410504
O O5 0.750000 0.027197 0.895048
O O6 0.947008 0.090706 0.843160
O O7 0.949821 0.059971 0.002165
O O8 0.024126 0.003273 0.871643
O O9 0.750000 0.446637 0.127673
O O10 0.489484 0.412430 0.158729
O O11 0.250000 0.138078 0.159208
O O12 0.476086 0.164452 0.250342
O O13 0.479327 0.171649 0.081074
O O14 0.750000 0.809223 0.324642
O O15 0.526227 0.750000 0.312111
O O16 0.513440 0.837221 0.251140
O O17 0.750000 0.314321 0.292150
O O18 0.540774 0.250000 0.300859
O O19 0.750000 0.158147 0.811685
O O20 0.527284 0.175777 0.914729
O O21 0.250000 0.676834 0.975571
O O22 0.432134 0.750000 0.987641
#
# Coordination Sequence:
#
# PCOD8241500 Si02
#       8
#     8   8   8   8   8   8   8   8
#     4   8  15  30  51  71  91 122 164 204 242 286
#     4   9  18  33  52  73  94 118 158 207 251 288
#     4  10  19  34  53  70  93 124 161 202 247 292
#     4  12  23  32  46  70 100 131 164 200 242 289
#     4  10  20  31  45  70 103 133 162 201 244 284
#     4   9  18  33  52  72  96 128 166 205 243 288
#     4  10  19  33  51  70  94 128 166 201 238 287
#     4  10  20  34  49  65  92 132 172 203 235 280
#
# _framework density 16.264882
#
# number of rings (size 3 to 8) (size 9 to 14) (size 15 to 20)
#    0.000    2.250    1.250    3.375    0.000    5.250 
#    0.000    1.250    0.000    0.000    0.000    0.875 
#    0.000    0.000    0.000    0.000    0.000    0.000 
#
# Total GULP energy -793669.003452 kJ/mol
# GULP energy per Si atom -12401.078179 kJ/mol
# Density = 1.622786 g / cm^3
# Si number density = 16.264882 Si / 1000 Ang^3
#
#
#
# Elastic Constant Matrix: (Units=GPa)
#
#
# Indices 1 2 3 4 5 6 
#
# 1 95.0336 49.9046 61.9957 0.0000 0.0000 0.0000
# 2 49.9046 69.5154 43.8788 0.0000 0.0000 0.0000
# 3 61.9957 43.8788 107.0638 0.0000 0.0000 0.0000
# 4 0.0000 0.0000 0.0000 5.6234 0.0000 0.0000
# 5 0.0000 0.0000 0.0000 0.0000 13.4893 0.0000
# 6 0.0000 0.0000 0.0000 0.0000 0.0000 26.9331
#
#
#
# Elastic Compliance Matrix: (Units=1/GPa)
#
#
# Indices 1 2 3 4 5 6 
#
# 1 0.021057 -0.010010 -0.008091 0.000000 0.000000 0.000000
# 2 -0.010010 0.024164 -0.004107 0.000000 0.000000 0.000000
# 3 -0.008091 -0.004107 0.015708 0.000000 0.000000 0.000000
# 4 0.000000 0.000000 0.000000 0.177827 0.000000 0.000000
# 5 0.000000 0.000000 0.000000 0.000000 0.074133 0.000000
# 6 0.000000 0.000000 0.000000 0.000000 0.000000 0.037129
#
#
# Mechanical properties :
#
#
# Convention : Reuss Voigt Hill
#
# Bulk Modulus (GPa) = 60.55451 64.79679 62.67565
# Shear Modulus (GPa) = 12.50195 16.93141 14.71668
#
# Velocity S-wave (km/s) = 2.77546 3.22992 3.01127
# Velocity P-wave (km/s) = 6.89796 7.33722 7.12098
#
# Compressibility (1/GPa) = 0.01651405
#
# Stress axis : x y z
#
# Youngs Moduli (GPa) = 47.49018 41.38467 63.66006
#
# Poissons Ratio (x) = 0.41425 0.51506
# Poissons Ratio (y) = 0.47536 0.26145
# Poissons Ratio (z) = 0.38423 0.16997
#
# Static dielectric constant tensor:
#      x y z
#    x 3.099920 0.000000 0.000000 
#    y 0.000000 2.951720 0.000000 
#    z 0.000000 0.000000 3.099530 
# 
# 
# High freq. dielectric constant tensor:
#      x y z
#    x 1.627390 0.000000 0.000000 
#    y 0.000000 1.607540 0.000000 
#    z 0.000000 0.000000 1.615630 
# 
# From -- ./inp_files/21850.got.cif
#   From: 2010.03.12/outbox.cif.g09.slc.cpg/sg59_11_cif.got.tgz:21850.got - 2010.04.16 16:29:54.
