data_PCOD8241591
_publ_section_title
;
Structure prediction by ZEFSAII (Michael W. Deem and Ramdas Pophale) SiO2 
 PCOD8241591
Probable space group: P M M N
;
_chemical_formula_sum "Si O2"
_cell_formula_units_Z 64
_cell_length_a 8.960943
_cell_length_b 23.664372
_cell_length_c 15.142099
_cell_angle_alpha 90.000000
_cell_angle_beta 90.000000
_cell_angle_gamma 90.000000
_cell_volume 3210.959145
_symmetry_space_group_name_H-M "P M M N"
_symmetry_group_IT_number 59
_space_group.IT_coordinate_system_code '2'
_symmetry_cell_setting 'orthorhombic'
loop_
_space_group_symop_operation_xyz
x,y,z
1/2-x,1/2-y,z
1/2+x,-y,-z
-x,1/2+y,-z
-x,-y,-z
1/2+x,1/2+y,-z
1/2-x,y,z
x,1/2-y,z
loop_
_atom_site_type_symbol
_atom_site_label
_atom_site_fract_x
_atom_site_fract_y
_atom_site_fract_z
Si Si1 0.427711 0.109398 0.355568
Si Si2 0.582011 0.649337 0.971673
Si Si3 0.072372 0.992555 0.278633
Si Si4 0.072864 0.185867 0.514788
Si Si5 0.576217 0.315953 0.856972
Si Si6 0.926684 0.625380 0.307297
Si Si7 0.075127 0.311194 0.207249
Si Si8 0.083973 0.477134 0.084050
O O1 0.250000 0.114089 0.355681
O O2 0.475759 0.043868 0.344625
O O3 0.490675 0.140886 0.442912
O O4 0.497096 0.142414 0.271469
O O5 0.750000 0.666171 0.002699
O O6 0.515824 0.688847 0.893783
O O7 0.583803 0.589623 0.923022
O O8 0.471432 0.652079 0.054065
O O9 0.250000 0.985870 0.278354
O O10 0.013849 0.004253 0.178459
O O11 0.997122 0.936538 0.316366
O O12 0.250000 0.187904 0.508526
O O13 0.010335 0.250000 0.500798
O O14 0.021567 0.163017 0.609871
O O15 0.750000 0.326909 0.839807
O O16 0.538261 0.250000 0.865386
O O17 0.482590 0.342605 0.778669
O O18 0.750000 0.618658 0.302770
O O19 0.250000 0.323764 0.200119
O O20 0.042343 0.250000 0.249520
O O21 0.250000 0.502026 0.079739
O O22 0.000000 0.500000 0.000000
#
# Coordination Sequence:
#
# PCOD8241591 Si02
#       8
#     8   8   8   8   8   8   8   8
#     4   9  16  30  53  81 114 148 180 221 275 336
#     4  10  19  33  53  81 112 143 181 226 277 331
#     4  10  20  36  56  81 116 151 186 229 279 336
#     4   9  18  33  55  84 114 144 183 233 287 338
#     4  11  24  40  57  80 111 148 190 234 285 343
#     4  11  23  38  57  82 112 148 193 241 285 330
#     4   9  15  25  47  79 111 141 175 217 267 326
#     4  10  20  33  50  74 107 145 187 229 269 320
#
# _framework density 19.931739
#
# number of rings (size 3 to 8) (size 9 to 14) (size 15 to 20)
#    0.000    2.125    1.250    2.625    0.000    7.000 
#    0.000    0.000    0.000    0.750    0.000    0.000 
#    0.000    7.000    0.000    0.000    0.000    0.000 
#
# Total GULP energy -793248.945250 kJ/mol
# GULP energy per Si atom -12394.514770 kJ/mol
# Density = 1.988637 g / cm^3
# Si number density = 19.931739 Si / 1000 Ang^3
#
#
#
# Elastic Constant Matrix: (Units=GPa)
#
#
# Indices 1 2 3 4 5 6 
#
# 1 33.4492 28.7301 20.4153 0.0000 0.0000 0.0000
# 2 28.7301 102.6747 53.5143 0.0000 0.0000 0.0000
# 3 20.4153 53.5143 123.9048 0.0000 0.0000 0.0000
# 4 0.0000 0.0000 0.0000 39.5393 0.0000 0.0000
# 5 0.0000 0.0000 0.0000 0.0000 8.2228 0.0000
# 6 0.0000 0.0000 0.0000 0.0000 0.0000 23.8965
#
#
#
# Elastic Compliance Matrix: (Units=1/GPa)
#
#
# Indices 1 2 3 4 5 6 
#
# 1 0.039838 -0.009971 -0.002258 0.000000 0.000000 0.000000
# 2 -0.009971 0.015064 -0.004863 0.000000 0.000000 0.000000
# 3 -0.002258 -0.004863 0.010543 0.000000 0.000000 0.000000
# 4 0.000000 0.000000 0.000000 0.025291 0.000000 0.000000
# 5 0.000000 0.000000 0.000000 0.000000 0.121613 0.000000
# 6 0.000000 0.000000 0.000000 0.000000 0.000000 0.041847
#
#
# Mechanical properties :
#
#
# Convention : Reuss Voigt Hill
#
# Bulk Modulus (GPa) = 31.98768 51.70534 41.84651
# Shear Modulus (GPa) = 16.73354 24.82300 20.77827
#
# Velocity S-wave (km/s) = 2.90063 3.53285 3.23224
# Velocity P-wave (km/s) = 5.22510 6.52985 5.91357
#
# Compressibility (1/GPa) = 0.03126204
#
# Stress axis : x y z
#
# Youngs Moduli (GPa) = 25.10172 66.38228 94.84797
#
# Poissons Ratio (x) = 0.66187 0.21413
# Poissons Ratio (y) = 0.25028 0.46128
# Poissons Ratio (z) = 0.05667 0.32284
#
# Static dielectric constant tensor:
#      x y z
#    x 15.050630 0.000000 0.000000 
#    y 0.000000 4.059080 0.000000 
#    z 0.000000 0.000000 3.783690 
# 
# 
# High freq. dielectric constant tensor:
#      x y z
#    x 1.722740 0.000000 0.000000 
#    y 0.000000 1.795120 0.000000 
#    z 0.000000 0.000000 1.787180 
# 
# From -- ./inp_files/21592.got.cif
#   From: 2010.03.12/outbox.cif.g09.slc.cpg/sg59_11_cif.got.tgz:21592.got - 2010.04.16 16:29:54.
