data_PCOD8241859
_publ_section_title
;
Structure prediction by ZEFSAII (Michael W. Deem and Ramdas Pophale) SiO2 
 PCOD8241859
Probable space group: P M M N
;
_chemical_formula_sum "Si O2"
_cell_formula_units_Z 64
_cell_length_a 28.740580
_cell_length_b 9.022678
_cell_length_c 12.678907
_cell_angle_alpha 90.000000
_cell_angle_beta 90.000000
_cell_angle_gamma 90.000000
_cell_volume 3287.856112
_symmetry_space_group_name_H-M "P M M N"
_symmetry_group_IT_number 59
_space_group.IT_coordinate_system_code '2'
_symmetry_cell_setting 'orthorhombic'
loop_
_space_group_symop_operation_xyz
x,y,z
1/2-x,1/2-y,z
1/2+x,-y,-z
-x,1/2+y,-z
-x,-y,-z
1/2+x,1/2+y,-z
1/2-x,y,z
x,1/2-y,z
loop_
_atom_site_type_symbol
_atom_site_label
_atom_site_fract_x
_atom_site_fract_y
_atom_site_fract_z
Si Si1 0.372516 0.576982 0.394091
Si Si2 0.802269 0.422439 0.008415
Si Si3 0.696313 0.420002 0.421098
Si Si4 0.048729 0.074624 0.514926
Si Si5 0.163678 0.424856 0.788388
Si Si6 0.877298 0.075056 0.843262
Si Si7 0.437598 0.424437 0.747685
Si Si8 0.481169 0.572950 0.104998
O O1 0.385477 0.750000 0.399909
O O2 0.329909 0.536712 0.470796
O O3 0.417290 0.482859 0.425005
O O4 0.360731 0.530088 0.274105
O O5 0.750000 0.448007 0.964643
O O6 0.812042 0.250000 0.027361
O O7 0.805890 0.501967 0.120755
O O8 0.839389 0.490600 0.925362
O O9 0.750000 0.447781 0.445416
O O10 0.686341 0.250000 0.389710
O O11 0.680261 0.523041 0.326006
O O12 0.044048 0.250000 0.507422
O O13 0.067147 0.018366 0.628252
O O14 0.000000 0.000000 0.500000
O O15 0.170488 0.250000 0.792952
O O16 0.109750 0.471617 0.807447
O O17 0.877855 0.250000 0.854494
O O18 0.929167 0.014721 0.868980
O O19 0.442171 0.250000 0.745463
O O20 0.483832 0.486666 0.804072
O O21 0.482415 0.750000 0.094292
O O22 0.500000 0.500000 0.000000
#
# Coordination Sequence:
#
# PCOD8241859 Si02
#       8
#     8   8   8   8   8   8   8   8
#     4  10  20  37  59  83 112 149 192 236 287 345
#     4  10  21  37  57  82 111 145 188 239 291 343
#     4  10  21  36  56  84 116 148 187 239 291 340
#     4  11  21  36  56  81 113 149 190 233 283 337
#     4  11  21  36  57  82 112 148 189 234 289 347
#     4   9  19  36  58  81 110 148 186 228 283 343
#     4   9  19  34  53  76 108 145 179 223 277 334
#     4  10  19  34  54  77 106 141 182 225 273 327
#
# _framework density 19.465572000000002
#
# number of rings (size 3 to 8) (size 9 to 14) (size 15 to 20)
#    0.000    2.000    1.250    2.625    0.000    4.500 
#    0.000    6.875    0.000    0.000    0.000    1.750 
#    0.000    0.000    0.000    0.000    0.000    0.000 
#
# Total GULP energy -793554.179270 kJ/mol
# GULP energy per Si atom -12399.284051 kJ/mol
# Density = 1.942127 g / cm^3
# Si number density = 19.465572 Si / 1000 Ang^3
#
#
#
# Elastic Constant Matrix: (Units=GPa)
#
#
# Indices 1 2 3 4 5 6 
#
# 1 141.0517 37.4337 61.8106 0.0000 0.0000 0.0000
# 2 37.4337 49.9328 33.4065 0.0000 0.0000 0.0000
# 3 61.8106 33.4065 136.3514 0.0000 0.0000 0.0000
# 4 0.0000 0.0000 0.0000 23.4176 0.0000 0.0000
# 5 0.0000 0.0000 0.0000 0.0000 37.0589 0.0000
# 6 0.0000 0.0000 0.0000 0.0000 0.0000 24.2932
#
#
#
# Elastic Compliance Matrix: (Units=1/GPa)
#
#
# Indices 1 2 3 4 5 6 
#
# 1 0.009888 -0.005279 -0.003189 0.000000 0.000000 0.000000
# 2 -0.005279 0.026772 -0.004166 0.000000 0.000000 0.000000
# 3 -0.003189 -0.004166 0.009800 0.000000 0.000000 0.000000
# 4 0.000000 0.000000 0.000000 0.042703 0.000000 0.000000
# 5 0.000000 0.000000 0.000000 0.000000 0.026984 0.000000
# 6 0.000000 0.000000 0.000000 0.000000 0.000000 0.041164
#
#
# Mechanical properties :
#
#
# Convention : Reuss Voigt Hill
#
# Bulk Modulus (GPa) = 47.18843 65.84861 56.51852
# Shear Modulus (GPa) = 26.36521 29.93295 28.14908
#
# Velocity S-wave (km/s) = 3.68428 3.92565 3.80688
# Velocity P-wave (km/s) = 6.51101 7.37898 6.95854
#
# Compressibility (1/GPa) = 0.02119164
#
# Stress axis : x y z
#
# Youngs Moduli (GPa) = 101.13096 37.35254 102.03769
#
# Poissons Ratio (x) = 0.19720 0.32540
# Poissons Ratio (y) = 0.53391 0.42508
# Poissons Ratio (z) = 0.32251 0.15561
#
# Static dielectric constant tensor:
#      x y z
#    x 3.789490 0.000000 0.000000 
#    y 0.000000 3.261400 0.000000 
#    z 0.000000 0.000000 3.327260 
# 
# 
# High freq. dielectric constant tensor:
#      x y z
#    x 1.772920 0.000000 0.000000 
#    y 0.000000 1.727630 0.000000 
#    z 0.000000 0.000000 1.764720 
# 
# From -- ./inp_files/14948.got.cif
#   From: 2010.03.12/outbox.cif.g09.slc.cpg/sg59_8_cif.got.tgz:14948.got - 2010.04.16 16:29:54.
