data_PCOD8241420
_publ_section_title
;
Structure prediction by ZEFSAII (Michael W. Deem and Ramdas Pophale) SiO2 
 PCOD8241420
Probable space group: P M M N
;
_chemical_formula_sum "Si O2"
_cell_formula_units_Z 64
_cell_length_a 9.485609
_cell_length_b 18.647984
_cell_length_c 19.908655
_cell_angle_alpha 90.000000
_cell_angle_beta 90.000000
_cell_angle_gamma 90.000000
_cell_volume 3521.591910
_symmetry_space_group_name_H-M "P M M N"
_symmetry_group_IT_number 59
_space_group.IT_coordinate_system_code '2'
_symmetry_cell_setting 'orthorhombic'
loop_
_space_group_symop_operation_xyz
x,y,z
1/2-x,1/2-y,z
1/2+x,-y,-z
-x,1/2+y,-z
-x,-y,-z
1/2+x,1/2+y,-z
1/2-x,y,z
x,1/2-y,z
loop_
_atom_site_type_symbol
_atom_site_label
_atom_site_fract_x
_atom_site_fract_y
_atom_site_fract_z
Si Si1 0.916339 0.940971 0.284750
Si Si2 0.413578 0.425997 0.868318
Si Si3 0.913579 0.571065 0.513216
Si Si4 0.583055 0.670660 0.394475
Si Si5 0.587206 0.831150 0.788164
Si Si6 0.086288 0.587028 0.898222
Si Si7 0.585447 0.333374 0.967323
Si Si8 0.909817 0.925923 0.665059
O O1 0.750000 0.953405 0.288735
O O2 0.965026 0.928369 0.208548
O O3 0.966049 0.873220 0.328849
O O4 0.986023 0.011390 0.314461
O O5 0.250000 0.405192 0.872919
O O6 0.443028 0.502284 0.903760
O O7 0.501554 0.364043 0.904179
O O8 0.750000 0.553903 0.499271
O O9 0.969370 0.631954 0.462393
O O10 0.938953 0.598792 0.588829
O O11 0.000000 0.500000 0.500000
O O12 0.750000 0.676752 0.395315
O O13 0.515209 0.750000 0.391158
O O14 0.750000 0.836265 0.809566
O O15 0.531574 0.750000 0.793765
O O16 0.499192 0.882018 0.836276
O O17 0.564915 0.856869 0.711782
O O18 0.250000 0.602627 0.884340
O O19 0.034882 0.624970 0.966199
O O20 0.750000 0.345859 0.954238
O O21 0.549003 0.250000 0.976482
O O22 0.750000 0.954546 0.672894
#
# Coordination Sequence:
#
# PCOD8241420 Si02
#       8
#     8   8   8   8   8   8   8   8
#     4  10  19  34  56  81 107 138 180 225 266 318
#     4  10  21  35  56  84 108 138 183 229 271 319
#     4  10  19  32  54  79 104 140 181 220 263 316
#     4   9  18  32  52  79 108 140 179 222 267 312
#     4  10  21  35  52  79 113 145 177 217 268 322
#     4  10  20  37  59  82 108 141 182 224 268 323
#     4  10  22  38  55  78 110 146 181 220 271 328
#     4  10  20  33  52  79 108 140 177 220 268 317
#
# _framework density 18.1736
#
# number of rings (size 3 to 8) (size 9 to 14) (size 15 to 20)
#    0.000    2.125    2.500    0.750    0.000    3.500 
#    0.000    3.750    0.000    1.500    0.000    1.750 
#    0.000    0.000    0.000    0.000    0.000    0.000 
#
# Total GULP energy -793732.145677 kJ/mol
# GULP energy per Si atom -12402.064776 kJ/mol
# Density = 1.813224 g / cm^3
# Si number density = 18.173600 Si / 1000 Ang^3
#
#
#
# Elastic Constant Matrix: (Units=GPa)
#
#
# Indices 1 2 3 4 5 6 
#
# 1 34.3047 27.0070 30.3830 0.0000 0.0000 0.0000
# 2 27.0070 98.9989 50.8170 0.0000 0.0000 0.0000
# 3 30.3830 50.8170 127.8084 0.0000 0.0000 0.0000
# 4 0.0000 0.0000 0.0000 31.7958 0.0000 0.0000
# 5 0.0000 0.0000 0.0000 0.0000 19.3544 0.0000
# 6 0.0000 0.0000 0.0000 0.0000 0.0000 26.0628
#
#
#
# Elastic Compliance Matrix: (Units=1/GPa)
#
#
# Indices 1 2 3 4 5 6 
#
# 1 0.041230 -0.007810 -0.006696 0.000000 0.000000 0.000000
# 2 -0.007810 0.014171 -0.003778 0.000000 0.000000 0.000000
# 3 -0.006696 -0.003778 0.010918 0.000000 0.000000 0.000000
# 4 0.000000 0.000000 0.000000 0.031451 0.000000 0.000000
# 5 0.000000 0.000000 0.000000 0.000000 0.051668 0.000000
# 6 0.000000 0.000000 0.000000 0.000000 0.000000 0.038369
#
#
# Mechanical properties :
#
#
# Convention : Reuss Voigt Hill
#
# Bulk Modulus (GPa) = 33.61260 53.05846 43.33553
# Shear Modulus (GPa) = 21.34099 25.63628 23.48864
#
# Velocity S-wave (km/s) = 3.43050 3.75991 3.59898
# Velocity P-wave (km/s) = 5.85035 6.93599 6.41617
#
# Compressibility (1/GPa) = 0.02975074
#
# Stress axis : x y z
#
# Youngs Moduli (GPa) = 24.25433 70.56697 91.59214
#
# Poissons Ratio (x) = 0.55116 0.61328
# Poissons Ratio (y) = 0.18944 0.34600
# Poissons Ratio (z) = 0.16240 0.26658
#
# Static dielectric constant tensor:
#      x y z
#    x 3.189500 0.000000 0.000000 
#    y 0.000000 3.452380 0.000000 
#    z 0.000000 0.000000 3.624260 
# 
# 
# High freq. dielectric constant tensor:
#      x y z
#    x 1.684850 0.000000 0.000000 
#    y 0.000000 1.704080 0.000000 
#    z 0.000000 0.000000 1.718370 
# 
# From -- ./inp_files/29414.got.cif
#   From: 2010.03.12/outbox.cif.g09.slc.cpg/sg59_15_cif.got.tgz:29414.got - 2010.04.16 16:29:54.
