data_PCOD8241504
_publ_section_title
;
Structure prediction by ZEFSAII (Michael W. Deem and Ramdas Pophale) SiO2 
 PCOD8241504
Probable space group: P M M N
;
_chemical_formula_sum "Si O2"
_cell_formula_units_Z 48
_cell_length_a 13.878501
_cell_length_b 16.123492
_cell_length_c 12.220217
_cell_angle_alpha 90.000000
_cell_angle_beta 90.000000
_cell_angle_gamma 90.000000
_cell_volume 2734.516734
_symmetry_space_group_name_H-M "P M M N"
_symmetry_group_IT_number 59
_space_group.IT_coordinate_system_code '2'
_symmetry_cell_setting 'orthorhombic'
loop_
_space_group_symop_operation_xyz
x,y,z
1/2-x,1/2-y,z
1/2+x,-y,-z
-x,1/2+y,-z
-x,-y,-z
1/2+x,1/2+y,-z
1/2-x,y,z
x,1/2-y,z
loop_
_atom_site_type_symbol
_atom_site_label
_atom_site_fract_x
_atom_site_fract_y
_atom_site_fract_z
Si Si1 0.526232 0.566654 0.087745
Si Si2 0.641990 0.456634 0.607695
Si Si3 0.637751 0.345627 0.402018
Si Si4 0.505980 0.938807 0.740368
Si Si5 0.644329 0.156609 0.817926
Si Si6 0.360895 0.152847 0.083504
O O1 0.546321 0.518884 0.202586
O O2 0.434222 0.626710 0.095835
O O3 0.500000 0.500000 0.000000
O O4 0.614900 0.620685 0.040012
O O5 0.750000 0.492428 0.589415
O O6 0.608240 0.404854 0.502312
O O7 0.568658 0.531540 0.635068
O O8 0.640699 0.394801 0.708141
O O9 0.750000 0.354918 0.372619
O O10 0.613158 0.250000 0.430057
O O11 0.575637 0.374777 0.297765
O O12 0.576231 0.894267 0.826202
O O13 0.750000 0.148008 0.873162
O O14 0.621932 0.250000 0.783593
O O15 0.250000 0.132507 0.107850
O O16 0.382265 0.250000 0.090595
#
# Coordination Sequence:
#
# PCOD8241504 Si02
#       6
#     8   8   8   8   8   8
#     4   9  19  31  46  67  92 121 156 195 235 278
#     4   9  17  30  50  75 100 125 155 191 233 281
#     4  10  20  33  49  71 100 131 160 193 236 283
#     4  10  19  33  51  73  96 125 160 198 235 279
#     4   9  16  28  48  72  96 121 151 190 235 283
#     4  10  20  34  51  69  92 124 160 199 241 283
#
# _framework density 17.553377000000001
#
# number of rings (size 3 to 8) (size 9 to 14) (size 15 to 20)
#    0.000    2.500    0.000    2.500    0.000    6.667 
#    0.000    2.500    0.000    9.000    0.000    0.000 
#    0.000    5.333    0.000    0.000    0.000    0.000 
#
# Total GULP energy -594928.904556 kJ/mol
# GULP energy per Si atom -12394.352178 kJ/mol
# Density = 1.751342 g / cm^3
# Si number density = 17.553377 Si / 1000 Ang^3
#
#
#
# Elastic Constant Matrix: (Units=GPa)
#
#
# Indices 1 2 3 4 5 6 
#
# 1 82.9461 48.8235 47.2335 0.0000 0.0000 0.0000
# 2 48.8235 79.9564 26.2192 0.0000 0.0000 0.0000
# 3 47.2335 26.2192 65.4436 0.0000 0.0000 0.0000
# 4 0.0000 0.0000 0.0000 12.5682 0.0000 0.0000
# 5 0.0000 0.0000 0.0000 0.0000 32.2571 0.0000
# 6 0.0000 0.0000 0.0000 0.0000 0.0000 30.7257
#
#
#
# Elastic Compliance Matrix: (Units=1/GPa)
#
#
# Indices 1 2 3 4 5 6 
#
# 1 0.027791 -0.011964 -0.015264 0.000000 0.000000 0.000000
# 2 -0.011964 0.019549 0.000803 0.000000 0.000000 0.000000
# 3 -0.015264 0.000803 0.025976 0.000000 0.000000 0.000000
# 4 0.000000 0.000000 0.000000 0.079566 0.000000 0.000000
# 5 0.000000 0.000000 0.000000 0.000000 0.031001 0.000000
# 6 0.000000 0.000000 0.000000 0.000000 0.000000 0.032546
#
#
# Mechanical properties :
#
#
# Convention : Reuss Voigt Hill
#
# Bulk Modulus (GPa) = 48.86600 52.54426 50.70513
# Shear Modulus (GPa) = 18.10932 22.18153 20.14543
#
# Velocity S-wave (km/s) = 3.21545 3.55866 3.39140
# Velocity P-wave (km/s) = 6.45635 6.84722 6.65465
#
# Compressibility (1/GPa) = 0.02046413
#
# Stress axis : x y z
#
# Youngs Moduli (GPa) = 35.98334 51.15303 38.49764
#
# Poissons Ratio (x) = 0.61201 0.58764
# Poissons Ratio (y) = 0.43051 -0.03091
# Poissons Ratio (z) = 0.54926 -0.04107
#
# Static dielectric constant tensor:
#      x y z
#    x 3.461320 0.000000 0.000000 
#    y 0.000000 3.578400 0.000000 
#    z 0.000000 0.000000 3.308430 
# 
# 
# High freq. dielectric constant tensor:
#      x y z
#    x 1.672830 0.000000 0.000000 
#    y 0.000000 1.686300 0.000000 
#    z 0.000000 0.000000 1.666010 
# 
# From -- ./inp_files/15747.got.cif
#   From: 2010.03.12/outbox.cif.g09.slc.cpg/sg59_8_cif.got.tgz:15747.got - 2010.04.16 16:29:54.
