data_PCOD8241602
_publ_section_title
;
Structure prediction by ZEFSAII (Michael W. Deem and Ramdas Pophale) SiO2 
 PCOD8241602
Probable space group: P M M N
;
_chemical_formula_sum "Si O2"
_cell_formula_units_Z 64
_cell_length_a 18.068491
_cell_length_b 8.940934
_cell_length_c 20.781106
_cell_angle_alpha 90.000000
_cell_angle_beta 90.000000
_cell_angle_gamma 90.000000
_cell_volume 3357.170748
_symmetry_space_group_name_H-M "P M M N"
_symmetry_group_IT_number 59
_space_group.IT_coordinate_system_code '2'
_symmetry_cell_setting 'orthorhombic'
loop_
_space_group_symop_operation_xyz
x,y,z
1/2-x,1/2-y,z
1/2+x,-y,-z
-x,1/2+y,-z
-x,-y,-z
1/2+x,1/2+y,-z
1/2-x,y,z
x,1/2-y,z
loop_
_atom_site_type_symbol
_atom_site_label
_atom_site_fract_x
_atom_site_fract_y
_atom_site_fract_z
Si Si1 0.416254 0.427352 0.751033
Si Si2 0.579997 0.572386 0.500596
Si Si3 0.332915 0.072319 0.624412
Si Si4 0.164573 0.926063 0.869479
Si Si5 0.837959 0.918446 0.001358
Si Si6 0.414936 0.573066 0.253590
Si Si7 0.336204 0.575233 0.126600
Si Si8 0.662909 0.075640 0.617345
O O1 0.409664 0.250000 0.759022
O O2 0.371937 0.486313 0.689006
O O3 0.383587 0.503877 0.813499
O O4 0.500532 0.479548 0.742038
O O5 0.500000 0.500000 0.500000
O O6 0.571941 0.750000 0.501133
O O7 0.622082 0.514321 0.437078
O O8 0.626909 0.520855 0.561384
O O9 0.250000 0.006265 0.621683
O O10 0.330872 0.250000 0.624465
O O11 0.250000 0.971680 0.858790
O O12 0.154163 0.750000 0.870406
O O13 0.133933 0.990284 0.936779
O O14 0.750000 0.923110 0.999213
O O15 0.868205 0.750000 0.006083
O O16 0.868799 0.993472 0.936332
O O17 0.408241 0.750000 0.251550
O O18 0.378305 0.508475 0.188647
O O19 0.370725 0.514663 0.315787
O O20 0.250000 0.541666 0.136595
O O21 0.351232 0.750000 0.117289
O O22 0.750000 0.047375 0.618156
O O23 0.643708 0.250000 0.606791
#
# Coordination Sequence:
#
# PCOD8241602 Si02
#       8
#     8   8   8   8   8   8   8   8
#     4  10  19  33  54  76 100 133 174 216 257 307
#     4  11  22  37  57  81 112 147 183 224 272 325
#     4   9  18  33  54  78 103 135 175 217 262 314
#     4  10  20  34  52  75 103 133 167 211 263 317
#     4   9  17  30  50  76 103 131 168 214 260 308
#     4   9  18  33  53  78 108 142 178 215 260 316
#     4   9  16  29  51  76 102 135 174 214 257 306
#     4  10  20  36  59  85 112 144 184 226 267 317
#
# _framework density 19.063673000000001
#
# number of rings (size 3 to 8) (size 9 to 14) (size 15 to 20)
#    0.000    2.375    0.000    3.000    0.000    7.000 
#    0.000    5.000    0.000    4.500    0.000    0.000 
#    0.000    0.000    0.000    0.000    0.000    0.000 
#
# Total GULP energy -793704.060625 kJ/mol
# GULP energy per Si atom -12401.625947 kJ/mol
# Density = 1.902028 g / cm^3
# Si number density = 19.063673 Si / 1000 Ang^3
#
#
#
# Elastic Constant Matrix: (Units=GPa)
#
#
# Indices 1 2 3 4 5 6 
#
# 1 118.8050 39.4887 80.4628 0.0000 0.0000 0.0000
# 2 39.4887 55.0415 46.3797 0.0000 0.0000 0.0000
# 3 80.4628 46.3797 193.2273 0.0000 0.0000 0.0000
# 4 0.0000 0.0000 0.0000 30.4163 0.0000 0.0000
# 5 0.0000 0.0000 0.0000 0.0000 9.2914 0.0000
# 6 0.0000 0.0000 0.0000 0.0000 0.0000 20.9329
#
#
#
# Elastic Compliance Matrix: (Units=1/GPa)
#
#
# Indices 1 2 3 4 5 6 
#
# 1 0.013153 -0.006044 -0.004026 0.000000 0.000000 0.000000
# 2 -0.006044 0.025551 -0.003616 0.000000 0.000000 0.000000
# 3 -0.004026 -0.003616 0.007720 0.000000 0.000000 0.000000
# 4 0.000000 0.000000 0.000000 0.032877 0.000000 0.000000
# 5 0.000000 0.000000 0.000000 0.000000 0.107626 0.000000
# 6 0.000000 0.000000 0.000000 0.000000 0.000000 0.047772
#
#
# Mechanical properties :
#
#
# Convention : Reuss Voigt Hill
#
# Bulk Modulus (GPa) = 52.48969 77.74846 65.11907
# Shear Modulus (GPa) = 18.62738 25.51096 22.06917
#
# Velocity S-wave (km/s) = 3.12927 3.66211 3.40613
# Velocity P-wave (km/s) = 6.37574 7.66508 7.04995
#
# Compressibility (1/GPa) = 0.01905136
#
# Stress axis : x y z
#
# Youngs Moduli (GPa) = 76.02874 39.13712 129.53448
#
# Poissons Ratio (x) = 0.23653 0.52157
# Poissons Ratio (y) = 0.45948 0.46844
# Poissons Ratio (z) = 0.30613 0.14153
#
# Static dielectric constant tensor:
#      x y z
#    x 3.568630 0.000000 0.000000 
#    y 0.000000 3.292470 0.000000 
#    z 0.000000 0.000000 3.805390 
# 
# 
# High freq. dielectric constant tensor:
#      x y z
#    x 1.734790 0.000000 0.000000 
#    y 0.000000 1.713230 0.000000 
#    z 0.000000 0.000000 1.762240 
# 
# From -- ./inp_files/28297.got.cif
#   From: 2010.03.12/outbox.cif.g09.slc.cpg/sg59_15_cif.got.tgz:28297.got - 2010.04.16 16:29:54.
