data_PCOD8241136
_publ_section_title
;
Structure prediction by ZEFSAII (Michael W. Deem and Ramdas Pophale) SiO2 
 PCOD8241136
Probable space group: P M M N
;
_chemical_formula_sum "Si O2"
_cell_formula_units_Z 64
_cell_length_a 9.263309
_cell_length_b 23.197065
_cell_length_c 15.382055
_cell_angle_alpha 90.000000
_cell_angle_beta 90.000000
_cell_angle_gamma 90.000000
_cell_volume 3305.320297
_symmetry_space_group_name_H-M "P M M N"
_symmetry_group_IT_number 59
_space_group.IT_coordinate_system_code '2'
_symmetry_cell_setting 'orthorhombic'
loop_
_space_group_symop_operation_xyz
x,y,z
1/2-x,1/2-y,z
1/2+x,-y,-z
-x,1/2+y,-z
-x,-y,-z
1/2+x,1/2+y,-z
1/2-x,y,z
x,1/2-y,z
loop_
_atom_site_type_symbol
_atom_site_label
_atom_site_fract_x
_atom_site_fract_y
_atom_site_fract_z
Si Si1 0.584442 0.005050 0.303757
Si Si2 0.912475 0.513726 0.862821
Si Si3 0.578293 0.624093 0.295167
Si Si4 0.918418 0.382259 0.881735
Si Si5 0.916230 0.316780 0.554374
Si Si6 0.582679 0.120968 0.381648
Si Si7 0.581281 0.683434 0.772012
Si Si8 0.416436 0.128545 0.047530
O O1 0.750000 0.000888 0.278072
O O2 0.508928 0.030352 0.218954
O O3 0.558015 0.051278 0.381161
O O4 0.531394 0.940394 0.327015
O O5 0.750000 0.518212 0.828028
O O6 0.945091 0.450016 0.897196
O O7 0.939218 0.559954 0.938713
O O8 0.750000 0.631486 0.287055
O O9 0.504293 0.638603 0.203250
O O10 0.516767 0.669148 0.364076
O O11 0.750000 0.366303 0.872206
O O12 0.986000 0.351038 0.966202
O O13 0.750000 0.331715 0.576738
O O14 0.934155 0.250000 0.530228
O O15 0.973316 0.354255 0.473042
O O16 0.750000 0.136680 0.369778
O O17 0.499105 0.149252 0.302697
O O18 0.750000 0.671199 0.760895
O O19 0.542024 0.750000 0.762455
O O20 0.530621 0.662409 0.867028
O O21 0.250000 0.142948 0.026243
#
# Coordination Sequence:
#
# PCOD8241136 Si02
#       8
#     8   8   8   8   8   8   8   8
#     4   9  18  32  53  83 116 146 179 221 273 331
#     4   9  17  30  49  76 109 145 182 220 268 325
#     4  10  21  38  58  82 113 146 183 230 280 331
#     4  10  20  33  53  80 108 141 184 229 275 327
#     4  10  22  40  60  82 109 143 185 231 277 328
#     4  10  20  36  59  85 113 145 181 223 275 332
#     4  10  21  36  54  78 111 149 187 228 272 323
#     4  10  19  32  50  75 109 146 184 226 273 323
#
# _framework density 19.362721000000001
#
# number of rings (size 3 to 8) (size 9 to 14) (size 15 to 20)
#    0.000    2.250    1.250    1.500    0.000    4.000 
#    0.000    0.625    0.000    2.250    0.000    0.000 
#    0.000    0.000    0.000    0.000    0.000    0.000 
#
# Total GULP energy -793529.302451 kJ/mol
# GULP energy per Si atom -12398.895351 kJ/mol
# Density = 1.931865 g / cm^3
# Si number density = 19.362721 Si / 1000 Ang^3
#
#
#
# Elastic Constant Matrix: (Units=GPa)
#
#
# Indices 1 2 3 4 5 6 
#
# 1 65.5338 17.5723 45.9206 0.0000 0.0000 0.0000
# 2 17.5723 35.5411 23.3886 0.0000 0.0000 0.0000
# 3 45.9206 23.3886 106.2477 0.0000 0.0000 0.0000
# 4 0.0000 0.0000 0.0000 21.1181 0.0000 0.0000
# 5 0.0000 0.0000 0.0000 0.0000 35.5832 0.0000
# 6 0.0000 0.0000 0.0000 0.0000 0.0000 20.1041
#
#
#
# Elastic Compliance Matrix: (Units=1/GPa)
#
#
# Indices 1 2 3 4 5 6 
#
# 1 0.022803 -0.005600 -0.008623 0.000000 0.000000 0.000000
# 2 -0.005600 0.034278 -0.005125 0.000000 0.000000 0.000000
# 3 -0.008623 -0.005125 0.014267 0.000000 0.000000 0.000000
# 4 0.000000 0.000000 0.000000 0.047353 0.000000 0.000000
# 5 0.000000 0.000000 0.000000 0.000000 0.028103 0.000000
# 6 0.000000 0.000000 0.000000 0.000000 0.000000 0.049741
#
#
# Mechanical properties :
#
#
# Convention : Reuss Voigt Hill
#
# Bulk Modulus (GPa) = 30.62615 42.34285 36.48450
# Shear Modulus (GPa) = 20.31485 23.39048 21.85267
#
# Velocity S-wave (km/s) = 3.24261 3.47942 3.36310
# Velocity P-wave (km/s) = 5.46541 6.16908 5.82788
#
# Compressibility (1/GPa) = 0.03265183
#
# Stress axis : x y z
#
# Youngs Moduli (GPa) = 43.85392 29.17318 70.09165
#
# Poissons Ratio (x) = 0.16337 0.60439
# Poissons Ratio (y) = 0.24558 0.35925
# Poissons Ratio (z) = 0.37814 0.14953
#
# Static dielectric constant tensor:
#      x y z
#    x 3.565290 0.000000 0.000000 
#    y 0.000000 3.584800 0.000000 
#    z 0.000000 0.000000 3.413260 
# 
# 
# High freq. dielectric constant tensor:
#      x y z
#    x 1.751080 0.000000 0.000000 
#    y 0.000000 1.745330 0.000000 
#    z 0.000000 0.000000 1.746830 
# 
# From -- ./inp_files/21435.got.cif
#   From: 2010.03.12/outbox.cif.g09.slc.cpg/sg59_11_cif.got.tgz:21435.got - 2010.04.16 16:29:54.
