data_PCOD8241717
_publ_section_title
;
Structure prediction by ZEFSAII (Michael W. Deem and Ramdas Pophale) SiO2 
 PCOD8241717
Probable space group: P M M N
;
_chemical_formula_sum "Si O2"
_cell_formula_units_Z 64
_cell_length_a 19.091878
_cell_length_b 17.785904
_cell_length_c 9.412258
_cell_angle_alpha 90.000000
_cell_angle_beta 90.000000
_cell_angle_gamma 90.000000
_cell_volume 3196.085711
_symmetry_space_group_name_H-M "P M M N"
_symmetry_group_IT_number 59
_space_group.IT_coordinate_system_code '2'
_symmetry_cell_setting 'orthorhombic'
loop_
_space_group_symop_operation_xyz
x,y,z
1/2-x,1/2-y,z
1/2+x,-y,-z
-x,1/2+y,-z
-x,-y,-z
1/2+x,1/2+y,-z
1/2-x,y,z
x,1/2-y,z
loop_
_atom_site_type_symbol
_atom_site_label
_atom_site_fract_x
_atom_site_fract_y
_atom_site_fract_z
Si Si1 0.330927 0.464637 0.211709
Si Si2 0.458833 0.336404 0.925814
Si Si3 0.168449 0.577922 0.749833
Si Si4 0.933257 0.835803 0.750751
Si Si5 0.580303 0.390740 0.750618
Si Si6 0.064482 0.662823 0.561434
Si Si7 0.327277 0.665664 0.016176
Si Si8 0.172267 0.427213 0.890354
O O1 0.250000 0.471468 0.265216
O O2 0.363694 0.386323 0.267496
O O3 0.381397 0.529646 0.273320
O O4 0.334230 0.469806 0.041393
O O5 0.473877 0.250000 0.881752
O O6 0.510298 0.394877 0.846990
O O7 0.380295 0.357605 0.877923
O O8 0.467808 0.347064 0.094370
O O9 0.250000 0.598659 0.728783
O O10 0.126307 0.608970 0.615947
O O11 0.157871 0.488391 0.766781
O O12 0.137384 0.617325 0.891379
O O13 0.908724 0.750000 0.729586
O O14 0.991203 0.859166 0.635042
O O15 0.557843 0.352290 0.604806
O O16 0.632406 0.336434 0.835626
O O17 0.082646 0.750000 0.591228
O O18 0.250000 0.633316 0.046917
O O19 0.325133 0.750000 0.959165
O O20 0.250000 0.393147 0.874165
#
# Coordination Sequence:
#
# PCOD8241717 Si02
#       8
#     8   8   8   8   8   8   8   8
#     4  10  21  38  62  91 118 149 194 245 294 347
#     4  10  21  37  61  89 115 151 195 237 287 351
#     4  10  20  36  57  82 115 152 195 240 288 345
#     4   9  21  40  62  88 117 153 196 242 290 344
#     4  12  23  36  58  83 122 154 190 237 291 341
#     4  11  24  39  56  82 120 158 196 241 289 342
#     4  10  19  33  55  80 109 150 194 234 282 341
#     4   9  19  37  61  88 116 147 189 246 296 341
#
# _framework density 20.024495000000002
#
# number of rings (size 3 to 8) (size 9 to 14) (size 15 to 20)
#    0.000    1.875    1.250    2.625    1.750    4.750 
#    0.000    2.500    0.000    0.000    0.000    1.750 
#    0.000    0.000    0.000    0.000    0.000    0.000 
#
# Total GULP energy -793551.965495 kJ/mol
# GULP energy per Si atom -12399.249461 kJ/mol
# Density = 1.997892 g / cm^3
# Si number density = 20.024495 Si / 1000 Ang^3
#
#
#
# Elastic Constant Matrix: (Units=GPa)
#
#
# Indices 1 2 3 4 5 6 
#
# 1 116.3905 44.8176 35.2366 0.0000 0.0000 0.0000
# 2 44.8176 73.2644 17.2343 0.0000 0.0000 0.0000
# 3 35.2366 17.2343 75.4005 0.0000 0.0000 0.0000
# 4 0.0000 0.0000 0.0000 21.4188 0.0000 0.0000
# 5 0.0000 0.0000 0.0000 0.0000 9.8199 0.0000
# 6 0.0000 0.0000 0.0000 0.0000 0.0000 35.3965
#
#
#
# Elastic Compliance Matrix: (Units=1/GPa)
#
#
# Indices 1 2 3 4 5 6 
#
# 1 0.012434 -0.006594 -0.004303 0.000000 0.000000 0.000000
# 2 -0.006594 0.017921 -0.001015 0.000000 0.000000 0.000000
# 3 -0.004303 -0.001015 0.015506 0.000000 0.000000 0.000000
# 4 0.000000 0.000000 0.000000 0.046688 0.000000 0.000000
# 5 0.000000 0.000000 0.000000 0.000000 0.101834 0.000000
# 6 0.000000 0.000000 0.000000 0.000000 0.000000 0.028251
#
#
# Mechanical properties :
#
#
# Convention : Reuss Voigt Hill
#
# Bulk Modulus (GPa) = 45.37897 51.07028 48.22462
# Shear Modulus (GPa) = 19.70026 24.51149 22.10587
#
# Velocity S-wave (km/s) = 3.13997 3.50247 3.32617
# Velocity P-wave (km/s) = 5.98806 6.47423 6.23589
#
# Compressibility (1/GPa) = 0.02203664
#
# Stress axis : x y z
#
# Youngs Moduli (GPa) = 80.42760 55.79920 64.49280
#
# Poissons Ratio (x) = 0.36792 0.27754
# Poissons Ratio (y) = 0.53031 0.06546
# Poissons Ratio (z) = 0.34611 0.05663
#
# Static dielectric constant tensor:
#      x y z
#    x 3.711620 0.000000 0.000000 
#    y 0.000000 3.547120 0.000000 
#    z 0.000000 0.000000 3.379940 
# 
# 
# High freq. dielectric constant tensor:
#      x y z
#    x 1.785060 0.000000 0.000000 
#    y 0.000000 1.779030 0.000000 
#    z 0.000000 0.000000 1.755810 
# 
# From -- ./inp_files/11642.got.cif
#   From: 2010.03.12/outbox.cif.g09.slc.cpg/sg59_6_cif.got.tgz:11642.got - 2010.04.16 16:29:54.
