data_PCOD8241902
_publ_section_title
;
Structure prediction by ZEFSAII (Michael W. Deem and Ramdas Pophale) SiO2 
 PCOD8241902
Probable space group: P M M N
;
_chemical_formula_sum "Si O2"
_cell_formula_units_Z 56
_cell_length_a 22.959461
_cell_length_b 11.417544
_cell_length_c 11.948210
_cell_angle_alpha 90.000000
_cell_angle_beta 90.000000
_cell_angle_gamma 90.000000
_cell_volume 3132.111610
_symmetry_space_group_name_H-M "P M M N"
_symmetry_group_IT_number 59
_space_group.IT_coordinate_system_code '2'
_symmetry_cell_setting 'orthorhombic'
loop_
_space_group_symop_operation_xyz
x,y,z
1/2-x,1/2-y,z
1/2+x,-y,-z
-x,1/2+y,-z
-x,-y,-z
1/2+x,1/2+y,-z
1/2-x,y,z
x,1/2-y,z
loop_
_atom_site_type_symbol
_atom_site_label
_atom_site_fract_x
_atom_site_fract_y
_atom_site_fract_z
Si Si1 0.316118 0.888448 0.536664
Si Si2 0.998531 0.611381 0.414383
Si Si3 0.875790 0.558808 0.321000
Si Si4 0.377851 0.883793 0.318379
Si Si5 0.681678 0.971684 0.854075
Si Si6 0.816296 0.613724 0.095856
Si Si7 0.317929 0.250000 0.531492
Si Si8 0.319028 0.250000 0.283575
O O1 0.250000 0.933104 0.552406
O O2 0.319318 0.750000 0.537651
O O3 0.341122 0.942677 0.420276
O O4 0.358564 0.928665 0.638313
O O5 0.998310 0.750000 0.461785
O O6 0.942641 0.593747 0.336308
O O7 0.000000 0.500000 0.500000
O O8 0.053698 0.593953 0.334283
O O9 0.860720 0.574601 0.191351
O O10 0.835496 0.636994 0.399769
O O11 0.361906 0.750000 0.324303
O O12 0.356436 0.923662 0.196326
O O13 0.750000 0.994333 0.835445
O O14 0.658621 0.860986 0.784786
O O15 0.667677 0.958644 0.984969
O O16 0.750000 0.587378 0.133745
O O17 0.823390 0.750000 0.067685
O O18 0.250000 0.250000 0.514698
O O19 0.347170 0.250000 0.407950
O O20 0.250000 0.250000 0.287371
#
# Coordination Sequence:
#
# PCOD8241902 Si02
#       8
#     8   8   8   8   8   8   4   4
#     4  10  20  34  54  82 116 150 183 229 294 358
#     4  11  23  40  59  83 117 158 201 243 294 355
#     4  12  21  35  57  84 113 152 191 232 287 354
#     4  10  21  37  56  78 109 152 194 241 287 338
#     4  10  19  34  55  80 110 147 187 234 289 345
#     4  10  19  34  55  82 117 150 181 228 295 356
#     4  11  20  29  51  89 119 136 170 230 291 349
#     4   9  18  29  47  79 115 140 171 226 289 341
#
# _framework density 17.879311999999999
#
# number of rings (size 3 to 8) (size 9 to 14) (size 15 to 20)
#    0.000    1.571    3.571    2.571    0.000    2.000 
#    0.000    1.429    0.000    0.857    0.000    0.000 
#    0.000    0.000    0.000    0.000    0.000    0.000 
#
# Total GULP energy -694028.933775 kJ/mol
# GULP energy per Si atom -12393.373817 kJ/mol
# Density = 1.783862 g / cm^3
# Si number density = 17.879312 Si / 1000 Ang^3
#
#
#
# Elastic Constant Matrix: (Units=GPa)
#
#
# Indices 1 2 3 4 5 6 
#
# 1 96.4654 42.9554 54.3512 0.0000 0.0000 0.0000
# 2 42.9554 53.6923 41.7348 0.0000 0.0000 0.0000
# 3 54.3512 41.7348 123.0864 0.0000 0.0000 0.0000
# 4 0.0000 0.0000 0.0000 22.6191 0.0000 0.0000
# 5 0.0000 0.0000 0.0000 0.0000 25.2405 0.0000
# 6 0.0000 0.0000 0.0000 0.0000 0.0000 25.0471
#
#
#
# Elastic Compliance Matrix: (Units=1/GPa)
#
#
# Indices 1 2 3 4 5 6 
#
# 1 0.017467 -0.010834 -0.004039 0.000000 0.000000 0.000000
# 2 -0.010834 0.032010 -0.006070 0.000000 0.000000 0.000000
# 3 -0.004039 -0.006070 0.011966 0.000000 0.000000 0.000000
# 4 0.000000 0.000000 0.000000 0.044210 0.000000 0.000000
# 5 0.000000 0.000000 0.000000 0.000000 0.039619 0.000000
# 6 0.000000 0.000000 0.000000 0.000000 0.000000 0.039925
#
#
# Mechanical properties :
#
#
# Convention : Reuss Voigt Hill
#
# Bulk Modulus (GPa) = 51.13305 61.25855 56.19580
# Shear Modulus (GPa) = 21.40397 23.52820 22.46608
#
# Velocity S-wave (km/s) = 3.46372 3.63153 3.54862
# Velocity P-wave (km/s) = 6.68263 7.20560 6.94904
#
# Compressibility (1/GPa) = 0.01955682
#
# Stress axis : x y z
#
# Youngs Moduli (GPa) = 57.25230 31.24005 83.57017
#
# Poissons Ratio (x) = 0.33846 0.33756
# Poissons Ratio (y) = 0.62028 0.50724
# Poissons Ratio (z) = 0.23125 0.18962
#
# Static dielectric constant tensor:
#      x y z
#    x 3.285570 0.000000 0.000000 
#    y 0.000000 3.621310 0.000000 
#    z 0.000000 0.000000 3.227270 
# 
# 
# High freq. dielectric constant tensor:
#      x y z
#    x 1.682360 0.000000 0.000000 
#    y 0.000000 1.695860 0.000000 
#    z 0.000000 0.000000 1.677290 
# 
# From -- ./inp_files/18727.got.cif
#   From: 2010.03.12/outbox.cif.g09.slc.cpg/sg59_10_cif.got.tgz:18727.got - 2010.04.16 16:29:54.
