data_PCOD8241608
_publ_section_title
;
Structure prediction by ZEFSAII (Michael W. Deem and Ramdas Pophale) SiO2 
 PCOD8241608
Probable space group: P M M N
;
_chemical_formula_sum "Si O2"
_cell_formula_units_Z 56
_cell_length_a 13.147622
_cell_length_b 28.379714
_cell_length_c 7.413378
_cell_angle_alpha 90.000000
_cell_angle_beta 90.000000
_cell_angle_gamma 90.000000
_cell_volume 2766.122242
_symmetry_space_group_name_H-M "P M M N"
_symmetry_group_IT_number 59
_space_group.IT_coordinate_system_code '2'
_symmetry_cell_setting 'orthorhombic'
loop_
_space_group_symop_operation_xyz
x,y,z
1/2-x,1/2-y,z
1/2+x,-y,-z
-x,1/2+y,-z
-x,-y,-z
1/2+x,1/2+y,-z
1/2-x,y,z
x,1/2-y,z
loop_
_atom_site_type_symbol
_atom_site_label
_atom_site_fract_x
_atom_site_fract_y
_atom_site_fract_z
Si Si1 0.484708 0.947498 0.816082
Si Si2 0.864964 0.099354 0.507755
Si Si3 0.631426 0.802567 0.582614
Si Si4 0.634771 0.869766 0.896731
Si Si5 0.636913 0.197030 0.670740
Si Si6 0.868212 0.031213 0.832382
Si Si7 0.065248 0.302514 0.812238
O O1 0.440153 0.923557 0.637574
O O2 0.563016 0.914040 0.921553
O O3 0.552402 0.992347 0.757430
O O4 0.395223 0.958677 0.958106
O O5 0.750000 0.088442 0.444729
O O6 0.881917 0.155898 0.522231
O O7 0.884234 0.076869 0.705888
O O8 0.750000 0.808402 0.546916
O O9 0.605546 0.750000 0.650588
O O10 0.592621 0.838636 0.732389
O O11 0.575226 0.814520 0.398471
O O12 0.750000 0.886616 0.865122
O O13 0.631516 0.838750 0.076508
O O14 0.750000 0.190882 0.752794
O O15 0.624552 0.250000 0.583548
O O16 0.557182 0.192630 0.838398
O O17 0.750000 0.014353 0.824151
O O18 0.105442 0.250000 0.856697
#
# Coordination Sequence:
#
# PCOD8241608 Si02
#       7
#     8   8   8   8   8   8   8
#     4  11  22  37  58  84 114 146 186 232 284 342
#     4  10  20  37  62  86 112 150 191 231 281 340
#     4   9  18  32  50  74 105 141 182 226 271 326
#     4  11  22  34  51  78 110 142 180 229 282 335
#     4   9  18  33  55  84 115 147 186 232 278 325
#     4  10  22  40  61  85 113 147 188 236 284 332
#     4  10  19  33  54  76 105 149 192 228 274 333
#
# _framework density 20.244948000000001
#
# number of rings (size 3 to 8) (size 9 to 14) (size 15 to 20)
#    0.000    2.000    0.000    3.857    0.000    1.429 
#    0.000    1.429    0.000    8.571    0.000    8.000 
#    0.000    0.000    0.000    0.000    0.000    0.000 
#
# Total GULP energy -694142.386182 kJ/mol
# GULP energy per Si atom -12395.399753 kJ/mol
# Density = 2.019887 g / cm^3
# Si number density = 20.244948 Si / 1000 Ang^3
#
#
#
# Elastic Constant Matrix: (Units=GPa)
#
#
# Indices 1 2 3 4 5 6 
#
# 1 77.7995 31.4973 31.8410 0.0000 0.0000 0.0000
# 2 31.4973 102.3386 34.5140 0.0000 0.0000 0.0000
# 3 31.8410 34.5140 51.8292 0.0000 0.0000 0.0000
# 4 0.0000 0.0000 0.0000 27.6989 0.0000 0.0000
# 5 0.0000 0.0000 0.0000 0.0000 26.4820 0.0000
# 6 0.0000 0.0000 0.0000 0.0000 0.0000 12.6483
#
#
#
# Elastic Compliance Matrix: (Units=1/GPa)
#
#
# Indices 1 2 3 4 5 6 
#
# 1 0.017574 -0.002280 -0.009278 0.000000 0.000000 0.000000
# 2 -0.002280 0.012897 -0.007188 0.000000 0.000000 0.000000
# 3 -0.009278 -0.007188 0.029781 0.000000 0.000000 0.000000
# 4 0.000000 0.000000 0.000000 0.036103 0.000000 0.000000
# 5 0.000000 0.000000 0.000000 0.000000 0.037761 0.000000
# 6 0.000000 0.000000 0.000000 0.000000 0.000000 0.079062
#
#
# Mechanical properties :
#
#
# Convention : Reuss Voigt Hill
#
# Bulk Modulus (GPa) = 43.93683 47.51910 45.72797
# Shear Modulus (GPa) = 19.36059 22.30685 20.83372
#
# Velocity S-wave (km/s) = 3.09579 3.32301 3.21141
# Velocity P-wave (km/s) = 5.87608 6.18435 6.03219
#
# Compressibility (1/GPa) = 0.02275995
#
# Stress axis : x y z
#
# Youngs Moduli (GPa) = 56.90291 77.53561 33.57860
#
# Poissons Ratio (x) = 0.17675 0.31155
# Poissons Ratio (y) = 0.12972 0.24136
# Poissons Ratio (z) = 0.52796 0.55733
#
# Static dielectric constant tensor:
#      x y z
#    x 3.895750 0.000000 0.000000 
#    y 0.000000 3.809530 0.000000 
#    z 0.000000 0.000000 3.307900 
# 
# 
# High freq. dielectric constant tensor:
#      x y z
#    x 1.808760 0.000000 0.000000 
#    y 0.000000 1.796030 0.000000 
#    z 0.000000 0.000000 1.758300 
# 
# From -- ./inp_files/2309.got.cif
#   From: 2010.03.12/outbox.cif.g09.slc.cpg/sg59_2_cif.got.tgz:2309.got - 2010.04.16 16:29:54.
