data_PCOD8241560
_publ_section_title
;
Structure prediction by ZEFSAII (Michael W. Deem and Ramdas Pophale) SiO2 
 PCOD8241560
Probable space group: P M M N
;
_chemical_formula_sum "Si O2"
_cell_formula_units_Z 56
_cell_length_a 9.027653
_cell_length_b 19.622384
_cell_length_c 17.430589
_cell_angle_alpha 90.000000
_cell_angle_beta 90.000000
_cell_angle_gamma 90.000000
_cell_volume 3087.725544
_symmetry_space_group_name_H-M "P M M N"
_symmetry_group_IT_number 59
_space_group.IT_coordinate_system_code '2'
_symmetry_cell_setting 'orthorhombic'
loop_
_space_group_symop_operation_xyz
x,y,z
1/2-x,1/2-y,z
1/2+x,-y,-z
-x,1/2+y,-z
-x,-y,-z
1/2+x,1/2+y,-z
1/2-x,y,z
x,1/2-y,z
loop_
_atom_site_type_symbol
_atom_site_label
_atom_site_fract_x
_atom_site_fract_y
_atom_site_fract_z
Si Si1 0.078834 0.947437 0.100693
Si Si2 0.926038 0.441781 0.726749
Si Si3 0.926002 0.325310 0.616541
Si Si4 0.080928 0.829448 0.825883
Si Si5 0.574495 0.592117 0.689557
Si Si6 0.921646 0.171171 0.442618
Si Si7 0.420733 0.099089 0.044122
O O1 0.250000 0.927432 0.090149
O O2 0.019772 0.931310 0.185960
O O3 0.055081 0.027255 0.086063
O O4 0.983038 0.902706 0.042155
O O5 0.750000 0.439822 0.725223
O O6 0.993775 0.381328 0.674405
O O7 0.980589 0.514002 0.693495
O O8 0.750000 0.324528 0.621775
O O9 0.986658 0.250000 0.638641
O O10 0.971839 0.343514 0.529723
O O11 0.250000 0.854937 0.825744
O O12 0.071231 0.750000 0.808567
O O13 0.991867 0.867450 0.760342
O O14 0.009605 0.844335 0.908561
O O15 0.750000 0.597308 0.695698
O O16 0.521544 0.623355 0.609737
O O17 0.750000 0.152675 0.429737
O O18 0.949023 0.250000 0.421457
O O19 0.250000 0.120086 0.040811
#
# Coordination Sequence:
#
# PCOD8241560 Si02
#       7
#     8   8   8   8   8   8   8
#     4   9  17  32  52  75 105 137 169 211 257 305
#     4   9  17  31  50  75 106 135 171 220 262 302
#     4   8  15  30  53  76  99 133 173 212 259 312
#     4  11  23  37  53  75 105 140 178 221 264 310
#     4  11  21  33  50  76 106 138 174 213 263 316
#     4   9  18  33  51  73 102 136 175 215 256 307
#     4  10  19  33  53  77 103 137 175 210 257 311
#
# _framework density 18.136326
#
# number of rings (size 3 to 8) (size 9 to 14) (size 15 to 20)
#    0.000    2.429    1.429    2.571    0.000    4.286 
#    0.000    0.714    0.000    4.286    0.000    0.000 
#    0.000    0.000    0.000    0.000    0.000    0.000 
#
# Total GULP energy -694417.711162 kJ/mol
# GULP energy per Si atom -12400.316271 kJ/mol
# Density = 1.809505 g / cm^3
# Si number density = 18.136326 Si / 1000 Ang^3
#
#
#
# Elastic Constant Matrix: (Units=GPa)
#
#
# Indices 1 2 3 4 5 6 
#
# 1 70.6443 42.3773 46.4363 0.0000 0.0000 0.0000
# 2 42.3773 103.2297 80.2172 0.0000 0.0000 0.0000
# 3 46.4363 80.2172 149.7561 0.0000 0.0000 0.0000
# 4 0.0000 0.0000 0.0000 24.0646 0.0000 0.0000
# 5 0.0000 0.0000 0.0000 0.0000 25.2490 0.0000
# 6 0.0000 0.0000 0.0000 0.0000 0.0000 20.2283
#
#
#
# Elastic Compliance Matrix: (Units=1/GPa)
#
#
# Indices 1 2 3 4 5 6 
#
# 1 0.019546 -0.005677 -0.003020 0.000000 0.000000 0.000000
# 2 -0.005677 0.018244 -0.008012 0.000000 0.000000 0.000000
# 3 -0.003020 -0.008012 0.011905 0.000000 0.000000 0.000000
# 4 0.000000 0.000000 0.000000 0.041555 0.000000 0.000000
# 5 0.000000 0.000000 0.000000 0.000000 0.039606 0.000000
# 6 0.000000 0.000000 0.000000 0.000000 0.000000 0.049436
#
#
# Mechanical properties :
#
#
# Convention : Reuss Voigt Hill
#
# Bulk Modulus (GPa) = 61.43547 73.52131 67.47839
# Shear Modulus (GPa) = 22.81704 24.21499 23.51602
#
# Velocity S-wave (km/s) = 3.55080 3.65796 3.60477
# Velocity P-wave (km/s) = 7.12451 7.64637 7.39005
#
# Compressibility (1/GPa) = 0.01627724
#
# Stress axis : x y z
#
# Youngs Moduli (GPa) = 51.16122 54.81396 83.99557
#
# Poissons Ratio (x) = 0.31120 0.25364
# Poissons Ratio (y) = 0.29046 0.67295
# Poissons Ratio (z) = 0.15449 0.43916
#
# Static dielectric constant tensor:
#      x y z
#    x 3.138810 0.000000 0.000000 
#    y 0.000000 3.447060 0.000000 
#    z 0.000000 0.000000 3.542220 
# 
# 
# High freq. dielectric constant tensor:
#      x y z
#    x 1.678840 0.000000 0.000000 
#    y 0.000000 1.692000 0.000000 
#    z 0.000000 0.000000 1.712880 
# 
# From -- ./inp_files/26072.got.cif
#   From: 2010.03.12/outbox.cif.g09.slc.cpg/sg59_14_cif.got.tgz:26072.got - 2010.04.16 16:29:54.
