data_PCOD8241253
_publ_section_title
;
Structure prediction by ZEFSAII (Michael W. Deem and Ramdas Pophale) SiO2 
 PCOD8241253
Probable space group: P M M N
;
_chemical_formula_sum "Si O2"
_cell_formula_units_Z 64
_cell_length_a 21.032974
_cell_length_b 8.890444
_cell_length_c 17.342353
_cell_angle_alpha 90.000000
_cell_angle_beta 90.000000
_cell_angle_gamma 90.000000
_cell_volume 3242.889553
_symmetry_space_group_name_H-M "P M M N"
_symmetry_group_IT_number 59
_space_group.IT_coordinate_system_code '2'
_symmetry_cell_setting 'orthorhombic'
loop_
_space_group_symop_operation_xyz
x,y,z
1/2-x,1/2-y,z
1/2+x,-y,-z
-x,1/2+y,-z
-x,-y,-z
1/2+x,1/2+y,-z
1/2-x,y,z
x,1/2-y,z
loop_
_atom_site_type_symbol
_atom_site_label
_atom_site_fract_x
_atom_site_fract_y
_atom_site_fract_z
Si Si1 0.569716 0.573123 0.921540
Si Si2 0.074354 0.926282 0.914679
Si Si3 0.378163 0.577533 0.653587
Si Si4 0.138601 0.073681 0.355621
Si Si5 0.320362 0.428978 0.192622
Si Si6 0.823214 0.572561 0.198804
Si Si7 0.679764 0.584522 0.481402
Si Si8 0.992684 0.925658 0.583213
O O1 0.576185 0.750000 0.938236
O O2 0.498652 0.537135 0.888922
O O3 0.623205 0.513374 0.862582
O O4 0.584060 0.485191 0.999507
O O5 0.086975 0.750000 0.912136
O O6 0.126764 0.000617 0.859952
O O7 0.363966 0.750000 0.675309
O O8 0.343414 0.472396 0.714990
O O9 0.354670 0.542920 0.567375
O O10 0.452894 0.543305 0.646938
O O11 0.133664 0.250000 0.340394
O O12 0.167228 0.001638 0.277821
O O13 0.182718 0.036635 0.428992
O O14 0.069268 0.007729 0.374981
O O15 0.250000 0.483205 0.164757
O O16 0.321689 0.250000 0.194513
O O17 0.750000 0.520208 0.182877
O O18 0.827926 0.750000 0.190620
O O19 0.750000 0.597352 0.448372
O O20 0.646202 0.750000 0.473473
O O21 0.986700 0.750000 0.566114
O O22 0.000000 0.000000 0.500000
#
# Coordination Sequence:
#
# PCOD8241253 Si02
#       8
#     8   8   8   8   8   8   8   8
#     4   9  19  36  60  89 123 157 191 230 277 338
#     4  10  21  38  62  89 120 154 190 234 284 339
#     4  11  23  36  54  81 112 145 186 236 292 348
#     4   9  17  30  50  76 108 141 180 230 278 324
#     4   9  17  30  53  85 115 145 186 233 276 323
#     4  11  25  43  62  85 114 150 194 243 295 355
#     4  10  19  32  52  75 103 145 191 231 276 333
#     4  10  20  34  54  78 106 142 187 235 285 339
#
# _framework density 19.735486000000002
#
# number of rings (size 3 to 8) (size 9 to 14) (size 15 to 20)
#    0.000    2.125    1.250    1.875    1.750    5.750 
#    0.000    1.250    0.000    0.750    0.000    0.000 
#    0.000    0.000    0.000    0.000    0.000    0.000 
#
# Total GULP energy -793163.397964 kJ/mol
# GULP energy per Si atom -12393.178093 kJ/mol
# Density = 1.969057 g / cm^3
# Si number density = 19.735486 Si / 1000 Ang^3
#
#
#
# Elastic Constant Matrix: (Units=GPa)
#
#
# Indices 1 2 3 4 5 6 
#
# 1 155.6801 39.2034 70.0821 0.0000 0.0000 0.0000
# 2 39.2034 47.3413 32.5812 0.0000 0.0000 0.0000
# 3 70.0821 32.5812 109.3335 0.0000 0.0000 0.0000
# 4 0.0000 0.0000 0.0000 22.6380 0.0000 0.0000
# 5 0.0000 0.0000 0.0000 0.0000 34.6727 0.0000
# 6 0.0000 0.0000 0.0000 0.0000 0.0000 23.4508
#
#
#
# Elastic Compliance Matrix: (Units=1/GPa)
#
#
# Indices 1 2 3 4 5 6 
#
# 1 0.009819 -0.004780 -0.004870 0.000000 0.000000 0.000000
# 2 -0.004780 0.028900 -0.005548 0.000000 0.000000 0.000000
# 3 -0.004870 -0.005548 0.013921 0.000000 0.000000 0.000000
# 4 0.000000 0.000000 0.000000 0.044173 0.000000 0.000000
# 5 0.000000 0.000000 0.000000 0.000000 0.028841 0.000000
# 6 0.000000 0.000000 0.000000 0.000000 0.000000 0.042642
#
#
# Mechanical properties :
#
#
# Convention : Reuss Voigt Hill
#
# Bulk Modulus (GPa) = 44.95470 66.23202 55.59336
# Shear Modulus (GPa) = 24.25914 27.51820 25.88867
#
# Velocity S-wave (km/s) = 3.50982 3.73815 3.62578
# Velocity P-wave (km/s) = 6.26523 7.22941 6.76452
#
# Compressibility (1/GPa) = 0.02224462
#
# Stress axis : x y z
#
# Youngs Moduli (GPa) = 101.84040 34.60219 71.83325
#
# Poissons Ratio (x) = 0.16540 0.34981
# Poissons Ratio (y) = 0.48679 0.39855
# Poissons Ratio (z) = 0.49593 0.19198
#
# Static dielectric constant tensor:
#      x y z
#    x 4.060390 0.000000 0.000000 
#    y 0.000000 3.319180 0.000000 
#    z 0.000000 0.000000 3.616900 
# 
# 
# High freq. dielectric constant tensor:
#      x y z
#    x 1.788350 0.000000 0.000000 
#    y 0.000000 1.735400 0.000000 
#    z 0.000000 0.000000 1.766850 
# 
# From -- ./inp_files/28157.got.cif
#   From: 2010.03.12/outbox.cif.g09.slc.cpg/sg59_15_cif.got.tgz:28157.got - 2010.04.16 16:29:54.
