data_PCOD8241705
_publ_section_title
;
Structure prediction by ZEFSAII (Michael W. Deem and Ramdas Pophale) SiO2 
 PCOD8241705
Probable space group: P M M N
;
_chemical_formula_sum "Si O2"
_cell_formula_units_Z 64
_cell_length_a 17.630934
_cell_length_b 8.836370
_cell_length_c 22.656151
_cell_angle_alpha 90.000000
_cell_angle_beta 90.000000
_cell_angle_gamma 90.000000
_cell_volume 3529.680070
_symmetry_space_group_name_H-M "P M M N"
_symmetry_group_IT_number 59
_space_group.IT_coordinate_system_code '2'
_symmetry_cell_setting 'orthorhombic'
loop_
_space_group_symop_operation_xyz
x,y,z
1/2-x,1/2-y,z
1/2+x,-y,-z
-x,1/2+y,-z
-x,-y,-z
1/2+x,1/2+y,-z
1/2-x,y,z
x,1/2-y,z
loop_
_atom_site_type_symbol
_atom_site_label
_atom_site_fract_x
_atom_site_fract_y
_atom_site_fract_z
Si Si1 0.895803 0.571982 0.572047
Si Si2 0.032194 0.424889 0.859727
Si Si3 0.331959 0.072873 0.301634
Si Si4 0.990348 0.929244 0.740436
Si Si5 0.458011 0.070653 0.622415
Si Si6 0.661842 0.422900 0.454889
Si Si7 0.835276 0.927294 0.052272
Si Si8 0.067130 0.924187 0.034837
O O1 0.904369 0.750000 0.560251
O O2 0.846535 0.536823 0.629946
O O3 0.853320 0.494223 0.518468
O O4 0.978775 0.500951 0.579768
O O5 0.042409 0.250000 0.841659
O O6 0.105486 0.480552 0.897338
O O7 0.027858 0.527810 0.802215
O O8 0.953125 0.446713 0.896036
O O9 0.250000 0.999737 0.283549
O O10 0.326653 0.250000 0.291564
O O11 0.402559 0.011527 0.262574
O O12 0.993920 0.750000 0.730488
O O13 0.037564 0.008164 0.688801
O O14 0.466258 0.250000 0.623153
O O15 0.377759 0.020843 0.596036
O O16 0.750000 0.431264 0.440769
O O17 0.632621 0.250000 0.453936
O O18 0.750000 0.975136 0.070548
O O19 0.842542 0.750000 0.043269
O O20 0.854872 0.000454 0.988121
O O21 0.070164 0.750000 0.018023
O O22 0.000000 0.000000 0.000000
#
# Coordination Sequence:
#
# PCOD8241705 Si02
#       8
#     8   8   8   8   8   8   8   8
#     4  10  19  33  55  80 104 131 168 211 259 319
#     4   9  18  33  52  74 102 137 174 212 256 308
#     4   8  15  29  49  73  99 126 160 206 256 304
#     4  10  20  34  54  77 101 134 177 220 259 305
#     4  11  22  37  56  75 101 137 175 214 260 315
#     4  11  23  37  53  76 106 135 168 215 266 314
#     4   9  18  33  53  78 107 137 173 219 265 306
#     4   9  17  30  50  75 103 134 167 204 249 301
#
# _framework density 18.131954
#
# number of rings (size 3 to 8) (size 9 to 14) (size 15 to 20)
#    0.000    2.375    0.000    4.875    0.000    4.250 
#    0.000    1.250    0.000   12.000    0.000    0.000 
#    0.000    0.000    0.000    0.000    0.000    0.000 
#
# Total GULP energy -793317.870329 kJ/mol
# GULP energy per Si atom -12395.591724 kJ/mol
# Density = 1.809068 g / cm^3
# Si number density = 18.131954 Si / 1000 Ang^3
#
#
#
# Elastic Constant Matrix: (Units=GPa)
#
#
# Indices 1 2 3 4 5 6 
#
# 1 100.6707 24.4483 41.6299 0.0000 0.0000 0.0000
# 2 24.4483 52.4422 13.6779 0.0000 0.0000 0.0000
# 3 41.6299 13.6779 68.9942 0.0000 0.0000 0.0000
# 4 0.0000 0.0000 0.0000 31.6853 0.0000 0.0000
# 5 0.0000 0.0000 0.0000 0.0000 20.0094 0.0000
# 6 0.0000 0.0000 0.0000 0.0000 0.0000 23.4357
#
#
#
# Elastic Compliance Matrix: (Units=1/GPa)
#
#
# Indices 1 2 3 4 5 6 
#
# 1 0.014229 -0.004634 -0.007667 0.000000 0.000000 0.000000
# 2 -0.004634 0.021617 -0.001490 0.000000 0.000000 0.000000
# 3 -0.007667 -0.001490 0.019415 0.000000 0.000000 0.000000
# 4 0.000000 0.000000 0.000000 0.031560 0.000000 0.000000
# 5 0.000000 0.000000 0.000000 0.000000 0.049976 0.000000
# 6 0.000000 0.000000 0.000000 0.000000 0.000000 0.042670
#
#
# Mechanical properties :
#
#
# Convention : Reuss Voigt Hill
#
# Bulk Modulus (GPa) = 36.12574 42.40214 39.26394
# Shear Modulus (GPa) = 23.11851 24.51615 23.81733
#
# Velocity S-wave (km/s) = 3.57461 3.68108 3.62823
# Velocity P-wave (km/s) = 6.08310 6.44230 6.26527
#
# Compressibility (1/GPa) = 0.02768109
#
# Stress axis : x y z
#
# Youngs Moduli (GPa) = 70.27777 46.25899 51.50548
#
# Poissons Ratio (x) = 0.21436 0.39489
# Poissons Ratio (y) = 0.32566 0.07672
# Poissons Ratio (z) = 0.53882 0.06891
#
# Static dielectric constant tensor:
#      x y z
#    x 3.603780 0.000000 0.000000 
#    y 0.000000 3.399440 0.000000 
#    z 0.000000 0.000000 3.297970 
# 
# 
# High freq. dielectric constant tensor:
#      x y z
#    x 1.699170 0.000000 0.000000 
#    y 0.000000 1.701620 0.000000 
#    z 0.000000 0.000000 1.688090 
# 
# From -- ./inp_files/32310.got.cif
#   From: 2010.03.12/outbox.cif.g09.slc.cpg/sg59_17_cif.got.tgz:32310.got - 2010.04.16 16:29:54.
