data_PCOD8241329
_publ_section_title
;
Structure prediction by ZEFSAII (Michael W. Deem and Ramdas Pophale) SiO2 
 PCOD8241329
Probable space group: P M M N
;
_chemical_formula_sum "Si O2"
_cell_formula_units_Z 64
_cell_length_a 22.151008
_cell_length_b 8.909028
_cell_length_c 16.735793
_cell_angle_alpha 90.000000
_cell_angle_beta 90.000000
_cell_angle_gamma 90.000000
_cell_volume 3302.707505
_symmetry_space_group_name_H-M "P M M N"
_symmetry_group_IT_number 59
_space_group.IT_coordinate_system_code '2'
_symmetry_cell_setting 'orthorhombic'
loop_
_space_group_symop_operation_xyz
x,y,z
1/2-x,1/2-y,z
1/2+x,-y,-z
-x,1/2+y,-z
-x,-y,-z
1/2+x,1/2+y,-z
1/2-x,y,z
x,1/2-y,z
loop_
_atom_site_type_symbol
_atom_site_label
_atom_site_fract_x
_atom_site_fract_y
_atom_site_fract_z
Si Si1 0.578077 0.423310 0.029177
Si Si2 0.987393 0.422176 0.689815
Si Si3 0.179367 0.086644 0.209477
Si Si4 0.446794 0.929099 0.555261
Si Si5 0.643804 0.418153 0.643229
Si Si6 0.319104 0.425833 0.505907
Si Si7 0.319335 0.079764 0.030486
Si Si8 0.987802 0.073105 0.870099
O O1 0.564297 0.250000 0.040500
O O2 0.553320 0.511478 0.106034
O O3 0.648658 0.462599 0.028645
O O4 0.554110 0.487034 0.943028
O O5 0.010253 0.250000 0.695128
O O6 0.038140 0.523549 0.646730
O O7 0.928333 0.430796 0.633004
O O8 0.972734 0.484196 0.779848
O O9 0.250000 0.104365 0.216100
O O10 0.150454 0.250000 0.231214
O O11 0.161737 0.038424 0.120658
O O12 0.156742 0.953324 0.264968
O O13 0.448042 0.750000 0.544838
O O14 0.500000 0.000000 0.500000
O O15 0.376959 0.983602 0.541317
O O16 0.665869 0.250000 0.623203
O O17 0.679419 0.536268 0.588341
O O18 0.250000 0.468133 0.536766
O O19 0.330050 0.250000 0.519794
O O20 0.250000 0.055619 0.014900
O O21 0.338709 0.250000 0.011406
O O22 0.986101 0.250000 0.869937
#
# Coordination Sequence:
#
# PCOD8241329 Si02
#       8
#     8   8   8   8   8   8   8   8
#     4  10  19  32  52  79 110 141 180 230 282 331
#     4  10  21  37  57  82 113 149 189 234 283 338
#     4   9  18  31  45  65  99 142 185 228 273 329
#     4  12  24  40  63  89 118 153 194 241 292 343
#     4  11  21  32  51  79 112 147 183 228 278 334
#     4  11  24  41  61  85 115 153 195 237 287 348
#     4   9  18  32  49  69  97 139 185 224 271 333
#     4   9  19  35  54  78 110 148 184 224 277 336
#
# _framework density 19.378039999999999
#
# number of rings (size 3 to 8) (size 9 to 14) (size 15 to 20)
#    0.000    1.875    1.250    4.125    0.000    6.000 
#    0.000    1.250    0.000    0.750    0.000    5.250 
#    0.000    0.000    0.000    0.000    0.000    0.000 
#
# Total GULP energy -792845.648005 kJ/mol
# GULP energy per Si atom -12388.213250 kJ/mol
# Density = 1.933393 g / cm^3
# Si number density = 19.378040 Si / 1000 Ang^3
#
#
#
# Elastic Constant Matrix: (Units=GPa)
#
#
# Indices 1 2 3 4 5 6 
#
# 1 75.1267 33.0117 23.3088 0.0000 0.0000 0.0000
# 2 33.0117 56.8462 22.2384 0.0000 0.0000 0.0000
# 3 23.3088 22.2384 48.3895 0.0000 0.0000 0.0000
# 4 0.0000 0.0000 0.0000 28.6199 0.0000 0.0000
# 5 0.0000 0.0000 0.0000 0.0000 30.2035 0.0000
# 6 0.0000 0.0000 0.0000 0.0000 0.0000 29.0328
#
#
#
# Elastic Compliance Matrix: (Units=1/GPa)
#
#
# Indices 1 2 3 4 5 6 
#
# 1 0.018785 -0.008984 -0.004920 0.000000 0.000000 0.000000
# 2 -0.008984 0.025744 -0.007504 0.000000 0.000000 0.000000
# 3 -0.004920 -0.007504 0.026484 0.000000 0.000000 0.000000
# 4 0.000000 0.000000 0.000000 0.034941 0.000000 0.000000
# 5 0.000000 0.000000 0.000000 0.000000 0.033109 0.000000
# 6 0.000000 0.000000 0.000000 0.000000 0.000000 0.034444
#
#
# Mechanical properties :
#
#
# Convention : Reuss Voigt Hill
#
# Bulk Modulus (GPa) = 35.46363 37.49780 36.48072
# Shear Modulus (GPa) = 22.15130 24.35815 23.25473
#
# Velocity S-wave (km/s) = 3.38466 3.54926 3.46794
# Velocity P-wave (km/s) = 5.79787 6.01573 5.90780
#
# Compressibility (1/GPa) = 0.02819790
#
# Stress axis : x y z
#
# Youngs Moduli (GPa) = 53.23392 38.84395 37.75889
#
# Poissons Ratio (x) = 0.34898 0.18576
# Poissons Ratio (y) = 0.47827 0.28333
# Poissons Ratio (z) = 0.26189 0.29147
#
# Static dielectric constant tensor:
#      x y z
#    x 3.647700 0.000000 0.000000 
#    y 0.000000 3.419770 0.000000 
#    z 0.000000 0.000000 3.527120 
# 
# 
# High freq. dielectric constant tensor:
#      x y z
#    x 1.752170 0.000000 0.000000 
#    y 0.000000 1.752670 0.000000 
#    z 0.000000 0.000000 1.728650 
# 
# From -- ./inp_files/28241.got.cif
#   From: 2010.03.12/outbox.cif.g09.slc.cpg/sg59_15_cif.got.tgz:28241.got - 2010.04.16 16:29:54.
