data_PCOD8241429
_publ_section_title
;
Structure prediction by ZEFSAII (Michael W. Deem and Ramdas Pophale) SiO2 
 PCOD8241429
Probable space group: P M M N
;
_chemical_formula_sum "Si O2"
_cell_formula_units_Z 64
_cell_length_a 9.309907
_cell_length_b 15.293302
_cell_length_c 24.008250
_cell_angle_alpha 90.000000
_cell_angle_beta 90.000000
_cell_angle_gamma 90.000000
_cell_volume 3418.275893
_symmetry_space_group_name_H-M "P M M N"
_symmetry_group_IT_number 59
_space_group.IT_coordinate_system_code '2'
_symmetry_cell_setting 'orthorhombic'
loop_
_space_group_symop_operation_xyz
x,y,z
1/2-x,1/2-y,z
1/2+x,-y,-z
-x,1/2+y,-z
-x,-y,-z
1/2+x,1/2+y,-z
1/2-x,y,z
x,1/2-y,z
loop_
_atom_site_type_symbol
_atom_site_label
_atom_site_fract_x
_atom_site_fract_y
_atom_site_fract_z
Si Si1 0.081981 0.349485 0.554088
Si Si2 0.079430 0.996752 0.761639
Si Si3 0.085107 0.151022 0.174848
Si Si4 0.085879 0.399700 0.053123
Si Si5 0.419957 0.497235 0.636823
Si Si6 0.586232 0.652824 0.159794
Si Si7 0.917710 0.150738 0.442148
Si Si8 0.415457 0.895186 0.053715
O O1 0.250000 0.363687 0.543000
O O2 0.048117 0.250000 0.572026
O O3 0.024424 0.412767 0.602829
O O4 0.001131 0.375072 0.497804
O O5 0.250000 0.986855 0.761725
O O6 0.029531 0.082829 0.795242
O O7 0.016913 0.005530 0.699151
O O8 0.014966 0.909996 0.788435
O O9 0.250000 0.119836 0.180743
O O10 0.065083 0.250000 0.196066
O O11 0.039274 0.146820 0.110159
O O12 0.250000 0.378348 0.037480
O O13 0.061653 0.502222 0.061679
O O14 0.986769 0.362873 0.003798
O O15 0.250000 0.493840 0.640324
O O16 0.470428 0.586637 0.606901
O O17 0.750000 0.630344 0.143026
O O18 0.576154 0.750000 0.186348
O O19 0.490257 0.652559 0.104881
O O20 0.750000 0.138041 0.454601
O O21 0.952642 0.250000 0.423655
O O22 0.250000 0.867796 0.052438
#
# Coordination Sequence:
#
# PCOD8241429 Si02
#       8
#     8   8   8   8   8   8   8   8
#     4   9  17  30  50  76 105 134 166 207 252 298
#     4  10  21  37  56  77 103 136 180 226 260 301
#     4  10  21  38  58  78 104 139 174 211 263 320
#     4   9  18  33  53  78 108 138 167 205 259 319
#     4   9  18  32  51  75 101 133 171 210 254 300
#     4  10  21  36  54  76 104 139 176 216 266 318
#     4   9  17  30  49  73 103 136 167 202 248 302
#     4  10  19  32  54  81 107 135 170 213 260 313
#
# _framework density 18.72289
#
# number of rings (size 3 to 8) (size 9 to 14) (size 15 to 20)
#    0.000    2.500    1.250    0.750    0.000    3.000 
#    0.000    6.250    0.000    1.500    0.000    1.750 
#    0.000    0.000    0.000    0.000    0.000    0.000 
#
# Total GULP energy -793661.066623 kJ/mol
# GULP energy per Si atom -12400.954166 kJ/mol
# Density = 1.868028 g / cm^3
# Si number density = 18.722890 Si / 1000 Ang^3
#
#
#
# Elastic Constant Matrix: (Units=GPa)
#
#
# Indices 1 2 3 4 5 6 
#
# 1 48.5357 31.0041 42.8320 0.0000 0.0000 0.0000
# 2 31.0041 107.7572 72.6523 0.0000 0.0000 0.0000
# 3 42.8320 72.6523 141.8063 0.0000 0.0000 0.0000
# 4 0.0000 0.0000 0.0000 7.9371 0.0000 0.0000
# 5 0.0000 0.0000 0.0000 0.0000 24.8496 0.0000
# 6 0.0000 0.0000 0.0000 0.0000 0.0000 20.1902
#
#
#
# Elastic Compliance Matrix: (Units=1/GPa)
#
#
# Indices 1 2 3 4 5 6 
#
# 1 0.029040 -0.003730 -0.006861 0.000000 0.000000 0.000000
# 2 -0.003730 0.014656 -0.006382 0.000000 0.000000 0.000000
# 3 -0.006861 -0.006382 0.012394 0.000000 0.000000 0.000000
# 4 0.000000 0.000000 0.000000 0.125990 0.000000 0.000000
# 5 0.000000 0.000000 0.000000 0.000000 0.040242 0.000000
# 6 0.000000 0.000000 0.000000 0.000000 0.000000 0.049529
#
#
# Mechanical properties :
#
#
# Convention : Reuss Voigt Hill
#
# Bulk Modulus (GPa) = 45.15690 65.67511 55.41601
# Shear Modulus (GPa) = 15.96528 20.70276 18.33402
#
# Velocity S-wave (km/s) = 2.92330 3.32888 3.13266
# Velocity P-wave (km/s) = 5.96365 7.06604 6.53812
#
# Compressibility (1/GPa) = 0.02214501
#
# Stress axis : x y z
#
# Youngs Moduli (GPa) = 34.43473 68.22922 80.68436
#
# Poissons Ratio (x) = 0.25450 0.55354
# Poissons Ratio (y) = 0.12844 0.51496
# Poissons Ratio (z) = 0.23624 0.43546
#
# Static dielectric constant tensor:
#      x y z
#    x 3.268010 0.000000 0.000000 
#    y 0.000000 3.514920 0.000000 
#    z 0.000000 0.000000 3.529310 
# 
# 
# High freq. dielectric constant tensor:
#      x y z
#    x 1.706210 0.000000 0.000000 
#    y 0.000000 1.736090 0.000000 
#    z 0.000000 0.000000 1.720650 
# 
# From -- ./inp_files/31702.got.cif
#   From: 2010.03.12/outbox.cif.g09.slc.cpg/sg59_16_cif.got.tgz:31702.got - 2010.04.16 16:29:54.
