data_PCOD8241243
_publ_section_title
;
Structure prediction by ZEFSAII (Michael W. Deem and Ramdas Pophale) SiO2 
 PCOD8241243
Probable space group: P M M N
;
_chemical_formula_sum "Si O2"
_cell_formula_units_Z 64
_cell_length_a 16.947346
_cell_length_b 12.500633
_cell_length_c 16.863894
_cell_angle_alpha 90.000000
_cell_angle_beta 90.000000
_cell_angle_gamma 90.000000
_cell_volume 3572.658992
_symmetry_space_group_name_H-M "P M M N"
_symmetry_group_IT_number 59
_space_group.IT_coordinate_system_code '2'
_symmetry_cell_setting 'orthorhombic'
loop_
_space_group_symop_operation_xyz
x,y,z
1/2-x,1/2-y,z
1/2+x,-y,-z
-x,1/2+y,-z
-x,-y,-z
1/2+x,1/2+y,-z
1/2-x,y,z
x,1/2-y,z
loop_
_atom_site_type_symbol
_atom_site_label
_atom_site_fract_x
_atom_site_fract_y
_atom_site_fract_z
Si Si1 0.555901 0.501591 0.156881
Si Si2 0.097413 0.372403 0.132481
Si Si3 0.841182 0.964500 0.708040
Si Si4 0.660181 0.628087 0.036612
Si Si5 0.073417 0.990962 0.589249
Si Si6 0.159364 0.873882 0.722354
Si Si7 0.477539 0.625422 0.291044
Si Si8 0.580413 0.872752 0.555762
O O1 0.480936 0.441636 0.121450
O O2 0.605572 0.547777 0.084797
O O3 0.606542 0.416256 0.206056
O O4 0.527375 0.598273 0.212571
O O5 0.070913 0.250000 0.137073
O O6 0.146706 0.399983 0.210790
O O7 0.152327 0.395004 0.056792
O O8 0.750000 0.993886 0.696567
O O9 0.870869 0.890837 0.636059
O O10 0.890895 0.073495 0.711481
O O11 0.750000 0.607023 0.061982
O O12 0.635711 0.750000 0.055976
O O13 0.112844 0.046691 0.512391
O O14 0.025332 0.083994 0.633451
O O15 0.142035 0.939732 0.642220
O O16 0.012564 0.896338 0.567308
O O17 0.250000 0.891224 0.745255
O O18 0.139287 0.750000 0.708050
O O19 0.464887 0.750000 0.298505
O O20 0.591233 0.750000 0.529678
#
# Coordination Sequence:
#
# PCOD8241243 Si02
#       8
#     8   8   8   8   8   8   8   8
#     4  10  19  33  53  77 102 129 169 212 248 293
#     4  10  20  34  53  75 101 136 174 210 250 297
#     4  10  21  34  50  75 103 132 170 214 256 298
#     4  10  20  33  51  76 105 135 166 205 254 302
#     4   9  19  33  51  74 101 130 168 211 249 300
#     4  10  20  34  53  76 104 136 166 203 254 305
#     4   9  18  33  53  73  96 130 167 204 251 305
#     4  10  19  32  52  74  98 132 171 212 255 297
#
# _framework density 17.913829
#
# number of rings (size 3 to 8) (size 9 to 14) (size 15 to 20)
#    0.000    2.250    0.000    3.750    0.000    2.250 
#    0.000    0.625    0.000    7.875    0.000    0.000 
#    0.000    0.000    0.000    0.000    0.000    0.000 
#
# Total GULP energy -793708.456860 kJ/mol
# GULP energy per Si atom -12401.694638 kJ/mol
# Density = 1.787306 g / cm^3
# Si number density = 17.913829 Si / 1000 Ang^3
#
#
#
# Elastic Constant Matrix: (Units=GPa)
#
#
# Indices 1 2 3 4 5 6 
#
# 1 80.2542 34.1751 24.7268 0.0000 0.0000 0.0000
# 2 34.1751 99.7012 36.8654 0.0000 0.0000 0.0000
# 3 24.7268 36.8654 90.3274 0.0000 0.0000 0.0000
# 4 0.0000 0.0000 0.0000 22.7647 0.0000 0.0000
# 5 0.0000 0.0000 0.0000 0.0000 21.7205 0.0000
# 6 0.0000 0.0000 0.0000 0.0000 0.0000 17.2701
#
#
#
# Elastic Compliance Matrix: (Units=1/GPa)
#
#
# Indices 1 2 3 4 5 6 
#
# 1 0.015007 -0.004269 -0.002366 0.000000 0.000000 0.000000
# 2 -0.004269 0.013027 -0.004148 0.000000 0.000000 0.000000
# 3 -0.002366 -0.004148 0.013411 0.000000 0.000000 0.000000
# 4 0.000000 0.000000 0.000000 0.043928 0.000000 0.000000
# 5 0.000000 0.000000 0.000000 0.000000 0.046039 0.000000
# 6 0.000000 0.000000 0.000000 0.000000 0.000000 0.057904
#
#
# Mechanical properties :
#
#
# Convention : Reuss Voigt Hill
#
# Bulk Modulus (GPa) = 50.30292 51.31302 50.80797
# Shear Modulus (GPa) = 22.98748 23.98542 23.48645
#
# Velocity S-wave (km/s) = 3.58610 3.66311 3.62481
# Velocity P-wave (km/s) = 6.72966 6.82625 6.77813
#
# Compressibility (1/GPa) = 0.01987956
#
# Stress axis : x y z
#
# Youngs Moduli (GPa) = 66.63399 76.76245 74.56339
#
# Poissons Ratio (x) = 0.32773 0.17640
# Poissons Ratio (y) = 0.28449 0.30929
# Poissons Ratio (z) = 0.15764 0.31842
#
# Static dielectric constant tensor:
#      x y z
#    x 3.207820 0.000000 0.000000 
#    y 0.000000 3.179790 0.000000 
#    z 0.000000 0.000000 3.390490 
# 
# 
# High freq. dielectric constant tensor:
#      x y z
#    x 1.686740 0.000000 0.000000 
#    y 0.000000 1.691190 0.000000 
#    z 0.000000 0.000000 1.701710 
# 
# From -- ./inp_files/22728.got.cif
#   From: 2010.03.12/outbox.cif.g09.slc.cpg/sg59_12_cif.got.tgz:22728.got - 2010.04.16 16:29:54.
