data_PCOD8241315
_publ_section_title
;
Structure prediction by ZEFSAII (Michael W. Deem and Ramdas Pophale) SiO2 
 PCOD8241315
Probable space group: P M M N
;
_chemical_formula_sum "Si O2"
_cell_formula_units_Z 64
_cell_length_a 9.173162
_cell_length_b 18.838201
_cell_length_c 21.193403
_cell_angle_alpha 90.000000
_cell_angle_beta 90.000000
_cell_angle_gamma 90.000000
_cell_volume 3662.344434
_symmetry_space_group_name_H-M "P M M N"
_symmetry_group_IT_number 59
_space_group.IT_coordinate_system_code '2'
_symmetry_cell_setting 'orthorhombic'
loop_
_space_group_symop_operation_xyz
x,y,z
1/2-x,1/2-y,z
1/2+x,-y,-z
-x,1/2+y,-z
-x,-y,-z
1/2+x,1/2+y,-z
1/2-x,y,z
x,1/2-y,z
loop_
_atom_site_type_symbol
_atom_site_label
_atom_site_fract_x
_atom_site_fract_y
_atom_site_fract_z
Si Si1 0.579539 0.426189 0.489909
Si Si2 0.081762 0.332786 0.589265
Si Si3 0.912104 0.869298 0.764993
Si Si4 0.076862 0.975365 0.936894
Si Si5 0.418237 0.071010 0.703800
Si Si6 0.414370 0.973602 0.181448
Si Si7 0.083329 0.582746 0.653286
Si Si8 0.916456 0.327422 0.118641
O O1 0.500000 0.500000 0.500000
O O2 0.750000 0.438017 0.502381
O O3 0.519171 0.366394 0.536033
O O4 0.550237 0.398987 0.419095
O O5 0.250000 0.349778 0.573045
O O6 0.048964 0.250000 0.591716
O O7 0.042362 0.364098 0.657854
O O8 0.750000 0.838781 0.758005
O O9 0.988549 0.864807 0.696834
O O10 0.994868 0.822765 0.816546
O O11 0.912283 0.949761 0.787605
O O12 0.250000 0.986287 0.941594
O O13 0.033457 0.892271 0.926263
O O14 0.013507 0.024402 0.881075
O O15 0.000000 0.000000 0.000000
O O16 0.250000 0.072012 0.724552
O O17 0.513979 0.079328 0.767361
O O18 0.456117 0.999422 0.665655
O O19 0.250000 0.948378 0.164748
O O20 0.250000 0.597132 0.670952
O O21 0.750000 0.341380 0.137755
O O22 0.935514 0.250000 0.084763
#
# Coordination Sequence:
#
# PCOD8241315 Si02
#       8
#     8   8   8   8   8   8   8   8
#     4  11  21  34  53  76 102 133 177 224 268 322
#     4  10  21  37  54  74 103 137 173 218 274 329
#     4   9  17  28  45  72 100 125 157 202 250 294
#     4  10  19  32  52  78 108 140 172 211 253 298
#     4   9  16  30  50  72  97 127 164 206 255 308
#     4   9  17  29  47  74 102 127 160 203 247 292
#     4   9  17  30  48  70  96 128 166 208 252 305
#     4   9  18  33  52  73 100 137 175 207 247 302
#
# _framework density 17.475144
#
# number of rings (size 3 to 8) (size 9 to 14) (size 15 to 20)
#    0.000    2.500    1.250    1.500    0.000    5.500 
#    0.000    0.625    0.000    1.500    0.000    0.000 
#    0.000    0.000    0.000    0.000    0.000    0.000 
#
# Total GULP energy -793484.589813 kJ/mol
# GULP energy per Si atom -12398.196716 kJ/mol
# Density = 1.743537 g / cm^3
# Si number density = 17.475144 Si / 1000 Ang^3
#
#
#
# Elastic Constant Matrix: (Units=GPa)
#
#
# Indices 1 2 3 4 5 6 
#
# 1 105.8846 41.9221 72.9094 0.0000 0.0000 0.0000
# 2 41.9221 76.9324 53.2637 0.0000 0.0000 0.0000
# 3 72.9094 53.2637 132.8504 0.0000 0.0000 0.0000
# 4 0.0000 0.0000 0.0000 19.2523 0.0000 0.0000
# 5 0.0000 0.0000 0.0000 0.0000 36.9028 0.0000
# 6 0.0000 0.0000 0.0000 0.0000 0.0000 17.5444
#
#
#
# Elastic Compliance Matrix: (Units=1/GPa)
#
#
# Indices 1 2 3 4 5 6 
#
# 1 0.015880 -0.003626 -0.007261 0.000000 0.000000 0.000000
# 2 -0.003626 0.018821 -0.005556 0.000000 0.000000 0.000000
# 3 -0.007261 -0.005556 0.013740 0.000000 0.000000 0.000000
# 4 0.000000 0.000000 0.000000 0.051942 0.000000 0.000000
# 5 0.000000 0.000000 0.000000 0.000000 0.027098 0.000000
# 6 0.000000 0.000000 0.000000 0.000000 0.000000 0.056998
#
#
# Mechanical properties :
#
#
# Convention : Reuss Voigt Hill
#
# Bulk Modulus (GPa) = 64.29084 72.42865 68.35974
# Shear Modulus (GPa) = 22.46690 24.57803 23.52246
#
# Velocity S-wave (km/s) = 3.58948 3.75434 3.67284
# Velocity P-wave (km/s) = 7.35180 7.76725 7.56238
#
# Compressibility (1/GPa) = 0.01555432
#
# Stress axis : x y z
#
# Youngs Moduli (GPa) = 62.97353 53.13249 72.78148
#
# Poissons Ratio (x) = 0.19266 0.52848
# Poissons Ratio (y) = 0.22834 0.40437
# Poissons Ratio (z) = 0.45726 0.29520
#
# Static dielectric constant tensor:
#      x y z
#    x 3.425000 0.000000 0.000000 
#    y 0.000000 3.072000 0.000000 
#    z 0.000000 0.000000 3.286710 
# 
# 
# High freq. dielectric constant tensor:
#      x y z
#    x 1.683850 0.000000 0.000000 
#    y 0.000000 1.644770 0.000000 
#    z 0.000000 0.000000 1.668910 
# 
# From -- ./inp_files/29506.got.cif
#   From: 2010.03.12/outbox.cif.g09.slc.cpg/sg59_15_cif.got.tgz:29506.got - 2010.04.16 16:29:54.
