data_PCOD8241360
_publ_section_title
;
Structure prediction by ZEFSAII (Michael W. Deem and Ramdas Pophale) SiO2 
 PCOD8241360
Probable space group: P M M N
;
_chemical_formula_sum "Si O2"
_cell_formula_units_Z 48
_cell_length_a 9.310856
_cell_length_b 23.688489
_cell_length_c 11.315244
_cell_angle_alpha 90.000000
_cell_angle_beta 90.000000
_cell_angle_gamma 90.000000
_cell_volume 2495.691461
_symmetry_space_group_name_H-M "P M M N"
_symmetry_group_IT_number 59
_space_group.IT_coordinate_system_code '2'
_symmetry_cell_setting 'orthorhombic'
loop_
_space_group_symop_operation_xyz
x,y,z
1/2-x,1/2-y,z
1/2+x,-y,-z
-x,1/2+y,-z
-x,-y,-z
1/2+x,1/2+y,-z
1/2-x,y,z
x,1/2-y,z
loop_
_atom_site_type_symbol
_atom_site_label
_atom_site_fract_x
_atom_site_fract_y
_atom_site_fract_z
Si Si1 0.579480 0.125485 0.110170
Si Si2 0.583596 0.409601 0.700226
Si Si3 0.912093 0.813319 0.691014
Si Si4 0.588262 0.914309 0.534550
Si Si5 0.079188 0.685996 0.128617
Si Si6 0.916104 0.529613 0.777275
O O1 0.750000 0.118852 0.114380
O O2 0.526983 0.166047 0.214080
O O3 0.509472 0.063210 0.125291
O O4 0.526395 0.154979 0.989883
O O5 0.750000 0.402649 0.670903
O O6 0.508745 0.424596 0.578237
O O7 0.524104 0.352392 0.761573
O O8 0.559946 0.462396 0.790116
O O9 0.750000 0.819055 0.743016
O O10 0.950350 0.750000 0.655492
O O11 0.924563 0.848808 0.570863
O O12 0.750000 0.930813 0.499614
O O13 0.535576 0.952090 0.645072
O O14 0.250000 0.688417 0.128671
O O15 0.016636 0.750000 0.137474
O O16 0.750000 0.546599 0.795864
#
# Coordination Sequence:
#
# PCOD8241360 Si02
#       6
#     8   8   8   8   8   8
#     4  10  19  32  53  78 101 129 168 211 255 302
#     4  10  20  34  53  74  99 137 176 205 243 302
#     4   9  18  33  52  74 103 137 169 208 260 306
#     4   9  18  32  49  72 103 134 164 207 258 298
#     4   9  19  35  52  73 104 136 164 203 254 298
#     4   9  19  35  53  75 103 132 165 209 260 305
#
# _framework density 19.233148
#
# number of rings (size 3 to 8) (size 9 to 14) (size 15 to 20)
#    0.000    2.667    0.000    2.500    0.000    5.667 
#    0.000    1.667    0.000    2.000    0.000    0.000 
#    0.000    0.000    0.000    0.000    0.000    0.000 
#
# Total GULP energy -595009.525153 kJ/mol
# GULP energy per Si atom -12396.031774 kJ/mol
# Density = 1.918937 g / cm^3
# Si number density = 19.233148 Si / 1000 Ang^3
#
#
#
# Elastic Constant Matrix: (Units=GPa)
#
#
# Indices 1 2 3 4 5 6 
#
# 1 50.1509 26.1113 23.5414 0.0000 0.0000 0.0000
# 2 26.1113 122.5590 29.7779 0.0000 0.0000 0.0000
# 3 23.5414 29.7779 54.8236 0.0000 0.0000 0.0000
# 4 0.0000 0.0000 0.0000 20.6077 0.0000 0.0000
# 5 0.0000 0.0000 0.0000 0.0000 19.5443 0.0000
# 6 0.0000 0.0000 0.0000 0.0000 0.0000 25.5681
#
#
#
# Elastic Compliance Matrix: (Units=1/GPa)
#
#
# Indices 1 2 3 4 5 6 
#
# 1 0.026060 -0.003264 -0.009417 0.000000 0.000000 0.000000
# 2 -0.003264 0.009809 -0.003926 0.000000 0.000000 0.000000
# 3 -0.009417 -0.003926 0.024417 0.000000 0.000000 0.000000
# 4 0.000000 0.000000 0.000000 0.048526 0.000000 0.000000
# 5 0.000000 0.000000 0.000000 0.000000 0.051166 0.000000
# 6 0.000000 0.000000 0.000000 0.000000 0.000000 0.039111
#
#
# Mechanical properties :
#
#
# Convention : Reuss Voigt Hill
#
# Bulk Modulus (GPa) = 36.94077 42.93275 39.93676
# Shear Modulus (GPa) = 20.71887 23.01754 21.86821
#
# Velocity S-wave (km/s) = 3.28571 3.46318 3.37561
# Velocity P-wave (km/s) = 5.80026 6.19372 6.00022
#
# Compressibility (1/GPa) = 0.02707036
#
# Stress axis : x y z
#
# Youngs Moduli (GPa) = 38.37328 101.95098 40.95568
#
# Poissons Ratio (x) = 0.33276 0.38569
# Poissons Ratio (y) = 0.12525 0.16080
# Poissons Ratio (z) = 0.36137 0.40027
#
# Static dielectric constant tensor:
#      x y z
#    x 3.278270 0.000000 0.000000 
#    y 0.000000 3.898380 0.000000 
#    z 0.000000 0.000000 3.287270 
# 
# 
# High freq. dielectric constant tensor:
#      x y z
#    x 1.723970 0.000000 0.000000 
#    y 0.000000 1.766230 0.000000 
#    z 0.000000 0.000000 1.728770 
# 
# From -- ./inp_files/14349.got.cif
#   From: 2010.03.12/outbox.cif.g09.slc.cpg/sg59_8_cif.got.tgz:14349.got - 2010.04.16 16:29:54.
