data_PCOD8241559
_publ_section_title
;
Structure prediction by ZEFSAII (Michael W. Deem and Ramdas Pophale) SiO2 
 PCOD8241559
Probable space group: P M M N
;
_chemical_formula_sum "Si O2"
_cell_formula_units_Z 56
_cell_length_a 19.242607
_cell_length_b 9.000040
_cell_length_c 16.532827
_cell_angle_alpha 90.000000
_cell_angle_beta 90.000000
_cell_angle_gamma 90.000000
_cell_volume 2863.224958
_symmetry_space_group_name_H-M "P M M N"
_symmetry_group_IT_number 59
_space_group.IT_coordinate_system_code '2'
_symmetry_cell_setting 'orthorhombic'
loop_
_space_group_symop_operation_xyz
x,y,z
1/2-x,1/2-y,z
1/2+x,-y,-z
-x,1/2+y,-z
-x,-y,-z
1/2+x,1/2+y,-z
1/2-x,y,z
x,1/2-y,z
loop_
_atom_site_type_symbol
_atom_site_label
_atom_site_fract_x
_atom_site_fract_y
_atom_site_fract_z
Si Si1 0.668688 0.577587 0.019004
Si Si2 0.097471 0.424096 0.678453
Si Si3 0.831853 0.415465 0.178640
Si Si4 0.172056 0.926223 0.350174
Si Si5 0.670672 0.578463 0.484268
Si Si6 0.550799 0.073444 0.935185
Si Si7 0.954178 0.425098 0.753339
O O1 0.750000 0.550029 0.005968
O O2 0.648841 0.750000 0.012940
O O3 0.641647 0.519704 0.105881
O O4 0.629089 0.483349 0.950856
O O5 0.109488 0.250000 0.694175
O O6 0.147560 0.513813 0.736933
O O7 0.118326 0.467740 0.587434
O O8 0.018092 0.471847 0.695742
O O9 0.750000 0.405741 0.175466
O O10 0.863885 0.250000 0.169297
O O11 0.250000 0.982164 0.327820
O O12 0.169505 0.750000 0.353092
O O13 0.117343 0.990372 0.284419
O O14 0.149582 0.983214 0.438136
O O15 0.750000 0.545389 0.457255
O O16 0.661512 0.750000 0.507098
O O17 0.546712 0.250000 0.943402
O O18 0.532118 0.017652 0.844546
O O19 0.500000 0.000000 0.000000
O O20 0.946521 0.250000 0.756731
#
# Coordination Sequence:
#
# PCOD8241559 Si02
#       7
#     8   8   8   8   8   8   8
#     4  10  21  37  56  78 106 141 182 228 279 334
#     4  10  19  33  53  76 107 144 179 215 260 319
#     4  10  20  33  51  78 110 141 177 222 268 317
#     4   9  18  35  57  77 101 136 177 220 266 315
#     4   9  18  32  51  77 107 139 174 212 260 317
#     4  11  22  37  58  82 111 145 183 229 279 332
#     4   9  20  36  54  78 104 135 177 222 267 316
#
# _framework density 19.558364999999998
#
# number of rings (size 3 to 8) (size 9 to 14) (size 15 to 20)
#    0.000    2.286    0.000    2.571    0.000    5.143 
#    0.000    5.714    0.000    1.714    0.000    0.000 
#    0.000    0.000    0.000    0.000    0.000    0.000 
#
# Total GULP energy -694383.531041 kJ/mol
# GULP energy per Si atom -12399.705911 kJ/mol
# Density = 1.951385 g / cm^3
# Si number density = 19.558365 Si / 1000 Ang^3
#
#
#
# Elastic Constant Matrix: (Units=GPa)
#
#
# Indices 1 2 3 4 5 6 
#
# 1 80.1950 32.8401 75.6224 0.0000 0.0000 0.0000
# 2 32.8401 59.2990 33.5321 0.0000 0.0000 0.0000
# 3 75.6224 33.5321 132.6091 0.0000 0.0000 0.0000
# 4 0.0000 0.0000 0.0000 30.3075 0.0000 0.0000
# 5 0.0000 0.0000 0.0000 0.0000 37.7356 0.0000
# 6 0.0000 0.0000 0.0000 0.0000 0.0000 25.8095
#
#
#
# Elastic Compliance Matrix: (Units=1/GPa)
#
#
# Indices 1 2 3 4 5 6 
#
# 1 0.029969 -0.008090 -0.015045 0.000000 0.000000 0.000000
# 2 -0.008090 0.021861 -0.000915 0.000000 0.000000 0.000000
# 3 -0.015045 -0.000915 0.016352 0.000000 0.000000 0.000000
# 4 0.000000 0.000000 0.000000 0.032995 0.000000 0.000000
# 5 0.000000 0.000000 0.000000 0.000000 0.026500 0.000000
# 6 0.000000 0.000000 0.000000 0.000000 0.000000 0.038745
#
#
# Mechanical properties :
#
#
# Convention : Reuss Voigt Hill
#
# Bulk Modulus (GPa) = 49.79137 61.78805 55.78971
# Shear Modulus (GPa) = 22.60234 27.44444 25.02339
#
# Velocity S-wave (km/s) = 3.40315 3.75000 3.58078
# Velocity P-wave (km/s) = 6.39961 7.10002 6.75889
#
# Compressibility (1/GPa) = 0.02008380
#
# Stress axis : x y z
#
# Youngs Moduli (GPa) = 33.36731 45.74361 61.15525
#
# Poissons Ratio (x) = 0.37005 0.92008
# Poissons Ratio (y) = 0.26993 0.05593
# Poissons Ratio (z) = 0.50201 0.04184
#
# Static dielectric constant tensor:
#      x y z
#    x 3.738820 0.000000 0.000000 
#    y 0.000000 3.546100 0.000000 
#    z 0.000000 0.000000 3.668380 
# 
# 
# High freq. dielectric constant tensor:
#      x y z
#    x 1.766330 0.000000 0.000000 
#    y 0.000000 1.747750 0.000000 
#    z 0.000000 0.000000 1.760130 
# 
# From -- ./inp_files/20950.got.cif
#   From: 2010.03.12/outbox.cif.g09.slc.cpg/sg59_11_cif.got.tgz:20950.got - 2010.04.16 16:29:54.
