data_PCOD8241401
_publ_section_title
;
Structure prediction by ZEFSAII (Michael W. Deem and Ramdas Pophale) SiO2 
 PCOD8241401
Probable space group: P M M N
;
_chemical_formula_sum "Si O2"
_cell_formula_units_Z 64
_cell_length_a 8.829407
_cell_length_b 31.166221
_cell_length_c 12.241201
_cell_angle_alpha 90.000000
_cell_angle_beta 90.000000
_cell_angle_gamma 90.000000
_cell_volume 3368.524509
_symmetry_space_group_name_H-M "P M M N"
_symmetry_group_IT_number 59
_space_group.IT_coordinate_system_code '2'
_symmetry_cell_setting 'orthorhombic'
loop_
_space_group_symop_operation_xyz
x,y,z
1/2-x,1/2-y,z
1/2+x,-y,-z
-x,1/2+y,-z
-x,-y,-z
1/2+x,1/2+y,-z
1/2-x,y,z
x,1/2-y,z
loop_
_atom_site_type_symbol
_atom_site_label
_atom_site_fract_x
_atom_site_fract_y
_atom_site_fract_z
Si Si1 0.931122 0.124585 0.911722
Si Si2 0.428700 0.110154 0.691242
Si Si3 0.917706 0.482426 0.684139
Si Si4 0.424705 0.642640 0.518449
Si Si5 0.072792 0.132042 0.137560
Si Si6 0.088115 0.969091 0.073337
Si Si7 0.924481 0.701002 0.681628
Si Si8 0.074111 0.930035 0.695104
O O1 0.750000 0.130024 0.905080
O O2 0.993979 0.076151 0.919243
O O3 0.003077 0.137265 0.794584
O O4 0.996997 0.145889 0.021485
O O5 0.250000 0.105603 0.705429
O O6 0.497928 0.062809 0.667872
O O7 0.470098 0.138948 0.587382
O O8 0.750000 0.480260 0.627629
O O9 0.894362 0.491218 0.810947
O O10 0.009699 0.524756 0.647386
O O11 0.250000 0.645361 0.483110
O O12 0.471948 0.685951 0.580966
O O13 0.455665 0.602486 0.596951
O O14 0.250000 0.123825 0.120270
O O15 0.038219 0.173242 0.211540
O O16 0.003328 0.089085 0.194330
O O17 0.250000 0.961052 0.017818
O O18 0.000000 0.000000 0.000000
O O19 0.750000 0.695056 0.647661
O O20 0.963878 0.750000 0.709459
O O21 0.250000 0.936123 0.722480
#
# Coordination Sequence:
#
# PCOD8241401 Si02
#       8
#     8   8   8   8   8   8   8   8
#     4  10  20  34  50  71 103 140 176 216 261 309
#     4  11  22  36  54  75 102 141 187 228 269 318
#     4  10  20  33  47  67  99 138 181 228 273 314
#     4  10  21  37  56  79 108 140 177 222 268 317
#     4  10  19  32  53  81 110 140 174 213 262 318
#     4   9  18  28  40  60  88 126 169 213 257 298
#     4   9  19  37  61  88 115 140 168 207 257 314
#     4  10  20  33  50  74 104 140 181 225 274 321
#
# _framework density 18.999416
#
# number of rings (size 3 to 8) (size 9 to 14) (size 15 to 20)
#    0.000    2.125    0.000    4.500    0.000    7.750 
#    0.000    0.000    0.000    0.750    0.000    1.750 
#    0.000    0.000    0.000    0.000    0.000    0.000 
#
# Total GULP energy -793122.517813 kJ/mol
# GULP energy per Si atom -12392.539341 kJ/mol
# Density = 1.895617 g / cm^3
# Si number density = 18.999416 Si / 1000 Ang^3
#
#
#
# Elastic Constant Matrix: (Units=GPa)
#
#
# Indices 1 2 3 4 5 6 
#
# 1 119.4266 25.5050 46.9790 0.0000 0.0000 0.0000
# 2 25.5050 66.4673 23.7311 0.0000 0.0000 0.0000
# 3 46.9790 23.7311 97.6215 0.0000 0.0000 0.0000
# 4 0.0000 0.0000 0.0000 16.6288 0.0000 0.0000
# 5 0.0000 0.0000 0.0000 0.0000 33.9672 0.0000
# 6 0.0000 0.0000 0.0000 0.0000 0.0000 22.9750
#
#
#
# Elastic Compliance Matrix: (Units=1/GPa)
#
#
# Indices 1 2 3 4 5 6 
#
# 1 0.010689 -0.002480 -0.004541 0.000000 0.000000 0.000000
# 2 -0.002480 0.017050 -0.002951 0.000000 0.000000 0.000000
# 3 -0.004541 -0.002951 0.013146 0.000000 0.000000 0.000000
# 4 0.000000 0.000000 0.000000 0.060137 0.000000 0.000000
# 5 0.000000 0.000000 0.000000 0.000000 0.029440 0.000000
# 6 0.000000 0.000000 0.000000 0.000000 0.000000 0.043526
#
#
# Mechanical properties :
#
#
# Convention : Reuss Voigt Hill
#
# Bulk Modulus (GPa) = 47.75370 52.88283 50.31826
# Shear Modulus (GPa) = 24.88621 27.20089 26.04355
#
# Velocity S-wave (km/s) = 3.62310 3.78785 3.70639
# Velocity P-wave (km/s) = 6.53386 6.85746 6.69761
#
# Compressibility (1/GPa) = 0.02094079
#
# Stress axis : x y z
#
# Youngs Moduli (GPa) = 93.55030 58.64951 76.06630
#
# Poissons Ratio (x) = 0.14548 0.34543
# Poissons Ratio (y) = 0.23204 0.22448
# Poissons Ratio (z) = 0.42483 0.17308
#
# Static dielectric constant tensor:
#      x y z
#    x 3.405550 0.000000 0.000000 
#    y 0.000000 3.188330 0.000000 
#    z 0.000000 0.000000 3.576180 
# 
# 
# High freq. dielectric constant tensor:
#      x y z
#    x 1.749610 0.000000 0.000000 
#    y 0.000000 1.702190 0.000000 
#    z 0.000000 0.000000 1.740440 
# 
# From -- ./inp_files/14875.got.cif
#   From: 2010.03.12/outbox.cif.g09.slc.cpg/sg59_8_cif.got.tgz:14875.got - 2010.04.16 16:29:54.
