data_PCOD8241917
_publ_section_title
;
Structure prediction by ZEFSAII (Michael W. Deem and Ramdas Pophale) SiO2 
 PCOD8241917
Probable space group: P M M N
;
_chemical_formula_sum "Si O2"
_cell_formula_units_Z 64
_cell_length_a 14.526691
_cell_length_b 23.239752
_cell_length_c 9.987248
_cell_angle_alpha 90.000000
_cell_angle_beta 90.000000
_cell_angle_gamma 90.000000
_cell_volume 3371.661929
_symmetry_space_group_name_H-M "P M M N"
_symmetry_group_IT_number 59
_space_group.IT_coordinate_system_code '2'
_symmetry_cell_setting 'orthorhombic'
loop_
_space_group_symop_operation_xyz
x,y,z
1/2-x,1/2-y,z
1/2+x,-y,-z
-x,1/2+y,-z
-x,-y,-z
1/2+x,1/2+y,-z
1/2-x,y,z
x,1/2-y,z
loop_
_atom_site_type_symbol
_atom_site_label
_atom_site_fract_x
_atom_site_fract_y
_atom_site_fract_z
Si Si1 0.462390 0.426341 0.257471
Si Si2 0.486882 0.317138 0.607601
Si Si3 0.967479 0.815321 0.089487
Si Si4 0.848688 0.316364 0.427709
Si Si5 0.536555 0.313402 0.186014
Si Si6 0.855871 0.913341 0.483091
Si Si7 0.146246 0.995784 0.750012
Si Si8 0.144654 0.076593 0.999420
O O1 0.461073 0.357069 0.244344
O O2 0.406847 0.442247 0.390309
O O3 0.568726 0.446824 0.263438
O O4 0.410930 0.449458 0.125652
O O5 0.469134 0.250000 0.575824
O O6 0.572125 0.343413 0.521838
O O7 0.397106 0.352400 0.564204
O O8 0.510173 0.327149 0.764352
O O9 0.926391 0.750000 0.085353
O O10 0.888956 0.861599 0.056109
O O11 0.047892 0.821599 0.975314
O O12 0.750000 0.346504 0.455998
O O13 0.841743 0.250000 0.467803
O O14 0.869103 0.323076 0.268464
O O15 0.497481 0.250000 0.217958
O O16 0.750000 0.902337 0.519374
O O17 0.868777 0.958535 0.365960
O O18 0.250000 0.969200 0.741377
O O19 0.132328 0.027980 0.889007
O O20 0.250000 0.085166 0.041253
#
# Coordination Sequence:
#
# PCOD8241917 Si02
#       8
#     8   8   8   8   8   8   8   8
#     4  11  21  36  58  81 109 148 178 226 280 331
#     4  10  19  34  55  82 114 150 187 223 270 327
#     4   9  18  32  54  81 113 149 182 219 268 326
#     4   9  17  31  52  76 106 145 185 223 266 319
#     4   9  18  33  53  80 109 138 176 222 272 325
#     4  11  22  37  55  82 113 144 183 227 276 331
#     4  10  22  39  58  80 106 140 190 233 270 329
#     4  10  20  36  57  83 112 145 184 225 272 329
#
# _framework density 18.981736000000001
#
# number of rings (size 3 to 8) (size 9 to 14) (size 15 to 20)
#    0.000    2.125    2.500    1.125    0.000    1.000 
#    0.000    1.875    0.000    7.500    0.000    0.000 
#    0.000    0.000    0.000    0.000    0.000    0.000 
#
# Total GULP energy -793064.954558 kJ/mol
# GULP energy per Si atom -12391.639915 kJ/mol
# Density = 1.893853 g / cm^3
# Si number density = 18.981736 Si / 1000 Ang^3
#
#
#
# Elastic Constant Matrix: (Units=GPa)
#
#
# Indices 1 2 3 4 5 6 
#
# 1 140.5894 42.7731 70.2065 0.0000 0.0000 0.0000
# 2 42.7731 57.4838 28.1485 0.0000 0.0000 0.0000
# 3 70.2065 28.1485 131.9031 0.0000 0.0000 0.0000
# 4 0.0000 0.0000 0.0000 14.3855 0.0000 0.0000
# 5 0.0000 0.0000 0.0000 0.0000 24.2431 0.0000
# 6 0.0000 0.0000 0.0000 0.0000 0.0000 21.7132
#
#
#
# Elastic Compliance Matrix: (Units=1/GPa)
#
#
# Indices 1 2 3 4 5 6 
#
# 1 0.011336 -0.006120 -0.004727 0.000000 0.000000 0.000000
# 2 -0.006120 0.022730 -0.001593 0.000000 0.000000 0.000000
# 3 -0.004727 -0.001593 0.010438 0.000000 0.000000 0.000000
# 4 0.000000 0.000000 0.000000 0.069514 0.000000 0.000000
# 5 0.000000 0.000000 0.000000 0.000000 0.041249 0.000000
# 6 0.000000 0.000000 0.000000 0.000000 0.000000 0.046055
#
#
# Mechanical properties :
#
#
# Convention : Reuss Voigt Hill
#
# Bulk Modulus (GPa) = 50.96306 68.02582 59.49444
# Shear Modulus (GPa) = 21.48290 24.65824 23.07057
#
# Velocity S-wave (km/s) = 3.36782 3.60815 3.49005
# Velocity P-wave (km/s) = 6.48304 7.29888 6.90302
#
# Compressibility (1/GPa) = 0.01962205
#
# Stress axis : x y z
#
# Youngs Moduli (GPa) = 88.21799 43.99455 95.80752
#
# Poissons Ratio (x) = 0.26923 0.45293
# Poissons Ratio (y) = 0.53987 0.15266
# Poissons Ratio (z) = 0.41705 0.07010
#
# Static dielectric constant tensor:
#      x y z
#    x 3.511400 0.000000 0.000000 
#    y 0.000000 3.366070 0.000000 
#    z 0.000000 0.000000 3.795400 
# 
# 
# High freq. dielectric constant tensor:
#      x y z
#    x 1.716420 0.000000 0.000000 
#    y 0.000000 1.728240 0.000000 
#    z 0.000000 0.000000 1.756260 
# 
# From -- ./inp_files/9585.got.cif
#   From: 2010.03.12/outbox.cif.g09.slc.cpg/sg59_5_cif.got.tgz:9585.got - 2010.04.16 16:29:54.
