data_PCOD8241058
_publ_section_title
;
Structure prediction by ZEFSAII (Michael W. Deem and Ramdas Pophale) SiO2 
 PCOD8241058
Probable space group: P M M N
;
_chemical_formula_sum "Si O2"
_cell_formula_units_Z 64
_cell_length_a 9.311671
_cell_length_b 28.108165
_cell_length_c 15.407075
_cell_angle_alpha 90.000000
_cell_angle_beta 90.000000
_cell_angle_gamma 90.000000
_cell_volume 4032.555135
_symmetry_space_group_name_H-M "P M M N"
_symmetry_group_IT_number 59
_space_group.IT_coordinate_system_code '2'
_symmetry_cell_setting 'orthorhombic'
loop_
_space_group_symop_operation_xyz
x,y,z
1/2-x,1/2-y,z
1/2+x,-y,-z
-x,1/2+y,-z
-x,-y,-z
1/2+x,1/2+y,-z
1/2-x,y,z
x,1/2-y,z
loop_
_atom_site_type_symbol
_atom_site_label
_atom_site_fract_x
_atom_site_fract_y
_atom_site_fract_z
Si Si1 0.081425 0.549196 0.994105
Si Si2 0.582845 0.445847 0.671765
Si Si3 0.912897 0.943136 0.680898
Si Si4 0.584418 0.548433 0.489241
Si Si5 0.581655 0.110659 0.842098
Si Si6 0.916598 0.695817 0.896679
Si Si7 0.919364 0.390431 0.173839
Si Si8 0.416276 0.303750 0.904038
O O1 0.250000 0.538843 0.998462
O O2 0.037057 0.575818 0.906093
O O3 0.030131 0.581093 0.074520
O O4 0.000000 0.500000 0.000000
O O5 0.750000 0.438892 0.650439
O O6 0.547018 0.501201 0.687188
O O7 0.491247 0.424244 0.591026
O O8 0.534239 0.417460 0.756604
O O9 0.750000 0.935501 0.714378
O O10 0.927109 0.924206 0.581416
O O11 0.022548 0.913356 0.738185
O O12 0.500000 0.500000 0.500000
O O13 0.750000 0.538190 0.466336
O O14 0.750000 0.119512 0.844720
O O15 0.505884 0.161762 0.841938
O O16 0.750000 0.682472 0.885633
O O17 0.943893 0.750000 0.866492
O O18 0.011619 0.661486 0.837306
O O19 0.964646 0.689729 0.996374
O O20 0.750000 0.384125 0.181125
O O21 0.250000 0.316287 0.894298
O O22 0.447049 0.250000 0.873584
#
# Coordination Sequence:
#
# PCOD8241058 Si02
#       8
#     8   8   8   8   8   8   8   8
#     4  10  21  33  43  61  92 128 162 190 221 265
#     4   9  18  31  48  69  95 127 160 195 235 277
#     4   9  18  32  48  66  93 129 159 189 233 281
#     4   9  17  30  48  68  92 122 157 197 239 278
#     4  10  19  32  47  67  96 126 157 193 234 279
#     4   9  18  33  51  68  89 121 158 195 237 283
#     4  11  21  31  46  70  95 122 158 198 234 271
#     4   9  18  32  49  69  91 118 157 200 237 276
#
# _framework density 15.87083
#
# number of rings (size 3 to 8) (size 9 to 14) (size 15 to 20)
#    0.000    2.500    1.250    3.000    0.000    6.000 
#    0.000    1.250    0.000    0.000    0.000    0.875 
#    0.000    5.000    0.000    0.000    0.000    0.000 
#
# Total GULP energy -793542.754646 kJ/mol
# GULP energy per Si atom -12399.105541 kJ/mol
# Density = 1.583471 g / cm^3
# Si number density = 15.870830 Si / 1000 Ang^3
#
#
#
# Elastic Constant Matrix: (Units=GPa)
#
#
# Indices 1 2 3 4 5 6 
#
# 1 68.7413 44.8732 50.5611 0.0000 0.0000 0.0000
# 2 44.8732 85.7072 44.9695 0.0000 0.0000 0.0000
# 3 50.5611 44.9695 104.2116 0.0000 0.0000 0.0000
# 4 0.0000 0.0000 0.0000 10.3343 0.0000 0.0000
# 5 0.0000 0.0000 0.0000 0.0000 28.2396 0.0000
# 6 0.0000 0.0000 0.0000 0.0000 0.0000 29.5352
#
#
#
# Elastic Compliance Matrix: (Units=1/GPa)
#
#
# Indices 1 2 3 4 5 6 
#
# 1 0.027629 -0.009608 -0.009259 0.000000 0.000000 0.000000
# 2 -0.009608 0.018423 -0.003289 0.000000 0.000000 0.000000
# 3 -0.009259 -0.003289 0.015507 0.000000 0.000000 0.000000
# 4 0.000000 0.000000 0.000000 0.096765 0.000000 0.000000
# 5 0.000000 0.000000 0.000000 0.000000 0.035411 0.000000
# 6 0.000000 0.000000 0.000000 0.000000 0.000000 0.033858
#
#
# Mechanical properties :
#
#
# Convention : Reuss Voigt Hill
#
# Bulk Modulus (GPa) = 57.97411 59.94084 58.95748
# Shear Modulus (GPa) = 18.00794 21.50557 19.75675
#
# Velocity S-wave (km/s) = 3.37212 3.68508 3.53207
# Velocity P-wave (km/s) = 7.19511 7.48039 7.33914
#
# Compressibility (1/GPa) = 0.01724908
#
# Stress axis : x y z
#
# Youngs Moduli (GPa) = 36.19329 54.27892 64.48527
#
# Poissons Ratio (x) = 0.52149 0.59709
# Poissons Ratio (y) = 0.34773 0.21207
# Poissons Ratio (z) = 0.33512 0.17851
#
# Static dielectric constant tensor:
#      x y z
#    x 3.046830 0.000000 0.000000 
#    y 0.000000 2.835380 0.000000 
#    z 0.000000 0.000000 3.301460 
# 
# 
# High freq. dielectric constant tensor:
#      x y z
#    x 1.614930 0.000000 0.000000 
#    y 0.000000 1.585850 0.000000 
#    z 0.000000 0.000000 1.601960 
# 
# From -- ./inp_files/21905.got.cif
#   From: 2010.03.12/outbox.cif.g09.slc.cpg/sg59_11_cif.got.tgz:21905.got - 2010.04.16 16:29:54.
