data_PCOD8241381
_publ_section_title
;
Structure prediction by ZEFSAII (Michael W. Deem and Ramdas Pophale) SiO2 
 PCOD8241381
Probable space group: P M M N
;
_chemical_formula_sum "Si O2"
_cell_formula_units_Z 64
_cell_length_a 19.995001
_cell_length_b 8.969302
_cell_length_c 19.709575
_cell_angle_alpha 90.000000
_cell_angle_beta 90.000000
_cell_angle_gamma 90.000000
_cell_volume 3534.738880
_symmetry_space_group_name_H-M "P M M N"
_symmetry_group_IT_number 59
_space_group.IT_coordinate_system_code '2'
_symmetry_cell_setting 'orthorhombic'
loop_
_space_group_symop_operation_xyz
x,y,z
1/2-x,1/2-y,z
1/2+x,-y,-z
-x,1/2+y,-z
-x,-y,-z
1/2+x,1/2+y,-z
1/2-x,y,z
x,1/2-y,z
loop_
_atom_site_type_symbol
_atom_site_label
_atom_site_fract_x
_atom_site_fract_y
_atom_site_fract_z
Si Si1 0.174416 0.078933 0.419450
Si Si2 0.570986 0.422825 0.838697
Si Si3 0.434305 0.574929 0.815115
Si Si4 0.094436 0.577421 0.314308
Si Si5 0.933867 0.574530 0.470624
Si Si6 0.826316 0.424637 0.953449
Si Si7 0.327312 0.075664 0.906951
Si Si8 0.041217 0.924628 0.661604
O O1 0.250000 0.050947 0.442746
O O2 0.162042 0.250000 0.398676
O O3 0.128415 0.031553 0.482334
O O4 0.160364 0.976213 0.353695
O O5 0.553341 0.250000 0.848785
O O6 0.502500 0.513392 0.848104
O O7 0.603882 0.452536 0.765483
O O8 0.625250 0.478110 0.893212
O O9 0.432692 0.750000 0.827796
O O10 0.369991 0.500802 0.848402
O O11 0.430099 0.534577 0.735536
O O12 0.079279 0.750000 0.328681
O O13 0.034842 0.478813 0.344579
O O14 0.945201 0.750000 0.465676
O O15 0.916531 0.509533 0.396027
O O16 0.000000 0.500000 0.500000
O O17 0.750000 0.464696 0.933422
O O18 0.833887 0.250000 0.967750
O O19 0.849035 0.511345 0.020454
O O20 0.250000 0.038952 0.892158
O O21 0.341855 0.250000 0.906914
O O22 0.043400 0.750000 0.647247
#
# Coordination Sequence:
#
# PCOD8241381 Si02
#       8
#     8   8   8   8   8   8   8   8
#     4  10  22  38  53  74 108 146 180 218 266 320
#     4   9  19  34  53  80 112 143 178 222 269 316
#     4  10  21  36  56  81 109 142 179 222 271 324
#     4  10  19  32  53  79 106 139 178 219 265 315
#     4  11  21  34  57  82 106 140 182 224 267 319
#     4   9  18  34  55  77 105 143 183 222 268 324
#     4  10  21  37  57  80 106 138 179 226 274 327
#     4  10  20  35  55  80 108 137 176 221 265 319
#
# _framework density 18.106005
#
# number of rings (size 3 to 8) (size 9 to 14) (size 15 to 20)
#    0.000    2.125    1.250    1.875    0.000    5.000 
#    0.000    1.875    0.000    3.750    0.000    0.000 
#    0.000    0.000    0.000    0.000    0.000    0.000 
#
# Total GULP energy -793795.855896 kJ/mol
# GULP energy per Si atom -12403.060248 kJ/mol
# Density = 1.806480 g / cm^3
# Si number density = 18.106005 Si / 1000 Ang^3
#
#
#
# Elastic Constant Matrix: (Units=GPa)
#
#
# Indices 1 2 3 4 5 6 
#
# 1 106.8753 50.7971 76.1431 0.0000 0.0000 0.0000
# 2 50.7971 78.8697 59.4967 0.0000 0.0000 0.0000
# 3 76.1431 59.4967 125.5862 0.0000 0.0000 0.0000
# 4 0.0000 0.0000 0.0000 32.9250 0.0000 0.0000
# 5 0.0000 0.0000 0.0000 0.0000 33.0066 0.0000
# 6 0.0000 0.0000 0.0000 0.0000 0.0000 26.6716
#
#
#
# Elastic Compliance Matrix: (Units=1/GPa)
#
#
# Indices 1 2 3 4 5 6 
#
# 1 0.017720 -0.005148 -0.008305 0.000000 0.000000 0.000000
# 2 -0.005148 0.021226 -0.006935 0.000000 0.000000 0.000000
# 3 -0.008305 -0.006935 0.016283 0.000000 0.000000 0.000000
# 4 0.000000 0.000000 0.000000 0.030372 0.000000 0.000000
# 5 0.000000 0.000000 0.000000 0.000000 0.030297 0.000000
# 6 0.000000 0.000000 0.000000 0.000000 0.000000 0.037493
#
#
# Mechanical properties :
#
#
# Convention : Reuss Voigt Hill
#
# Bulk Modulus (GPa) = 69.18306 76.02276 72.60291
# Shear Modulus (GPa) = 25.12748 26.84693 25.98721
#
# Velocity S-wave (km/s) = 3.72936 3.85484 3.79262
# Velocity P-wave (km/s) = 7.53904 7.86714 7.70483
#
# Compressibility (1/GPa) = 0.01445440
#
# Stress axis : x y z
#
# Youngs Moduli (GPa) = 56.43199 47.11196 61.41260
#
# Poissons Ratio (x) = 0.24253 0.51003
# Poissons Ratio (y) = 0.29051 0.42587
# Poissons Ratio (z) = 0.46867 0.32670
#
# Static dielectric constant tensor:
#      x y z
#    x 3.241400 0.000000 0.000000 
#    y 0.000000 3.395270 0.000000 
#    z 0.000000 0.000000 3.535180 
# 
# 
# High freq. dielectric constant tensor:
#      x y z
#    x 1.686610 0.000000 0.000000 
#    y 0.000000 1.709570 0.000000 
#    z 0.000000 0.000000 1.708270 
# 
# From -- ./inp_files/28133.got.cif
#   From: 2010.03.12/outbox.cif.g09.slc.cpg/sg59_15_cif.got.tgz:28133.got - 2010.04.16 16:29:54.
