data_PCOD8241438
_publ_section_title
;
Structure prediction by ZEFSAII (Michael W. Deem and Ramdas Pophale) SiO2 
 PCOD8241438
Probable space group: P M M N
;
_chemical_formula_sum "Si O2"
_cell_formula_units_Z 64
_cell_length_a 17.743036
_cell_length_b 8.915427
_cell_length_c 21.533792
_cell_angle_alpha 90.000000
_cell_angle_beta 90.000000
_cell_angle_gamma 90.000000
_cell_volume 3406.360404
_symmetry_space_group_name_H-M "P M M N"
_symmetry_group_IT_number 59
_space_group.IT_coordinate_system_code '2'
_symmetry_cell_setting 'orthorhombic'
loop_
_space_group_symop_operation_xyz
x,y,z
1/2-x,1/2-y,z
1/2+x,-y,-z
-x,1/2+y,-z
-x,-y,-z
1/2+x,1/2+y,-z
1/2-x,y,z
x,1/2-y,z
loop_
_atom_site_type_symbol
_atom_site_label
_atom_site_fract_x
_atom_site_fract_y
_atom_site_fract_z
Si Si1 0.593344 0.927340 0.625671
Si Si2 0.834887 0.072325 0.269052
Si Si3 0.335714 0.077601 0.127667
Si Si4 0.337171 0.922344 0.490132
Si Si5 0.893194 0.425249 0.753163
Si Si6 0.550440 0.577933 0.186627
Si Si7 0.922642 0.071973 0.388586
Si Si8 0.530838 0.426895 0.938215
O O1 0.596159 0.750000 0.634446
O O2 0.508416 0.985263 0.613588
O O3 0.645596 0.975394 0.568876
O O4 0.626879 0.004384 0.686919
O O5 0.750000 0.008949 0.267330
O O6 0.834396 0.250000 0.270633
O O7 0.876679 0.006260 0.329922
O O8 0.878502 0.020550 0.207284
O O9 0.250000 0.063949 0.104342
O O10 0.361508 0.250000 0.132292
O O11 0.341720 0.003381 0.195310
O O12 0.387299 0.993320 0.077477
O O13 0.250000 0.936624 0.508064
O O14 0.358597 0.750000 0.475335
O O15 0.384964 0.986266 0.547990
O O16 0.874165 0.250000 0.753269
O O17 0.980709 0.455825 0.767810
O O18 0.574631 0.750000 0.190311
O O19 0.527468 0.533663 0.116775
O O20 0.918673 0.250000 0.386567
O O21 0.539674 0.250000 0.946468
O O22 0.500000 0.500000 0.000000
#
# Coordination Sequence:
#
# PCOD8241438 Si02
#       8
#     8   8   8   8   8   8   8   8
#     4  11  21  34  55  80 106 138 178 229 282 332
#     4  10  19  32  54  82 109 139 179 225 272 326
#     4  10  21  37  59  88 120 152 188 234 286 334
#     4  10  21  37  54  72 101 141 181 225 278 334
#     4  10  20  35  56  81 109 144 184 225 274 334
#     4   9  19  35  54  79 111 142 176 220 269 322
#     4   9  18  34  55  78 102 136 181 225 273 330
#     4  10  21  38  61  88 117 155 197 235 277 326
#
# _framework density 18.788381999999999
#
# number of rings (size 3 to 8) (size 9 to 14) (size 15 to 20)
#    0.000    2.125    1.250    3.000    0.000    6.000 
#    0.000    1.875    0.000    2.250    0.000    0.000 
#    0.000    0.000    0.000    0.000    0.000    0.000 
#
# Total GULP energy -793817.433089 kJ/mol
# GULP energy per Si atom -12403.397392 kJ/mol
# Density = 1.874562 g / cm^3
# Si number density = 18.788382 Si / 1000 Ang^3
#
#
#
# Elastic Constant Matrix: (Units=GPa)
#
#
# Indices 1 2 3 4 5 6 
#
# 1 78.1643 33.6247 39.0011 0.0000 0.0000 0.0000
# 2 33.6247 78.1886 45.0584 0.0000 0.0000 0.0000
# 3 39.0011 45.0584 128.4499 0.0000 0.0000 0.0000
# 4 0.0000 0.0000 0.0000 30.9746 0.0000 0.0000
# 5 0.0000 0.0000 0.0000 0.0000 23.5116 0.0000
# 6 0.0000 0.0000 0.0000 0.0000 0.0000 27.5461
#
#
#
# Elastic Compliance Matrix: (Units=1/GPa)
#
#
# Indices 1 2 3 4 5 6 
#
# 1 0.016682 -0.005333 -0.003194 0.000000 0.000000 0.000000
# 2 -0.005333 0.017735 -0.004602 0.000000 0.000000 0.000000
# 3 -0.003194 -0.004602 0.010369 0.000000 0.000000 0.000000
# 4 0.000000 0.000000 0.000000 0.032285 0.000000 0.000000
# 5 0.000000 0.000000 0.000000 0.000000 0.042532 0.000000
# 6 0.000000 0.000000 0.000000 0.000000 0.000000 0.036303
#
#
# Mechanical properties :
#
#
# Convention : Reuss Voigt Hill
#
# Bulk Modulus (GPa) = 53.97403 57.79678 55.88540
# Shear Modulus (GPa) = 26.54778 27.54770 27.04774
#
# Velocity S-wave (km/s) = 3.76305 3.83327 3.79832
# Velocity P-wave (km/s) = 6.90438 7.10075 7.00325
#
# Compressibility (1/GPa) = 0.01852743
#
# Stress axis : x y z
#
# Youngs Moduli (GPa) = 59.94648 56.38553 96.43871
#
# Poissons Ratio (x) = 0.30071 0.30805
# Poissons Ratio (y) = 0.31970 0.44380
# Poissons Ratio (z) = 0.19148 0.25948
#
# Static dielectric constant tensor:
#      x y z
#    x 3.427650 0.000000 0.000000 
#    y 0.000000 3.327870 0.000000 
#    z 0.000000 0.000000 3.400530 
# 
# 
# High freq. dielectric constant tensor:
#      x y z
#    x 1.727270 0.000000 0.000000 
#    y 0.000000 1.721800 0.000000 
#    z 0.000000 0.000000 1.728290 
# 
# From -- ./inp_files/30729.got.cif
#   From: 2010.03.12/outbox.cif.g09.slc.cpg/sg59_16_cif.got.tgz:30729.got - 2010.04.16 16:29:54.
