data_PCOD8241990
_publ_section_title
;
Structure prediction by ZEFSAII (Michael W. Deem and Ramdas Pophale) SiO2 
 PCOD8241990
Probable space group: P M M N
;
_chemical_formula_sum "Si O2"
_cell_formula_units_Z 64
_cell_length_a 9.050224
_cell_length_b 18.728813
_cell_length_c 19.876476
_cell_angle_alpha 90.000000
_cell_angle_beta 90.000000
_cell_angle_gamma 90.000000
_cell_volume 3369.061746
_symmetry_space_group_name_H-M "P M M N"
_symmetry_group_IT_number 59
_space_group.IT_coordinate_system_code '2'
_symmetry_cell_setting 'orthorhombic'
loop_
_space_group_symop_operation_xyz
x,y,z
1/2-x,1/2-y,z
1/2+x,-y,-z
-x,1/2+y,-z
-x,-y,-z
1/2+x,1/2+y,-z
1/2-x,y,z
x,1/2-y,z
loop_
_atom_site_type_symbol
_atom_site_label
_atom_site_fract_x
_atom_site_fract_y
_atom_site_fract_z
Si Si1 0.920884 0.667484 0.022820
Si Si2 0.921428 0.088477 0.096160
Si Si3 0.074502 0.169483 0.215919
Si Si4 0.923359 0.832143 0.386687
Si Si5 0.575776 0.925399 0.511750
Si Si6 0.581864 0.933062 0.143305
Si Si7 0.075544 0.079997 0.339244
Si Si8 0.074860 0.569708 0.283265
O O1 0.750000 0.660919 0.001264
O O2 0.971957 0.750000 0.021893
O O3 0.945809 0.636305 0.097310
O O4 0.017639 0.620810 0.972494
O O5 0.750000 0.107627 0.101527
O O6 0.005650 0.122359 0.158259
O O7 0.949273 0.003509 0.098465
O O8 0.250000 0.164917 0.209840
O O9 0.017741 0.250000 0.208681
O O10 0.017414 0.139748 0.287624
O O11 0.750000 0.843055 0.375614
O O12 0.966955 0.750000 0.393101
O O13 0.977126 0.869338 0.455750
O O14 0.006749 0.863510 0.322444
O O15 0.750000 0.937133 0.508962
O O16 0.525922 0.897832 0.585634
O O17 0.500000 0.000000 0.500000
O O18 0.750000 0.934347 0.170295
O O19 0.472270 0.928586 0.205810
O O20 0.250000 0.075552 0.334291
O O21 0.012892 0.002312 0.318357
O O22 0.250000 0.574841 0.286724
#
# Coordination Sequence:
#
# PCOD8241990 Si02
#       8
#     8   8   8   8   8   8   8   8
#     4  10  22  40  60  81 109 146 187 231 281 338
#     4  11  22  36  57  84 115 148 183 229 279 334
#     4  10  20  35  56  81 111 148 186 224 273 334
#     4  10  22  38  57  84 118 155 194 237 287 346
#     4  10  19  34  57  82 110 145 187 232 281 333
#     4  10  22  39  59  85 114 148 190 233 282 340
#     4   9  18  33  54  82 111 141 183 234 280 326
#     4  11  21  36  60  86 114 149 190 239 288 334
#
# _framework density 18.996386999999999
#
# number of rings (size 3 to 8) (size 9 to 14) (size 15 to 20)
#    0.000    1.875    2.500    1.500    0.000    4.250 
#    0.000    4.375    0.000    0.000    0.000    1.750 
#    0.000    0.000    0.000    0.000    0.000    0.000 
#
# Total GULP energy -793702.919254 kJ/mol
# GULP energy per Si atom -12401.608113 kJ/mol
# Density = 1.895315 g / cm^3
# Si number density = 18.996387 Si / 1000 Ang^3
#
#
#
# Elastic Constant Matrix: (Units=GPa)
#
#
# Indices 1 2 3 4 5 6 
#
# 1 31.3127 34.0670 21.4659 0.0000 0.0000 0.0000
# 2 34.0670 110.4778 43.7866 0.0000 0.0000 0.0000
# 3 21.4659 43.7866 97.1052 0.0000 0.0000 0.0000
# 4 0.0000 0.0000 0.0000 34.4738 0.0000 0.0000
# 5 0.0000 0.0000 0.0000 0.0000 25.8737 0.0000
# 6 0.0000 0.0000 0.0000 0.0000 0.0000 25.4837
#
#
#
# Elastic Compliance Matrix: (Units=1/GPa)
#
#
# Indices 1 2 3 4 5 6 
#
# 1 0.049969 -0.013431 -0.004990 0.000000 0.000000 0.000000
# 2 -0.013431 0.014631 -0.003629 0.000000 0.000000 0.000000
# 3 -0.004990 -0.003629 0.013037 0.000000 0.000000 0.000000
# 4 0.000000 0.000000 0.000000 0.029008 0.000000 0.000000
# 5 0.000000 0.000000 0.000000 0.000000 0.038649 0.000000
# 6 0.000000 0.000000 0.000000 0.000000 0.000000 0.039241
#
#
# Mechanical properties :
#
#
# Convention : Reuss Voigt Hill
#
# Bulk Modulus (GPa) = 29.81596 48.61498 39.21547
# Shear Modulus (GPa) = 20.84960 26.47130 23.66045
#
# Velocity S-wave (km/s) = 3.31653 3.73700 3.53303
# Velocity P-wave (km/s) = 5.51321 6.65338 6.10995
#
# Compressibility (1/GPa) = 0.03353908
#
# Stress axis : x y z
#
# Youngs Moduli (GPa) = 20.01253 68.34694 76.70288
#
# Poissons Ratio (x) = 0.91795 0.38273
# Poissons Ratio (y) = 0.26878 0.27832
# Poissons Ratio (z) = 0.09986 0.24800
#
# Static dielectric constant tensor:
#      x y z
#    x 3.331260 0.000000 0.000000 
#    y 0.000000 3.552690 0.000000 
#    z 0.000000 0.000000 3.635560 
# 
# 
# High freq. dielectric constant tensor:
#      x y z
#    x 1.720840 0.000000 0.000000 
#    y 0.000000 1.742730 0.000000 
#    z 0.000000 0.000000 1.750640 
# 
# From -- ./inp_files/29402.got.cif
#   From: 2010.03.12/outbox.cif.g09.slc.cpg/sg59_15_cif.got.tgz:29402.got - 2010.04.16 16:29:54.
