data_PCOD8241651
_publ_section_title
;
Structure prediction by ZEFSAII (Michael W. Deem and Ramdas Pophale) SiO2 
 PCOD8241651
Probable space group: P M M N
;
_chemical_formula_sum "Si O2"
_cell_formula_units_Z 56
_cell_length_a 9.250458
_cell_length_b 20.415482
_cell_length_c 15.913817
_cell_angle_alpha 90.000000
_cell_angle_beta 90.000000
_cell_angle_gamma 90.000000
_cell_volume 3005.365061
_symmetry_space_group_name_H-M "P M M N"
_symmetry_group_IT_number 59
_space_group.IT_coordinate_system_code '2'
_symmetry_cell_setting 'orthorhombic'
loop_
_space_group_symop_operation_xyz
x,y,z
1/2-x,1/2-y,z
1/2+x,-y,-z
-x,1/2+y,-z
-x,-y,-z
1/2+x,1/2+y,-z
1/2-x,y,z
x,1/2-y,z
loop_
_atom_site_type_symbol
_atom_site_label
_atom_site_fract_x
_atom_site_fract_y
_atom_site_fract_z
Si Si1 0.080327 0.496474 0.912613
Si Si2 0.417105 0.080541 0.433465
Si Si3 0.083290 0.042118 0.620777
Si Si4 0.910758 0.326093 0.331554
Si Si5 0.079668 0.119463 0.787091
Si Si6 0.076590 0.750000 0.159109
Si Si7 0.078103 0.750000 0.967333
Si Si8 0.920873 0.136239 0.151162
O O1 0.250000 0.496762 0.930356
O O2 0.035273 0.432667 0.859197
O O3 0.032545 0.561478 0.862892
O O4 0.000000 0.500000 0.000000
O O5 0.250000 0.077941 0.412334
O O6 0.447211 0.077487 0.532603
O O7 0.485475 0.148472 0.404654
O O8 0.490834 0.023855 0.378009
O O9 0.250000 0.021931 0.631120
O O10 0.037030 0.089506 0.696631
O O11 0.750000 0.357406 0.339096
O O12 0.899599 0.250000 0.344388
O O13 0.982028 0.342562 0.241445
O O14 0.250000 0.135592 0.791469
O O15 0.987672 0.185404 0.797095
O O16 0.250000 0.750000 0.167778
O O17 0.022715 0.750000 0.062782
O O18 0.250000 0.750000 0.966851
O O19 0.016944 0.684885 0.920847
O O20 0.750000 0.145093 0.151741
#
# Coordination Sequence:
#
# PCOD8241651 Si02
#       8
#     8   8   8   8   8   4   4   8
#     4  10  20  33  53  80 110 142 180 229 275 320
#     4  10  20  34  56  85 113 139 171 223 281 321
#     4   9  19  38  61  81 103 141 187 221 260 324
#     4  10  19  33  54  79 108 146 188 221 257 318
#     4  10  21  39  59  79 107 148 191 227 268 328
#     4  11  23  37  57  82 107 138 180 237 289 325
#     4   9  16  29  51  78 107 140 182 227 269 313
#     4   9  16  30  52  78 105 140 185 223 256 312
#
# _framework density 18.633344999999998
#
# number of rings (size 3 to 8) (size 9 to 14) (size 15 to 20)
#    0.000    2.286    0.714    2.357    0.000    5.429 
#    1.286    2.143    0.000    1.714    0.000    0.000 
#    0.000    0.000    0.000    0.000    0.000    0.000 
#
# Total GULP energy -694375.689122 kJ/mol
# GULP energy per Si atom -12399.565877 kJ/mol
# Density = 1.859093 g / cm^3
# Si number density = 18.633345 Si / 1000 Ang^3
#
#
#
# Elastic Constant Matrix: (Units=GPa)
#
#
# Indices 1 2 3 4 5 6 
#
# 1 53.4154 47.6234 50.6915 0.0000 0.0000 0.0000
# 2 47.6234 129.0536 63.1084 0.0000 0.0000 0.0000
# 3 50.6915 63.1084 119.0347 0.0000 0.0000 0.0000
# 4 0.0000 0.0000 0.0000 34.3915 0.0000 0.0000
# 5 0.0000 0.0000 0.0000 0.0000 28.4208 0.0000
# 6 0.0000 0.0000 0.0000 0.0000 0.0000 26.0883
#
#
#
# Elastic Compliance Matrix: (Units=1/GPa)
#
#
# Indices 1 2 3 4 5 6 
#
# 1 0.036597 -0.007943 -0.011374 0.000000 0.000000 0.000000
# 2 -0.007943 0.012185 -0.003077 0.000000 0.000000 0.000000
# 3 -0.011374 -0.003077 0.014876 0.000000 0.000000 0.000000
# 4 0.000000 0.000000 0.000000 0.029077 0.000000 0.000000
# 5 0.000000 0.000000 0.000000 0.000000 0.035186 0.000000
# 6 0.000000 0.000000 0.000000 0.000000 0.000000 0.038331
#
#
# Mechanical properties :
#
#
# Convention : Reuss Voigt Hill
#
# Bulk Modulus (GPa) = 52.99664 69.37225 61.18444
# Shear Modulus (GPa) = 23.00656 27.11880 25.06268
#
# Velocity S-wave (km/s) = 3.51764 3.81910 3.67146
# Velocity P-wave (km/s) = 6.70835 7.53381 7.13303
#
# Compressibility (1/GPa) = 0.01886912
#
# Stress axis : x y z
#
# Youngs Moduli (GPa) = 27.32486 82.06989 67.22245
#
# Poissons Ratio (x) = 0.65189 0.76457
# Poissons Ratio (y) = 0.21704 0.20687
# Poissons Ratio (z) = 0.31079 0.25256
#
# Static dielectric constant tensor:
#      x y z
#    x 3.190720 0.000000 0.000000 
#    y 0.000000 3.717730 0.000000 
#    z 0.000000 0.000000 3.673870 
# 
# 
# High freq. dielectric constant tensor:
#      x y z
#    x 1.695920 0.000000 0.000000 
#    y 0.000000 1.729320 0.000000 
#    z 0.000000 0.000000 1.731260 
# 
# From -- ./inp_files/21155.got.cif
#   From: 2010.03.12/outbox.cif.g09.slc.cpg/sg59_11_cif.got.tgz:21155.got - 2010.04.16 16:29:54.
