data_PCOD8241960
_publ_section_title
;
Structure prediction by ZEFSAII (Michael W. Deem and Ramdas Pophale) SiO2 
 PCOD8241960
Probable space group: P M M N
;
_chemical_formula_sum "Si O2"
_cell_formula_units_Z 40
_cell_length_a 26.026884
_cell_length_b 8.723323
_cell_length_c 9.245365
_cell_angle_alpha 90.000000
_cell_angle_beta 90.000000
_cell_angle_gamma 90.000000
_cell_volume 2099.076137
_symmetry_space_group_name_H-M "P M M N"
_symmetry_group_IT_number 59
_space_group.IT_coordinate_system_code '2'
_symmetry_cell_setting 'orthorhombic'
loop_
_space_group_symop_operation_xyz
x,y,z
1/2-x,1/2-y,z
1/2+x,-y,-z
-x,1/2+y,-z
-x,-y,-z
1/2+x,1/2+y,-z
1/2-x,y,z
x,1/2-y,z
loop_
_atom_site_type_symbol
_atom_site_label
_atom_site_fract_x
_atom_site_fract_y
_atom_site_fract_z
Si Si1 0.355362 0.430816 0.404195
Si Si2 0.250000 0.580186 0.422146
Si Si3 0.639850 0.434054 0.907749
Si Si4 0.250000 0.582607 0.079762
Si Si5 0.546678 0.570232 0.413170
Si Si6 0.952221 0.568043 0.083951
O O1 0.351939 0.250000 0.379309
O O2 0.301294 0.489640 0.469583
O O3 0.371332 0.509377 0.253878
O O4 0.399009 0.478211 0.518332
O O5 0.250000 0.750000 0.493296
O O6 0.250000 0.597453 0.251554
O O7 0.638573 0.250000 0.907019
O O8 0.696060 0.498206 0.962157
O O9 0.599632 0.502158 0.018063
O O10 0.250000 0.750000 0.007540
O O11 0.500000 0.500000 0.500000
O O12 0.539523 0.750000 0.418861
O O13 0.544892 0.511313 0.248784
O O14 0.952450 0.750000 0.070331
O O15 0.000000 0.500000 0.000000
#
# Coordination Sequence:
#
# PCOD8241960 Si02
#       6
#     8   4   8   4   8   8
#     4  10  19  34  56  82 110 145 183 222 267 320
#     4   9  17  31  52  81 112 144 180 222 266 315
#     4  10  19  34  56  83 112 144 180 224 269 317
#     4   7  14  29  50  75 106 138 172 210 254 303
#     4  10  23  39  56  78 107 140 179 224 273 326
#     4  11  23  39  56  79 108 141 180 225 275 330
#
# _framework density 19.056004000000001
#
# number of rings (size 3 to 8) (size 9 to 14) (size 15 to 20)
#    0.000    2.200    0.000    4.500    0.000    6.400 
#    0.000    2.500    0.000    3.600    0.000    0.000 
#    0.000    0.000    0.000    0.000    0.000    0.000 
#
# Total GULP energy -495840.945972 kJ/mol
# GULP energy per Si atom -12396.023649 kJ/mol
# Density = 1.901263 g / cm^3
# Si number density = 19.056004 Si / 1000 Ang^3
#
#
#
# Elastic Constant Matrix: (Units=GPa)
#
#
# Indices 1 2 3 4 5 6 
#
# 1 201.8694 56.8514 97.4453 0.0000 0.0000 0.0000
# 2 56.8514 77.2986 45.8020 0.0000 0.0000 0.0000
# 3 97.4453 45.8020 131.7388 0.0000 0.0000 0.0000
# 4 0.0000 0.0000 0.0000 24.2399 0.0000 0.0000
# 5 0.0000 0.0000 0.0000 0.0000 32.9433 0.0000
# 6 0.0000 0.0000 0.0000 0.0000 0.0000 36.4073
#
#
#
# Elastic Compliance Matrix: (Units=1/GPa)
#
#
# Indices 1 2 3 4 5 6 
#
# 1 0.008251 -0.003088 -0.005030 0.000000 0.000000 0.000000
# 2 -0.003088 0.017449 -0.003782 0.000000 0.000000 0.000000
# 3 -0.005030 -0.003782 0.012626 0.000000 0.000000 0.000000
# 4 0.000000 0.000000 0.000000 0.041254 0.000000 0.000000
# 5 0.000000 0.000000 0.000000 0.000000 0.030355 0.000000
# 6 0.000000 0.000000 0.000000 0.000000 0.000000 0.027467
#
#
# Mechanical properties :
#
#
# Convention : Reuss Voigt Hill
#
# Bulk Modulus (GPa) = 68.84075 90.12269 79.48172
# Shear Modulus (GPa) = 30.11211 32.77197 31.44204
#
# Velocity S-wave (km/s) = 3.97947 4.15151 4.06640
# Velocity P-wave (km/s) = 7.57092 8.38906 7.99047
#
# Compressibility (1/GPa) = 0.01452628
#
# Stress axis : x y z
#
# Youngs Moduli (GPa) = 121.19203 57.30847 79.20102
#
# Poissons Ratio (x) = 0.17700 0.39835
# Poissons Ratio (y) = 0.37430 0.29955
# Poissons Ratio (z) = 0.60955 0.21675
#
# Static dielectric constant tensor:
#      x y z
#    x 3.779560 0.000000 0.000000 
#    y 0.000000 3.532860 0.000000 
#    z 0.000000 0.000000 3.393200 
# 
# 
# High freq. dielectric constant tensor:
#      x y z
#    x 1.767070 0.000000 0.000000 
#    y 0.000000 1.740800 0.000000 
#    z 0.000000 0.000000 1.716300 
# 
# From -- ./inp_files/12421.got.cif
#   From: 2010.03.12/outbox.cif.g09.slc.cpg/sg59_7_cif.got.tgz:12421.got - 2010.04.16 16:29:54.
