data_PCOD8241566
_publ_section_title
;
Structure prediction by ZEFSAII (Michael W. Deem and Ramdas Pophale) SiO2 
 PCOD8241566
Probable space group: P M M N
;
_chemical_formula_sum "Si O2"
_cell_formula_units_Z 56
_cell_length_a 9.135911
_cell_length_b 18.333758
_cell_length_c 17.629578
_cell_angle_alpha 90.000000
_cell_angle_beta 90.000000
_cell_angle_gamma 90.000000
_cell_volume 2952.876417
_symmetry_space_group_name_H-M "P M M N"
_symmetry_group_IT_number 59
_space_group.IT_coordinate_system_code '2'
_symmetry_cell_setting 'orthorhombic'
loop_
_space_group_symop_operation_xyz
x,y,z
1/2-x,1/2-y,z
1/2+x,-y,-z
-x,1/2+y,-z
-x,-y,-z
1/2+x,1/2+y,-z
1/2-x,y,z
x,1/2-y,z
loop_
_atom_site_type_symbol
_atom_site_label
_atom_site_fract_x
_atom_site_fract_y
_atom_site_fract_z
Si Si1 0.076320 0.922369 0.507480
Si Si2 0.919367 0.592456 0.225235
Si Si3 0.419889 0.934361 0.958903
Si Si4 0.578554 0.071671 0.210061
Si Si5 0.582359 0.835750 0.380329
Si Si6 0.924413 0.332509 0.345891
Si Si7 0.080646 0.831175 0.091829
O O1 0.250000 0.933271 0.506798
O O2 0.022449 0.881573 0.583601
O O3 0.028818 0.872493 0.437803
O O4 0.000000 0.000000 0.500000
O O5 0.750000 0.603220 0.206869
O O6 0.956357 0.508397 0.243132
O O7 0.967601 0.641032 0.296387
O O8 0.003643 0.615996 0.150644
O O9 0.250000 0.956391 0.952519
O O10 0.486881 0.920193 0.874905
O O11 0.442950 0.860853 0.006859
O O12 0.500000 0.000000 0.000000
O O13 0.750000 0.085762 0.205516
O O14 0.512067 0.131023 0.268596
O O15 0.750000 0.861144 0.395463
O O16 0.566357 0.750000 0.388415
O O17 0.750000 0.330925 0.344687
O O18 0.986307 0.250000 0.353042
O O19 0.250000 0.829914 0.113299
O O20 0.013453 0.750000 0.095640
#
# Coordination Sequence:
#
# PCOD8241566 Si02
#       7
#     8   8   8   8   8   8   8
#     4  11  22  37  58  83 112 146 187 232 280 334
#     4  10  19  34  55  78 106 142 184 223 264 324
#     4  10  19  33  53  77 106 140 178 221 268 323
#     4   9  17  30  52  78 103 135 177 221 265 317
#     4  10  21  36  55  81 113 146 181 226 277 329
#     4   9  18  33  54  81 110 139 177 228 277 323
#     4  10  21  34  49  75 110 141 173 223 281 328
#
# _framework density 18.964559000000001
#
# number of rings (size 3 to 8) (size 9 to 14) (size 15 to 20)
#    0.000    2.143    1.429    2.143    0.000    5.143 
#    0.000    2.857    0.000    0.857    0.000    0.000 
#    0.000    0.000    0.000    0.000    0.000    0.000 
#
# Total GULP energy -694385.208808 kJ/mol
# GULP energy per Si atom -12399.735872 kJ/mol
# Density = 1.892140 g / cm^3
# Si number density = 18.964559 Si / 1000 Ang^3
#
#
#
# Elastic Constant Matrix: (Units=GPa)
#
#
# Indices 1 2 3 4 5 6 
#
# 1 37.3355 30.6952 38.0598 0.0000 0.0000 0.0000
# 2 30.6952 123.2963 65.1157 0.0000 0.0000 0.0000
# 3 38.0598 65.1157 122.3447 0.0000 0.0000 0.0000
# 4 0.0000 0.0000 0.0000 34.1135 0.0000 0.0000
# 5 0.0000 0.0000 0.0000 0.0000 20.6315 0.0000
# 6 0.0000 0.0000 0.0000 0.0000 0.0000 24.9077
#
#
#
# Elastic Compliance Matrix: (Units=1/GPa)
#
#
# Indices 1 2 3 4 5 6 
#
# 1 0.041209 -0.004853 -0.010237 0.000000 0.000000 0.000000
# 2 -0.004853 0.011853 -0.004799 0.000000 0.000000 0.000000
# 3 -0.010237 -0.004799 0.013912 0.000000 0.000000 0.000000
# 4 0.000000 0.000000 0.000000 0.029314 0.000000 0.000000
# 5 0.000000 0.000000 0.000000 0.000000 0.048469 0.000000
# 6 0.000000 0.000000 0.000000 0.000000 0.000000 0.040148
#
#
# Mechanical properties :
#
#
# Convention : Reuss Voigt Hill
#
# Bulk Modulus (GPa) = 36.76814 61.19088 48.97951
# Shear Modulus (GPa) = 21.39041 25.87095 23.63068
#
# Velocity S-wave (km/s) = 3.36209 3.69748 3.53376
# Velocity P-wave (km/s) = 5.87379 7.11087 6.52173
#
# Compressibility (1/GPa) = 0.02719746
#
# Stress axis : x y z
#
# Youngs Moduli (GPa) = 24.26630 84.36585 71.87890
#
# Poissons Ratio (x) = 0.40943 0.73581
# Poissons Ratio (y) = 0.11776 0.34494
# Poissons Ratio (z) = 0.24841 0.40486
#
# Static dielectric constant tensor:
#      x y z
#    x 3.183190 0.000000 0.000000 
#    y 0.000000 4.482530 0.000000 
#    z 0.000000 0.000000 3.778140 
# 
# 
# High freq. dielectric constant tensor:
#      x y z
#    x 1.697660 0.000000 0.000000 
#    y 0.000000 1.748480 0.000000 
#    z 0.000000 0.000000 1.751960 
# 
# From -- ./inp_files/21015.got.cif
#   From: 2010.03.12/outbox.cif.g09.slc.cpg/sg59_11_cif.got.tgz:21015.got - 2010.04.16 16:29:54.
