data_PCOD8241385
_publ_section_title
;
Structure prediction by ZEFSAII (Michael W. Deem and Ramdas Pophale) SiO2 
 PCOD8241385
Probable space group: P M M N
;
_chemical_formula_sum "Si O2"
_cell_formula_units_Z 40
_cell_length_a 15.449325
_cell_length_b 17.798845
_cell_length_c 7.693948
_cell_angle_alpha 90.000000
_cell_angle_beta 90.000000
_cell_angle_gamma 90.000000
_cell_volume 2115.682906
_symmetry_space_group_name_H-M "P M M N"
_symmetry_group_IT_number 59
_space_group.IT_coordinate_system_code '2'
_symmetry_cell_setting 'orthorhombic'
loop_
_space_group_symop_operation_xyz
x,y,z
1/2-x,1/2-y,z
1/2+x,-y,-z
-x,1/2+y,-z
-x,-y,-z
1/2+x,1/2+y,-z
1/2-x,y,z
x,1/2-y,z
loop_
_atom_site_type_symbol
_atom_site_label
_atom_site_fract_x
_atom_site_fract_y
_atom_site_fract_z
Si Si1 0.927052 0.517441 0.723649
Si Si2 0.655560 0.831932 0.166805
Si Si3 0.653258 0.072770 0.034665
Si Si4 0.990337 0.663619 0.884052
Si Si5 0.112779 0.473183 0.652263
O O1 0.875027 0.489516 0.892285
O O2 0.960216 0.604307 0.737048
O O3 0.869918 0.506723 0.549797
O O4 0.011643 0.466393 0.700004
O O5 0.750000 0.837522 0.073464
O O6 0.643589 0.750000 0.252074
O O7 0.653063 0.891325 0.321750
O O8 0.580275 0.846980 0.031586
O O9 0.750000 0.102730 0.990124
O O10 0.585303 0.141571 0.040848
O O11 0.658444 0.033452 0.222810
O O12 0.993424 0.750000 0.815172
#
# Coordination Sequence:
#
# PCOD8241385 Si02
#       5
#     8   8   8   8   8
#     4  10  20  35  57  83 106 143 190 229 279 330
#     4  10  19  32  53  79 109 143 176 220 279 331
#     4  11  21  36  57  82 115 149 186 232 278 328
#     4  10  20  37  57  81 114 148 186 228 273 333
#     4  10  19  35  56  80 109 141 184 234 279 324
#
# _framework density 18.906424000000001
#
# number of rings (size 3 to 8) (size 9 to 14) (size 15 to 20)
#    0.000    1.800    4.000    1.800    0.000    2.800 
#    0.000    0.000    0.000    2.400    0.000    2.800 
#    0.000    0.000    0.000    0.000    0.000    0.000 
#
# Total GULP energy -495689.530475 kJ/mol
# GULP energy per Si atom -12392.238262 kJ/mol
# Density = 1.886339 g / cm^3
# Si number density = 18.906424 Si / 1000 Ang^3
#
#
#
# Elastic Constant Matrix: (Units=GPa)
#
#
# Indices 1 2 3 4 5 6 
#
# 1 116.7334 32.3264 31.2347 0.0000 0.0000 0.0000
# 2 32.3264 100.9196 31.0850 0.0000 0.0000 0.0000
# 3 31.2347 31.0850 89.0442 0.0000 0.0000 0.0000
# 4 0.0000 0.0000 0.0000 16.5389 0.0000 0.0000
# 5 0.0000 0.0000 0.0000 0.0000 15.1806 0.0000
# 6 0.0000 0.0000 0.0000 0.0000 0.0000 21.6115
#
#
#
# Elastic Compliance Matrix: (Units=1/GPa)
#
#
# Indices 1 2 3 4 5 6 
#
# 1 0.009932 -0.002362 -0.002659 0.000000 0.000000 0.000000
# 2 -0.002362 0.011665 -0.003243 0.000000 0.000000 0.000000
# 3 -0.002659 -0.003243 0.013295 0.000000 0.000000 0.000000
# 4 0.000000 0.000000 0.000000 0.060463 0.000000 0.000000
# 5 0.000000 0.000000 0.000000 0.000000 0.065873 0.000000
# 6 0.000000 0.000000 0.000000 0.000000 0.000000 0.046272
#
#
# Mechanical properties :
#
#
# Convention : Reuss Voigt Hill
#
# Bulk Modulus (GPa) = 54.45982 55.10993 54.78487
# Shear Modulus (GPa) = 21.72479 24.80296 23.26388
#
# Velocity S-wave (km/s) = 3.39347 3.62592 3.51162
# Velocity P-wave (km/s) = 6.64994 6.83680 6.74401
#
# Compressibility (1/GPa) = 0.01836216
#
# Stress axis : x y z
#
# Youngs Moduli (GPa) = 100.68172 85.72937 75.21353
#
# Poissons Ratio (x) = 0.20252 0.20002
# Poissons Ratio (y) = 0.23785 0.24395
# Poissons Ratio (z) = 0.26775 0.27806
#
# Static dielectric constant tensor:
#      x y z
#    x 3.629200 0.000000 0.000000 
#    y 0.000000 3.506070 0.000000 
#    z 0.000000 0.000000 3.289930 
# 
# 
# High freq. dielectric constant tensor:
#      x y z
#    x 1.744110 0.000000 0.000000 
#    y 0.000000 1.724480 0.000000 
#    z 0.000000 0.000000 1.710020 
# 
# From -- ./inp_files/8800.got.cif
#   From: 2010.03.12/outbox.cif.g09.slc.cpg/sg59_5_cif.got.tgz:8800.got - 2010.04.16 16:29:54.
