data_PCOD8241284
_publ_section_title
;
Structure prediction by ZEFSAII (Michael W. Deem and Ramdas Pophale) SiO2 
 PCOD8241284
Probable space group: P M M N
;
_chemical_formula_sum "Si O2"
_cell_formula_units_Z 48
_cell_length_a 12.839366
_cell_length_b 23.546853
_cell_length_c 8.140551
_cell_angle_alpha 90.000000
_cell_angle_beta 90.000000
_cell_angle_gamma 90.000000
_cell_volume 2461.105625
_symmetry_space_group_name_H-M "P M M N"
_symmetry_group_IT_number 59
_space_group.IT_coordinate_system_code '2'
_symmetry_cell_setting 'orthorhombic'
loop_
_space_group_symop_operation_xyz
x,y,z
1/2-x,1/2-y,z
1/2+x,-y,-z
-x,1/2+y,-z
-x,-y,-z
1/2+x,1/2+y,-z
1/2-x,y,z
x,1/2-y,z
loop_
_atom_site_type_symbol
_atom_site_label
_atom_site_fract_x
_atom_site_fract_y
_atom_site_fract_z
Si Si1 0.436670 0.960148 0.121477
Si Si2 0.634288 0.685831 0.187795
Si Si3 0.627836 0.184404 0.389049
Si Si4 0.864177 0.934471 0.728572
Si Si5 0.519501 0.359726 0.072184
Si Si6 0.027375 0.105841 0.582271
O O1 0.504869 0.937235 0.271415
O O2 0.350041 0.000891 0.202433
O O3 0.400185 0.904160 0.018590
O O4 0.500000 0.000000 0.000000
O O5 0.750000 0.669512 0.117768
O O6 0.634861 0.750000 0.247901
O O7 0.613147 0.649778 0.351952
O O8 0.539635 0.680070 0.057800
O O9 0.750000 0.169899 0.389532
O O10 0.608752 0.250000 0.440357
O O11 0.582996 0.176303 0.204876
O O12 0.572462 0.141619 0.516274
O O13 0.750000 0.908685 0.704266
O O14 0.925163 0.934121 0.557401
O O15 0.925137 0.895204 0.853536
#
# Coordination Sequence:
#
# PCOD8241284 Si02
#       6
#     8   8   8   8   8   8
#     4   9  19  35  52  72 101 137 173 212 259 312
#     4  10  19  32  53  80 108 138 171 211 265 324
#     4  10  21  37  56  77 104 142 184 224 267 312
#     4  10  19  32  52  77 104 134 169 211 263 321
#     4   9  19  35  54  76 105 137 174 220 265 314
#     4  10  20  35  53  76 107 139 174 218 264 314
#
# _framework density 19.503429000000001
#
# number of rings (size 3 to 8) (size 9 to 14) (size 15 to 20)
#    0.000    2.333    0.000    2.500    0.000    1.333 
#    0.000    3.333    0.000   21.000    0.000    0.000 
#    0.000    0.000    0.000    0.000    0.000    0.000 
#
# Total GULP energy -594628.044978 kJ/mol
# GULP energy per Si atom -12388.084270 kJ/mol
# Density = 1.945904 g / cm^3
# Si number density = 19.503429 Si / 1000 Ang^3
#
#
#
# Elastic Constant Matrix: (Units=GPa)
#
#
# Indices 1 2 3 4 5 6 
#
# 1 98.7075 41.6636 32.2655 0.0000 0.0000 0.0000
# 2 41.6636 84.4312 36.6191 0.0000 0.0000 0.0000
# 3 32.2655 36.6191 88.5107 0.0000 0.0000 0.0000
# 4 0.0000 0.0000 0.0000 26.8696 0.0000 0.0000
# 5 0.0000 0.0000 0.0000 0.0000 18.2528 0.0000
# 6 0.0000 0.0000 0.0000 0.0000 0.0000 17.9317
#
#
#
# Elastic Compliance Matrix: (Units=1/GPa)
#
#
# Indices 1 2 3 4 5 6 
#
# 1 0.013267 -0.005422 -0.002593 0.000000 0.000000 0.000000
# 2 -0.005422 0.016650 -0.004912 0.000000 0.000000 0.000000
# 3 -0.002593 -0.004912 0.014276 0.000000 0.000000 0.000000
# 4 0.000000 0.000000 0.000000 0.037217 0.000000 0.000000
# 5 0.000000 0.000000 0.000000 0.000000 0.054786 0.000000
# 6 0.000000 0.000000 0.000000 0.000000 0.000000 0.055767
#
#
# Mechanical properties :
#
#
# Convention : Reuss Voigt Hill
#
# Bulk Modulus (GPa) = 54.53069 54.74954 54.64011
# Shear Modulus (GPa) = 22.32839 23.35090 22.83965
#
# Velocity S-wave (km/s) = 3.38723 3.46392 3.42579
# Velocity P-wave (km/s) = 6.58164 6.64311 6.61245
#
# Compressibility (1/GPa) = 0.01833830
#
# Stress axis : x y z
#
# Youngs Moduli (GPa) = 75.37365 60.06018 70.04994
#
# Poissons Ratio (x) = 0.32566 0.18165
# Poissons Ratio (y) = 0.40869 0.34408
# Poissons Ratio (z) = 0.19545 0.29501
#
# Static dielectric constant tensor:
#      x y z
#    x 3.388650 0.000000 0.000000 
#    y 0.000000 3.776100 0.000000 
#    z 0.000000 0.000000 3.726300 
# 
# 
# High freq. dielectric constant tensor:
#      x y z
#    x 1.737930 0.000000 0.000000 
#    y 0.000000 1.769080 0.000000 
#    z 0.000000 0.000000 1.767810 
# 
# From -- ./inp_files/7577.got.cif
#   From: 2010.03.12/outbox.cif.g09.slc.cpg/sg59_4_cif.got.tgz:7577.got - 2010.04.16 16:29:54.
