data_PCOD8241532
_publ_section_title
;
Structure prediction by ZEFSAII (Michael W. Deem and Ramdas Pophale) SiO2 
 PCOD8241532
Probable space group: P M M N
;
_chemical_formula_sum "Si O2"
_cell_formula_units_Z 48
_cell_length_a 8.669433
_cell_length_b 25.996175
_cell_length_c 11.697103
_cell_angle_alpha 90.000000
_cell_angle_beta 90.000000
_cell_angle_gamma 90.000000
_cell_volume 2636.200637
_symmetry_space_group_name_H-M "P M M N"
_symmetry_group_IT_number 59
_space_group.IT_coordinate_system_code '2'
_symmetry_cell_setting 'orthorhombic'
loop_
_space_group_symop_operation_xyz
x,y,z
1/2-x,1/2-y,z
1/2+x,-y,-z
-x,1/2+y,-z
-x,-y,-z
1/2+x,1/2+y,-z
1/2-x,y,z
x,1/2-y,z
loop_
_atom_site_type_symbol
_atom_site_label
_atom_site_fract_x
_atom_site_fract_y
_atom_site_fract_z
Si Si1 0.423961 0.891348 0.847573
Si Si2 0.931771 0.432798 0.709581
Si Si3 0.569627 0.878038 0.486032
Si Si4 0.069598 0.053024 0.955065
Si Si5 0.069332 0.690953 0.666526
Si Si6 0.425427 0.963172 0.641155
O O1 0.250000 0.880635 0.890687
O O2 0.533599 0.901099 0.955743
O O3 0.487087 0.842512 0.775321
O O4 0.426918 0.942626 0.770640
O O5 0.750000 0.437582 0.718252
O O6 0.982452 0.382732 0.636215
O O7 0.000461 0.480794 0.639409
O O8 0.999461 0.429289 0.835609
O O9 0.750000 0.875518 0.462660
O O10 0.516105 0.826274 0.550706
O O11 0.528632 0.926753 0.563647
O O12 0.250000 0.045461 0.940504
O O13 0.000000 0.000000 0.000000
O O14 0.250000 0.680558 0.647601
O O15 0.030667 0.750000 0.691901
O O16 0.250000 0.964837 0.594028
#
# Coordination Sequence:
#
# PCOD8241532 Si02
#       6
#     8   8   8   8   8   8
#     4   9  18  33  54  80 110 142 182 226 269 319
#     4  12  23  35  52  74 106 147 188 225 269 323
#     4  11  22  35  52  78 111 142 179 225 274 326
#     4  12  23  35  52  76 110 150 189 226 269 324
#     4   9  19  38  63  86 109 139 178 226 278 329
#     4  10  19  33  52  75 108 145 183 222 264 320
#
# _framework density 18.208022
#
# number of rings (size 3 to 8) (size 9 to 14) (size 15 to 20)
#    0.000    1.500    1.667    6.500    0.000    3.000 
#    0.000    0.000    0.000    1.000    0.000    2.333 
#    0.000    0.000    0.000    0.000    0.000    0.000 
#
# Total GULP energy -595306.731251 kJ/mol
# GULP energy per Si atom -12402.223568 kJ/mol
# Density = 1.816658 g / cm^3
# Si number density = 18.208022 Si / 1000 Ang^3
#
#
#
# Elastic Constant Matrix: (Units=GPa)
#
#
# Indices 1 2 3 4 5 6 
#
# 1 94.7232 30.4155 26.8024 0.0000 0.0000 0.0000
# 2 30.4155 81.5933 34.8924 0.0000 0.0000 0.0000
# 3 26.8024 34.8924 94.4557 0.0000 0.0000 0.0000
# 4 0.0000 0.0000 0.0000 17.0269 0.0000 0.0000
# 5 0.0000 0.0000 0.0000 0.0000 33.1772 0.0000
# 6 0.0000 0.0000 0.0000 0.0000 0.0000 22.7852
#
#
#
# Elastic Compliance Matrix: (Units=1/GPa)
#
#
# Indices 1 2 3 4 5 6 
#
# 1 0.012347 -0.003687 -0.002142 0.000000 0.000000 0.000000
# 2 -0.003687 0.015656 -0.004737 0.000000 0.000000 0.000000
# 3 -0.002142 -0.004737 0.012945 0.000000 0.000000 0.000000
# 4 0.000000 0.000000 0.000000 0.058731 0.000000 0.000000
# 5 0.000000 0.000000 0.000000 0.000000 0.030141 0.000000
# 6 0.000000 0.000000 0.000000 0.000000 0.000000 0.043888
#
#
# Mechanical properties :
#
#
# Convention : Reuss Voigt Hill
#
# Bulk Modulus (GPa) = 50.46342 50.55476 50.50909
# Shear Modulus (GPa) = 24.82077 26.50865 25.66471
#
# Velocity S-wave (km/s) = 3.69613 3.81974 3.75844
# Velocity P-wave (km/s) = 6.78161 6.87599 6.82896
#
# Compressibility (1/GPa) = 0.01981633
#
# Stress axis : x y z
#
# Youngs Moduli (GPa) = 80.99226 63.87312 77.25205
#
# Poissons Ratio (x) = 0.23548 0.16544
# Poissons Ratio (y) = 0.29859 0.36596
# Poissons Ratio (z) = 0.17345 0.30259
#
# Static dielectric constant tensor:
#      x y z
#    x 3.405450 0.000000 0.000000 
#    y 0.000000 3.173510 0.000000 
#    z 0.000000 0.000000 3.522020 
# 
# 
# High freq. dielectric constant tensor:
#      x y z
#    x 1.713730 0.000000 0.000000 
#    y 0.000000 1.670100 0.000000 
#    z 0.000000 0.000000 1.710060 
# 
# From -- ./inp_files/14461.got.cif
#   From: 2010.03.12/outbox.cif.g09.slc.cpg/sg59_8_cif.got.tgz:14461.got - 2010.04.16 16:29:54.
