data_PCOD8241105
_publ_section_title
;
Structure prediction by ZEFSAII (Michael W. Deem and Ramdas Pophale) SiO2 
 PCOD8241105
Probable space group: P M M N
;
_chemical_formula_sum "Si O2"
_cell_formula_units_Z 48
_cell_length_a 21.717893
_cell_length_b 9.009587
_cell_length_c 12.580104
_cell_angle_alpha 90.000000
_cell_angle_beta 90.000000
_cell_angle_gamma 90.000000
_cell_volume 2461.539470
_symmetry_space_group_name_H-M "P M M N"
_symmetry_group_IT_number 59
_space_group.IT_coordinate_system_code '2'
_symmetry_cell_setting 'orthorhombic'
loop_
_space_group_symop_operation_xyz
x,y,z
1/2-x,1/2-y,z
1/2+x,-y,-z
-x,1/2+y,-z
-x,-y,-z
1/2+x,1/2+y,-z
1/2-x,y,z
x,1/2-y,z
loop_
_atom_site_type_symbol
_atom_site_label
_atom_site_fract_x
_atom_site_fract_y
_atom_site_fract_z
Si Si1 0.368874 0.573795 0.067981
Si Si2 0.578617 0.075367 0.313970
Si Si3 0.250000 0.573232 0.184493
Si Si4 0.383647 0.926282 0.457798
Si Si5 0.543626 0.073424 0.749882
Si Si6 0.819814 0.425333 0.151981
Si Si7 0.750000 0.073488 0.578622
O O1 0.369593 0.750000 0.070028
O O2 0.309425 0.509354 0.126705
O O3 0.427585 0.518232 0.137120
O O4 0.362377 0.515621 0.946583
O O5 0.566755 0.250000 0.304010
O O6 0.579639 0.023107 0.436924
O O7 0.643800 0.032257 0.259325
O O8 0.524439 0.991409 0.253793
O O9 0.250000 0.750000 0.182422
O O10 0.250000 0.512665 0.302545
O O11 0.381123 0.750000 0.450454
O O12 0.416405 0.987388 0.350898
O O13 0.313515 0.987040 0.472528
O O14 0.540560 0.250000 0.744395
O O15 0.750000 0.493080 0.153323
O O16 0.812938 0.250000 0.140381
O O17 0.750000 0.250000 0.573705
#
# Coordination Sequence:
#
# PCOD8241105 Si02
#       7
#     8   8   4   8   8   8   4
#     4   9  15  25  45  71  95 118 152 197 238 273
#     4  10  21  33  46  69 100 130 155 184 230 287
#     4   9  12  20  39  67  97 116 142 195 249 271
#     4   9  17  28  45  70  98 123 153 195 239 276
#     4  10  19  32  50  71  94 125 161 194 228 271
#     4   9  17  29  46  69  97 124 151 192 243 283
#     4   9  14  22  41  71  97 114 146 203 249 267
#
# _framework density 19.499991000000001
#
# number of rings (size 3 to 8) (size 9 to 14) (size 15 to 20)
#    0.000    2.667    2.500    0.500    1.167    0.667 
#    0.000    0.000    0.000    0.500    0.000    3.500 
#    0.000    0.000    0.000    0.000    0.000    0.000 
#
# Total GULP energy -594656.419949 kJ/mol
# GULP energy per Si atom -12388.675416 kJ/mol
# Density = 1.945561 g / cm^3
# Si number density = 19.499991 Si / 1000 Ang^3
#
#
#
# Elastic Constant Matrix: (Units=GPa)
#
#
# Indices 1 2 3 4 5 6 
#
# 1 110.6212 11.8896 38.5385 0.0000 0.0000 0.0000
# 2 11.8896 7.8490 11.3354 0.0000 0.0000 0.0000
# 3 38.5385 11.3354 103.7967 0.0000 0.0000 0.0000
# 4 0.0000 0.0000 0.0000 9.6642 0.0000 0.0000
# 5 0.0000 0.0000 0.0000 0.0000 30.1064 0.0000
# 6 0.0000 0.0000 0.0000 0.0000 0.0000 17.7106
#
#
#
# Elastic Compliance Matrix: (Units=1/GPa)
#
#
# Indices 1 2 3 4 5 6 
#
# 1 0.011443 -0.013295 -0.002797 0.000000 0.000000 0.000000
# 2 -0.013295 0.166706 -0.013269 0.000000 0.000000 0.000000
# 3 -0.002797 -0.013269 0.012122 0.000000 0.000000 0.000000
# 4 0.000000 0.000000 0.000000 0.103474 0.000000 0.000000
# 5 0.000000 0.000000 0.000000 0.000000 0.033216 0.000000
# 6 0.000000 0.000000 0.000000 0.000000 0.000000 0.056464
#
#
# Mechanical properties :
#
#
# Convention : Reuss Voigt Hill
#
# Bulk Modulus (GPa) = 7.60172 38.42154 23.01163
# Shear Modulus (GPa) = 10.28815 22.19647 16.24231
#
# Velocity S-wave (km/s) = 2.29944 3.37750 2.88920
# Velocity P-wave (km/s) = 3.31009 5.91237 4.79129
#
# Compressibility (1/GPa) = 0.13154914
#
# Stress axis : x y z
#
# Youngs Moduli (GPa) = 87.38846 5.99858 82.49634
#
# Poissons Ratio (x) = 0.07975 0.23073
# Poissons Ratio (y) = 1.16182 1.09467
# Poissons Ratio (z) = 0.24441 0.07960
#
# Static dielectric constant tensor:
#      x y z
#    x 3.715130 0.000000 0.000000 
#    y 0.000000 2.730650 0.000000 
#    z 0.000000 0.000000 3.859440 
# 
# 
# High freq. dielectric constant tensor:
#      x y z
#    x 1.770460 0.000000 0.000000 
#    y 0.000000 1.666250 0.000000 
#    z 0.000000 0.000000 1.772300 
# 
# From -- ./inp_files/18685.got.cif
#   From: 2010.03.12/outbox.cif.g09.slc.cpg/sg59_10_cif.got.tgz:18685.got - 2010.04.16 16:29:54.
