data_PCOD8241241
_publ_section_title
;
Structure prediction by ZEFSAII (Michael W. Deem and Ramdas Pophale) SiO2 
 PCOD8241241
Probable space group: P M M N
;
_chemical_formula_sum "Si O2"
_cell_formula_units_Z 56
_cell_length_a 14.319002
_cell_length_b 9.108991
_cell_length_c 22.854372
_cell_angle_alpha 90.000000
_cell_angle_beta 90.000000
_cell_angle_gamma 90.000000
_cell_volume 2980.933686
_symmetry_space_group_name_H-M "P M M N"
_symmetry_group_IT_number 59
_space_group.IT_coordinate_system_code '2'
_symmetry_cell_setting 'orthorhombic'
loop_
_space_group_symop_operation_xyz
x,y,z
1/2-x,1/2-y,z
1/2+x,-y,-z
-x,1/2+y,-z
-x,-y,-z
1/2+x,1/2+y,-z
1/2-x,y,z
x,1/2-y,z
loop_
_atom_site_type_symbol
_atom_site_label
_atom_site_fract_x
_atom_site_fract_y
_atom_site_fract_z
Si Si1 0.852611 0.075990 0.530777
Si Si2 0.857128 0.421965 0.399426
Si Si3 0.351691 0.575810 0.906472
Si Si4 0.042476 0.423149 0.140245
Si Si5 0.641236 0.414875 0.962958
Si Si6 0.359533 0.422334 0.257623
Si Si7 0.469655 0.924395 0.360011
O O1 0.750000 0.015172 0.548247
O O2 0.848691 0.250000 0.529919
O O3 0.877792 0.021708 0.465503
O O4 0.927086 0.020353 0.578092
O O5 0.750000 0.456292 0.382129
O O6 0.877734 0.250000 0.392849
O O7 0.925678 0.510324 0.355945
O O8 0.250000 0.513304 0.886108
O O9 0.344578 0.750000 0.910257
O O10 0.433015 0.527708 0.861313
O O11 0.376506 0.520357 0.971937
O O12 0.052381 0.250000 0.138656
O O13 0.091392 0.481016 0.082648
O O14 0.091282 0.482856 0.198776
O O15 0.750000 0.415130 0.948563
O O16 0.601000 0.250000 0.957058
O O17 0.250000 0.456952 0.253738
O O18 0.378277 0.250000 0.267074
O O19 0.403831 0.512763 0.310059
O O20 0.472946 0.750000 0.354545
#
# Coordination Sequence:
#
# PCOD8241241 Si02
#       7
#     8   8   8   8   8   8   8
#     4   8  15  29  50  77 106 134 166 205 250 302
#     4   9  18  34  55  77 104 137 169 204 250 305
#     4   8  15  29  49  74 102 129 159 199 249 304
#     4  10  19  32  52  74  97 130 172 214 248 283
#     4   9  17  29  47  73 104 133 159 195 250 311
#     4  10  22  38  52  70 100 134 169 211 254 299
#     4  11  21  33  53  78 104 135 171 213 256 298
#
# _framework density 18.786059999999999
#
# number of rings (size 3 to 8) (size 9 to 14) (size 15 to 20)
#    0.000    2.714    0.000    3.857    0.000    2.571 
#    0.000    1.429    0.000    5.571    0.000    0.000 
#    0.000    0.000    0.000    0.000    0.000    0.000 
#
# Total GULP energy -694132.317264 kJ/mol
# GULP energy per Si atom -12395.219951 kJ/mol
# Density = 1.874330 g / cm^3
# Si number density = 18.786060 Si / 1000 Ang^3
#
#
#
# Elastic Constant Matrix: (Units=GPa)
#
#
# Indices 1 2 3 4 5 6 
#
# 1 128.9352 42.1888 71.8898 0.0000 0.0000 0.0000
# 2 42.1888 36.8111 29.6063 0.0000 0.0000 0.0000
# 3 71.8898 29.6063 75.8439 0.0000 0.0000 0.0000
# 4 0.0000 0.0000 0.0000 24.2062 0.0000 0.0000
# 5 0.0000 0.0000 0.0000 0.0000 33.6901 0.0000
# 6 0.0000 0.0000 0.0000 0.0000 0.0000 23.3622
#
#
#
# Elastic Compliance Matrix: (Units=1/GPa)
#
#
# Indices 1 2 3 4 5 6 
#
# 1 0.018906 -0.010575 -0.013793 0.000000 0.000000 0.000000
# 2 -0.010575 0.045513 -0.007742 0.000000 0.000000 0.000000
# 3 -0.013793 -0.007742 0.029281 0.000000 0.000000 0.000000
# 4 0.000000 0.000000 0.000000 0.041312 0.000000 0.000000
# 5 0.000000 0.000000 0.000000 0.000000 0.029682 0.000000
# 6 0.000000 0.000000 0.000000 0.000000 0.000000 0.042804
#
#
# Mechanical properties :
#
#
# Convention : Reuss Voigt Hill
#
# Bulk Modulus (GPa) = 33.92173 58.77331 46.34752
# Shear Modulus (GPa) = 17.75912 22.77874 20.26893
#
# Velocity S-wave (km/s) = 3.07797 3.48592 3.28828
# Velocity P-wave (km/s) = 5.54327 6.89607 6.25634
#
# Compressibility (1/GPa) = 0.02947963
#
# Stress axis : x y z
#
# Youngs Moduli (GPa) = 52.89194 21.97175 34.15215
#
# Poissons Ratio (x) = 0.23236 0.47105
# Poissons Ratio (y) = 0.55936 0.26441
# Poissons Ratio (z) = 0.72952 0.17011
#
# Static dielectric constant tensor:
#      x y z
#    x 3.811600 0.000000 0.000000 
#    y 0.000000 3.081820 0.000000 
#    z 0.000000 0.000000 3.423220 
# 
# 
# High freq. dielectric constant tensor:
#      x y z
#    x 1.746600 0.000000 0.000000 
#    y 0.000000 1.695110 0.000000 
#    z 0.000000 0.000000 1.713440 
# 
# From -- ./inp_files/29080.got.cif
#   From: 2010.03.12/outbox.cif.g09.slc.cpg/sg59_15_cif.got.tgz:29080.got - 2010.04.16 16:29:54.
