data_PCOD8241920
_publ_section_title
;
Structure prediction by ZEFSAII (Michael W. Deem and Ramdas Pophale) SiO2 
 PCOD8241920
Probable space group: P M M N
;
_chemical_formula_sum "Si O2"
_cell_formula_units_Z 64
_cell_length_a 18.089947
_cell_length_b 8.902502
_cell_length_c 21.557081
_cell_angle_alpha 90.000000
_cell_angle_beta 90.000000
_cell_angle_gamma 90.000000
_cell_volume 3471.677126
_symmetry_space_group_name_H-M "P M M N"
_symmetry_group_IT_number 59
_space_group.IT_coordinate_system_code '2'
_symmetry_cell_setting 'orthorhombic'
loop_
_space_group_symop_operation_xyz
x,y,z
1/2-x,1/2-y,z
1/2+x,-y,-z
-x,1/2+y,-z
-x,-y,-z
1/2+x,1/2+y,-z
1/2-x,y,z
x,1/2-y,z
loop_
_atom_site_type_symbol
_atom_site_label
_atom_site_fract_x
_atom_site_fract_y
_atom_site_fract_z
Si Si1 0.665398 0.424210 0.260690
Si Si2 0.666988 0.424937 0.865709
Si Si3 0.404068 0.427899 0.247510
Si Si4 0.972915 0.077397 0.938465
Si Si5 0.079459 0.925718 0.614091
Si Si6 0.456163 0.075554 0.810535
Si Si7 0.421653 0.571967 0.373587
Si Si8 0.667117 0.428228 0.506381
O O1 0.750000 0.475751 0.262042
O O2 0.657614 0.250000 0.243562
O O3 0.631024 0.459394 0.327371
O O4 0.625450 0.520762 0.207191
O O5 0.750000 0.452455 0.890469
O O6 0.651715 0.250000 0.851203
O O7 0.655746 0.515194 0.802156
O O8 0.608407 0.481761 0.917337
O O9 0.402372 0.250000 0.251101
O O10 0.486286 0.480388 0.229869
O O11 0.383275 0.496327 0.314033
O O12 0.967250 0.250000 0.955178
O O13 0.031201 0.046045 0.883484
O O14 0.000000 0.000000 0.000000
O O15 0.059105 0.750000 0.609480
O O16 0.123259 0.984552 0.553994
O O17 0.005713 0.021321 0.619506
O O18 0.467431 0.250000 0.794497
O O19 0.418525 0.750000 0.366245
O O20 0.375685 0.515014 0.432830
O O21 0.750000 0.495809 0.506061
O O22 0.671272 0.250000 0.505251
#
# Coordination Sequence:
#
# PCOD8241920 Si02
#       8
#     8   8   8   8   8   8   8   8
#     4  10  20  33  53  82 111 141 179 224 276 328
#     4   9  19  37  59  83 113 147 185 229 276 326
#     4  11  21  34  54  80 109 141 180 226 276 326
#     4   9  19  35  57  84 111 146 186 223 266 317
#     4  10  19  34  56  78 103 138 180 226 274 326
#     4  10  20  36  56  79 110 144 181 221 266 322
#     4  11  21  33  53  79 106 140 182 225 272 332
#     4   9  19  35  53  74 102 139 181 224 273 329
#
# _framework density 18.434894
#
# number of rings (size 3 to 8) (size 9 to 14) (size 15 to 20)
#    0.000    2.125    1.250    3.375    0.000    5.000 
#    0.000    2.500    0.000    6.000    0.000    0.000 
#    0.000    0.000    0.000    0.000    0.000    0.000 
#
# Total GULP energy -793704.015389 kJ/mol
# GULP energy per Si atom -12401.625240 kJ/mol
# Density = 1.839294 g / cm^3
# Si number density = 18.434894 Si / 1000 Ang^3
#
#
#
# Elastic Constant Matrix: (Units=GPa)
#
#
# Indices 1 2 3 4 5 6 
#
# 1 116.2802 38.5567 64.8229 0.0000 0.0000 0.0000
# 2 38.5567 73.1054 50.2041 0.0000 0.0000 0.0000
# 3 64.8229 50.2041 139.8423 0.0000 0.0000 0.0000
# 4 0.0000 0.0000 0.0000 29.2745 0.0000 0.0000
# 5 0.0000 0.0000 0.0000 0.0000 24.1329 0.0000
# 6 0.0000 0.0000 0.0000 0.0000 0.0000 25.9851
#
#
#
# Elastic Compliance Matrix: (Units=1/GPa)
#
#
# Indices 1 2 3 4 5 6 
#
# 1 0.012197 -0.003384 -0.004439 0.000000 0.000000 0.000000
# 2 -0.003384 0.019094 -0.005286 0.000000 0.000000 0.000000
# 3 -0.004439 -0.005286 0.011106 0.000000 0.000000 0.000000
# 4 0.000000 0.000000 0.000000 0.034159 0.000000 0.000000
# 5 0.000000 0.000000 0.000000 0.000000 0.041437 0.000000
# 6 0.000000 0.000000 0.000000 0.000000 0.000000 0.038484
#
#
# Mechanical properties :
#
#
# Convention : Reuss Voigt Hill
#
# Bulk Modulus (GPa) = 61.81036 70.71057 66.26047
# Shear Modulus (GPa) = 26.58337 27.58814 27.08575
#
# Velocity S-wave (km/s) = 3.80150 3.87268 3.83726
# Velocity P-wave (km/s) = 7.27120 7.64441 7.46014
#
# Compressibility (1/GPa) = 0.01617852
#
# Stress axis : x y z
#
# Youngs Moduli (GPa) = 81.99049 52.37260 90.04084
#
# Poissons Ratio (x) = 0.17725 0.39965
# Poissons Ratio (y) = 0.27749 0.47595
# Poissons Ratio (z) = 0.36392 0.27684
#
# Static dielectric constant tensor:
#      x y z
#    x 3.528930 0.000000 0.000000 
#    y 0.000000 3.243420 0.000000 
#    z 0.000000 0.000000 3.484830 
# 
# 
# High freq. dielectric constant tensor:
#      x y z
#    x 1.715580 0.000000 0.000000 
#    y 0.000000 1.702200 0.000000 
#    z 0.000000 0.000000 1.715070 
# 
# From -- ./inp_files/30790.got.cif
#   From: 2010.03.12/outbox.cif.g09.slc.cpg/sg59_16_cif.got.tgz:30790.got - 2010.04.16 16:29:54.
