data_PCOD8241209
_publ_section_title
;
Structure prediction by ZEFSAII (Michael W. Deem and Ramdas Pophale) SiO2 
 PCOD8241209
Probable space group: P M M N
;
_chemical_formula_sum "Si O2"
_cell_formula_units_Z 56
_cell_length_a 21.151963
_cell_length_b 8.895780
_cell_length_c 16.643221
_cell_angle_alpha 90.000000
_cell_angle_beta 90.000000
_cell_angle_gamma 90.000000
_cell_volume 3131.641878
_symmetry_space_group_name_H-M "P M M N"
_symmetry_group_IT_number 59
_space_group.IT_coordinate_system_code '2'
_symmetry_cell_setting 'orthorhombic'
loop_
_space_group_symop_operation_xyz
x,y,z
1/2-x,1/2-y,z
1/2+x,-y,-z
-x,1/2+y,-z
-x,-y,-z
1/2+x,1/2+y,-z
1/2-x,y,z
x,1/2-y,z
loop_
_atom_site_type_symbol
_atom_site_label
_atom_site_fract_x
_atom_site_fract_y
_atom_site_fract_z
Si Si1 0.677576 0.576224 0.137278
Si Si2 0.113350 0.422424 0.699700
Si Si3 0.029142 0.426933 0.119368
Si Si4 0.016070 0.072593 0.301636
Si Si5 0.821975 0.922614 0.462816
Si Si6 0.560159 0.428229 0.545086
Si Si7 0.907491 0.425954 0.019643
O O1 0.750000 0.543262 0.153749
O O2 0.664125 0.750000 0.119997
O O3 0.640723 0.520550 0.215994
O O4 0.657130 0.482332 0.059305
O O5 0.089688 0.250000 0.705103
O O6 0.167483 0.438150 0.632668
O O7 0.055563 0.529603 0.676093
O O8 0.036728 0.250000 0.114313
O O9 0.032287 0.481881 0.211344
O O10 0.963344 0.479697 0.079475
O O11 0.085577 0.501886 0.068679
O O12 0.024834 0.250000 0.311736
O O13 0.061854 0.985957 0.362963
O O14 0.750000 0.974518 0.482056
O O15 0.832037 0.750000 0.489762
O O16 0.872553 0.025839 0.508161
O O17 0.500000 0.500000 0.500000
O O18 0.552414 0.250000 0.541664
O O19 0.906034 0.250000 0.008349
#
# Coordination Sequence:
#
# PCOD8241209 Si02
#       7
#     8   8   8   8   8   8   8
#     4  10  20  33  50  75 110 150 185 217 262 322
#     4  10  19  32  53  80 112 148 184 222 268 327
#     4   9  19  34  52  76 105 136 171 216 270 322
#     4  11  21  35  56  82 113 144 180 228 280 330
#     4  10  21  38  59  83 113 150 190 231 280 338
#     4  12  24  38  57  83 114 149 191 234 282 333
#     4  10  19  32  51  76 104 137 178 219 263 311
#
# _framework density 17.881993999999999
#
# number of rings (size 3 to 8) (size 9 to 14) (size 15 to 20)
#    0.000    1.714    2.857    2.571    0.000    4.000 
#    0.000    0.000    0.000    3.429    0.000    6.000 
#    0.000    0.000    0.000    0.000    0.000    0.000 
#
# Total GULP energy -694489.317836 kJ/mol
# GULP energy per Si atom -12401.594961 kJ/mol
# Density = 1.784129 g / cm^3
# Si number density = 17.881994 Si / 1000 Ang^3
#
#
#
# Elastic Constant Matrix: (Units=GPa)
#
#
# Indices 1 2 3 4 5 6 
#
# 1 80.2449 34.5698 45.5749 0.0000 0.0000 0.0000
# 2 34.5698 68.4248 46.1211 0.0000 0.0000 0.0000
# 3 45.5749 46.1211 114.2857 0.0000 0.0000 0.0000
# 4 0.0000 0.0000 0.0000 28.1699 0.0000 0.0000
# 5 0.0000 0.0000 0.0000 0.0000 27.9213 0.0000
# 6 0.0000 0.0000 0.0000 0.0000 0.0000 26.7706
#
#
#
# Elastic Compliance Matrix: (Units=1/GPa)
#
#
# Indices 1 2 3 4 5 6 
#
# 1 0.017601 -0.005716 -0.004712 0.000000 0.000000 0.000000
# 2 -0.005716 0.021932 -0.006571 0.000000 0.000000 0.000000
# 3 -0.004712 -0.006571 0.013281 0.000000 0.000000 0.000000
# 4 0.000000 0.000000 0.000000 0.035499 0.000000 0.000000
# 5 0.000000 0.000000 0.000000 0.000000 0.035815 0.000000
# 6 0.000000 0.000000 0.000000 0.000000 0.000000 0.037354
#
#
# Mechanical properties :
#
#
# Convention : Reuss Voigt Hill
#
# Bulk Modulus (GPa) = 53.15048 57.27634 55.21341
# Shear Modulus (GPa) = 24.78292 25.68501 25.23396
#
# Velocity S-wave (km/s) = 3.72683 3.79405 3.76059
# Velocity P-wave (km/s) = 6.95028 7.16190 7.05688
#
# Compressibility (1/GPa) = 0.01881451
#
# Stress axis : x y z
#
# Youngs Moduli (GPa) = 56.81649 45.59575 75.29585
#
# Poissons Ratio (x) = 0.26063 0.35479
# Poissons Ratio (y) = 0.32477 0.49479
# Poissons Ratio (z) = 0.26772 0.29962
#
# Static dielectric constant tensor:
#      x y z
#    x 3.148970 0.000000 0.000000 
#    y 0.000000 3.256820 0.000000 
#    z 0.000000 0.000000 3.531400 
# 
# 
# High freq. dielectric constant tensor:
#      x y z
#    x 1.667090 0.000000 0.000000 
#    y 0.000000 1.691870 0.000000 
#    z 0.000000 0.000000 1.695820 
# 
# From -- ./inp_files/24204.got.cif
#   From: 2010.03.12/outbox.cif.g09.slc.cpg/sg59_13_cif.got.tgz:24204.got - 2010.04.16 16:29:54.
