data_PCOD8241847
_publ_section_title
;
Structure prediction by ZEFSAII (Michael W. Deem and Ramdas Pophale) SiO2 
 PCOD8241847
Probable space group: P M M N
;
_chemical_formula_sum "Si O2"
_cell_formula_units_Z 64
_cell_length_a 9.278551
_cell_length_b 31.112868
_cell_length_c 12.136090
_cell_angle_alpha 90.000000
_cell_angle_beta 90.000000
_cell_angle_gamma 90.000000
_cell_volume 3503.474769
_symmetry_space_group_name_H-M "P M M N"
_symmetry_group_IT_number 59
_space_group.IT_coordinate_system_code '2'
_symmetry_cell_setting 'orthorhombic'
loop_
_space_group_symop_operation_xyz
x,y,z
1/2-x,1/2-y,z
1/2+x,-y,-z
-x,1/2+y,-z
-x,-y,-z
1/2+x,1/2+y,-z
1/2-x,y,z
x,1/2-y,z
loop_
_atom_site_type_symbol
_atom_site_label
_atom_site_fract_x
_atom_site_fract_y
_atom_site_fract_z
Si Si1 0.080090 0.137071 0.094850
Si Si2 0.585105 0.544532 0.510448
Si Si3 0.920629 0.988052 0.111195
Si Si4 0.910489 0.200014 0.236592
Si Si5 0.080542 0.700781 0.513894
Si Si6 0.078640 0.128049 0.620050
Si Si7 0.419818 0.108817 0.860988
Si Si8 0.085486 0.055584 0.238684
O O1 0.250000 0.142648 0.093281
O O2 0.034417 0.096846 0.170063
O O3 0.014267 0.179516 0.146823
O O4 0.016735 0.131468 0.970804
O O5 0.500000 0.500000 0.500000
O O6 0.750000 0.533658 0.481291
O O7 0.526357 0.582096 0.429637
O O8 0.570892 0.564645 0.632075
O O9 0.750000 0.993339 0.096599
O O10 0.977661 0.017105 0.210513
O O11 0.967977 0.940371 0.142600
O O12 0.000000 0.000000 0.000000
O O13 0.750000 0.180851 0.223473
O O14 0.908679 0.250000 0.211396
O O15 0.966322 0.191442 0.360418
O O16 0.250000 0.692929 0.499006
O O17 0.041906 0.750000 0.482252
O O18 0.993401 0.668582 0.437394
O O19 0.250000 0.131720 0.606076
O O20 0.028725 0.130981 0.747792
O O21 0.250000 0.111076 0.869767
O O22 0.250000 0.043445 0.206775
#
# Coordination Sequence:
#
# PCOD8241847 Si02
#       8
#     8   8   8   8   8   8   8   8
#     4  10  19  34  54  76 104 136 172 215 259 306
#     4  10  21  35  52  76 109 145 182 227 274 323
#     4  11  20  34  54  75 103 141 181 221 263 312
#     4   9  19  36  56  79 107 134 164 210 265 320
#     4   9  19  37  59  82 109 139 171 216 277 333
#     4  10  20  36  57  80 106 143 187 226 267 318
#     4   9  19  35  53  74 106 143 177 218 264 309
#     4  10  20  34  51  75 106 137 174 222 268 310
#
# _framework density 18.267579000000001
#
# number of rings (size 3 to 8) (size 9 to 14) (size 15 to 20)
#    0.000    2.250    1.250    2.625    0.000    4.500 
#    0.000    3.750    0.000    3.750    0.000    0.000 
#    0.000    0.000    0.000    0.000    0.000    0.000 
#
# Total GULP energy -793508.612487 kJ/mol
# GULP energy per Si atom -12398.572070 kJ/mol
# Density = 1.822600 g / cm^3
# Si number density = 18.267579 Si / 1000 Ang^3
#
#
#
# Elastic Constant Matrix: (Units=GPa)
#
#
# Indices 1 2 3 4 5 6 
#
# 1 48.6835 42.0403 38.4780 0.0000 0.0000 0.0000
# 2 42.0403 103.6049 70.4614 0.0000 0.0000 0.0000
# 3 38.4780 70.4614 136.6479 0.0000 0.0000 0.0000
# 4 0.0000 0.0000 0.0000 36.3037 0.0000 0.0000
# 5 0.0000 0.0000 0.0000 0.0000 25.5773 0.0000
# 6 0.0000 0.0000 0.0000 0.0000 0.0000 35.6169
#
#
#
# Elastic Compliance Matrix: (Units=1/GPa)
#
#
# Indices 1 2 3 4 5 6 
#
# 1 0.032762 -0.010811 -0.003651 0.000000 0.000000 0.000000
# 2 -0.010811 0.018433 -0.006460 0.000000 0.000000 0.000000
# 3 -0.003651 -0.006460 0.011677 0.000000 0.000000 0.000000
# 4 0.000000 0.000000 0.000000 0.027545 0.000000 0.000000
# 5 0.000000 0.000000 0.000000 0.000000 0.039097 0.000000
# 6 0.000000 0.000000 0.000000 0.000000 0.000000 0.028077
#
#
# Mechanical properties :
#
#
# Convention : Reuss Voigt Hill
#
# Bulk Modulus (GPa) = 47.55649 65.65508 56.60579
# Shear Modulus (GPa) = 24.21950 28.69667 26.45809
#
# Velocity S-wave (km/s) = 3.64513 3.96777 3.80987
# Velocity P-wave (km/s) = 6.61859 7.55048 7.09984
#
# Compressibility (1/GPa) = 0.02102762
#
# Stress axis : x y z
#
# Youngs Moduli (GPa) = 30.52294 54.25134 85.63656
#
# Poissons Ratio (x) = 0.58653 0.31262
# Poissons Ratio (y) = 0.33000 0.55324
# Poissons Ratio (z) = 0.11143 0.35048
#
# Static dielectric constant tensor:
#      x y z
#    x 4.244330 0.000000 0.000000 
#    y 0.000000 3.238290 0.000000 
#    z 0.000000 0.000000 3.634320 
# 
# 
# High freq. dielectric constant tensor:
#      x y z
#    x 1.690660 0.000000 0.000000 
#    y 0.000000 1.701770 0.000000 
#    z 0.000000 0.000000 1.719750 
# 
# From -- ./inp_files/14921.got.cif
#   From: 2010.03.12/outbox.cif.g09.slc.cpg/sg59_8_cif.got.tgz:14921.got - 2010.04.16 16:29:54.
