data_PCOD8241175
_publ_section_title
;
Structure prediction by ZEFSAII (Michael W. Deem and Ramdas Pophale) SiO2 
 PCOD8241175
Probable space group: P M M N
;
_chemical_formula_sum "Si O2"
_cell_formula_units_Z 56
_cell_length_a 9.166910
_cell_length_b 18.875360
_cell_length_c 18.203110
_cell_angle_alpha 90.000000
_cell_angle_beta 90.000000
_cell_angle_gamma 90.000000
_cell_volume 3149.660939
_symmetry_space_group_name_H-M "P M M N"
_symmetry_group_IT_number 59
_space_group.IT_coordinate_system_code '2'
_symmetry_cell_setting 'orthorhombic'
loop_
_space_group_symop_operation_xyz
x,y,z
1/2-x,1/2-y,z
1/2+x,-y,-z
-x,1/2+y,-z
-x,-y,-z
1/2+x,1/2+y,-z
1/2-x,y,z
x,1/2-y,z
loop_
_atom_site_type_symbol
_atom_site_label
_atom_site_fract_x
_atom_site_fract_y
_atom_site_fract_z
Si Si1 0.078191 0.580203 0.342199
Si Si2 0.583287 0.833989 0.219967
Si Si3 0.078928 0.929294 0.660756
Si Si4 0.419574 0.167504 0.224960
Si Si5 0.084293 0.928578 0.501354
Si Si6 0.586529 0.334436 0.922754
Si Si7 0.911700 0.834209 0.939351
O O1 0.250000 0.574503 0.324956
O O2 0.049209 0.612517 0.424984
O O3 0.004727 0.635408 0.288080
O O4 0.006832 0.503084 0.332780
O O5 0.750000 0.860194 0.221851
O O6 0.573258 0.750000 0.224796
O O7 0.510955 0.862108 0.144733
O O8 0.250000 0.943662 0.673807
O O9 0.051306 0.891604 0.580243
O O10 0.021690 0.875270 0.720717
O O11 0.250000 0.151634 0.240777
O O12 0.453422 0.250000 0.235880
O O13 0.461267 0.142914 0.142276
O O14 0.250000 0.952300 0.499214
O O15 0.000000 0.000000 0.500000
O O16 0.750000 0.364205 0.913843
O O17 0.586912 0.250000 0.924231
O O18 0.521174 0.364609 0.999121
O O19 0.750000 0.863978 0.956005
O O20 0.906577 0.750000 0.942959
#
# Coordination Sequence:
#
# PCOD8241175 Si02
#       7
#     8   8   8   8   8   8   8
#     4  10  19  33  53  73  95 125 162 201 241 287
#     4  10  20  33  49  71 100 130 160 197 241 286
#     4  10  19  32  51  74  99 126 160 200 242 289
#     4   9  18  32  49  71 100 132 165 200 239 283
#     4   8  16  30  48  70  93 121 158 199 239 281
#     4   9  16  26  43  68  95 123 158 197 235 279
#     4   8  14  26  44  65  91 124 160 197 235 275
#
# _framework density 17.779692000000001
#
# number of rings (size 3 to 8) (size 9 to 14) (size 15 to 20)
#    0.000    2.857    0.000    2.571    0.000    4.571 
#    0.000    2.143    0.000    5.143    0.000    0.000 
#    0.000    0.000    0.000    0.000    0.000    0.000 
#
# Total GULP energy -693818.821955 kJ/mol
# GULP energy per Si atom -12389.621821 kJ/mol
# Density = 1.773922 g / cm^3
# Si number density = 17.779692 Si / 1000 Ang^3
#
#
#
# Elastic Constant Matrix: (Units=GPa)
#
#
# Indices 1 2 3 4 5 6 
#
# 1 122.4845 26.5173 84.8540 0.0000 0.0000 0.0000
# 2 26.5173 21.7820 30.2804 0.0000 0.0000 0.0000
# 3 84.8540 30.2804 167.4478 0.0000 0.0000 0.0000
# 4 0.0000 0.0000 0.0000 -222.3894 0.0000 0.0000
# 5 0.0000 0.0000 0.0000 0.0000 34.1712 0.0000
# 6 0.0000 0.0000 0.0000 0.0000 0.0000 24.7893
#
#
#
# Elastic Compliance Matrix: (Units=1/GPa)
#
#
# Indices 1 2 3 4 5 6 
#
# 1 0.013922 -0.009539 -0.005330 0.000000 0.000000 0.000000
# 2 -0.009539 0.067862 -0.007438 0.000000 0.000000 0.000000
# 3 -0.005330 -0.007438 0.010018 0.000000 0.000000 0.000000
# 4 0.000000 0.000000 0.000000 -0.004497 0.000000 0.000000
# 5 0.000000 0.000000 0.000000 0.000000 0.029264 0.000000
# 6 0.000000 0.000000 0.000000 0.000000 0.000000 0.040340
#
#
# Mechanical properties :
#
#
# Convention : Reuss Voigt Hill
#
# Bulk Modulus (GPa) = 21.19178 66.11308 43.65243
# Shear Modulus (GPa) = 23.01471 -21.34825 0.83323
#
# Velocity S-wave (km/s) = 3.60173 -3.46889 0.68532
# Velocity P-wave (km/s) = 5.40755 4.60664 5.02308
#
# Compressibility (1/GPa) = 0.04718810
#
# Stress axis : x y z
#
# Youngs Moduli (GPa) = 71.82951 14.73582 99.82063
#
# Poissons Ratio (x) = 0.14056 0.53204
# Poissons Ratio (y) = 0.68518 0.74246
# Poissons Ratio (z) = 0.38285 0.10960
#
# Static dielectric constant tensor:
#      x y z
#    x 3.480970 0.000000 0.000000 
#    y 0.000000 2.697510 0.000000 
#    z 0.000000 0.000000 3.967890 
# 
# 
# High freq. dielectric constant tensor:
#      x y z
#    x 1.700860 0.000000 0.000000 
#    y 0.000000 1.624670 0.000000 
#    z 0.000000 0.000000 1.712500 
# 
# From -- ./inp_files/26014.got.cif
#   From: 2010.03.12/outbox.cif.g09.slc.cpg/sg59_14_cif.got.tgz:26014.got - 2010.04.16 16:29:54.
