data_PCOD8241100
_publ_section_title
;
Structure prediction by ZEFSAII (Michael W. Deem and Ramdas Pophale) SiO2 
 PCOD8241100
Probable space group: P M M N
;
_chemical_formula_sum "Si O2"
_cell_formula_units_Z 64
_cell_length_a 29.309177
_cell_length_b 9.324006
_cell_length_c 14.875372
_cell_angle_alpha 90.000000
_cell_angle_beta 90.000000
_cell_angle_gamma 90.000000
_cell_volume 4065.125925
_symmetry_space_group_name_H-M "P M M N"
_symmetry_group_IT_number 59
_space_group.IT_coordinate_system_code '2'
_symmetry_cell_setting 'orthorhombic'
loop_
_space_group_symop_operation_xyz
x,y,z
1/2-x,1/2-y,z
1/2+x,-y,-z
-x,1/2+y,-z
-x,-y,-z
1/2+x,1/2+y,-z
1/2-x,y,z
x,1/2-y,z
loop_
_atom_site_type_symbol
_atom_site_label
_atom_site_fract_x
_atom_site_fract_y
_atom_site_fract_z
Si Si1 0.300538 0.587453 0.798173
Si Si2 0.440307 0.417484 0.857695
Si Si3 0.109828 0.582913 0.700269
Si Si4 0.956919 0.083709 0.821090
Si Si5 0.604842 0.583184 0.954062
Si Si6 0.199480 0.082652 0.975992
Si Si7 0.565712 0.914913 0.451999
Si Si8 0.964061 0.413977 0.615815
O O1 0.250000 0.552303 0.760438
O O2 0.303481 0.750000 0.833426
O O3 0.336533 0.561134 0.719072
O O4 0.312813 0.489083 0.882024
O O5 0.431910 0.250000 0.834528
O O6 0.419507 0.513508 0.779488
O O7 0.494014 0.451406 0.864166
O O8 0.417668 0.462925 0.951563
O O9 0.096371 0.750000 0.692255
O O10 0.101862 0.503212 0.606388
O O11 0.945772 0.250000 0.830245
O O12 0.955386 0.035966 0.717337
O O13 0.917510 0.000044 0.872334
O O14 0.596551 0.750000 0.937270
O O15 0.659065 0.544429 0.954201
O O16 0.250000 0.034571 0.011570
O O17 0.198826 0.250000 0.955902
O O18 0.580958 0.750000 0.459622
O O19 0.517455 0.930816 0.403047
O O20 0.564788 0.982474 0.551386
O O21 0.948785 0.250000 0.599581
#
# Coordination Sequence:
#
# PCOD8241100 Si02
#       8
#     8   8   8   8   8   8   8   8
#     4   9  18  31  46  67  95 124 156 195 235 277
#     4  10  19  33  46  64  96 130 163 197 230 268
#     4  11  20  29  47  72  96 126 161 193 231 283
#     4  10  20  33  48  65  94 130 161 196 235 274
#     4  10  20  31  46  68  95 126 162 199 232 278
#     4   9  17  30  48  68  91 121 156 196 241 281
#     4  10  19  32  50  69  94 123 152 190 235 280
#     4   9  18  33  49  68  92 120 156 196 234 272
#
# _framework density 15.743669000000001
#
# number of rings (size 3 to 8) (size 9 to 14) (size 15 to 20)
#    0.000    2.250    2.500    1.125    0.000    3.000 
#    0.000    0.000    0.000    0.000    0.000    0.875 
#    0.000    1.000    0.000    0.000    0.000    0.000 
#
# Total GULP energy -793558.832961 kJ/mol
# GULP energy per Si atom -12399.356765 kJ/mol
# Density = 1.570784 g / cm^3
# Si number density = 15.743669 Si / 1000 Ang^3
#
#
#
# Elastic Constant Matrix: (Units=GPa)
#
#
# Indices 1 2 3 4 5 6 
#
# 1 90.4970 42.2711 52.8814 0.0000 0.0000 0.0000
# 2 42.2711 65.2078 45.4821 0.0000 0.0000 0.0000
# 3 52.8814 45.4821 94.1120 0.0000 0.0000 0.0000
# 4 0.0000 0.0000 0.0000 29.7026 0.0000 0.0000
# 5 0.0000 0.0000 0.0000 0.0000 18.3450 0.0000
# 6 0.0000 0.0000 0.0000 0.0000 0.0000 20.4831
#
#
#
# Elastic Compliance Matrix: (Units=1/GPa)
#
#
# Indices 1 2 3 4 5 6 
#
# 1 0.018409 -0.007118 -0.006904 0.000000 0.000000 0.000000
# 2 -0.007118 0.025886 -0.008510 0.000000 0.000000 0.000000
# 3 -0.006904 -0.008510 0.018618 0.000000 0.000000 0.000000
# 4 0.000000 0.000000 0.000000 0.033667 0.000000 0.000000
# 5 0.000000 0.000000 0.000000 0.000000 0.054511 0.000000
# 6 0.000000 0.000000 0.000000 0.000000 0.000000 0.048821
#
#
# Mechanical properties :
#
#
# Convention : Reuss Voigt Hill
#
# Bulk Modulus (GPa) = 56.02941 59.00956 57.51948
# Shear Modulus (GPa) = 19.92615 20.98496 20.45555
#
# Velocity S-wave (km/s) = 3.56147 3.65487 3.60847
# Velocity P-wave (km/s) = 7.25106 7.44134 7.34682
#
# Compressibility (1/GPa) = 0.01784777
#
# Stress axis : x y z
#
# Youngs Moduli (GPa) = 54.31989 38.63090 53.71192
#
# Poissons Ratio (x) = 0.27499 0.37083
# Poissons Ratio (y) = 0.38667 0.45710
# Poissons Ratio (z) = 0.37503 0.32876
#
# Static dielectric constant tensor:
#      x y z
#    x 3.134890 0.000000 0.000000 
#    y 0.000000 3.071660 0.000000 
#    z 0.000000 0.000000 2.864430 
# 
# 
# High freq. dielectric constant tensor:
#      x y z
#    x 1.594520 0.000000 0.000000 
#    y 0.000000 1.611630 0.000000 
#    z 0.000000 0.000000 1.583160 
# 
# From -- ./inp_files/21892.got.cif
#   From: 2010.03.12/outbox.cif.g09.slc.cpg/sg59_11_cif.got.tgz:21892.got - 2010.04.16 16:29:54.
