data_PCOD8241003
_publ_section_title
;
Structure prediction by ZEFSAII (Michael W. Deem and Ramdas Pophale) SiO2 
 PCOD8241003
Probable space group: P M M N
;
_chemical_formula_sum "Si O2"
_cell_formula_units_Z 64
_cell_length_a 14.388976
_cell_length_b 25.583970
_cell_length_c 8.775982
_cell_angle_alpha 90.000000
_cell_angle_beta 90.000000
_cell_angle_gamma 90.000000
_cell_volume 3230.677069
_symmetry_space_group_name_H-M "P M M N"
_symmetry_group_IT_number 59
_space_group.IT_coordinate_system_code '2'
_symmetry_cell_setting 'orthorhombic'
loop_
_space_group_symop_operation_xyz
x,y,z
1/2-x,1/2-y,z
1/2+x,-y,-z
-x,1/2+y,-z
-x,-y,-z
1/2+x,1/2+y,-z
1/2-x,y,z
x,1/2-y,z
loop_
_atom_site_type_symbol
_atom_site_label
_atom_site_fract_x
_atom_site_fract_y
_atom_site_fract_z
Si Si1 0.852725 0.920168 0.307649
Si Si2 0.051595 0.808818 0.490878
Si Si3 0.522630 0.026646 0.842873
Si Si4 0.143815 0.901474 0.979546
Si Si5 0.852339 0.692387 0.406984
Si Si6 0.355170 0.808682 0.178207
Si Si7 0.859826 0.092726 0.358071
Si Si8 0.356988 0.004543 0.427490
O O1 0.750000 0.937926 0.252680
O O2 0.861429 0.857245 0.294296
O O3 0.925977 0.947563 0.201296
O O4 0.867461 0.941102 0.480660
O O5 0.088639 0.750000 0.528364
O O6 0.074032 0.822938 0.314686
O O7 0.099198 0.851769 0.594282
O O8 0.940049 0.811205 0.520908
O O9 0.598327 0.070347 0.876820
O O10 0.570244 0.990999 0.712095
O O11 0.500000 0.000000 0.000000
O O12 0.250000 0.918212 0.978363
O O13 0.128278 0.840829 0.022444
O O14 0.101378 0.916920 0.814025
O O15 0.750000 0.688170 0.488746
O O16 0.858065 0.750000 0.324119
O O17 0.250000 0.818149 0.240145
O O18 0.371092 0.750000 0.124492
O O19 0.750000 0.099200 0.353820
O O20 0.888790 0.044468 0.465743
O O21 0.250000 0.996977 0.373024
#
# Coordination Sequence:
#
# PCOD8241003 Si02
#       8
#     8   8   8   8   8   8   8   8
#     4  10  21  37  58  84 112 143 184 232 278 331
#     4  10  19  31  51  78 107 141 184 231 275 328
#     4  12  24  36  55  81 110 146 183 224 275 331
#     4  10  21  36  53  76 108 144 180 219 267 325
#     4   9  18  33  54  79 104 133 173 223 275 321
#     4   9  17  30  50  77 108 140 172 210 263 325
#     4  10  20  34  54  79 109 144 182 224 271 329
#     4  10  21  38  59  81 107 141 179 222 273 331
#
# _framework density 19.810088
#
# number of rings (size 3 to 8) (size 9 to 14) (size 15 to 20)
#    0.000    2.000    0.000    4.125    0.000    6.250 
#    0.000    1.250    0.000    0.750    0.000    0.875 
#    0.000    8.000    0.000    0.000    0.000    0.000 
#
# Total GULP energy -792939.711834 kJ/mol
# GULP energy per Si atom -12389.682997 kJ/mol
# Density = 1.976500 g / cm^3
# Si number density = 19.810088 Si / 1000 Ang^3
#
#
#
# Elastic Constant Matrix: (Units=GPa)
#
#
# Indices 1 2 3 4 5 6 
#
# 1 76.7228 37.7364 44.4570 0.0000 0.0000 0.0000
# 2 37.7364 93.1715 37.4984 0.0000 0.0000 0.0000
# 3 44.4570 37.4984 90.9850 0.0000 0.0000 0.0000
# 4 0.0000 0.0000 0.0000 26.8962 0.0000 0.0000
# 5 0.0000 0.0000 0.0000 0.0000 30.8331 0.0000
# 6 0.0000 0.0000 0.0000 0.0000 0.0000 21.0943
#
#
#
# Elastic Compliance Matrix: (Units=1/GPa)
#
#
# Indices 1 2 3 4 5 6 
#
# 1 0.019940 -0.004981 -0.007690 0.000000 0.000000 0.000000
# 2 -0.004981 0.014111 -0.003382 0.000000 0.000000 0.000000
# 3 -0.007690 -0.003382 0.016142 0.000000 0.000000 0.000000
# 4 0.000000 0.000000 0.000000 0.037180 0.000000 0.000000
# 5 0.000000 0.000000 0.000000 0.000000 0.032433 0.000000
# 6 0.000000 0.000000 0.000000 0.000000 0.000000 0.047406
#
#
# Mechanical properties :
#
#
# Convention : Reuss Voigt Hill
#
# Bulk Modulus (GPa) = 55.28783 55.58478 55.43630
# Shear Modulus (GPa) = 24.34888 25.17720 24.76304
#
# Velocity S-wave (km/s) = 3.50968 3.56888 3.53940
# Velocity P-wave (km/s) = 6.66283 6.71582 6.68938
#
# Compressibility (1/GPa) = 0.01808716
#
# Stress axis : x y z
#
# Youngs Moduli (GPa) = 50.15052 70.86419 61.94919
#
# Poissons Ratio (x) = 0.35298 0.47640
# Poissons Ratio (y) = 0.24980 0.20951
# Poissons Ratio (z) = 0.38567 0.23967
#
# Static dielectric constant tensor:
#      x y z
#    x 4.058610 0.000000 0.000000 
#    y 0.000000 17.699220 0.000000 
#    z 0.000000 0.000000 3.374590 
# 
# 
# High freq. dielectric constant tensor:
#      x y z
#    x 1.789600 0.000000 0.000000 
#    y 0.000000 1.785950 0.000000 
#    z 0.000000 0.000000 1.727530 
# 
# From -- ./inp_files/9594.got.cif
#   From: 2010.03.12/outbox.cif.g09.slc.cpg/sg59_5_cif.got.tgz:9594.got - 2010.04.16 16:29:54.
