data_PCOD8241297
_publ_section_title
;
Structure prediction by ZEFSAII (Michael W. Deem and Ramdas Pophale) SiO2 
 PCOD8241297
Probable space group: P M M N
;
_chemical_formula_sum "Si O2"
_cell_formula_units_Z 56
_cell_length_a 19.476004
_cell_length_b 9.131728
_cell_length_c 17.414512
_cell_angle_alpha 90.000000
_cell_angle_beta 90.000000
_cell_angle_gamma 90.000000
_cell_volume 3097.163489
_symmetry_space_group_name_H-M "P M M N"
_symmetry_group_IT_number 59
_space_group.IT_coordinate_system_code '2'
_symmetry_cell_setting 'orthorhombic'
loop_
_space_group_symop_operation_xyz
x,y,z
1/2-x,1/2-y,z
1/2+x,-y,-z
-x,1/2+y,-z
-x,-y,-z
1/2+x,1/2+y,-z
1/2-x,y,z
x,1/2-y,z
loop_
_atom_site_type_symbol
_atom_site_label
_atom_site_fract_x
_atom_site_fract_y
_atom_site_fract_z
Si Si1 0.902222 0.920508 0.959994
Si Si2 0.448498 0.579033 0.895180
Si Si3 0.061202 0.421689 0.735876
Si Si4 0.171117 0.577861 0.456717
Si Si5 0.671077 0.417417 0.833433
Si Si6 0.911051 0.077636 0.688371
Si Si7 0.328304 0.079569 0.611100
O O1 0.889808 0.750000 0.974117
O O2 0.972477 0.952701 0.914708
O O3 0.841108 0.986592 0.909243
O O4 0.900977 0.000369 0.041941
O O5 0.431455 0.750000 0.895385
O O6 0.430653 0.512882 0.813054
O O7 0.061649 0.250000 0.756396
O O8 0.124281 0.467724 0.682000
O O9 0.991079 0.464387 0.691731
O O10 0.250000 0.537655 0.438024
O O11 0.161217 0.750000 0.466352
O O12 0.123392 0.512862 0.388748
O O13 0.146733 0.504630 0.535577
O O14 0.750000 0.426758 0.809352
O O15 0.648950 0.250000 0.850732
O O16 0.627058 0.485567 0.763522
O O17 0.898706 0.250000 0.687627
O O18 0.250000 0.038527 0.632322
O O19 0.336628 0.250000 0.593502
#
# Coordination Sequence:
#
# PCOD8241297 Si02
#       7
#     8   8   8   8   8   8   8
#     4  10  20  34  53  76 103 137 173 210 256 308
#     4  10  20  34  54  78 103 131 170 217 260 305
#     4  10  19  33  54  76 101 135 172 214 263 311
#     4   9  17  31  51  73  99 134 173 210 252 305
#     4  10  19  32  52  77 107 141 174 213 258 305
#     4   9  17  30  50  76 103 132 173 214 252 304
#     4   9  19  35  52  72 100 134 171 211 261 316
#
# _framework density 18.081060000000001
#
# number of rings (size 3 to 8) (size 9 to 14) (size 15 to 20)
#    0.000    2.429    1.429    1.286    0.000    4.286 
#    0.000    2.143    0.000    4.286    0.000    0.000 
#    0.000    0.000    0.000    0.000    0.000    0.000 
#
# Total GULP energy -694530.793520 kJ/mol
# GULP energy per Si atom -12402.335599 kJ/mol
# Density = 1.803991 g / cm^3
# Si number density = 18.081060 Si / 1000 Ang^3
#
#
#
# Elastic Constant Matrix: (Units=GPa)
#
#
# Indices 1 2 3 4 5 6 
#
# 1 83.8899 34.1125 65.0178 0.0000 0.0000 0.0000
# 2 34.1125 62.4335 60.4777 0.0000 0.0000 0.0000
# 3 65.0178 60.4777 158.1442 0.0000 0.0000 0.0000
# 4 0.0000 0.0000 0.0000 32.7597 0.0000 0.0000
# 5 0.0000 0.0000 0.0000 0.0000 32.5090 0.0000
# 6 0.0000 0.0000 0.0000 0.0000 0.0000 19.4099
#
#
#
# Elastic Compliance Matrix: (Units=1/GPa)
#
#
# Indices 1 2 3 4 5 6 
#
# 1 0.018187 -0.004279 -0.005841 0.000000 0.000000 0.000000
# 2 -0.004279 0.026449 -0.008355 0.000000 0.000000 0.000000
# 3 -0.005841 -0.008355 0.011920 0.000000 0.000000 0.000000
# 4 0.000000 0.000000 0.000000 0.030525 0.000000 0.000000
# 5 0.000000 0.000000 0.000000 0.000000 0.030761 0.000000
# 6 0.000000 0.000000 0.000000 0.000000 0.000000 0.051520
#
#
# Mechanical properties :
#
#
# Convention : Reuss Voigt Hill
#
# Bulk Modulus (GPa) = 51.00701 69.29818 60.15259
# Shear Modulus (GPa) = 23.49097 26.59303 25.04200
#
# Velocity S-wave (km/s) = 3.60836 3.83922 3.72558
# Velocity P-wave (km/s) = 6.75513 7.61987 7.20049
#
# Compressibility (1/GPa) = 0.01960515
#
# Stress axis : x y z
#
# Youngs Moduli (GPa) = 54.98313 37.80922 83.89352
#
# Poissons Ratio (x) = 0.16180 0.49001
# Poissons Ratio (y) = 0.23529 0.70094
# Poissons Ratio (z) = 0.32115 0.31590
#
# Static dielectric constant tensor:
#      x y z
#    x 3.272400 0.000000 0.000000 
#    y 0.000000 3.154310 0.000000 
#    z 0.000000 0.000000 3.387410 
# 
# 
# High freq. dielectric constant tensor:
#      x y z
#    x 1.688880 0.000000 0.000000 
#    y 0.000000 1.683310 0.000000 
#    z 0.000000 0.000000 1.706730 
# 
# From -- ./inp_files/20895.got.cif
#   From: 2010.03.12/outbox.cif.g09.slc.cpg/sg59_11_cif.got.tgz:20895.got - 2010.04.16 16:29:54.
