data_PCOD8241869
_publ_section_title
;
Structure prediction by ZEFSAII (Michael W. Deem and Ramdas Pophale) SiO2 
 PCOD8241869
Probable space group: P M M N
;
_chemical_formula_sum "Si O2"
_cell_formula_units_Z 48
_cell_length_a 10.106185
_cell_length_b 28.636136
_cell_length_c 8.695958
_cell_angle_alpha 90.000000
_cell_angle_beta 90.000000
_cell_angle_gamma 90.000000
_cell_volume 2516.628403
_symmetry_space_group_name_H-M "P M M N"
_symmetry_group_IT_number 59
_space_group.IT_coordinate_system_code '2'
_symmetry_cell_setting 'orthorhombic'
loop_
_space_group_symop_operation_xyz
x,y,z
1/2-x,1/2-y,z
1/2+x,-y,-z
-x,1/2+y,-z
-x,-y,-z
1/2+x,1/2+y,-z
1/2-x,y,z
x,1/2-y,z
loop_
_atom_site_type_symbol
_atom_site_label
_atom_site_fract_x
_atom_site_fract_y
_atom_site_fract_z
Si Si1 0.006456 0.102976 0.975199
Si Si2 0.250000 0.938431 0.885144
Si Si3 0.900065 0.300201 0.647627
Si Si4 0.750000 0.957451 0.055265
Si Si5 0.250000 0.061261 0.584614
Si Si6 0.750000 0.042839 0.474166
Si Si7 0.098437 0.199448 0.929335
Si Si8 0.521673 0.397265 0.609282
O O1 0.119159 0.065365 0.018664
O O2 0.054588 0.154715 0.030165
O O3 0.975710 0.102656 0.794004
O O4 0.877596 0.091293 0.071571
O O5 0.250000 0.946462 0.704973
O O6 0.250000 0.987304 0.978416
O O7 0.750000 0.305812 0.711498
O O8 0.911209 0.250000 0.557739
O O9 0.934299 0.345975 0.545345
O O10 0.004659 0.298910 0.783296
O O11 0.750000 0.948095 0.235281
O O12 0.378178 0.091383 0.539699
O O13 0.250000 0.012494 0.493437
O O14 0.880001 0.063112 0.552448
O O15 0.250000 0.191651 0.874579
O O16 0.086073 0.250000 0.016563
#
# Coordination Sequence:
#
# PCOD8241869 Si02
#       8
#     8   4   8   4   4   4   8   8
#     4  10  19  34  54  79 102 135 170 210 255 310
#     4  11  23  33  50  73 109 137 173 213 252 297
#     4   9  17  28  47  79 108 130 160 206 258 308
#     4   9  18  35  52  76 103 134 169 215 256 301
#     4   9  20  33  54  78 103 128 175 221 256 299
#     4  11  21  37  50  73 105 141 173 215 254 299
#     4   9  17  29  50  79 107 131 162 212 265 306
#     4  10  19  34  56  76 101 135 171 211 259 308
#
# _framework density 19.073138
#
# number of rings (size 3 to 8) (size 9 to 14) (size 15 to 20)
#    0.000    2.333    1.667    1.500    7.000    0.000 
#    0.000    2.500    0.000    2.000    0.000    0.000 
#    0.000    0.000    0.000    0.000    0.000    0.000 
#
# Total GULP energy -594764.585226 kJ/mol
# GULP energy per Si atom -12390.928859 kJ/mol
# Density = 1.902973 g / cm^3
# Si number density = 19.073138 Si / 1000 Ang^3
#
#
#
# Elastic Constant Matrix: (Units=GPa)
#
#
# Indices 1 2 3 4 5 6 
#
# 1 166.2210 75.2252 15.7154 0.0000 0.0000 0.0000
# 2 75.2252 170.7736 15.9085 0.0000 0.0000 0.0000
# 3 15.7154 15.9085 21.7016 0.0000 0.0000 0.0000
# 4 0.0000 0.0000 0.0000 13.4052 0.0000 0.0000
# 5 0.0000 0.0000 0.0000 0.0000 -7.1737 0.0000
# 6 0.0000 0.0000 0.0000 0.0000 0.0000 34.8581
#
#
#
# Elastic Compliance Matrix: (Units=1/GPa)
#
#
# Indices 1 2 3 4 5 6 
#
# 1 0.007732 -0.003096 -0.003330 0.000000 0.000000 0.000000
# 2 -0.003096 0.007524 -0.003274 0.000000 0.000000 0.000000
# 3 -0.003330 -0.003274 0.050891 0.000000 0.000000 0.000000
# 4 0.000000 0.000000 0.000000 0.074598 0.000000 0.000000
# 5 0.000000 0.000000 0.000000 0.000000 -0.139399 0.000000
# 6 0.000000 0.000000 0.000000 0.000000 0.000000 0.028688
#
#
# Mechanical properties :
#
#
# Convention : Reuss Voigt Hill
#
# Bulk Modulus (GPa) = 21.39119 63.59939 42.49529
# Shear Modulus (GPa) = 76.90397 25.00771 50.95584
#
# Velocity S-wave (km/s) = 6.35674 3.62491 5.17436
# Velocity P-wave (km/s) = 8.06952 7.13704 7.61756
#
# Compressibility (1/GPa) = 0.04674822
#
# Stress axis : x y z
#
# Youngs Moduli (GPa) = 129.33446 132.90215 19.64983
#
# Poissons Ratio (x) = 0.41142 0.06543
# Poissons Ratio (y) = 0.40038 0.06433
# Poissons Ratio (z) = 0.43066 0.43512
#
# Static dielectric constant tensor:
#      x y z
#    x 3.812680 0.000000 0.000000 
#    y 0.000000 4.551430 0.000000 
#    z 0.000000 0.000000 2.780000 
# 
# 
# High freq. dielectric constant tensor:
#      x y z
#    x 1.766800 0.000000 0.000000 
#    y 0.000000 1.774540 0.000000 
#    z 0.000000 0.000000 1.656620 
# 
# From -- ./inp_files/6471.got.cif
#   From: 2010.03.12/outbox.cif.g09.slc.cpg/sg59_4_cif.got.tgz:6471.got - 2010.04.16 16:29:54.
