data_PCOD8241404
_publ_section_title
;
Structure prediction by ZEFSAII (Michael W. Deem and Ramdas Pophale) SiO2 
 PCOD8241404
Probable space group: P M M N
;
_chemical_formula_sum "Si O2"
_cell_formula_units_Z 64
_cell_length_a 29.248433
_cell_length_b 8.696920
_cell_length_c 12.491981
_cell_angle_alpha 90.000000
_cell_angle_beta 90.000000
_cell_angle_gamma 90.000000
_cell_volume 3177.601221
_symmetry_space_group_name_H-M "P M M N"
_symmetry_group_IT_number 59
_space_group.IT_coordinate_system_code '2'
_symmetry_cell_setting 'orthorhombic'
loop_
_space_group_symop_operation_xyz
x,y,z
1/2-x,1/2-y,z
1/2+x,-y,-z
-x,1/2+y,-z
-x,-y,-z
1/2+x,1/2+y,-z
1/2-x,y,z
x,1/2-y,z
loop_
_atom_site_type_symbol
_atom_site_label
_atom_site_fract_x
_atom_site_fract_y
_atom_site_fract_z
Si Si1 0.339400 0.070515 0.503675
Si Si2 0.802668 0.071801 0.934206
Si Si3 0.199376 0.066657 0.721607
Si Si4 0.529998 0.432386 0.096448
Si Si5 0.567958 0.422679 0.510189
Si Si6 0.993486 0.924722 0.673196
Si Si7 0.196981 0.077945 0.284694
Si Si8 0.869228 0.569336 0.099136
O O1 0.329781 0.250000 0.498693
O O2 0.310595 0.001690 0.602825
O O3 0.324602 0.999223 0.390231
O O4 0.392304 0.037921 0.522755
O O5 0.750000 0.026559 0.960767
O O6 0.811706 0.250000 0.959169
O O7 0.813854 0.038105 0.810964
O O8 0.837412 0.964956 0.998042
O O9 0.250000 0.008882 0.757334
O O10 0.197898 0.250000 0.723606
O O11 0.159592 0.004412 0.799674
O O12 0.529066 0.250000 0.088222
O O13 0.508975 0.487368 0.210424
O O14 0.582332 0.485881 0.088814
O O15 0.500000 0.500000 0.000000
O O16 0.586410 0.250000 0.523248
O O17 0.546893 0.471387 0.624944
O O18 0.534227 0.435349 0.410871
O O19 0.975888 0.750000 0.683772
O O20 0.250000 0.092783 0.306618
O O21 0.177152 0.250000 0.261076
O O22 0.878597 0.750000 0.107255
#
# Coordination Sequence:
#
# PCOD8241404 Si02
#       8
#     8   8   8   8   8   8   8   8
#     4  10  19  32  53  81 113 146 180 220 268 323
#     4  10  21  37  57  81 111 148 191 239 288 337
#     4   9  18  33  56  87 119 151 189 232 276 329
#     4  11  24  42  62  84 114 149 188 237 291 347
#     4  10  20  34  56  83 109 140 178 222 270 322
#     4   9  20  39  59  79 106 140 178 222 273 328
#     4   9  18  33  53  76 104 141 182 222 266 318
#     4  11  22  37  60  87 115 149 190 235 285 344
#
# _framework density 20.140979000000002
#
# number of rings (size 3 to 8) (size 9 to 14) (size 15 to 20)
#    0.000    2.125    0.000    3.000    0.000    5.750 
#    0.000    1.875    0.000    2.625    0.000    0.000 
#    0.000    0.000    0.000    0.000    0.000    0.000 
#
# Total GULP energy -793439.855362 kJ/mol
# GULP energy per Si atom -12397.497740 kJ/mol
# Density = 2.009514 g / cm^3
# Si number density = 20.140979 Si / 1000 Ang^3
#
#
#
# Elastic Constant Matrix: (Units=GPa)
#
#
# Indices 1 2 3 4 5 6 
#
# 1 106.4182 20.8486 62.7579 0.0000 0.0000 0.0000
# 2 20.8486 38.8799 31.6253 0.0000 0.0000 0.0000
# 3 62.7579 31.6253 131.9909 0.0000 0.0000 0.0000
# 4 0.0000 0.0000 0.0000 22.3854 0.0000 0.0000
# 5 0.0000 0.0000 0.0000 0.0000 22.2092 0.0000
# 6 0.0000 0.0000 0.0000 0.0000 0.0000 26.7647
#
#
#
# Elastic Compliance Matrix: (Units=1/GPa)
#
#
# Indices 1 2 3 4 5 6 
#
# 1 0.013245 -0.002459 -0.005708 0.000000 0.000000 0.000000
# 2 -0.002459 0.032403 -0.006595 0.000000 0.000000 0.000000
# 3 -0.005708 -0.006595 0.011871 0.000000 0.000000 0.000000
# 4 0.000000 0.000000 0.000000 0.044672 0.000000 0.000000
# 5 0.000000 0.000000 0.000000 0.000000 0.045026 0.000000
# 6 0.000000 0.000000 0.000000 0.000000 0.000000 0.037363
#
#
# Mechanical properties :
#
#
# Convention : Reuss Voigt Hill
#
# Bulk Modulus (GPa) = 35.72148 56.41695 46.06921
# Shear Modulus (GPa) = 22.37781 25.07566 23.72674
#
# Velocity S-wave (km/s) = 3.33687 3.53229 3.43597
# Velocity P-wave (km/s) = 5.71144 6.68640 6.21806
#
# Compressibility (1/GPa) = 0.02799436
#
# Stress axis : x y z
#
# Youngs Moduli (GPa) = 75.49963 30.86131 84.24191
#
# Poissons Ratio (x) = 0.07589 0.48089
# Poissons Ratio (y) = 0.18566 0.55554
# Poissons Ratio (z) = 0.43099 0.20352
#
# Static dielectric constant tensor:
#      x y z
#    x 3.623710 0.000000 0.000000 
#    y 0.000000 3.512990 0.000000 
#    z 0.000000 0.000000 3.896570 
# 
# 
# High freq. dielectric constant tensor:
#      x y z
#    x 1.785020 0.000000 0.000000 
#    y 0.000000 1.766680 0.000000 
#    z 0.000000 0.000000 1.798760 
# 
# From -- ./inp_files/19362.got.cif
#   From: 2010.03.12/outbox.cif.g09.slc.cpg/sg59_10_cif.got.tgz:19362.got - 2010.04.16 16:29:54.
