data_PCOD8241196
_publ_section_title
;
Structure prediction by ZEFSAII (Michael W. Deem and Ramdas Pophale) SiO2 
 PCOD8241196
Probable space group: P M M N
;
_chemical_formula_sum "Si O2"
_cell_formula_units_Z 48
_cell_length_a 17.872387
_cell_length_b 9.117234
_cell_length_c 16.328196
_cell_angle_alpha 90.000000
_cell_angle_beta 90.000000
_cell_angle_gamma 90.000000
_cell_volume 2660.626217
_symmetry_space_group_name_H-M "P M M N"
_symmetry_group_IT_number 59
_space_group.IT_coordinate_system_code '2'
_symmetry_cell_setting 'orthorhombic'
loop_
_space_group_symop_operation_xyz
x,y,z
1/2-x,1/2-y,z
1/2+x,-y,-z
-x,1/2+y,-z
-x,-y,-z
1/2+x,1/2+y,-z
1/2-x,y,z
x,1/2-y,z
loop_
_atom_site_type_symbol
_atom_site_label
_atom_site_fract_x
_atom_site_fract_y
_atom_site_fract_z
Si Si1 0.106228 0.581234 0.816763
Si Si2 0.967302 0.421738 0.421284
Si Si3 0.335585 0.080275 0.666434
Si Si4 0.666194 0.076452 0.844608
Si Si5 0.050899 0.416338 0.257111
Si Si6 0.421336 0.578506 0.997166
O O1 0.124475 0.750000 0.794266
O O2 0.156603 0.478919 0.759278
O O3 0.018855 0.548732 0.801689
O O4 0.122199 0.546196 0.911900
O O5 0.954753 0.250000 0.437952
O O6 0.887673 0.490840 0.396161
O O7 0.000000 0.500000 0.500000
O O8 0.027790 0.448405 0.350220
O O9 0.250000 0.060456 0.637998
O O10 0.359568 0.250000 0.664972
O O11 0.750000 0.013908 0.838619
O O12 0.666267 0.250000 0.841787
O O13 0.630609 0.019473 0.929635
O O14 0.619660 0.019451 0.766979
O O15 0.077502 0.250000 0.246040
O O16 0.437458 0.750000 0.005944
O O17 0.500000 0.500000 0.000000
#
# Coordination Sequence:
#
# PCOD8241196 Si02
#       6
#     8   8   8   8   8   8
#     4   9  18  32  52  77 104 139 182 223 268 325
#     4  10  21  38  61  87 112 139 177 220 267 330
#     4  10  21  36  55  82 115 146 179 223 273 323
#     4  10  21  34  49  74 106 141 182 225 268 314
#     4   9  18  34  54  77 103 133 173 215 259 316
#     4  10  19  32  51  75 104 141 184 229 271 317
#
# _framework density 18.040865
#
# number of rings (size 3 to 8) (size 9 to 14) (size 15 to 20)
#    0.000    2.333    1.667    2.000    0.000    6.333 
#    0.000    2.500    0.000    1.000    0.000    0.000 
#    0.000    0.000    0.000    0.000    0.000    0.000 
#
# Total GULP energy -595244.181113 kJ/mol
# GULP energy per Si atom -12400.920440 kJ/mol
# Density = 1.799980 g / cm^3
# Si number density = 18.040865 Si / 1000 Ang^3
#
#
#
# Elastic Constant Matrix: (Units=GPa)
#
#
# Indices 1 2 3 4 5 6 
#
# 1 111.0800 53.8901 53.6417 0.0000 0.0000 0.0000
# 2 53.8901 82.8747 48.9825 0.0000 0.0000 0.0000
# 3 53.6417 48.9825 98.6468 0.0000 0.0000 0.0000
# 4 0.0000 0.0000 0.0000 32.0500 0.0000 0.0000
# 5 0.0000 0.0000 0.0000 0.0000 20.4772 0.0000
# 6 0.0000 0.0000 0.0000 0.0000 0.0000 29.4527
#
#
#
# Elastic Compliance Matrix: (Units=1/GPa)
#
#
# Indices 1 2 3 4 5 6 
#
# 1 0.014446 -0.006724 -0.004516 0.000000 0.000000 0.000000
# 2 -0.006724 0.020208 -0.006378 0.000000 0.000000 0.000000
# 3 -0.004516 -0.006378 0.015760 0.000000 0.000000 0.000000
# 4 0.000000 0.000000 0.000000 0.031201 0.000000 0.000000
# 5 0.000000 0.000000 0.000000 0.000000 0.048835 0.000000
# 6 0.000000 0.000000 0.000000 0.000000 0.000000 0.033953
#
#
# Mechanical properties :
#
#
# Convention : Reuss Voigt Hill
#
# Bulk Modulus (GPa) = 65.88820 67.29225 66.59022
# Shear Modulus (GPa) = 24.42609 25.46846 24.94728
#
# Velocity S-wave (km/s) = 3.68357 3.76135 3.72266
# Velocity P-wave (km/s) = 7.39544 7.49964 7.44772
#
# Compressibility (1/GPa) = 0.01517723
#
# Stress axis : x y z
#
# Youngs Moduli (GPa) = 69.22477 49.48413 63.45154
#
# Poissons Ratio (x) = 0.33273 0.28657
# Poissons Ratio (y) = 0.46547 0.40470
# Poissons Ratio (z) = 0.31265 0.31561
#
# Static dielectric constant tensor:
#      x y z
#    x 3.240940 0.000000 0.000000 
#    y 0.000000 3.317440 0.000000 
#    z 0.000000 0.000000 3.394410 
# 
# 
# High freq. dielectric constant tensor:
#      x y z
#    x 1.687240 0.000000 0.000000 
#    y 0.000000 1.699140 0.000000 
#    z 0.000000 0.000000 1.696120 
# 
# From -- ./inp_files/23668.got.cif
#   From: 2010.03.12/outbox.cif.g09.slc.cpg/sg59_12_cif.got.tgz:23668.got - 2010.04.16 16:29:54.
