data_PCOD8241226
_publ_section_title
;
Structure prediction by ZEFSAII (Michael W. Deem and Ramdas Pophale) SiO2 
 PCOD8241226
Probable space group: P M M N
;
_chemical_formula_sum "Si O2"
_cell_formula_units_Z 64
_cell_length_a 8.853048
_cell_length_b 24.008126
_cell_length_c 15.261025
_cell_angle_alpha 90.000000
_cell_angle_beta 90.000000
_cell_angle_gamma 90.000000
_cell_volume 3243.655961
_symmetry_space_group_name_H-M "P M M N"
_symmetry_group_IT_number 59
_space_group.IT_coordinate_system_code '2'
_symmetry_cell_setting 'orthorhombic'
loop_
_space_group_symop_operation_xyz
x,y,z
1/2-x,1/2-y,z
1/2+x,-y,-z
-x,1/2+y,-z
-x,-y,-z
1/2+x,1/2+y,-z
1/2-x,y,z
x,1/2-y,z
loop_
_atom_site_type_symbol
_atom_site_label
_atom_site_fract_x
_atom_site_fract_y
_atom_site_fract_z
Si Si1 0.071336 0.115596 0.882367
Si Si2 0.427145 0.313972 0.050610
Si Si3 0.573105 0.096892 0.384722
Si Si4 0.575358 0.481375 0.628451
Si Si5 0.576064 0.493636 0.832019
Si Si6 0.929608 0.687984 0.278930
Si Si7 0.072289 0.375071 0.550738
Si Si8 0.426548 0.890769 0.813985
O O1 0.250000 0.108718 0.876950
O O2 0.006957 0.147201 0.796368
O O3 0.021204 0.151565 0.965790
O O4 0.999195 0.054376 0.891024
O O5 0.250000 0.319878 0.066769
O O6 0.474112 0.250000 0.036436
O O7 0.512137 0.337180 0.135498
O O8 0.750000 0.085468 0.394344
O O9 0.481193 0.040843 0.404568
O O10 0.514325 0.139661 0.459614
O O11 0.533512 0.119441 0.288159
O O12 0.750000 0.472992 0.602386
O O13 0.550630 0.476502 0.731950
O O14 0.471019 0.436494 0.582071
O O15 0.750000 0.498762 0.857781
O O16 0.501574 0.553194 0.851710
O O17 0.750000 0.688080 0.273322
O O18 0.993568 0.750000 0.263160
O O19 0.982819 0.667930 0.374764
O O20 0.250000 0.370897 0.534858
O O21 0.250000 0.897004 0.828479
#
# Coordination Sequence:
#
# PCOD8241226 Si02
#       8
#     8   8   8   8   8   8   8   8
#     4  10  19  35  60  87 116 148 185 229 280 342
#     4  10  22  40  63  89 114 145 188 237 287 337
#     4  10  21  36  54  77 108 144 186 231 279 332
#     4  10  19  32  51  78 113 148 183 225 273 329
#     4  10  20  34  56  86 120 153 186 230 284 341
#     4   9  18  33  54  80 111 148 189 230 272 329
#     4  11  20  31  52  80 110 146 187 229 275 327
#     4  10  22  40  61  83 112 151 193 239 288 341
#
# _framework density 19.730822
#
# number of rings (size 3 to 8) (size 9 to 14) (size 15 to 20)
#    0.000    2.000    1.250    2.625    0.000    5.250 
#    0.000    0.625    0.000    6.375    0.000    0.000 
#    0.000    0.000    0.000    0.000    0.000    0.000 
#
# Total GULP energy -793724.579126 kJ/mol
# GULP energy per Si atom -12401.946549 kJ/mol
# Density = 1.968591 g / cm^3
# Si number density = 19.730822 Si / 1000 Ang^3
#
#
#
# Elastic Constant Matrix: (Units=GPa)
#
#
# Indices 1 2 3 4 5 6 
#
# 1 52.7184 25.8041 32.9038 0.0000 0.0000 0.0000
# 2 25.8041 67.4288 43.8330 0.0000 0.0000 0.0000
# 3 32.9038 43.8330 83.9762 0.0000 0.0000 0.0000
# 4 0.0000 0.0000 0.0000 29.0330 0.0000 0.0000
# 5 0.0000 0.0000 0.0000 0.0000 29.7704 0.0000
# 6 0.0000 0.0000 0.0000 0.0000 0.0000 25.3054
#
#
#
# Elastic Compliance Matrix: (Units=1/GPa)
#
#
# Indices 1 2 3 4 5 6 
#
# 1 0.026209 -0.005077 -0.007619 0.000000 0.000000 0.000000
# 2 -0.005077 0.023430 -0.010241 0.000000 0.000000 0.000000
# 3 -0.007619 -0.010241 0.020239 0.000000 0.000000 0.000000
# 4 0.000000 0.000000 0.000000 0.034444 0.000000 0.000000
# 5 0.000000 0.000000 0.000000 0.000000 0.033590 0.000000
# 6 0.000000 0.000000 0.000000 0.000000 0.000000 0.039517
#
#
# Mechanical properties :
#
#
# Convention : Reuss Voigt Hill
#
# Bulk Modulus (GPa) = 41.65859 45.46722 43.56291
# Shear Modulus (GPa) = 21.61644 23.59394 22.60519
#
# Velocity S-wave (km/s) = 3.31353 3.46177 3.38846
# Velocity P-wave (km/s) = 5.98319 6.25078 6.11845
#
# Compressibility (1/GPa) = 0.02400465
#
# Stress axis : x y z
#
# Youngs Moduli (GPa) = 38.15444 42.67956 49.40963
#
# Poissons Ratio (x) = 0.21668 0.37647
# Poissons Ratio (y) = 0.19370 0.50599
# Poissons Ratio (z) = 0.29072 0.43707
#
# Static dielectric constant tensor:
#      x y z
#    x 3.423750 0.000000 0.000000 
#    y 0.000000 3.515820 0.000000 
#    z 0.000000 0.000000 3.806350 
# 
# 
# High freq. dielectric constant tensor:
#      x y z
#    x 1.757740 0.000000 0.000000 
#    y 0.000000 1.752800 0.000000 
#    z 0.000000 0.000000 1.779270 
# 
# From -- ./inp_files/26254.got.cif
#   From: 2010.03.12/outbox.cif.g09.slc.cpg/sg59_14_cif.got.tgz:26254.got - 2010.04.16 16:29:54.
