data_PCOD8241625
_publ_section_title
;
Structure prediction by ZEFSAII (Michael W. Deem and Ramdas Pophale) SiO2 
 PCOD8241625
Probable space group: P M M N
;
_chemical_formula_sum "Si O2"
_cell_formula_units_Z 56
_cell_length_a 9.221662
_cell_length_b 15.654621
_cell_length_c 20.918289
_cell_angle_alpha 90.000000
_cell_angle_beta 90.000000
_cell_angle_gamma 90.000000
_cell_volume 3019.798163
_symmetry_space_group_name_H-M "P M M N"
_symmetry_group_IT_number 59
_space_group.IT_coordinate_system_code '2'
_symmetry_cell_setting 'orthorhombic'
loop_
_space_group_symop_operation_xyz
x,y,z
1/2-x,1/2-y,z
1/2+x,-y,-z
-x,1/2+y,-z
-x,-y,-z
1/2+x,1/2+y,-z
1/2-x,y,z
x,1/2-y,z
loop_
_atom_site_type_symbol
_atom_site_label
_atom_site_fract_x
_atom_site_fract_y
_atom_site_fract_z
Si Si1 0.907600 0.522658 0.599204
Si Si2 0.091795 0.887504 0.509374
Si Si3 0.579629 0.750000 0.436644
Si Si4 0.083221 0.564211 0.269266
Si Si5 0.418967 0.151720 0.082559
Si Si6 0.077144 0.499721 0.850052
Si Si7 0.584361 0.250000 0.693945
Si Si8 0.421791 0.155681 0.936861
O O1 0.750000 0.564809 0.615137
O O2 0.886752 0.469212 0.534843
O O3 0.957621 0.465317 0.659086
O O4 0.030889 0.591627 0.580902
O O5 0.250000 0.843186 0.517928
O O6 0.973119 0.831229 0.474886
O O7 0.750000 0.750000 0.432790
O O8 0.521032 0.750000 0.365460
O O9 0.250000 0.542972 0.252582
O O10 0.055129 0.665966 0.263558
O O11 0.977733 0.514507 0.221681
O O12 0.250000 0.129049 0.091130
O O13 0.447606 0.250000 0.102974
O O14 0.514373 0.089396 0.125852
O O15 0.469126 0.137496 0.009546
O O16 0.250000 0.504563 0.851219
O O17 0.016758 0.420330 0.892574
O O18 0.750000 0.250000 0.667865
O O19 0.250000 0.157368 0.932613
O O20 0.480696 0.250000 0.915611
#
# Coordination Sequence:
#
# PCOD8241625 Si02
#       8
#     8   8   4   8   8   8   4   8
#     4   9  18  34  54  76 101 134 174 219 263 312
#     4  10  19  33  54  77 105 136 171 217 268 316
#     4  12  22  32  52  82 110 138 177 220 267 326
#     4  10  21  37  56  76 109 150 185 219 264 328
#     4   9  18  36  61  81 102 142 191 235 283 335
#     4  11  22  33  53  84 117 149 184 230 278 329
#     4  10  20  38  56  76 108 148 187 224 267 316
#     4   8  16  32  53  80 115 150 183 224 276 331
#
# _framework density 18.544284999999999
#
# number of rings (size 3 to 8) (size 9 to 14) (size 15 to 20)
#    0.000    2.286    1.429    2.786    1.000    2.000 
#    0.000    0.714    1.571    1.714    0.000    0.000 
#    0.000    0.000    0.000    0.000    0.000    0.000 
#
# Total GULP energy -694083.872579 kJ/mol
# GULP energy per Si atom -12394.354867 kJ/mol
# Density = 1.850208 g / cm^3
# Si number density = 18.544285 Si / 1000 Ang^3
#
#
#
# Elastic Constant Matrix: (Units=GPa)
#
#
# Indices 1 2 3 4 5 6 
#
# 1 95.9641 47.1063 42.8213 0.0000 0.0000 0.0000
# 2 47.1063 83.4136 43.9146 0.0000 0.0000 0.0000
# 3 42.8213 43.9146 86.9532 0.0000 0.0000 0.0000
# 4 0.0000 0.0000 0.0000 25.8326 0.0000 0.0000
# 5 0.0000 0.0000 0.0000 0.0000 23.9411 0.0000
# 6 0.0000 0.0000 0.0000 0.0000 0.0000 27.1624
#
#
#
# Elastic Compliance Matrix: (Units=1/GPa)
#
#
# Indices 1 2 3 4 5 6 
#
# 1 0.015558 -0.006474 -0.004392 0.000000 0.000000 0.000000
# 2 -0.006474 0.019024 -0.006420 0.000000 0.000000 0.000000
# 3 -0.004392 -0.006420 0.016906 0.000000 0.000000 0.000000
# 4 0.000000 0.000000 0.000000 0.038711 0.000000 0.000000
# 5 0.000000 0.000000 0.000000 0.000000 0.041769 0.000000
# 6 0.000000 0.000000 0.000000 0.000000 0.000000 0.036816
#
#
# Mechanical properties :
#
#
# Convention : Reuss Voigt Hill
#
# Bulk Modulus (GPa) = 59.11465 59.33504 59.22484
# Shear Modulus (GPa) = 23.92401 24.21980 24.07190
#
# Velocity S-wave (km/s) = 3.59570 3.61785 3.60679
# Velocity P-wave (km/s) = 7.01323 7.03688 7.02507
#
# Compressibility (1/GPa) = 0.01691628
#
# Stress axis : x y z
#
# Youngs Moduli (GPa) = 64.27395 52.56439 59.15131
#
# Poissons Ratio (x) = 0.34029 0.25982
# Poissons Ratio (y) = 0.41610 0.37974
# Poissons Ratio (z) = 0.28232 0.33745
#
# Static dielectric constant tensor:
#      x y z
#    x 3.477970 0.000000 0.000000 
#    y 0.000000 3.454520 0.000000 
#    z 0.000000 0.000000 3.246020 
# 
# 
# High freq. dielectric constant tensor:
#      x y z
#    x 1.711930 0.000000 0.000000 
#    y 0.000000 1.711800 0.000000 
#    z 0.000000 0.000000 1.703490 
# 
# From -- ./inp_files/29264.got.cif
#   From: 2010.03.12/outbox.cif.g09.slc.cpg/sg59_15_cif.got.tgz:29264.got - 2010.04.16 16:29:54.
