data_PCOD8241814
_publ_section_title
;
Structure prediction by ZEFSAII (Michael W. Deem and Ramdas Pophale) SiO2 
 PCOD8241814
Probable space group: P M M N
;
_chemical_formula_sum "Si O2"
_cell_formula_units_Z 56
_cell_length_a 14.514870
_cell_length_b 19.251670
_cell_length_c 9.320724
_cell_angle_alpha 90.000000
_cell_angle_beta 90.000000
_cell_angle_gamma 90.000000
_cell_volume 2604.541053
_symmetry_space_group_name_H-M "P M M N"
_symmetry_group_IT_number 59
_space_group.IT_coordinate_system_code '2'
_symmetry_cell_setting 'orthorhombic'
loop_
_space_group_symop_operation_xyz
x,y,z
1/2-x,1/2-y,z
1/2+x,-y,-z
-x,1/2+y,-z
-x,-y,-z
1/2+x,1/2+y,-z
1/2-x,y,z
x,1/2-y,z
loop_
_atom_site_type_symbol
_atom_site_label
_atom_site_fract_x
_atom_site_fract_y
_atom_site_fract_z
Si Si1 0.643279 0.467978 0.472618
Si Si2 0.349297 0.063678 0.767393
Si Si3 0.595032 0.172640 0.600289
Si Si4 0.117721 0.173296 0.550159
Si Si5 0.143140 0.077608 0.297771
Si Si6 0.644804 0.330770 0.923427
Si Si7 0.478478 0.079463 0.018920
O O1 0.750000 0.485611 0.466283
O O2 0.603947 0.498157 0.320216
O O3 0.626745 0.385620 0.486050
O O4 0.604207 0.511605 0.609216
O O5 0.250000 0.042088 0.836127
O O6 0.325577 0.122821 0.651814
O O7 0.415079 0.098644 0.883949
O O8 0.631552 0.250000 0.555905
O O9 0.486415 0.172580 0.604525
O O10 0.634582 0.151714 0.755351
O O11 0.159483 0.250000 0.559534
O O12 0.130163 0.147792 0.387715
O O13 0.250000 0.066428 0.251739
O O14 0.078896 0.090736 0.162040
O O15 0.750000 0.349269 0.969151
O O16 0.623309 0.250000 0.951636
O O17 0.572811 0.375652 0.017368
O O18 0.500000 0.000000 0.000000
#
# Coordination Sequence:
#
# PCOD8241814 Si02
#       7
#     8   8   8   8   8   8   8
#     4   9  19  36  60  89 124 161 202 254 312 375
#     4  10  22  39  61  91 126 162 205 252 305 371
#     4  10  19  33  61  92 116 151 206 261 306 365
#     4  10  21  38  63  93 124 159 203 252 309 376
#     4  10  23  40  61  93 129 166 204 250 314 382
#     4  10  22  42  65  90 124 166 215 267 319 377
#     4  12  25  39  64  94 125 171 211 264 313 369
#
# _framework density 21.500907999999999
#
# number of rings (size 3 to 8) (size 9 to 14) (size 15 to 20)
#    0.000    1.857    1.429    3.000    2.000    6.000 
#    0.000    0.000    0.000    2.571    0.000    0.000 
#    0.000    0.000    0.000    0.000    0.000    0.000 
#
# Total GULP energy -694077.378934 kJ/mol
# GULP energy per Si atom -12394.238910 kJ/mol
# Density = 2.145197 g / cm^3
# Si number density = 21.500908 Si / 1000 Ang^3
#
#
#
# Elastic Constant Matrix: (Units=GPa)
#
#
# Indices 1 2 3 4 5 6 
#
# 1 114.9901 21.8578 36.2285 0.0000 0.0000 0.0000
# 2 21.8578 109.6460 12.1964 0.0000 0.0000 0.0000
# 3 36.2285 12.1964 79.4053 0.0000 0.0000 0.0000
# 4 0.0000 0.0000 0.0000 21.2478 0.0000 0.0000
# 5 0.0000 0.0000 0.0000 0.0000 17.8227 0.0000
# 6 0.0000 0.0000 0.0000 0.0000 0.0000 20.6399
#
#
#
# Elastic Compliance Matrix: (Units=1/GPa)
#
#
# Indices 1 2 3 4 5 6 
#
# 1 0.010417 -0.001575 -0.004511 0.000000 0.000000 0.000000
# 2 -0.001575 0.009517 -0.000743 0.000000 0.000000 0.000000
# 3 -0.004511 -0.000743 0.014766 0.000000 0.000000 0.000000
# 4 0.000000 0.000000 0.000000 0.047064 0.000000 0.000000
# 5 0.000000 0.000000 0.000000 0.000000 0.056108 0.000000
# 6 0.000000 0.000000 0.000000 0.000000 0.000000 0.048450
#
#
# Mechanical properties :
#
#
# Convention : Reuss Voigt Hill
#
# Bulk Modulus (GPa) = 47.52438 49.40077 48.46258
# Shear Modulus (GPa) = 24.15536 27.52597 25.84067
#
# Velocity S-wave (km/s) = 3.35544 3.58190 3.47052
# Velocity P-wave (km/s) = 6.09618 6.33504 6.21676
#
# Compressibility (1/GPa) = 0.02104183
#
# Stress axis : x y z
#
# Youngs Moduli (GPa) = 95.99769 105.07646 67.72390
#
# Poissons Ratio (x) = 0.16548 0.30549
# Poissons Ratio (y) = 0.15118 0.05034
# Poissons Ratio (z) = 0.43303 0.07810
#
# Static dielectric constant tensor:
#      x y z
#    x 4.044450 0.000000 0.000000 
#    y 0.000000 5.086640 0.000000 
#    z 0.000000 0.000000 3.066280 
# 
# 
# High freq. dielectric constant tensor:
#      x y z
#    x 1.859750 0.000000 0.000000 
#    y 0.000000 1.842800 0.000000 
#    z 0.000000 0.000000 1.820950 
# 
# From -- ./inp_files/9373.got.cif
#   From: 2010.03.12/outbox.cif.g09.slc.cpg/sg59_5_cif.got.tgz:9373.got - 2010.04.16 16:29:54.
