data_PCOD8241561
_publ_section_title
;
Structure prediction by ZEFSAII (Michael W. Deem and Ramdas Pophale) SiO2 
 PCOD8241561
Probable space group: P M M N
;
_chemical_formula_sum "Si O2"
_cell_formula_units_Z 64
_cell_length_a 18.656546
_cell_length_b 9.308585
_cell_length_c 20.046583
_cell_angle_alpha 90.000000
_cell_angle_beta 90.000000
_cell_angle_gamma 90.000000
_cell_volume 3481.410770
_symmetry_space_group_name_H-M "P M M N"
_symmetry_group_IT_number 59
_space_group.IT_coordinate_system_code '2'
_symmetry_cell_setting 'orthorhombic'
loop_
_space_group_symop_operation_xyz
x,y,z
1/2-x,1/2-y,z
1/2+x,-y,-z
-x,1/2+y,-z
-x,-y,-z
1/2+x,1/2+y,-z
1/2-x,y,z
x,1/2-y,z
loop_
_atom_site_type_symbol
_atom_site_label
_atom_site_fract_x
_atom_site_fract_y
_atom_site_fract_z
Si Si1 0.668254 0.915264 0.913697
Si Si2 0.919836 0.917994 0.181942
Si Si3 0.433915 0.415111 0.968579
Si Si4 0.916962 0.081419 0.803197
Si Si5 0.671844 0.419755 0.679898
Si Si6 0.433462 0.918208 0.586599
Si Si7 0.926089 0.083116 0.563997
Si Si8 0.667084 0.080801 0.292414
O O1 0.750000 0.972644 0.911557
O O2 0.665163 0.750000 0.891052
O O3 0.616792 0.006209 0.866905
O O4 0.638065 0.933472 0.988313
O O5 0.902358 0.750000 0.189226
O O6 0.913560 0.970118 0.105302
O O7 0.999855 0.955270 0.205868
O O8 0.863785 0.003945 0.227046
O O9 0.459097 0.250000 0.964441
O O10 0.500000 0.500000 0.000000
O O11 0.905074 0.250000 0.813091
O O12 0.878824 0.018447 0.737593
O O13 0.750000 0.490283 0.687719
O O14 0.676408 0.250000 0.687856
O O15 0.642896 0.460241 0.606999
O O16 0.447814 0.750000 0.593796
O O17 0.406658 0.957808 0.511967
O O18 0.375302 0.970116 0.640977
O O19 0.508008 0.998856 0.596817
O O20 0.945607 0.250000 0.570757
O O21 0.750000 0.037368 0.301743
O O22 0.658553 0.250000 0.281961
#
# Coordination Sequence:
#
# PCOD8241561 Si02
#       8
#     8   8   8   8   8   8   8   8
#     4  10  21  35  52  77 107 138 171 210 261 317
#     4  10  21  36  57  82 105 136 178 221 265 317
#     4  10  20  36  57  80 106 137 175 219 264 316
#     4  10  19  33  53  77 104 135 173 214 256 306
#     4   9  17  28  45  72 103 132 164 205 250 294
#     4   9  18  33  53  76 102 134 172 218 267 312
#     4   9  17  31  53  77 101 133 175 217 259 314
#     4  10  22  38  54  77 110 145 182 225 274 326
#
# _framework density 18.383354000000001
#
# number of rings (size 3 to 8) (size 9 to 14) (size 15 to 20)
#    0.000    2.375    1.250    1.125    0.000    4.500 
#    0.000    4.375    0.000    1.125    0.000    3.500 
#    0.000    0.000    0.000    0.000    0.000    0.000 
#
# Total GULP energy -793538.849150 kJ/mol
# GULP energy per Si atom -12399.044518 kJ/mol
# Density = 1.834151 g / cm^3
# Si number density = 18.383354 Si / 1000 Ang^3
#
#
#
# Elastic Constant Matrix: (Units=GPa)
#
#
# Indices 1 2 3 4 5 6 
#
# 1 106.8725 31.0724 60.6237 0.0000 0.0000 0.0000
# 2 31.0724 33.2838 31.0098 0.0000 0.0000 0.0000
# 3 60.6237 31.0098 128.8185 0.0000 0.0000 0.0000
# 4 0.0000 0.0000 0.0000 26.4505 0.0000 0.0000
# 5 0.0000 0.0000 0.0000 0.0000 28.7939 0.0000
# 6 0.0000 0.0000 0.0000 0.0000 0.0000 21.8656
#
#
#
# Elastic Compliance Matrix: (Units=1/GPa)
#
#
# Indices 1 2 3 4 5 6 
#
# 1 0.014744 -0.009410 -0.004673 0.000000 0.000000 0.000000
# 2 -0.009410 0.044737 -0.006341 0.000000 0.000000 0.000000
# 3 -0.004673 -0.006341 0.011489 0.000000 0.000000 0.000000
# 4 0.000000 0.000000 0.000000 0.037806 0.000000 0.000000
# 5 0.000000 0.000000 0.000000 0.000000 0.034730 0.000000
# 6 0.000000 0.000000 0.000000 0.000000 0.000000 0.045734
#
#
# Mechanical properties :
#
#
# Convention : Reuss Voigt Hill
#
# Bulk Modulus (GPa) = 33.19953 57.15407 45.17680
# Shear Modulus (GPa) = 20.82217 25.17327 22.99772
#
# Velocity S-wave (km/s) = 3.36916 3.70449 3.54080
# Velocity P-wave (km/s) = 5.76487 7.03244 6.42997
#
# Compressibility (1/GPa) = 0.03012091
#
# Stress axis : x y z
#
# Youngs Moduli (GPa) = 67.82467 22.35279 87.04263
#
# Poissons Ratio (x) = 0.21034 0.40679
# Poissons Ratio (y) = 0.63824 0.55192
# Poissons Ratio (z) = 0.31697 0.14173
#
# Static dielectric constant tensor:
#      x y z
#    x 3.507220 0.000000 0.000000 
#    y 0.000000 3.185650 0.000000 
#    z 0.000000 0.000000 3.585330 
# 
# 
# High freq. dielectric constant tensor:
#      x y z
#    x 1.713350 0.000000 0.000000 
#    y 0.000000 1.689350 0.000000 
#    z 0.000000 0.000000 1.727320 
# 
# From -- ./inp_files/30762.got.cif
#   From: 2010.03.12/outbox.cif.g09.slc.cpg/sg59_16_cif.got.tgz:30762.got - 2010.04.16 16:29:54.
