data_PCOD8241991
_publ_section_title
;
Structure prediction by ZEFSAII (Michael W. Deem and Ramdas Pophale) SiO2 
 PCOD8241991
Probable space group: P M M N
;
_chemical_formula_sum "Si O2"
_cell_formula_units_Z 64
_cell_length_a 8.983553
_cell_length_b 18.664210
_cell_length_c 19.964901
_cell_angle_alpha 90.000000
_cell_angle_beta 90.000000
_cell_angle_gamma 90.000000
_cell_volume 3347.533313
_symmetry_space_group_name_H-M "P M M N"
_symmetry_group_IT_number 59
_space_group.IT_coordinate_system_code '2'
_symmetry_cell_setting 'orthorhombic'
loop_
_space_group_symop_operation_xyz
x,y,z
1/2-x,1/2-y,z
1/2+x,-y,-z
-x,1/2+y,-z
-x,-y,-z
1/2+x,1/2+y,-z
1/2-x,y,z
x,1/2-y,z
loop_
_atom_site_type_symbol
_atom_site_label
_atom_site_fract_x
_atom_site_fract_y
_atom_site_fract_z
Si Si1 0.073266 0.931045 0.282996
Si Si2 0.422745 0.427592 0.860259
Si Si3 0.925521 0.575196 0.512275
Si Si4 0.576194 0.667111 0.386798
Si Si5 0.573142 0.829837 0.783292
Si Si6 0.078542 0.586214 0.900055
Si Si7 0.576435 0.333208 0.965928
Si Si8 0.926048 0.918718 0.660407
O O1 0.250000 0.927522 0.279220
O O2 0.010857 0.930128 0.208597
O O3 0.013917 0.863283 0.324038
O O4 0.014243 0.002370 0.320362
O O5 0.250000 0.415102 0.844643
O O6 0.448678 0.500994 0.901640
O O7 0.482938 0.361127 0.903093
O O8 0.750000 0.563808 0.510721
O O9 0.977871 0.631255 0.456213
O O10 0.977155 0.603135 0.585616
O O11 0.000000 0.500000 0.500000
O O12 0.750000 0.653177 0.374480
O O13 0.538016 0.750000 0.393037
O O14 0.750000 0.829096 0.783709
O O15 0.508631 0.750000 0.792625
O O16 0.520482 0.880545 0.842219
O O17 0.511086 0.860597 0.712855
O O18 0.250000 0.604913 0.885480
O O19 0.026781 0.620921 0.969702
O O20 0.750000 0.344286 0.950428
O O21 0.538496 0.250000 0.978571
O O22 0.750000 0.920335 0.665644
#
# Coordination Sequence:
#
# PCOD8241991 Si02
#       8
#     8   8   8   8   8   8   8   8
#     4  11  21  37  61  84 112 152 193 236 285 338
#     4  11  23  38  60  89 116 147 190 239 287 336
#     4  10  19  34  57  82 110 146 188 231 280 334
#     4  10  22  38  57  85 119 152 190 241 295 344
#     4  10  20  34  55  84 116 149 185 227 276 331
#     4  10  21  38  60  85 115 151 188 229 280 339
#     4  10  22  40  60  83 114 152 190 230 282 342
#     4   9  18  33  54  82 112 144 185 231 276 329
#
# _framework density 19.118555000000001
#
# number of rings (size 3 to 8) (size 9 to 14) (size 15 to 20)
#    0.000    1.875    2.500    1.500    0.000    3.250 
#    0.000    3.125    0.000    0.000    0.000    1.750 
#    0.000    0.000    0.000    0.000    0.000    0.000 
#
# Total GULP energy -793730.715927 kJ/mol
# GULP energy per Si atom -12402.042436 kJ/mol
# Density = 1.907504 g / cm^3
# Si number density = 19.118555 Si / 1000 Ang^3
#
#
#
# Elastic Constant Matrix: (Units=GPa)
#
#
# Indices 1 2 3 4 5 6 
#
# 1 44.4531 35.4849 32.7537 0.0000 0.0000 0.0000
# 2 35.4849 104.9889 49.5340 0.0000 0.0000 0.0000
# 3 32.7537 49.5340 117.1730 0.0000 0.0000 0.0000
# 4 0.0000 0.0000 0.0000 36.0823 0.0000 0.0000
# 5 0.0000 0.0000 0.0000 0.0000 21.5375 0.0000
# 6 0.0000 0.0000 0.0000 0.0000 0.0000 26.0997
#
#
#
# Elastic Compliance Matrix: (Units=1/GPa)
#
#
# Indices 1 2 3 4 5 6 
#
# 1 0.033640 -0.008661 -0.005742 0.000000 0.000000 0.000000
# 2 -0.008661 0.014128 -0.003551 0.000000 0.000000 0.000000
# 3 -0.005742 -0.003551 0.011641 0.000000 0.000000 0.000000
# 4 0.000000 0.000000 0.000000 0.027714 0.000000 0.000000
# 5 0.000000 0.000000 0.000000 0.000000 0.046431 0.000000
# 6 0.000000 0.000000 0.000000 0.000000 0.000000 0.038315
#
#
# Mechanical properties :
#
#
# Convention : Reuss Voigt Hill
#
# Bulk Modulus (GPa) = 42.55353 55.79555 49.17454
# Shear Modulus (GPa) = 23.19004 26.66675 24.92839
#
# Velocity S-wave (km/s) = 3.48654 3.73877 3.61485
# Velocity P-wave (km/s) = 6.20596 6.91991 6.57264
#
# Compressibility (1/GPa) = 0.02349981
#
# Stress axis : x y z
#
# Youngs Moduli (GPa) = 29.72654 70.78367 85.90438
#
# Poissons Ratio (x) = 0.61303 0.49328
# Poissons Ratio (y) = 0.25745 0.30508
# Poissons Ratio (z) = 0.17070 0.25138
#
# Static dielectric constant tensor:
#      x y z
#    x 3.327720 0.000000 0.000000 
#    y 0.000000 3.549360 0.000000 
#    z 0.000000 0.000000 3.715860 
# 
# 
# High freq. dielectric constant tensor:
#      x y z
#    x 1.725880 0.000000 0.000000 
#    y 0.000000 1.746790 0.000000 
#    z 0.000000 0.000000 1.757370 
# 
# From -- ./inp_files/29415.got.cif
#   From: 2010.03.12/outbox.cif.g09.slc.cpg/sg59_15_cif.got.tgz:29415.got - 2010.04.16 16:29:54.
