data_PCOD8241009
_publ_section_title
;
Structure prediction by ZEFSAII (Michael W. Deem and Ramdas Pophale) SiO2 
 PCOD8241009
Probable space group: P M M N
;
_chemical_formula_sum "Si O2"
_cell_formula_units_Z 56
_cell_length_a 8.970921
_cell_length_b 14.605941
_cell_length_c 22.421125
_cell_angle_alpha 90.000000
_cell_angle_beta 90.000000
_cell_angle_gamma 90.000000
_cell_volume 2937.811822
_symmetry_space_group_name_H-M "P M M N"
_symmetry_group_IT_number 59
_space_group.IT_coordinate_system_code '2'
_symmetry_cell_setting 'orthorhombic'
loop_
_space_group_symop_operation_xyz
x,y,z
1/2-x,1/2-y,z
1/2+x,-y,-z
-x,1/2+y,-z
-x,-y,-z
1/2+x,1/2+y,-z
1/2-x,y,z
x,1/2-y,z
loop_
_atom_site_type_symbol
_atom_site_label
_atom_site_fract_x
_atom_site_fract_y
_atom_site_fract_z
Si Si1 0.075721 0.417760 0.329035
Si Si2 0.573024 0.750000 0.459257
Si Si3 0.922461 0.114551 0.626253
Si Si4 0.417235 0.152546 0.742821
Si Si5 0.575470 0.356054 0.981472
Si Si6 0.426921 0.250000 0.406288
Si Si7 0.575114 0.537263 0.913798
Si Si8 0.923884 0.036466 0.208198
O O1 0.250000 0.409114 0.313819
O O2 0.042186 0.507344 0.368302
O O3 0.014014 0.337337 0.370366
O O4 0.988404 0.414068 0.266615
O O5 0.750000 0.750000 0.457080
O O6 0.514425 0.842096 0.427917
O O7 0.510456 0.750000 0.526657
O O8 0.750000 0.135070 0.614811
O O9 0.969629 0.160249 0.688159
O O10 0.250000 0.135415 0.717502
O O11 0.425963 0.250000 0.777383
O O12 0.459273 0.071983 0.787780
O O13 0.750000 0.361242 0.996170
O O14 0.531504 0.250000 0.964543
O O15 0.535759 0.430600 0.929657
O O16 0.486467 0.389444 0.039178
O O17 0.250000 0.250000 0.408693
O O18 0.750000 0.550721 0.909687
O O19 0.504653 0.568718 0.851368
O O20 0.750000 0.058947 0.203309
#
# Coordination Sequence:
#
# PCOD8241009 Si02
#       8
#     8   4   8   8   8   4   8   8
#     4   9  19  38  59  77 103 139 181 228 274 319
#     4  11  21  33  53  79 107 141 178 213 264 335
#     4  10  19  31  51  79 106 133 170 219 271 321
#     4   9  17  30  49  73 103 140 177 215 265 323
#     4   9  19  37  59  82 112 147 182 226 273 313
#     4   9  20  39  59  77 101 139 182 225 272 321
#     4  10  20  35  56  83 113 146 185 224 267 320
#     4  10  20  34  53  79 110 144 182 222 268 320
#
# _framework density 19.061807000000002
#
# number of rings (size 3 to 8) (size 9 to 14) (size 15 to 20)
#    0.000    2.429    0.714    1.500    0.000    3.143 
#    1.286    1.786    0.000    0.000    0.000    0.000 
#    0.000    0.000    0.000    0.000    0.000    0.000 
#
# Total GULP energy -694120.479081 kJ/mol
# GULP energy per Si atom -12395.008555 kJ/mol
# Density = 1.901842 g / cm^3
# Si number density = 19.061807 Si / 1000 Ang^3
#
#
#
# Elastic Constant Matrix: (Units=GPa)
#
#
# Indices 1 2 3 4 5 6 
#
# 1 68.7892 25.8823 48.9662 0.0000 0.0000 0.0000
# 2 25.8823 85.4648 31.0477 0.0000 0.0000 0.0000
# 3 48.9662 31.0477 118.5697 0.0000 0.0000 0.0000
# 4 0.0000 0.0000 0.0000 -172.8230 0.0000 0.0000
# 5 0.0000 0.0000 0.0000 0.0000 26.1064 0.0000
# 6 0.0000 0.0000 0.0000 0.0000 0.0000 15.1844
#
#
#
# Elastic Compliance Matrix: (Units=1/GPa)
#
#
# Indices 1 2 3 4 5 6 
#
# 1 0.021569 -0.003643 -0.007954 0.000000 0.000000 0.000000
# 2 -0.003643 0.013546 -0.002043 0.000000 0.000000 0.000000
# 3 -0.007954 -0.002043 0.012253 0.000000 0.000000 0.000000
# 4 0.000000 0.000000 0.000000 -0.005786 0.000000 0.000000
# 5 0.000000 0.000000 0.000000 0.000000 0.038305 0.000000
# 6 0.000000 0.000000 0.000000 0.000000 0.000000 0.065857
#
#
# Mechanical properties :
#
#
# Convention : Reuss Voigt Hill
#
# Bulk Modulus (GPa) = 49.77466 53.84623 51.81045
# Shear Modulus (GPa) = 27.82113 -15.17793 6.32160
#
# Velocity S-wave (km/s) = 3.82451 -2.82485 1.82307
# Velocity P-wave (km/s) = 6.75807 4.20355 5.62767
#
# Compressibility (1/GPa) = 0.02009054
#
# Stress axis : x y z
#
# Youngs Moduli (GPa) = 46.36179 73.82274 81.60967
#
# Poissons Ratio (x) = 0.26891 0.64911
# Poissons Ratio (y) = 0.16888 0.16670
# Poissons Ratio (z) = 0.36875 0.15080
#
# Static dielectric constant tensor:
#      x y z
#    x 3.442720 0.000000 0.000000 
#    y 0.000000 3.878900 0.000000 
#    z 0.000000 0.000000 3.327000 
# 
# 
# High freq. dielectric constant tensor:
#      x y z
#    x 1.739040 0.000000 0.000000 
#    y 0.000000 1.743130 0.000000 
#    z 0.000000 0.000000 1.726210 
# 
# From -- ./inp_files/29243.got.cif
#   From: 2010.03.12/outbox.cif.g09.slc.cpg/sg59_15_cif.got.tgz:29243.got - 2010.04.16 16:29:54.
