data_PCOD8241934
_publ_section_title
;
Structure prediction by ZEFSAII (Michael W. Deem and Ramdas Pophale) SiO2 
 PCOD8241934
Probable space group: P M M N
;
_chemical_formula_sum "Si O2"
_cell_formula_units_Z 40
_cell_length_a 25.875949
_cell_length_b 8.980364
_cell_length_c 9.135204
_cell_angle_alpha 90.000000
_cell_angle_beta 90.000000
_cell_angle_gamma 90.000000
_cell_volume 2122.797057
_symmetry_space_group_name_H-M "P M M N"
_symmetry_group_IT_number 59
_space_group.IT_coordinate_system_code '2'
_symmetry_cell_setting 'orthorhombic'
loop_
_space_group_symop_operation_xyz
x,y,z
1/2-x,1/2-y,z
1/2+x,-y,-z
-x,1/2+y,-z
-x,-y,-z
1/2+x,1/2+y,-z
1/2-x,y,z
x,1/2-y,z
loop_
_atom_site_type_symbol
_atom_site_label
_atom_site_fract_x
_atom_site_fract_y
_atom_site_fract_z
Si Si1 0.051927 0.082112 0.170867
Si Si2 0.250000 0.923334 0.636193
Si Si3 0.344206 0.925017 0.164853
Si Si4 0.750000 0.926333 0.671444
Si Si5 0.650906 0.422132 0.172668
Si Si6 0.048694 0.417042 0.822471
O O1 0.057857 0.250000 0.230494
O O2 0.100596 0.983952 0.221892
O O3 0.048244 0.081238 0.996852
O O4 0.999933 0.010630 0.238236
O O5 0.250000 0.750000 0.590214
O O6 0.299867 0.963775 0.731435
O O7 0.250000 0.028493 0.497143
O O8 0.340409 0.750000 0.195584
O O9 0.300503 0.008632 0.253472
O O10 0.336282 0.963836 0.994544
O O11 0.750000 0.750000 0.686894
O O12 0.636001 0.250000 0.183462
O O13 0.602084 0.512671 0.234840
O O14 0.044322 0.250000 0.761392
#
# Coordination Sequence:
#
# PCOD8241934 Si02
#       6
#     8   4   8   4   8   8
#     4   9  16  27  45  73 107 138 169 208 252 299
#     4  10  21  38  56  74 100 136 175 214 260 310
#     4  10  19  34  56  80 105 135 172 214 259 306
#     4  12  25  38  52  74 104 138 175 214 258 308
#     4   9  18  33  55  80 104 133 172 216 259 305
#     4   9  16  26  44  73 107 139 169 205 252 303
#
# _framework density 18.843063999999998
#
# number of rings (size 3 to 8) (size 9 to 14) (size 15 to 20)
#    0.000    2.400    0.000    3.300    0.000    8.000 
#    0.000    1.000    0.000    1.200    0.000    0.000 
#    0.000    0.000    0.000    0.000    0.000    0.000 
#
# Total GULP energy -496053.230827 kJ/mol
# GULP energy per Si atom -12401.330771 kJ/mol
# Density = 1.880018 g / cm^3
# Si number density = 18.843064 Si / 1000 Ang^3
#
#
#
# Elastic Constant Matrix: (Units=GPa)
#
#
# Indices 1 2 3 4 5 6 
#
# 1 180.3855 88.2322 51.3161 0.0000 0.0000 0.0000
# 2 88.2322 139.2069 43.0937 0.0000 0.0000 0.0000
# 3 51.3161 43.0937 51.5059 0.0000 0.0000 0.0000
# 4 0.0000 0.0000 0.0000 19.2113 0.0000 0.0000
# 5 0.0000 0.0000 0.0000 0.0000 -7.8129 0.0000
# 6 0.0000 0.0000 0.0000 0.0000 0.0000 40.2777
#
#
#
# Elastic Compliance Matrix: (Units=1/GPa)
#
#
# Indices 1 2 3 4 5 6 
#
# 1 0.009144 -0.004015 -0.005750 0.000000 0.000000 0.000000
# 2 -0.004015 0.011458 -0.005586 0.000000 0.000000 0.000000
# 3 -0.005750 -0.005586 0.029818 0.000000 0.000000 0.000000
# 4 0.000000 0.000000 0.000000 0.052053 0.000000 0.000000
# 5 0.000000 0.000000 0.000000 0.000000 -0.127993 0.000000
# 6 0.000000 0.000000 0.000000 0.000000 0.000000 0.024828
#
#
# Mechanical properties :
#
#
# Convention : Reuss Voigt Hill
#
# Bulk Modulus (GPa) = 50.71972 81.82024 66.26998
# Shear Modulus (GPa) = 136.67854 22.89896 79.78875
#
# Velocity S-wave (km/s) = 8.52600 3.48982 6.51427
# Velocity P-wave (km/s) = 11.13099 7.73011 9.58263
#
# Compressibility (1/GPa) = 0.01971620
#
# Stress axis : x y z
#
# Youngs Moduli (GPa) = 109.36691 87.27755 33.53667
#
# Poissons Ratio (x) = 0.35044 0.19285
# Poissons Ratio (y) = 0.43913 0.18733
# Poissons Ratio (z) = 0.62890 0.48753
#
# Static dielectric constant tensor:
#      x y z
#    x 3.709370 0.000000 0.000000 
#    y 0.000000 3.588860 0.000000 
#    z 0.000000 0.000000 3.025510 
# 
# 
# High freq. dielectric constant tensor:
#      x y z
#    x 1.752590 0.000000 0.000000 
#    y 0.000000 1.741980 0.000000 
#    z 0.000000 0.000000 1.678090 
# 
# From -- ./inp_files/5709.got.cif
#   From: 2010.03.12/outbox.cif.g09.slc.cpg/sg59_3_cif.got.tgz:5709.got - 2010.04.16 16:29:54.
