data_PCOD8241801
_publ_section_title
;
Structure prediction by ZEFSAII (Michael W. Deem and Ramdas Pophale) SiO2 
 PCOD8241801
Probable space group: P M M N
;
_chemical_formula_sum "Si O2"
_cell_formula_units_Z 64
_cell_length_a 23.750602
_cell_length_b 16.936791
_cell_length_c 8.497437
_cell_angle_alpha 90.000000
_cell_angle_beta 90.000000
_cell_angle_gamma 90.000000
_cell_volume 3418.170359
_symmetry_space_group_name_H-M "P M M N"
_symmetry_group_IT_number 59
_space_group.IT_coordinate_system_code '2'
_symmetry_cell_setting 'orthorhombic'
loop_
_space_group_symop_operation_xyz
x,y,z
1/2-x,1/2-y,z
1/2+x,-y,-z
-x,1/2+y,-z
-x,-y,-z
1/2+x,1/2+y,-z
1/2-x,y,z
x,1/2-y,z
loop_
_atom_site_type_symbol
_atom_site_label
_atom_site_fract_x
_atom_site_fract_y
_atom_site_fract_z
Si Si1 0.381724 0.339414 0.192343
Si Si2 0.184188 0.977587 0.675245
Si Si3 0.997141 0.419630 0.689939
Si Si4 0.113516 0.659117 0.795864
Si Si5 0.995843 0.895028 0.660780
Si Si6 0.603314 0.931058 0.106117
Si Si7 0.815725 0.517401 0.681258
Si Si8 0.103664 0.922843 0.102856
O O1 0.361530 0.250000 0.216393
O O2 0.443738 0.349034 0.264753
O O3 0.337258 0.395344 0.279082
O O4 0.381216 0.357871 0.005631
O O5 0.250000 0.974423 0.708795
O O6 0.158386 0.890553 0.695816
O O7 0.157801 0.039756 0.797726
O O8 0.169321 0.003953 0.499934
O O9 0.997433 0.374227 0.523633
O O10 0.946386 0.385087 0.794353
O O11 0.984704 0.512171 0.672460
O O12 0.056228 0.402843 0.772633
O O13 0.122643 0.750000 0.753994
O O14 0.050890 0.630795 0.754641
O O15 0.124336 0.644309 0.981669
O O16 0.580313 0.002202 0.996565
O O17 0.750000 0.511574 0.715778
O O18 0.845057 0.450313 0.786748
#
# Coordination Sequence:
#
# PCOD8241801 Si02
#       8
#     8   8   8   8   8   8   8   8
#     4  11  23  37  55  83 118 149 179 224 283 333
#     4  10  21  39  62  84 105 141 192 235 271 322
#     4  11  18  32  58  85 108 143 193 228 268 317
#     4  11  23  37  55  83 118 149 179 224 283 333
#     4  11  20  33  57  84 115 145 185 228 271 327
#     4  10  19  33  57  83 109 144 182 226 267 328
#     4  10  21  39  62  84 105 141 192 235 271 322
#     4  10  19  33  57  83 109 144 182 226 267 328
#
# _framework density 18.723468
#
# number of rings (size 3 to 8) (size 9 to 14) (size 15 to 20)
#    0.000    1.500    5.000    3.000    0.000    5.000 
#    0.000    6.250    0.000    1.500    0.000    0.000 
#    0.000    0.000    0.000    0.000    0.000    0.000 
#
# Total GULP energy -793767.773749 kJ/mol
# GULP energy per Si atom -12402.621465 kJ/mol
# Density = 1.868085 g / cm^3
# Si number density = 18.723468 Si / 1000 Ang^3
#
#
#
# Elastic Constant Matrix: (Units=GPa)
#
#
# Indices 1 2 3 4 5 6 
#
# 1 92.0711 22.0336 49.2746 0.0000 0.0000 0.0000
# 2 22.0336 66.4181 23.4704 0.0000 0.0000 0.0000
# 3 49.2746 23.4704 106.5480 0.0000 0.0000 0.0000
# 4 0.0000 0.0000 0.0000 16.9565 0.0000 0.0000
# 5 0.0000 0.0000 0.0000 0.0000 25.2254 0.0000
# 6 0.0000 0.0000 0.0000 0.0000 0.0000 8.0024
#
#
#
# Elastic Compliance Matrix: (Units=1/GPa)
#
#
# Indices 1 2 3 4 5 6 
#
# 1 0.014871 -0.002714 -0.006280 0.000000 0.000000 0.000000
# 2 -0.002714 0.016822 -0.002450 0.000000 0.000000 0.000000
# 3 -0.006280 -0.002450 0.012829 0.000000 0.000000 0.000000
# 4 0.000000 0.000000 0.000000 0.058975 0.000000 0.000000
# 5 0.000000 0.000000 0.000000 0.000000 0.039643 0.000000
# 6 0.000000 0.000000 0.000000 0.000000 0.000000 0.124963
#
#
# Mechanical properties :
#
#
# Convention : Reuss Voigt Hill
#
# Bulk Modulus (GPa) = 46.22236 50.51050 48.36643
# Shear Modulus (GPa) = 16.76706 21.38742 19.07724
#
# Velocity S-wave (km/s) = 2.99575 3.38343 3.19548
# Velocity P-wave (km/s) = 6.05859 6.50378 6.28513
#
# Compressibility (1/GPa) = 0.02163455
#
# Stress axis : x y z
#
# Youngs Moduli (GPa) = 67.24284 59.44422 77.94669
#
# Poissons Ratio (x) = 0.16136 0.48947
# Poissons Ratio (y) = 0.18253 0.19099
# Poissons Ratio (z) = 0.42226 0.14566
#
# Static dielectric constant tensor:
#      x y z
#    x 3.329900 0.000000 0.000000 
#    y 0.000000 3.192300 0.000000 
#    z 0.000000 0.000000 3.841940 
# 
# 
# High freq. dielectric constant tensor:
#      x y z
#    x 1.724480 0.000000 0.000000 
#    y 0.000000 1.692180 0.000000 
#    z 0.000000 0.000000 1.748340 
# 
# From -- ./inp_files/12281.got.cif
#   From: 2010.03.12/outbox.cif.g09.slc.cpg/sg59_7_cif.got.tgz:12281.got - 2010.04.16 16:29:54.
