data_PCOD8241388
_publ_section_title
;
Structure prediction by ZEFSAII (Michael W. Deem and Ramdas Pophale) SiO2 
 PCOD8241388
Probable space group: P M M N
;
_chemical_formula_sum "Si O2"
_cell_formula_units_Z 64
_cell_length_a 31.653637
_cell_length_b 8.500408
_cell_length_c 12.460954
_cell_angle_alpha 90.000000
_cell_angle_beta 90.000000
_cell_angle_gamma 90.000000
_cell_volume 3352.854303
_symmetry_space_group_name_H-M "P M M N"
_symmetry_group_IT_number 59
_space_group.IT_coordinate_system_code '2'
_symmetry_cell_setting 'orthorhombic'
loop_
_space_group_symop_operation_xyz
x,y,z
1/2-x,1/2-y,z
1/2+x,-y,-z
-x,1/2+y,-z
-x,-y,-z
1/2+x,1/2+y,-z
1/2-x,y,z
x,1/2-y,z
loop_
_atom_site_type_symbol
_atom_site_label
_atom_site_fract_x
_atom_site_fract_y
_atom_site_fract_z
Si Si1 0.515251 0.430004 0.184643
Si Si2 0.888868 0.432784 0.184453
Si Si3 0.860962 0.932502 0.977007
Si Si4 0.296525 0.065045 0.195418
Si Si5 0.390485 0.932319 0.574448
Si Si6 0.927728 0.432005 0.822443
Si Si7 0.476807 0.070057 0.597649
Si Si8 0.868615 0.563731 0.645336
O O1 0.512158 0.250000 0.149168
O O2 0.562849 0.496736 0.164020
O O3 0.474930 0.520874 0.135074
O O4 0.508627 0.451518 0.310604
O O5 0.888082 0.250000 0.155984
O O6 0.858301 0.525973 0.103134
O O7 0.870846 0.459017 0.305865
O O8 0.871218 0.750000 0.958413
O O9 0.816500 0.976651 0.920886
O O10 0.898229 0.032384 0.923493
O O11 0.250000 0.985986 0.204672
O O12 0.291905 0.250000 0.207810
O O13 0.327775 0.003425 0.288348
O O14 0.404898 0.750000 0.565785
O O15 0.427929 0.056979 0.569707
O O16 0.362805 0.977814 0.470376
O O17 0.927465 0.250000 0.794538
O O18 0.910795 0.518609 0.713832
O O19 0.488994 0.250000 0.624579
O O20 0.500000 0.000000 0.500000
O O21 0.868594 0.750000 0.628663
#
# Coordination Sequence:
#
# PCOD8241388 Si02
#       8
#     8   8   8   8   8   8   8   8
#     4  10  20  34  48  66  95 132 177 222 261 301
#     4   9  20  36  52  70  98 138 178 216 256 299
#     4  10  20  34  55  79 102 131 169 214 258 304
#     4   8  16  33  57  84 109 130 156 198 253 307
#     4  10  20  34  50  70  99 136 173 208 250 299
#     4  11  21  33  50  72 102 138 174 216 265 311
#     4  11  20  30  44  64  92 128 172 217 258 299
#     4  10  19  32  53  80 106 133 167 209 256 306
#
# _framework density 19.088215000000002
#
# number of rings (size 3 to 8) (size 9 to 14) (size 15 to 20)
#    0.000    2.125    0.000    6.000    0.000    3.500 
#    0.000    0.000    0.000   14.250    0.000    5.250 
#    0.000    0.000    0.000    0.000    0.000    0.000 
#
# Total GULP energy -792872.737184 kJ/mol
# GULP energy per Si atom -12388.636519 kJ/mol
# Density = 1.904477 g / cm^3
# Si number density = 19.088215 Si / 1000 Ang^3
#
#
#
# Elastic Constant Matrix: (Units=GPa)
#
#
# Indices 1 2 3 4 5 6 
#
# 1 70.0958 19.2566 26.2134 0.0000 0.0000 0.0000
# 2 19.2566 64.7267 24.5650 0.0000 0.0000 0.0000
# 3 26.2134 24.5650 102.3756 0.0000 0.0000 0.0000
# 4 0.0000 0.0000 0.0000 30.9476 0.0000 0.0000
# 5 0.0000 0.0000 0.0000 0.0000 18.8422 0.0000
# 6 0.0000 0.0000 0.0000 0.0000 0.0000 13.2350
#
#
#
# Elastic Compliance Matrix: (Units=1/GPa)
#
#
# Indices 1 2 3 4 5 6 
#
# 1 0.016522 -0.003641 -0.003357 0.000000 0.000000 0.000000
# 2 -0.003641 0.017800 -0.003339 0.000000 0.000000 0.000000
# 3 -0.003357 -0.003339 0.011429 0.000000 0.000000 0.000000
# 4 0.000000 0.000000 0.000000 0.032313 0.000000 0.000000
# 5 0.000000 0.000000 0.000000 0.000000 0.053072 0.000000
# 6 0.000000 0.000000 0.000000 0.000000 0.000000 0.075557
#
#
# Mechanical properties :
#
#
# Convention : Reuss Voigt Hill
#
# Bulk Modulus (GPa) = 39.87755 41.91869 40.89812
# Shear Modulus (GPa) = 21.21115 23.74918 22.48017
#
# Velocity S-wave (km/s) = 3.33711 3.53112 3.43548
# Velocity P-wave (km/s) = 5.98205 6.21557 6.09993
#
# Compressibility (1/GPa) = 0.02507677
#
# Stress axis : x y z
#
# Youngs Moduli (GPa) = 60.52601 56.17971 87.50012
#
# Poissons Ratio (x) = 0.20457 0.29371
# Poissons Ratio (y) = 0.22040 0.29214
# Poissons Ratio (z) = 0.20317 0.18757
#
# Static dielectric constant tensor:
#      x y z
#    x 3.534140 0.000000 0.000000 
#    y 0.000000 3.527110 0.000000 
#    z 0.000000 0.000000 3.577480 
# 
# 
# High freq. dielectric constant tensor:
#      x y z
#    x 1.701830 0.000000 0.000000 
#    y 0.000000 1.737320 0.000000 
#    z 0.000000 0.000000 1.747590 
# 
# From -- ./inp_files/19360.got.cif
#   From: 2010.03.12/outbox.cif.g09.slc.cpg/sg59_10_cif.got.tgz:19360.got - 2010.04.16 16:29:54.
