data_PCOD8241640
_publ_section_title
;
Structure prediction by ZEFSAII (Michael W. Deem and Ramdas Pophale) SiO2 
 PCOD8241640
Probable space group: P M M N
;
_chemical_formula_sum "Si O2"
_cell_formula_units_Z 64
_cell_length_a 18.182178
_cell_length_b 8.991401
_cell_length_c 21.582824
_cell_angle_alpha 90.000000
_cell_angle_beta 90.000000
_cell_angle_gamma 90.000000
_cell_volume 3528.430286
_symmetry_space_group_name_H-M "P M M N"
_symmetry_group_IT_number 59
_space_group.IT_coordinate_system_code '2'
_symmetry_cell_setting 'orthorhombic'
loop_
_space_group_symop_operation_xyz
x,y,z
1/2-x,1/2-y,z
1/2+x,-y,-z
-x,1/2+y,-z
-x,-y,-z
1/2+x,1/2+y,-z
1/2-x,y,z
x,1/2-y,z
loop_
_atom_site_type_symbol
_atom_site_label
_atom_site_fract_x
_atom_site_fract_y
_atom_site_fract_z
Si Si1 0.166273 0.078199 0.272114
Si Si2 0.921163 0.921579 0.383373
Si Si3 0.521837 0.572953 0.063968
Si Si4 0.169889 0.424108 0.874122
Si Si5 0.911287 0.426074 0.613836
Si Si6 0.333105 0.573757 0.509774
Si Si7 0.915597 0.920759 0.244259
Si Si8 0.542836 0.577553 0.821093
O O1 0.250000 0.028485 0.260735
O O2 0.160322 0.250000 0.290956
O O3 0.123150 0.048544 0.207906
O O4 0.132901 0.985207 0.327860
O O5 0.917597 0.750000 0.403616
O O6 0.888786 0.945199 0.314363
O O7 0.004667 0.981120 0.385135
O O8 0.871921 0.016690 0.428805
O O9 0.517846 0.750000 0.059145
O O10 0.604294 0.516205 0.081865
O O11 0.465084 0.518604 0.116466
O O12 0.500000 0.500000 0.000000
O O13 0.250000 0.497021 0.889598
O O14 0.175980 0.250000 0.884664
O O15 0.150950 0.459244 0.802367
O O16 0.907609 0.250000 0.617361
O O17 0.874631 0.487384 0.550912
O O18 0.250000 0.513291 0.508147
O O19 0.334916 0.750000 0.510985
O O20 0.941772 0.750000 0.234188
O O21 0.984158 0.027115 0.230417
O O22 0.530488 0.750000 0.837355
#
# Coordination Sequence:
#
# PCOD8241640 Si02
#       8
#     8   8   8   8   8   8   8   8
#     4  10  21  35  53  80 109 138 176 222 270 319
#     4  10  20  33  53  79 103 133 176 222 268 323
#     4  10  20  35  57  81 108 143 182 220 256 305
#     4   8  15  29  51  78 105 134 168 208 255 304
#     4  10  20  36  56  76 101 135 178 223 272 329
#     4  10  22  37  50  69 101 140 179 221 273 329
#     4   9  17  31  52  78 105 132 169 215 259 312
#     4  10  19  33  54  78 107 140 172 210 257 311
#
# _framework density 18.138376999999998
#
# number of rings (size 3 to 8) (size 9 to 14) (size 15 to 20)
#    0.000    2.375    1.250    2.250    0.000    3.500 
#    0.000    1.875    0.000   13.125    0.000    0.000 
#    0.000    0.000    0.000    0.000    0.000    0.000 
#
# Total GULP energy -793512.844558 kJ/mol
# GULP energy per Si atom -12398.638196 kJ/mol
# Density = 1.809709 g / cm^3
# Si number density = 18.138377 Si / 1000 Ang^3
#
#
#
# Elastic Constant Matrix: (Units=GPa)
#
#
# Indices 1 2 3 4 5 6 
#
# 1 125.6934 27.6237 68.5981 0.0000 0.0000 0.0000
# 2 27.6237 41.3029 34.9673 0.0000 0.0000 0.0000
# 3 68.5981 34.9673 136.6328 0.0000 0.0000 0.0000
# 4 0.0000 0.0000 0.0000 32.2417 0.0000 0.0000
# 5 0.0000 0.0000 0.0000 0.0000 22.9549 0.0000
# 6 0.0000 0.0000 0.0000 0.0000 0.0000 21.3671
#
#
#
# Elastic Compliance Matrix: (Units=1/GPa)
#
#
# Indices 1 2 3 4 5 6 
#
# 1 0.011348 -0.003531 -0.004794 0.000000 0.000000 0.000000
# 2 -0.003531 0.032007 -0.006418 0.000000 0.000000 0.000000
# 3 -0.004794 -0.006418 0.011368 0.000000 0.000000 0.000000
# 4 0.000000 0.000000 0.000000 0.031016 0.000000 0.000000
# 5 0.000000 0.000000 0.000000 0.000000 0.043564 0.000000
# 6 0.000000 0.000000 0.000000 0.000000 0.000000 0.046801
#
#
# Mechanical properties :
#
#
# Convention : Reuss Voigt Hill
#
# Bulk Modulus (GPa) = 39.62508 62.88972 51.25740
# Shear Modulus (GPa) = 23.36419 26.80873 25.08646
#
# Velocity S-wave (km/s) = 3.59292 3.84866 3.72299
# Velocity P-wave (km/s) = 6.25344 7.38221 6.84115
#
# Compressibility (1/GPa) = 0.02523654
#
# Stress axis : x y z
#
# Youngs Moduli (GPa) = 88.11996 31.24323 87.96453
#
# Poissons Ratio (x) = 0.11033 0.42168
# Poissons Ratio (y) = 0.31118 0.56458
# Poissons Ratio (z) = 0.42242 0.20053
#
# Static dielectric constant tensor:
#      x y z
#    x 3.693440 0.000000 0.000000 
#    y 0.000000 3.195880 0.000000 
#    z 0.000000 0.000000 3.370470 
# 
# 
# High freq. dielectric constant tensor:
#      x y z
#    x 1.702680 0.000000 0.000000 
#    y 0.000000 1.686820 0.000000 
#    z 0.000000 0.000000 1.703820 
# 
# From -- ./inp_files/30776.got.cif
#   From: 2010.03.12/outbox.cif.g09.slc.cpg/sg59_16_cif.got.tgz:30776.got - 2010.04.16 16:29:54.
