data_PCOD8241704
_publ_section_title
;
Structure prediction by ZEFSAII (Michael W. Deem and Ramdas Pophale) SiO2 
 PCOD8241704
Probable space group: P M M N
;
_chemical_formula_sum "Si O2"
_cell_formula_units_Z 64
_cell_length_a 18.438567
_cell_length_b 9.646053
_cell_length_c 20.053020
_cell_angle_alpha 90.000000
_cell_angle_beta 90.000000
_cell_angle_gamma 90.000000
_cell_volume 3566.617996
_symmetry_space_group_name_H-M "P M M N"
_symmetry_group_IT_number 59
_space_group.IT_coordinate_system_code '2'
_symmetry_cell_setting 'orthorhombic'
loop_
_space_group_symop_operation_xyz
x,y,z
1/2-x,1/2-y,z
1/2+x,-y,-z
-x,1/2+y,-z
-x,-y,-z
1/2+x,1/2+y,-z
1/2-x,y,z
x,1/2-y,z
loop_
_atom_site_type_symbol
_atom_site_label
_atom_site_fract_x
_atom_site_fract_y
_atom_site_fract_z
Si Si1 0.102558 0.585355 0.291196
Si Si2 0.667672 0.095738 0.096915
Si Si3 0.166090 0.404823 0.406553
Si Si4 0.935044 0.911175 0.474007
Si Si5 0.433324 0.591304 0.027097
Si Si6 0.166557 0.914444 0.148582
Si Si7 0.833413 0.587715 0.215271
Si Si8 0.941744 0.913629 0.324673
O O1 0.109158 0.750000 0.299933
O O2 0.147468 0.514703 0.349917
O O3 0.135883 0.537534 0.220446
O O4 0.019842 0.532498 0.299089
O O5 0.750000 0.056686 0.080853
O O6 0.660655 0.250000 0.127150
O O7 0.635431 0.987703 0.149912
O O8 0.627532 0.083704 0.028057
O O9 0.250000 0.410226 0.420472
O O10 0.141282 0.250000 0.384148
O O11 0.132310 0.443050 0.478206
O O12 0.956917 0.750000 0.474048
O O13 0.920416 0.962962 0.398734
O O14 0.000000 0.000000 0.500000
O O15 0.460143 0.750000 0.038570
O O16 0.392162 0.532031 0.093373
O O17 0.500000 0.500000 0.000000
O O18 0.250000 0.970910 0.138737
O O19 0.169222 0.750000 0.143626
O O20 0.750000 0.548796 0.228554
O O21 0.844578 0.750000 0.204100
O O22 0.879104 0.528353 0.276927
O O23 0.942358 0.750000 0.320790
#
# Coordination Sequence:
#
# PCOD8241704 Si02
#       8
#     8   8   8   8   8   8   8   8
#     4  10  19  33  55  80 103 134 175 217 255 299
#     4   9  18  34  54  74 100 135 171 205 246 299
#     4  10  21  35  52  77 107 137 169 209 260 313
#     4  10  19  34  53  73 100 135 172 209 251 302
#     4  10  21  35  53  77 104 134 168 212 256 302
#     4   9  18  33  54  78 102 134 176 215 253 300
#     4   9  18  32  52  78 105 134 169 209 253 301
#     4   9  18  31  51  77 105 133 168 214 257 297
#
# _framework density 17.94417
#
# number of rings (size 3 to 8) (size 9 to 14) (size 15 to 20)
#    0.000    2.500    1.250    0.750    1.750    3.250 
#    0.000    4.375    0.000    1.875    0.000    1.750 
#    0.000    0.000    0.000    0.000    0.000    0.000 
#
# Total GULP energy -793255.392024 kJ/mol
# GULP energy per Si atom -12394.615500 kJ/mol
# Density = 1.790333 g / cm^3
# Si number density = 17.944170 Si / 1000 Ang^3
#
#
#
# Elastic Constant Matrix: (Units=GPa)
#
#
# Indices 1 2 3 4 5 6 
#
# 1 92.3681 31.4602 64.5239 0.0000 0.0000 0.0000
# 2 31.4602 40.5366 39.4655 0.0000 0.0000 0.0000
# 3 64.5239 39.4655 138.3902 0.0000 0.0000 0.0000
# 4 0.0000 0.0000 0.0000 24.4239 0.0000 0.0000
# 5 0.0000 0.0000 0.0000 0.0000 35.8375 0.0000
# 6 0.0000 0.0000 0.0000 0.0000 0.0000 23.1919
#
#
#
# Elastic Compliance Matrix: (Units=1/GPa)
#
#
# Indices 1 2 3 4 5 6 
#
# 1 0.017712 -0.007899 -0.006005 0.000000 0.000000 0.000000
# 2 -0.007899 0.037674 -0.007061 0.000000 0.000000 0.000000
# 3 -0.006005 -0.007061 0.012039 0.000000 0.000000 0.000000
# 4 0.000000 0.000000 0.000000 0.040944 0.000000 0.000000
# 5 0.000000 0.000000 0.000000 0.000000 0.027904 0.000000
# 6 0.000000 0.000000 0.000000 0.000000 0.000000 0.043118
#
#
# Mechanical properties :
#
#
# Convention : Reuss Voigt Hill
#
# Bulk Modulus (GPa) = 39.22430 60.24378 49.73404
# Shear Modulus (GPa) = 21.75621 25.74701 23.75161
#
# Velocity S-wave (km/s) = 3.48579 3.79204 3.64213
# Velocity P-wave (km/s) = 6.17313 7.26763 6.74263
#
# Compressibility (1/GPa) = 0.02549440
#
# Stress axis : x y z
#
# Youngs Moduli (GPa) = 56.45962 26.54368 83.06030
#
# Poissons Ratio (x) = 0.20968 0.49881
# Poissons Ratio (y) = 0.44599 0.58646
# Poissons Ratio (z) = 0.33906 0.18742
#
# Static dielectric constant tensor:
#      x y z
#    x 3.914780 0.000000 0.000000 
#    y 0.000000 3.196860 0.000000 
#    z 0.000000 0.000000 2.487700 
# 
# 
# High freq. dielectric constant tensor:
#      x y z
#    x 1.700870 0.000000 0.000000 
#    y 0.000000 1.662910 0.000000 
#    z 0.000000 0.000000 1.706720 
# 
# From -- ./inp_files/30756.got.cif
#   From: 2010.03.12/outbox.cif.g09.slc.cpg/sg59_16_cif.got.tgz:30756.got - 2010.04.16 16:29:54.
