data_PCOD8241763
_publ_section_title
;
Structure prediction by ZEFSAII (Michael W. Deem and Ramdas Pophale) SiO2 
 PCOD8241763
Probable space group: P M M N
;
_chemical_formula_sum "Si O2"
_cell_formula_units_Z 48
_cell_length_a 8.908790
_cell_length_b 15.139190
_cell_length_c 19.176656
_cell_angle_alpha 90.000000
_cell_angle_beta 90.000000
_cell_angle_gamma 90.000000
_cell_volume 2586.391349
_symmetry_space_group_name_H-M "P M M N"
_symmetry_group_IT_number 59
_space_group.IT_coordinate_system_code '2'
_symmetry_cell_setting 'orthorhombic'
loop_
_space_group_symop_operation_xyz
x,y,z
1/2-x,1/2-y,z
1/2+x,-y,-z
-x,1/2+y,-z
-x,-y,-z
1/2+x,1/2+y,-z
1/2-x,y,z
x,1/2-y,z
loop_
_atom_site_type_symbol
_atom_site_label
_atom_site_fract_x
_atom_site_fract_y
_atom_site_fract_z
Si Si1 0.072468 0.750000 0.727031
Si Si2 0.428452 0.750000 0.948542
Si Si3 0.571887 0.110526 0.160762
Si Si4 0.572998 0.750000 0.576380
Si Si5 0.572336 0.585546 0.183574
Si Si6 0.928080 0.590609 0.478902
Si Si7 0.428646 0.750000 0.106190
Si Si8 0.072962 0.347537 0.669159
O O1 0.250000 0.750000 0.717313
O O2 0.019528 0.837055 0.769823
O O3 0.998629 0.750000 0.652039
O O4 0.250000 0.750000 0.947729
O O5 0.486650 0.662414 0.907891
O O6 0.489773 0.750000 0.026894
O O7 0.750000 0.107755 0.161159
O O8 0.511084 0.010127 0.159011
O O9 0.750000 0.750000 0.585181
O O10 0.518837 0.835395 0.533549
O O11 0.750000 0.597037 0.172038
O O12 0.489273 0.661705 0.141514
O O13 0.529788 0.591891 0.265192
O O14 0.750000 0.582306 0.477905
O O15 0.992792 0.612966 0.402195
O O16 0.000000 0.500000 0.500000
O O17 0.250000 0.750000 0.109737
O O18 0.250000 0.340051 0.661119
O O19 0.005151 0.250000 0.681750
#
# Coordination Sequence:
#
# PCOD8241763 Si02
#       8
#     4   4   8   4   8   8   4   8
#     4   9  18  33  56  82 102 128 176 225 254 296
#     4   8  16  33  52  74 111 141 160 203 266 313
#     4   8  16  32  55  81 102 130 174 217 255 298
#     4  10  21  36  50  72 109 146 170 204 268 328
#     4  10  19  33  56  80 101 131 177 222 252 293
#     4  10  21  36  54  76 104 139 177 215 261 314
#     4  11  22  34  50  76 110 143 168 204 262 319
#     4   9  16  31  54  73  95 132 174 213 253 296
#
# _framework density 18.558676999999999
#
# number of rings (size 3 to 8) (size 9 to 14) (size 15 to 20)
#    0.000    2.667    1.667    1.250    2.333    1.333 
#    0.000    1.667    0.000    5.000    0.000    0.000 
#    0.000    0.000    0.000    0.000    0.000    0.000 
#
# Total GULP energy -594996.234260 kJ/mol
# GULP energy per Si atom -12395.754880 kJ/mol
# Density = 1.851644 g / cm^3
# Si number density = 18.558677 Si / 1000 Ang^3
#
#
#
# Elastic Constant Matrix: (Units=GPa)
#
#
# Indices 1 2 3 4 5 6 
#
# 1 22.5674 30.6163 31.1416 0.0000 0.0000 0.0000
# 2 30.6163 187.3542 88.7800 0.0000 0.0000 0.0000
# 3 31.1416 88.7800 172.7505 0.0000 0.0000 0.0000
# 4 0.0000 0.0000 0.0000 23.3940 0.0000 0.0000
# 5 0.0000 0.0000 0.0000 0.0000 23.8741 0.0000
# 6 0.0000 0.0000 0.0000 0.0000 0.0000 20.9875
#
#
#
# Elastic Compliance Matrix: (Units=1/GPa)
#
#
# Indices 1 2 3 4 5 6 
#
# 1 0.064737 -0.006674 -0.008240 0.000000 0.000000 0.000000
# 2 -0.006674 0.007744 -0.002777 0.000000 0.000000 0.000000
# 3 -0.008240 -0.002777 0.008701 0.000000 0.000000 0.000000
# 4 0.000000 0.000000 0.000000 0.042746 0.000000 0.000000
# 5 0.000000 0.000000 0.000000 0.000000 0.041886 0.000000
# 6 0.000000 0.000000 0.000000 0.000000 0.000000 0.047647
#
#
# Mechanical properties :
#
#
# Convention : Reuss Voigt Hill
#
# Bulk Modulus (GPa) = 21.83389 75.97197 48.90293
# Shear Modulus (GPa) = 18.93145 29.12674 24.02910
#
# Velocity S-wave (km/s) = 3.19734 3.96591 3.60219
# Velocity P-wave (km/s) = 5.04192 7.87377 6.61125
#
# Compressibility (1/GPa) = 0.04580036
#
# Stress axis : x y z
#
# Youngs Moduli (GPa) = 15.44703 129.13454 114.92865
#
# Poissons Ratio (x) = 0.86189 0.94702
# Poissons Ratio (y) = 0.10310 0.31911
# Poissons Ratio (z) = 0.12728 0.35855
#
# Static dielectric constant tensor:
#      x y z
#    x 2.919840 0.000000 0.000000 
#    y 0.000000 3.511840 0.000000 
#    z 0.000000 0.000000 3.915390 
# 
# 
# High freq. dielectric constant tensor:
#      x y z
#    x 1.668740 0.000000 0.000000 
#    y 0.000000 1.733100 0.000000 
#    z 0.000000 0.000000 1.732610 
# 
# From -- ./inp_files/25666.got.cif
#   From: 2010.03.12/outbox.cif.g09.slc.cpg/sg59_13_cif.got.tgz:25666.got - 2010.04.16 16:29:54.
