data_PCOD8241239
_publ_section_title
;
Structure prediction by ZEFSAII (Michael W. Deem and Ramdas Pophale) SiO2 
 PCOD8241239
Probable space group: P M M N
;
_chemical_formula_sum "Si O2"
_cell_formula_units_Z 56
_cell_length_a 18.126669
_cell_length_b 9.298716
_cell_length_c 18.141292
_cell_angle_alpha 90.000000
_cell_angle_beta 90.000000
_cell_angle_gamma 90.000000
_cell_volume 3057.800884
_symmetry_space_group_name_H-M "P M M N"
_symmetry_group_IT_number 59
_space_group.IT_coordinate_system_code '2'
_symmetry_cell_setting 'orthorhombic'
loop_
_space_group_symop_operation_xyz
x,y,z
1/2-x,1/2-y,z
1/2+x,-y,-z
-x,1/2+y,-z
-x,-y,-z
1/2+x,1/2+y,-z
1/2-x,y,z
x,1/2-y,z
loop_
_atom_site_type_symbol
_atom_site_label
_atom_site_fract_x
_atom_site_fract_y
_atom_site_fract_z
Si Si1 0.332769 0.420964 0.785290
Si Si2 0.585180 0.082706 0.925975
Si Si3 0.163619 0.916743 0.507727
Si Si4 0.413941 0.082538 0.929824
Si Si5 0.086819 0.078962 0.638845
Si Si6 0.580787 0.079355 0.638170
Si Si7 0.666466 0.078588 0.780084
O O1 0.250000 0.481848 0.778301
O O2 0.332946 0.250000 0.786587
O O3 0.368594 0.479165 0.860577
O O4 0.380344 0.475549 0.716273
O O5 0.600915 0.250000 0.938616
O O6 0.499248 0.051735 0.912935
O O7 0.628796 0.023053 0.855148
O O8 0.614088 0.999530 0.997739
O O9 0.250000 0.941926 0.497154
O O10 0.145258 0.750000 0.522307
O O11 0.123662 0.973628 0.434154
O O12 0.135122 0.009853 0.575117
O O13 0.398866 0.250000 0.942570
O O14 0.091675 0.250000 0.630901
O O15 0.002959 0.022874 0.634313
O O16 0.581675 0.250000 0.643176
O O17 0.621250 0.015866 0.710461
O O18 0.750000 0.020700 0.776317
O O19 0.664894 0.250000 0.778172
#
# Coordination Sequence:
#
# PCOD8241239 Si02
#       7
#     8   8   8   8   8   8   8
#     4   9  17  29  46  68  91 117 153 192 226 266
#     4   9  17  29  46  69  93 116 149 192 232 271
#     4  10  20  33  49  71 100 129 156 190 234 283
#     4   9  17  30  47  65  89 122 154 185 227 278
#     4  10  19  32  52  74  95 122 159 200 236 273
#     4   9  17  30  49  72  96 124 159 195 232 278
#     4   9  16  27  46  71  96 122 155 196 238 278
#
# _framework density 18.313815999999999
#
# number of rings (size 3 to 8) (size 9 to 14) (size 15 to 20)
#    0.000    2.714    0.000    2.143    0.000    6.571 
#    0.000    0.714    0.000    4.286    0.000    0.000 
#    0.000    0.000    0.000    0.000    0.000    0.000 
#
# Total GULP energy -694439.099925 kJ/mol
# GULP energy per Si atom -12400.698213 kJ/mol
# Density = 1.827213 g / cm^3
# Si number density = 18.313816 Si / 1000 Ang^3
#
#
#
# Elastic Constant Matrix: (Units=GPa)
#
#
# Indices 1 2 3 4 5 6 
#
# 1 116.5959 24.0115 73.2733 0.0000 0.0000 0.0000
# 2 24.0115 21.9752 33.7733 0.0000 0.0000 0.0000
# 3 73.2733 33.7733 172.1211 0.0000 0.0000 0.0000
# 4 0.0000 0.0000 0.0000 25.5425 0.0000 0.0000
# 5 0.0000 0.0000 0.0000 0.0000 35.2653 0.0000
# 6 0.0000 0.0000 0.0000 0.0000 0.0000 16.4157
#
#
#
# Elastic Compliance Matrix: (Units=1/GPa)
#
#
# Indices 1 2 3 4 5 6 
#
# 1 0.012601 -0.007910 -0.003812 0.000000 0.000000 0.000000
# 2 -0.007910 0.070119 -0.010391 0.000000 0.000000 0.000000
# 3 -0.003812 -0.010391 0.009472 0.000000 0.000000 0.000000
# 4 0.000000 0.000000 0.000000 0.039150 0.000000 0.000000
# 5 0.000000 0.000000 0.000000 0.000000 0.028356 0.000000
# 6 0.000000 0.000000 0.000000 0.000000 0.000000 0.060917
#
#
# Mechanical properties :
#
#
# Convention : Reuss Voigt Hill
#
# Bulk Modulus (GPa) = 20.84856 63.64539 42.24698
# Shear Modulus (GPa) = 17.80423 27.42032 22.61227
#
# Velocity S-wave (km/s) = 3.12135 3.87363 3.51766
# Velocity P-wave (km/s) = 4.93956 7.40505 6.29420
#
# Compressibility (1/GPa) = 0.04796494
#
# Stress axis : x y z
#
# Youngs Moduli (GPa) = 79.35577 14.26148 105.57611
#
# Poissons Ratio (x) = 0.11281 0.40251
# Poissons Ratio (y) = 0.62769 1.09708
# Poissons Ratio (z) = 0.30254 0.14820
#
# Static dielectric constant tensor:
#      x y z
#    x 3.557510 0.000000 0.000000 
#    y 0.000000 2.894830 0.000000 
#    z 0.000000 0.000000 3.623340 
# 
# 
# High freq. dielectric constant tensor:
#      x y z
#    x 1.721490 0.000000 0.000000 
#    y 0.000000 1.652070 0.000000 
#    z 0.000000 0.000000 1.728060 
# 
# From -- ./inp_files/23250.got.cif
#   From: 2010.03.12/outbox.cif.g09.slc.cpg/sg59_12_cif.got.tgz:23250.got - 2010.04.16 16:29:54.
