data_PCOD8241598
_publ_section_title
;
Structure prediction by ZEFSAII (Michael W. Deem and Ramdas Pophale) SiO2 
 PCOD8241598
Probable space group: P M M N
;
_chemical_formula_sum "Si O2"
_cell_formula_units_Z 64
_cell_length_a 17.645204
_cell_length_b 8.976175
_cell_length_c 22.788154
_cell_angle_alpha 90.000000
_cell_angle_beta 90.000000
_cell_angle_gamma 90.000000
_cell_volume 3609.334564
_symmetry_space_group_name_H-M "P M M N"
_symmetry_group_IT_number 59
_space_group.IT_coordinate_system_code '2'
_symmetry_cell_setting 'orthorhombic'
loop_
_space_group_symop_operation_xyz
x,y,z
1/2-x,1/2-y,z
1/2+x,-y,-z
-x,1/2+y,-z
-x,-y,-z
1/2+x,1/2+y,-z
1/2-x,y,z
x,1/2-y,z
loop_
_atom_site_type_symbol
_atom_site_label
_atom_site_fract_x
_atom_site_fract_y
_atom_site_fract_z
Si Si1 0.664939 0.076948 0.304700
Si Si2 0.162296 0.079899 0.456394
Si Si3 0.477545 0.425885 0.740608
Si Si4 0.431866 0.077040 0.967088
Si Si5 0.531427 0.077054 0.863123
Si Si6 0.835883 0.074458 0.946178
Si Si7 0.457146 0.926394 0.383292
Si Si8 0.600699 0.424603 0.430634
O O1 0.750000 0.024200 0.289759
O O2 0.653986 0.250000 0.291713
O O3 0.649766 0.042383 0.372878
O O4 0.607325 0.989226 0.263071
O O5 0.250000 0.072881 0.440910
O O6 0.134917 0.250000 0.464663
O O7 0.121078 0.003461 0.401199
O O8 0.147313 0.987132 0.515050
O O9 0.469584 0.250000 0.745425
O O10 0.519750 0.492565 0.798262
O O11 0.525654 0.473435 0.683696
O O12 0.428265 0.250000 0.982971
O O13 0.451899 0.052575 0.898348
O O14 0.500000 0.000000 0.000000
O O15 0.354671 0.999748 0.990220
O O16 0.549000 0.250000 0.856124
O O17 0.605469 0.010029 0.896850
O O18 0.750000 0.033112 0.928045
O O19 0.846310 0.250000 0.953920
O O20 0.451882 0.750000 0.390817
O O21 0.521215 0.989157 0.426804
O O22 0.585017 0.250000 0.439482
#
# Coordination Sequence:
#
# PCOD8241598 Si02
#       8
#     8   8   8   8   8   8   8   8
#     4   9  18  32  49  71  98 125 154 193 243 293
#     4  11  23  36  50  70  97 127 159 198 244 292
#     4   9  18  33  52  72  94 125 166 204 235 276
#     4   9  16  28  48  71  96 125 155 191 235 282
#     4   8  15  30  50  71  95 125 163 201 237 280
#     4   9  17  30  49  73 101 131 162 200 245 287
#     4  10  20  34  52  73  97 125 159 199 241 287
#     4  10  19  33  54  75  96 123 156 195 242 297
#
# _framework density 17.7318
#
# number of rings (size 3 to 8) (size 9 to 14) (size 15 to 20)
#    0.000    2.625    0.000    3.000    0.000    3.000 
#    0.000    4.375    0.000    6.000    0.000    0.000 
#    0.000    0.000    0.000    0.000    0.000    0.000 
#
# Total GULP energy -793316.050147 kJ/mol
# GULP energy per Si atom -12395.563284 kJ/mol
# Density = 1.769144 g / cm^3
# Si number density = 17.731800 Si / 1000 Ang^3
#
#
#
# Elastic Constant Matrix: (Units=GPa)
#
#
# Indices 1 2 3 4 5 6 
#
# 1 114.6416 36.9354 61.0502 0.0000 0.0000 0.0000
# 2 36.9354 55.7853 33.0084 0.0000 0.0000 0.0000
# 3 61.0502 33.0084 100.7672 0.0000 0.0000 0.0000
# 4 0.0000 0.0000 0.0000 21.1941 0.0000 0.0000
# 5 0.0000 0.0000 0.0000 0.0000 21.4884 0.0000
# 6 0.0000 0.0000 0.0000 0.0000 0.0000 28.9844
#
#
#
# Elastic Compliance Matrix: (Units=1/GPa)
#
#
# Indices 1 2 3 4 5 6 
#
# 1 0.014030 -0.005284 -0.006769 0.000000 0.000000 0.000000
# 2 -0.005284 0.024226 -0.004734 0.000000 0.000000 0.000000
# 3 -0.006769 -0.004734 0.015576 0.000000 0.000000 0.000000
# 4 0.000000 0.000000 0.000000 0.047183 0.000000 0.000000
# 5 0.000000 0.000000 0.000000 0.000000 0.046537 0.000000
# 6 0.000000 0.000000 0.000000 0.000000 0.000000 0.034501
#
#
# Mechanical properties :
#
#
# Convention : Reuss Voigt Hill
#
# Bulk Modulus (GPa) = 49.36679 59.24247 54.30463
# Shear Modulus (GPa) = 22.48404 23.68005 23.08204
#
# Velocity S-wave (km/s) = 3.56477 3.65835 3.61187
# Velocity P-wave (km/s) = 6.69662 7.16433 6.93442
#
# Compressibility (1/GPa) = 0.02025653
#
# Stress axis : x y z
#
# Youngs Moduli (GPa) = 71.27543 41.27851 64.20157
#
# Poissons Ratio (x) = 0.21811 0.43460
# Poissons Ratio (y) = 0.37661 0.30396
# Poissons Ratio (z) = 0.48249 0.19543
#
# Static dielectric constant tensor:
#      x y z
#    x 3.395940 0.000000 0.000000 
#    y 0.000000 3.312620 0.000000 
#    z 0.000000 0.000000 3.529130 
# 
# 
# High freq. dielectric constant tensor:
#      x y z
#    x 1.678860 0.000000 0.000000 
#    y 0.000000 1.680860 0.000000 
#    z 0.000000 0.000000 1.674930 
# 
# From -- ./inp_files/32328.got.cif
#   From: 2010.03.12/outbox.cif.g09.slc.cpg/sg59_17_cif.got.tgz:32328.got - 2010.04.16 16:29:54.
