data_PCOD8241644
_publ_section_title
;
Structure prediction by ZEFSAII (Michael W. Deem and Ramdas Pophale) SiO2 
 PCOD8241644
Probable space group: P M M N
;
_chemical_formula_sum "Si O2"
_cell_formula_units_Z 64
_cell_length_a 18.059147
_cell_length_b 9.212654
_cell_length_c 21.351952
_cell_angle_alpha 90.000000
_cell_angle_beta 90.000000
_cell_angle_gamma 90.000000
_cell_volume 3552.381325
_symmetry_space_group_name_H-M "P M M N"
_symmetry_group_IT_number 59
_space_group.IT_coordinate_system_code '2'
_symmetry_cell_setting 'orthorhombic'
loop_
_space_group_symop_operation_xyz
x,y,z
1/2-x,1/2-y,z
1/2+x,-y,-z
-x,1/2+y,-z
-x,-y,-z
1/2+x,1/2+y,-z
1/2-x,y,z
x,1/2-y,z
loop_
_atom_site_type_symbol
_atom_site_label
_atom_site_fract_x
_atom_site_fract_y
_atom_site_fract_z
Si Si1 0.663745 0.420456 0.263914
Si Si2 0.666658 0.418318 0.865425
Si Si3 0.409360 0.417735 0.239427
Si Si4 0.974513 0.083657 0.939479
Si Si5 0.082436 0.922432 0.611527
Si Si6 0.451457 0.080284 0.810283
Si Si7 0.415107 0.416497 0.381602
Si Si8 0.664831 0.419972 0.510962
O O1 0.750000 0.457091 0.264917
O O2 0.649128 0.250000 0.254322
O O3 0.627987 0.478947 0.328466
O O4 0.627201 0.508056 0.206294
O O5 0.750000 0.443407 0.890471
O O6 0.652079 0.250000 0.848314
O O7 0.654874 0.511911 0.802801
O O8 0.607784 0.467974 0.918172
O O9 0.421040 0.250000 0.220735
O O10 0.486341 0.501355 0.230897
O O11 0.384495 0.432229 0.311249
O O12 0.972095 0.250000 0.958824
O O13 0.032539 0.055037 0.883656
O O14 0.000000 0.000000 0.000000
O O15 0.085435 0.750000 0.612503
O O16 0.119597 0.982945 0.548194
O O17 0.998426 0.979370 0.614122
O O18 0.451461 0.250000 0.793765
O O19 0.414379 0.250000 0.403450
O O20 0.361125 0.505891 0.425534
O O21 0.750000 0.456976 0.499051
O O22 0.651330 0.250000 0.518486
#
# Coordination Sequence:
#
# PCOD8241644 Si02
#       8
#     8   8   8   8   8   8   8   8
#     4  10  19  33  56  82 107 138 177 221 268 317
#     4   9  19  36  56  80 112 145 178 220 270 318
#     4  10  19  33  54  79 105 135 177 220 263 318
#     4   9  19  35  56  81 107 143 182 218 261 308
#     4   9  17  34  55  75 100 133 176 219 265 317
#     4  10  20  35  54  78 111 142 172 213 264 316
#     4  10  20  34  53  75 102 135 171 218 268 317
#     4  10  21  35  51  72  99 134 176 220 265 318
#
# _framework density 18.016082999999998
#
# number of rings (size 3 to 8) (size 9 to 14) (size 15 to 20)
#    0.000    2.375    1.250    2.250    0.000    6.250 
#    0.000    3.750    0.000    3.750    0.000    0.000 
#    0.000    0.000    0.000    0.000    0.000    0.000 
#
# Total GULP energy -793661.509231 kJ/mol
# GULP energy per Si atom -12400.961082 kJ/mol
# Density = 1.797508 g / cm^3
# Si number density = 18.016083 Si / 1000 Ang^3
#
#
#
# Elastic Constant Matrix: (Units=GPa)
#
#
# Indices 1 2 3 4 5 6 
#
# 1 79.0287 42.1248 51.9235 0.0000 0.0000 0.0000
# 2 42.1248 63.2057 48.0967 0.0000 0.0000 0.0000
# 3 51.9235 48.0967 112.8562 0.0000 0.0000 0.0000
# 4 0.0000 0.0000 0.0000 31.4433 0.0000 0.0000
# 5 0.0000 0.0000 0.0000 0.0000 24.8862 0.0000
# 6 0.0000 0.0000 0.0000 0.0000 0.0000 29.5226
#
#
#
# Elastic Compliance Matrix: (Units=1/GPa)
#
#
# Indices 1 2 3 4 5 6 
#
# 1 0.021845 -0.010228 -0.005692 0.000000 0.000000 0.000000
# 2 -0.010228 0.028204 -0.007314 0.000000 0.000000 0.000000
# 3 -0.005692 -0.007314 0.014597 0.000000 0.000000 0.000000
# 4 0.000000 0.000000 0.000000 0.031803 0.000000 0.000000
# 5 0.000000 0.000000 0.000000 0.000000 0.040183 0.000000
# 6 0.000000 0.000000 0.000000 0.000000 0.000000 0.033872
#
#
# Mechanical properties :
#
#
# Convention : Reuss Voigt Hill
#
# Bulk Modulus (GPa) = 55.01174 59.93117 57.47145
# Shear Modulus (GPa) = 22.41850 24.70015 23.55932
#
# Velocity S-wave (km/s) = 3.53138 3.70673 3.62011
# Velocity P-wave (km/s) = 6.87230 7.18730 7.03157
#
# Compressibility (1/GPa) = 0.01817794
#
# Stress axis : x y z
#
# Youngs Moduli (GPa) = 45.77712 35.45641 68.50953
#
# Poissons Ratio (x) = 0.36265 0.38993
# Poissons Ratio (y) = 0.46821 0.50108
# Poissons Ratio (z) = 0.26055 0.25933
#
# Static dielectric constant tensor:
#      x y z
#    x 3.397850 0.000000 0.000000 
#    y 0.000000 3.234720 0.000000 
#    z 0.000000 0.000000 3.288640 
# 
# 
# High freq. dielectric constant tensor:
#      x y z
#    x 1.698510 0.000000 0.000000 
#    y 0.000000 1.684970 0.000000 
#    z 0.000000 0.000000 1.692450 
# 
# From -- ./inp_files/30732.got.cif
#   From: 2010.03.12/outbox.cif.g09.slc.cpg/sg59_16_cif.got.tgz:30732.got - 2010.04.16 16:29:54.
