data_PCOD8241269
_publ_section_title
;
Structure prediction by ZEFSAII (Michael W. Deem and Ramdas Pophale) SiO2 
 PCOD8241269
Probable space group: P M M N
;
_chemical_formula_sum "Si O2"
_cell_formula_units_Z 64
_cell_length_a 9.845867
_cell_length_b 24.783050
_cell_length_c 13.549664
_cell_angle_alpha 90.000000
_cell_angle_beta 90.000000
_cell_angle_gamma 90.000000
_cell_volume 3306.261834
_symmetry_space_group_name_H-M "P M M N"
_symmetry_group_IT_number 59
_space_group.IT_coordinate_system_code '2'
_symmetry_cell_setting 'orthorhombic'
loop_
_space_group_symop_operation_xyz
x,y,z
1/2-x,1/2-y,z
1/2+x,-y,-z
-x,1/2+y,-z
-x,-y,-z
1/2+x,1/2+y,-z
1/2-x,y,z
x,1/2-y,z
loop_
_atom_site_type_symbol
_atom_site_label
_atom_site_fract_x
_atom_site_fract_y
_atom_site_fract_z
Si Si1 0.594817 0.099071 0.057201
Si Si2 0.406464 0.917287 0.167566
Si Si3 0.589164 0.309892 0.727067
Si Si4 0.395520 0.188431 0.345432
Si Si5 0.599100 0.038314 0.443499
Si Si6 0.591576 0.485418 0.223254
Si Si7 0.091716 0.187864 0.129194
Si Si8 0.096329 0.842071 0.488183
O O1 0.750000 0.116430 0.079230
O O2 0.545469 0.054576 0.136009
O O3 0.500506 0.151810 0.057830
O O4 0.581080 0.073668 0.948987
O O5 0.250000 0.925597 0.202457
O O6 0.457303 0.856767 0.197230
O O7 0.501765 0.960538 0.221324
O O8 0.750000 0.307669 0.725137
O O9 0.532486 0.250000 0.756925
O O10 0.536094 0.325040 0.617597
O O11 0.250000 0.162562 0.379769
O O12 0.367330 0.250000 0.320448
O O13 0.440439 0.164755 0.239408
O O14 0.508983 0.185011 0.427282
O O15 0.750000 0.014298 0.453449
O O16 0.562526 0.044097 0.327743
O O17 0.587714 0.094366 0.499632
O O18 0.500000 0.000000 0.500000
O O19 0.750000 0.501003 0.211325
O O20 0.250000 0.179805 0.103336
O O21 0.048277 0.250000 0.114160
O O22 0.250000 0.821093 0.500663
#
# Coordination Sequence:
#
# PCOD8241269 Si02
#       8
#     8   8   8   8   8   8   8   8
#     4  10  21  36  56  82 107 137 182 232 280 328
#     4  10  21  37  58  81 104 137 183 228 272 328
#     4   9  18  33  53  78 108 140 176 221 269 317
#     4   9  18  32  49  72 103 135 167 206 252 304
#     4  10  21  35  52  76 106 139 174 214 260 315
#     4  10  21  37  55  79 113 144 175 226 284 330
#     4   9  19  35  53  76 109 146 180 217 268 329
#     4  10  19  32  52  76 102 135 174 212 254 307
#
# _framework density 19.357208
#
# number of rings (size 3 to 8) (size 9 to 14) (size 15 to 20)
#    0.000    2.375    0.000    3.000    0.000    6.000 
#    0.000    3.125    0.000    1.125    0.000    0.000 
#    0.000    0.000    0.000    0.000    0.000    0.000 
#
# Total GULP energy -793364.226810 kJ/mol
# GULP energy per Si atom -12396.316044 kJ/mol
# Density = 1.931315 g / cm^3
# Si number density = 19.357208 Si / 1000 Ang^3
#
#
#
# Elastic Constant Matrix: (Units=GPa)
#
#
# Indices 1 2 3 4 5 6 
#
# 1 55.2843 33.4399 18.6956 0.0000 0.0000 0.0000
# 2 33.4399 94.2443 19.4931 0.0000 0.0000 0.0000
# 3 18.6956 19.4931 57.3584 0.0000 0.0000 0.0000
# 4 0.0000 0.0000 0.0000 32.3712 0.0000 0.0000
# 5 0.0000 0.0000 0.0000 0.0000 26.5071 0.0000
# 6 0.0000 0.0000 0.0000 0.0000 0.0000 33.6146
#
#
#
# Elastic Compliance Matrix: (Units=1/GPa)
#
#
# Indices 1 2 3 4 5 6 
#
# 1 0.024499 -0.007574 -0.005412 0.000000 0.000000 0.000000
# 2 -0.007574 0.013754 -0.002206 0.000000 0.000000 0.000000
# 3 -0.005412 -0.002206 0.019948 0.000000 0.000000 0.000000
# 4 0.000000 0.000000 0.000000 0.030892 0.000000 0.000000
# 5 0.000000 0.000000 0.000000 0.000000 0.037726 0.000000
# 6 0.000000 0.000000 0.000000 0.000000 0.000000 0.029749
#
#
# Mechanical properties :
#
#
# Convention : Reuss Voigt Hill
#
# Bulk Modulus (GPa) = 35.94603 38.90492 37.42547
# Shear Modulus (GPa) = 25.48123 27.51579 26.49851
#
# Velocity S-wave (km/s) = 3.63212 3.77434 3.70391
# Velocity P-wave (km/s) = 6.01663 6.25589 6.13743
#
# Compressibility (1/GPa) = 0.02781949
#
# Stress axis : x y z
#
# Youngs Moduli (GPa) = 40.81731 72.70487 50.13102
#
# Poissons Ratio (x) = 0.55064 0.27129
# Poissons Ratio (y) = 0.30913 0.11058
# Poissons Ratio (z) = 0.22089 0.16037
#
# Static dielectric constant tensor:
#      x y z
#    x 4.589910 0.000000 0.000000 
#    y 0.000000 1.718420 0.000000 
#    z 0.000000 0.000000 3.588600 
# 
# 
# High freq. dielectric constant tensor:
#      x y z
#    x 1.737630 0.000000 0.000000 
#    y 0.000000 1.750130 0.000000 
#    z 0.000000 0.000000 1.756270 
# 
# From -- ./inp_files/21618.got.cif
#   From: 2010.03.12/outbox.cif.g09.slc.cpg/sg59_11_cif.got.tgz:21618.got - 2010.04.16 16:29:54.
