data_PCOD8241730
_publ_section_title
;
Structure prediction by ZEFSAII (Michael W. Deem and Ramdas Pophale) SiO2 
 PCOD8241730
Probable space group: P M M N
;
_chemical_formula_sum "Si O2"
_cell_formula_units_Z 64
_cell_length_a 9.013524
_cell_length_b 18.721532
_cell_length_c 19.755428
_cell_angle_alpha 90.000000
_cell_angle_beta 90.000000
_cell_angle_gamma 90.000000
_cell_volume 3333.668774
_symmetry_space_group_name_H-M "P M M N"
_symmetry_group_IT_number 59
_space_group.IT_coordinate_system_code '2'
_symmetry_cell_setting 'orthorhombic'
loop_
_space_group_symop_operation_xyz
x,y,z
1/2-x,1/2-y,z
1/2+x,-y,-z
-x,1/2+y,-z
-x,-y,-z
1/2+x,1/2+y,-z
1/2-x,y,z
x,1/2-y,z
loop_
_atom_site_type_symbol
_atom_site_label
_atom_site_fract_x
_atom_site_fract_y
_atom_site_fract_z
Si Si1 0.575048 0.170696 0.965125
Si Si2 0.923635 0.446995 0.862011
Si Si3 0.922282 0.667450 0.387519
Si Si4 0.423539 0.558542 0.292458
Si Si5 0.924594 0.332121 0.473024
Si Si6 0.076823 0.403739 0.349284
Si Si7 0.074495 0.914754 0.905966
Si Si8 0.919248 0.332775 0.227811
O O1 0.750000 0.177154 0.974397
O O2 0.504440 0.250000 0.960786
O O3 0.536332 0.128840 0.896053
O O4 0.510152 0.128913 0.030116
O O5 0.750000 0.463352 0.865382
O O6 0.979307 0.447309 0.784755
O O7 0.004777 0.506986 0.905956
O O8 0.750000 0.650852 0.398373
O O9 0.950468 0.750000 0.369944
O O10 0.984766 0.622159 0.325573
O O11 0.007818 0.645222 0.455343
O O12 0.250000 0.577143 0.295558
O O13 0.460101 0.485180 0.330783
O O14 0.750000 0.343748 0.476423
O O15 0.964833 0.250000 0.455336
O O16 0.991382 0.384706 0.417535
O O17 0.250000 0.391397 0.360815
O O18 0.024204 0.351659 0.290023
O O19 0.250000 0.922132 0.910922
O O20 0.024962 0.874680 0.837871
O O21 0.750000 0.352957 0.246695
O O22 0.933447 0.250000 0.210762
#
# Coordination Sequence:
#
# PCOD8241730 Si02
#       8
#     8   8   8   8   8   8   8   8
#     4   9  18  33  55  83 111 143 188 237 282 332
#     4  10  20  36  57  81 111 147 189 234 279 335
#     4  10  22  40  62  87 112 142 184 233 283 333
#     4  10  22  38  56  81 113 150 190 231 277 335
#     4  10  21  38  60  85 114 149 188 229 277 336
#     4  11  22  36  54  80 115 150 187 232 278 328
#     4  10  19  33  55  81 110 146 184 230 283 336
#     4  10  20  33  51  77 109 147 189 229 275 334
#
# _framework density 19.198067999999999
#
# number of rings (size 3 to 8) (size 9 to 14) (size 15 to 20)
#    0.000    2.000    1.250    2.250    0.000    7.250 
#    0.000    1.250    0.000    2.250    0.000    0.000 
#    0.000    0.000    0.000    0.000    0.000    0.000 
#
# Total GULP energy -793863.008248 kJ/mol
# GULP energy per Si atom -12404.109504 kJ/mol
# Density = 1.915437 g / cm^3
# Si number density = 19.198068 Si / 1000 Ang^3
#
#
#
# Elastic Constant Matrix: (Units=GPa)
#
#
# Indices 1 2 3 4 5 6 
#
# 1 54.4270 39.8355 41.7885 0.0000 0.0000 0.0000
# 2 39.8355 119.1288 69.4622 0.0000 0.0000 0.0000
# 3 41.7885 69.4622 115.2386 0.0000 0.0000 0.0000
# 4 0.0000 0.0000 0.0000 37.0001 0.0000 0.0000
# 5 0.0000 0.0000 0.0000 0.0000 19.3050 0.0000
# 6 0.0000 0.0000 0.0000 0.0000 0.0000 29.8747
#
#
#
# Elastic Compliance Matrix: (Units=1/GPa)
#
#
# Indices 1 2 3 4 5 6 
#
# 1 0.027400 -0.005194 -0.006805 0.000000 0.000000 0.000000
# 2 -0.005194 0.013928 -0.006512 0.000000 0.000000 0.000000
# 3 -0.006805 -0.006512 0.015070 0.000000 0.000000 0.000000
# 4 0.000000 0.000000 0.000000 0.027027 0.000000 0.000000
# 5 0.000000 0.000000 0.000000 0.000000 0.051800 0.000000
# 6 0.000000 0.000000 0.000000 0.000000 0.000000 0.033473
#
#
# Mechanical properties :
#
#
# Convention : Reuss Voigt Hill
#
# Bulk Modulus (GPa) = 51.60986 65.66297 58.63642
# Shear Modulus (GPa) = 23.56497 26.41650 24.99074
#
# Velocity S-wave (km/s) = 3.50732 3.71347 3.61187
# Velocity P-wave (km/s) = 6.58354 7.25697 6.92844
#
# Compressibility (1/GPa) = 0.01937614
#
# Stress axis : x y z
#
# Youngs Moduli (GPa) = 36.49673 71.79675 66.35532
#
# Poissons Ratio (x) = 0.37294 0.45153
# Poissons Ratio (y) = 0.18958 0.43210
# Poissons Ratio (z) = 0.24835 0.46753
#
# Static dielectric constant tensor:
#      x y z
#    x 3.373300 0.000000 0.000000 
#    y 0.000000 3.566080 0.000000 
#    z 0.000000 0.000000 3.609790 
# 
# 
# High freq. dielectric constant tensor:
#      x y z
#    x 1.731270 0.000000 0.000000 
#    y 0.000000 1.751700 0.000000 
#    z 0.000000 0.000000 1.756190 
# 
# From -- ./inp_files/26230.got.cif
#   From: 2010.03.12/outbox.cif.g09.slc.cpg/sg59_14_cif.got.tgz:26230.got - 2010.04.16 16:29:54.
