data_PCOD8241975
_publ_section_title
;
Structure prediction by ZEFSAII (Michael W. Deem and Ramdas Pophale) SiO2 
 PCOD8241975
Probable space group: P M M N
;
_chemical_formula_sum "Si O2"
_cell_formula_units_Z 48
_cell_length_a 31.455539
_cell_length_b 8.452653
_cell_length_c 9.043567
_cell_angle_alpha 90.000000
_cell_angle_beta 90.000000
_cell_angle_gamma 90.000000
_cell_volume 2404.528519
_symmetry_space_group_name_H-M "P M M N"
_symmetry_group_IT_number 59
_space_group.IT_coordinate_system_code '2'
_symmetry_cell_setting 'orthorhombic'
loop_
_space_group_symop_operation_xyz
x,y,z
1/2-x,1/2-y,z
1/2+x,-y,-z
-x,1/2+y,-z
-x,-y,-z
1/2+x,1/2+y,-z
1/2-x,y,z
x,1/2-y,z
loop_
_atom_site_type_symbol
_atom_site_label
_atom_site_fract_x
_atom_site_fract_y
_atom_site_fract_z
Si Si1 0.750000 0.437219 0.336345
Si Si2 0.669626 0.434354 0.150511
Si Si3 0.407144 0.435310 0.673676
Si Si4 0.667362 0.933976 0.829751
Si Si5 0.250000 0.561971 0.330403
Si Si6 0.998648 0.565963 0.338724
Si Si7 0.409474 0.564827 0.347849
O O1 0.750000 0.250000 0.344617
O O2 0.708130 0.497288 0.252031
O O3 0.750000 0.505011 0.502556
O O4 0.675021 0.250000 0.110939
O O5 0.625991 0.459608 0.237190
O O6 0.670756 0.537016 0.003304
O O7 0.398434 0.250000 0.702455
O O8 0.454156 0.491621 0.735292
O O9 0.402706 0.467778 0.498613
O O10 0.662456 0.750000 0.796883
O O11 0.708780 0.998994 0.750784
O O12 0.626239 0.024027 0.769890
O O13 0.250000 0.750000 0.325793
O O14 0.993014 0.750000 0.352586
O O15 0.044704 0.522396 0.268016
O O16 0.000000 0.500000 0.500000
O O17 0.407689 0.750000 0.387715
#
# Coordination Sequence:
#
# PCOD8241975 Si02
#       7
#     4   8   8   8   4   8   8
#     4   9  21  39  62  86 108 137 182 229 270 322
#     4  11  22  39  60  83 112 152 193 232 281 343
#     4  10  19  34  56  86 118 148 185 239 293 338
#     4  12  25  40  57  84 118 152 189 237 288 333
#     4  11  22  41  66  90 114 145 184 229 278 342
#     4   8  16  30  52  80 112 146 186 234 286 336
#     4  10  19  35  58  84 112 151 197 237 279 341
#
# _framework density 19.962332
#
# number of rings (size 3 to 8) (size 9 to 14) (size 15 to 20)
#    0.000    1.833    0.000    4.750    0.000    3.333 
#    0.000    4.583    0.000    0.000    0.000    0.000 
#    0.000    0.000    0.000    0.000    0.000    0.000 
#
# Total GULP energy -594895.853958 kJ/mol
# GULP energy per Si atom -12393.663624 kJ/mol
# Density = 1.991690 g / cm^3
# Si number density = 19.962332 Si / 1000 Ang^3
#
#
#
# Elastic Constant Matrix: (Units=GPa)
#
#
# Indices 1 2 3 4 5 6 
#
# 1 196.1766 23.2119 60.9494 0.0000 0.0000 0.0000
# 2 23.2119 35.9394 0.4909 0.0000 0.0000 0.0000
# 3 60.9494 0.4909 90.6899 0.0000 0.0000 0.0000
# 4 0.0000 0.0000 0.0000 28.1352 0.0000 0.0000
# 5 0.0000 0.0000 0.0000 0.0000-4633.5080 0.0000
# 6 0.0000 0.0000 0.0000 0.0000 0.0000 20.4190
#
#
#
# Elastic Compliance Matrix: (Units=1/GPa)
#
#
# Indices 1 2 3 4 5 6 
#
# 1 0.007110 -0.004527 -0.004754 0.000000 0.000000 0.000000
# 2 -0.004527 0.030709 0.002876 0.000000 0.000000 0.000000
# 3 -0.004754 0.002876 0.014206 0.000000 0.000000 0.000000
# 4 0.000000 0.000000 0.000000 0.035543 0.000000 0.000000
# 5 0.000000 0.000000 0.000000 0.000000 -0.000216 0.000000
# 6 0.000000 0.000000 0.000000 0.000000 0.000000 0.048974
#
#
# Mechanical properties :
#
#
# Convention : Reuss Voigt Hill
#
# Bulk Modulus (GPa) = 25.49998 54.67892 40.08945
# Shear Modulus (GPa) = 30.82469 -901.11383 -435.14457
#
# Velocity S-wave (km/s) = 3.93382 -21.26939 -14.78026
# Velocity P-wave (km/s) = 5.78230 23.99442 16.46659
#
# Compressibility (1/GPa) = 0.03921572
#
# Stress axis : x y z
#
# Youngs Moduli (GPa) = 140.64519 32.56350 70.39303
#
# Poissons Ratio (x) = 0.14742 0.33464
# Poissons Ratio (y) = 0.63673 -0.20247
# Poissons Ratio (z) = 0.66862 -0.09366
#
# Static dielectric constant tensor:
#      x y z
#    x 4.417340 0.000000 0.000000 
#    y 0.000000 3.570690 0.000000 
#    z 0.000000 0.000000 3.414780 
# 
# 
# High freq. dielectric constant tensor:
#      x y z
#    x 1.811090 0.000000 0.000000 
#    y 0.000000 1.778140 0.000000 
#    z 0.000000 0.000000 1.751160 
# 
# From -- ./inp_files/13007.got.cif
#   From: 2010.03.12/outbox.cif.g09.slc.cpg/sg59_7_cif.got.tgz:13007.got - 2010.04.16 16:29:54.
