data_PCOD8241335
_publ_section_title
;
Structure prediction by ZEFSAII (Michael W. Deem and Ramdas Pophale) SiO2 
 PCOD8241335
Probable space group: P M M N
;
_chemical_formula_sum "Si O2"
_cell_formula_units_Z 48
_cell_length_a 31.346612
_cell_length_b 8.922817
_cell_length_c 9.081532
_cell_angle_alpha 90.000000
_cell_angle_beta 90.000000
_cell_angle_gamma 90.000000
_cell_volume 2540.105249
_symmetry_space_group_name_H-M "P M M N"
_symmetry_group_IT_number 59
_space_group.IT_coordinate_system_code '2'
_symmetry_cell_setting 'orthorhombic'
loop_
_space_group_symop_operation_xyz
x,y,z
1/2-x,1/2-y,z
1/2+x,-y,-z
-x,1/2+y,-z
-x,-y,-z
1/2+x,1/2+y,-z
1/2-x,y,z
x,1/2-y,z
loop_
_atom_site_type_symbol
_atom_site_label
_atom_site_fract_x
_atom_site_fract_y
_atom_site_fract_z
Si Si1 0.501208 0.078065 0.346645
Si Si2 0.908935 0.924753 0.648617
Si Si3 0.829443 0.926653 0.172405
Si Si4 0.406682 0.926494 0.667422
Si Si5 0.327696 0.075158 0.167142
Si Si6 0.250000 0.926354 0.330346
Si Si7 0.750000 0.072559 0.332029
O O1 0.505338 0.250000 0.384764
O O2 0.455211 0.043769 0.270764
O O3 0.545730 0.033318 0.266207
O O4 0.500000 0.000000 0.500000
O O5 0.905093 0.750000 0.604069
O O6 0.873500 0.970344 0.767035
O O7 0.902799 0.023421 0.502509
O O8 0.825038 0.750000 0.195421
O O9 0.874533 0.980843 0.233115
O O10 0.791874 0.007884 0.257493
O O11 0.826637 0.972324 0.002337
O O12 0.396237 0.750000 0.677140
O O13 0.318343 0.250000 0.186330
O O14 0.291946 0.986258 0.253063
O O15 0.250000 0.750000 0.317365
O O16 0.250000 0.979116 0.498991
O O17 0.750000 0.250000 0.315102
#
# Coordination Sequence:
#
# PCOD8241335 Si02
#       7
#     8   8   8   8   8   4   4
#     4   8  15  28  49  76 105 136 174 219 267 311
#     4   9  17  33  56  79 104 139 180 224 269 313
#     4  11  23  38  55  78 108 143 178 213 256 311
#     4  10  19  32  52  80 110 140 177 222 265 312
#     4  10  22  38  56  78 106 139 177 216 257 309
#     4  11  24  39  58  82 106 131 166 213 264 314
#     4  11  24  41  60  84 108 133 170 217 264 314
#
# _framework density 18.896854000000001
#
# number of rings (size 3 to 8) (size 9 to 14) (size 15 to 20)
#    0.000    2.167    0.000    3.000    0.000    8.667 
#    0.000    0.833    0.000    0.000    0.000    0.000 
#    0.000    0.000    0.000    0.000    0.000    0.000 
#
# Total GULP energy -594847.309447 kJ/mol
# GULP energy per Si atom -12392.652280 kJ/mol
# Density = 1.885384 g / cm^3
# Si number density = 18.896854 Si / 1000 Ang^3
#
#
#
# Elastic Constant Matrix: (Units=GPa)
#
#
# Indices 1 2 3 4 5 6 
#
# 1 187.8243 46.8699 81.2831 0.0000 0.0000 0.0000
# 2 46.8699 46.8495 44.5582 0.0000 0.0000 0.0000
# 3 81.2831 44.5582 122.1573 0.0000 0.0000 0.0000
# 4 0.0000 0.0000 0.0000 22.5036 0.0000 0.0000
# 5 0.0000 0.0000 0.0000 0.0000 -135.6103 0.0000
# 6 0.0000 0.0000 0.0000 0.0000 0.0000 14.5967
#
#
#
# Elastic Compliance Matrix: (Units=1/GPa)
#
#
# Indices 1 2 3 4 5 6 
#
# 1 0.008062 -0.004537 -0.003709 0.000000 0.000000 0.000000
# 2 -0.004537 0.035237 -0.009834 0.000000 0.000000 0.000000
# 3 -0.003709 -0.009834 0.014241 0.000000 0.000000 0.000000
# 4 0.000000 0.000000 0.000000 0.044437 0.000000 0.000000
# 5 0.000000 0.000000 0.000000 0.000000 -0.007374 0.000000
# 6 0.000000 0.000000 0.000000 0.000000 0.000000 0.068508
#
#
# Mechanical properties :
#
#
# Convention : Reuss Voigt Hill
#
# Bulk Modulus (GPa) = 46.77452 78.02817 62.40134
# Shear Modulus (GPa) = 24.22490 -7.42733 8.39879
#
# Velocity S-wave (km/s) = 3.58432 -1.98469 2.11050
# Velocity P-wave (km/s) = 6.47581 6.01076 6.24761
#
# Compressibility (1/GPa) = 0.02137916
#
# Stress axis : x y z
#
# Youngs Moduli (GPa) = 124.04592 28.37894 70.21856
#
# Poissons Ratio (x) = 0.12877 0.26044
# Poissons Ratio (y) = 0.56284 0.69053
# Poissons Ratio (z) = 0.46009 0.27908
#
# Static dielectric constant tensor:
#      x y z
#    x 4.318000 0.000000 0.000000 
#    y 0.000000 3.453970 0.000000 
#    z 0.000000 0.000000 3.308110 
# 
# 
# High freq. dielectric constant tensor:
#      x y z
#    x 1.766290 0.000000 0.000000 
#    y 0.000000 1.739430 0.000000 
#    z 0.000000 0.000000 1.706530 
# 
# From -- ./inp_files/6382.got.cif
#   From: 2010.03.12/outbox.cif.g09.slc.cpg/sg59_4_cif.got.tgz:6382.got - 2010.04.16 16:29:54.
