data_PCOD8241844
_publ_section_title
;
Structure prediction by ZEFSAII (Michael W. Deem and Ramdas Pophale) SiO2 
 PCOD8241844
Probable space group: P M M N
;
_chemical_formula_sum "Si O2"
_cell_formula_units_Z 48
_cell_length_a 13.885957
_cell_length_b 16.996028
_cell_length_c 11.310874
_cell_angle_alpha 90.000000
_cell_angle_beta 90.000000
_cell_angle_gamma 90.000000
_cell_volume 2669.435418
_symmetry_space_group_name_H-M "P M M N"
_symmetry_group_IT_number 59
_space_group.IT_coordinate_system_code '2'
_symmetry_cell_setting 'orthorhombic'
loop_
_space_group_symop_operation_xyz
x,y,z
1/2-x,1/2-y,z
1/2+x,-y,-z
-x,1/2+y,-z
-x,-y,-z
1/2+x,1/2+y,-z
1/2-x,y,z
x,1/2-y,z
loop_
_atom_site_type_symbol
_atom_site_label
_atom_site_fract_x
_atom_site_fract_y
_atom_site_fract_z
Si Si1 0.857338 0.110194 0.074796
Si Si2 0.491110 0.566953 0.260613
Si Si3 0.138569 0.658567 0.441952
Si Si4 0.860428 0.054257 0.332799
Si Si5 0.859223 0.531023 0.904380
Si Si6 0.958993 0.837638 0.037668
O O1 0.750000 0.142868 0.050596
O O2 0.878207 0.103497 0.213435
O O3 0.931635 0.168264 0.011210
O O4 0.870937 0.023436 0.019847
O O5 0.427265 0.625195 0.338276
O O6 0.571451 0.522484 0.339012
O O7 0.422973 0.501023 0.202731
O O8 0.545194 0.619329 0.163377
O O9 0.250000 0.647083 0.406179
O O10 0.114378 0.750000 0.461530
O O11 0.113471 0.612762 0.561600
O O12 0.750000 0.025107 0.340058
O O13 0.750000 0.535331 0.859480
O O14 0.894183 0.617353 0.941587
O O15 0.917823 0.750000 0.052486
#
# Coordination Sequence:
#
# PCOD8241844 Si02
#       6
#     8   8   8   8   8   8
#     4   9  17  33  54  76 102 136 177 216 258 314
#     4  11  19  37  56  80 102 143 181 220 254 318
#     4  10  22  37  54  81 110 135 171 221 275 319
#     4  10  19  34  58  80 105 141 179 220 263 314
#     4  10  19  34  54  75 105 142 179 215 255 310
#     4  11  21  32  50  78 110 139 171 216 268 311
#
# _framework density 17.98133
#
# number of rings (size 3 to 8) (size 9 to 14) (size 15 to 20)
#    0.000    1.833    3.333    2.500    0.000    2.000 
#    0.000    1.667    0.000    1.500    0.000    0.000 
#    0.000    0.000    0.000    0.000    0.000    0.000 
#
# Total GULP energy -595292.591339 kJ/mol
# GULP energy per Si atom -12401.928986 kJ/mol
# Density = 1.794040 g / cm^3
# Si number density = 17.981330 Si / 1000 Ang^3
#
#
#
# Elastic Constant Matrix: (Units=GPa)
#
#
# Indices 1 2 3 4 5 6 
#
# 1 70.9451 48.0116 26.3874 0.0000 0.0000 0.0000
# 2 48.0116 119.4018 29.9284 0.0000 0.0000 0.0000
# 3 26.3874 29.9284 57.5805 0.0000 0.0000 0.0000
# 4 0.0000 0.0000 0.0000 19.6977 0.0000 0.0000
# 5 0.0000 0.0000 0.0000 0.0000 26.0457 0.0000
# 6 0.0000 0.0000 0.0000 0.0000 0.0000 24.5678
#
#
#
# Elastic Compliance Matrix: (Units=1/GPa)
#
#
# Indices 1 2 3 4 5 6 
#
# 1 0.021041 -0.006949 -0.006031 0.000000 0.000000 0.000000
# 2 -0.006949 0.011925 -0.003013 0.000000 0.000000 0.000000
# 3 -0.006031 -0.003013 0.021697 0.000000 0.000000 0.000000
# 4 0.000000 0.000000 0.000000 0.050767 0.000000 0.000000
# 5 0.000000 0.000000 0.000000 0.000000 0.038394 0.000000
# 6 0.000000 0.000000 0.000000 0.000000 0.000000 0.040704
#
#
# Mechanical properties :
#
#
# Convention : Reuss Voigt Hill
#
# Bulk Modulus (GPa) = 44.09870 50.73134 47.41502
# Shear Modulus (GPa) = 22.31416 23.63559 22.97487
#
# Velocity S-wave (km/s) = 3.52655 3.62947 3.57838
# Velocity P-wave (km/s) = 6.41561 6.77043 6.59540
#
# Compressibility (1/GPa) = 0.02267640
#
# Stress axis : x y z
#
# Youngs Moduli (GPa) = 47.52579 83.85985 46.08943
#
# Poissons Ratio (x) = 0.58275 0.27795
# Poissons Ratio (y) = 0.33026 0.13889
# Poissons Ratio (z) = 0.28661 0.25271
#
# Static dielectric constant tensor:
#      x y z
#    x 3.464530 0.000000 0.000000 
#    y 0.000000 3.156580 0.000000 
#    z 0.000000 0.000000 3.245480 
# 
# 
# High freq. dielectric constant tensor:
#      x y z
#    x 1.698620 0.000000 0.000000 
#    y 0.000000 1.682510 0.000000 
#    z 0.000000 0.000000 1.689720 
# 
# From -- ./inp_files/16801.got.cif
#   From: 2010.03.12/outbox.cif.g09.slc.cpg/sg59_9_cif.got.tgz:16801.got - 2010.04.16 16:29:54.
