data_PCOD8241365
_publ_section_title
;
Structure prediction by ZEFSAII (Michael W. Deem and Ramdas Pophale) SiO2 
 PCOD8241365
Probable space group: P M M N
;
_chemical_formula_sum "Si O2"
_cell_formula_units_Z 56
_cell_length_a 9.402667
_cell_length_b 14.657019
_cell_length_c 21.529083
_cell_angle_alpha 90.000000
_cell_angle_beta 90.000000
_cell_angle_gamma 90.000000
_cell_volume 2967.032056
_symmetry_space_group_name_H-M "P M M N"
_symmetry_group_IT_number 59
_space_group.IT_coordinate_system_code '2'
_symmetry_cell_setting 'orthorhombic'
loop_
_space_group_symop_operation_xyz
x,y,z
1/2-x,1/2-y,z
1/2+x,-y,-z
-x,1/2+y,-z
-x,-y,-z
1/2+x,1/2+y,-z
1/2-x,y,z
x,1/2-y,z
loop_
_atom_site_type_symbol
_atom_site_label
_atom_site_fract_x
_atom_site_fract_y
_atom_site_fract_z
Si Si1 0.588911 0.854235 0.803554
Si Si2 0.416671 0.355900 0.488800
Si Si3 0.409670 0.105433 0.059877
Si Si4 0.416404 0.503608 0.730748
Si Si5 0.584590 0.495699 0.410748
Si Si6 0.409813 0.610354 0.054543
Si Si7 0.089393 0.148590 0.825867
O O1 0.750000 0.892501 0.802395
O O2 0.583754 0.750000 0.783028
O O3 0.527210 0.866241 0.873217
O O4 0.495302 0.906508 0.753658
O O5 0.250000 0.359905 0.473902
O O6 0.466225 0.250000 0.495478
O O7 0.498558 0.406512 0.433077
O O8 0.453436 0.412027 0.551524
O O9 0.250000 0.144943 0.051972
O O10 0.408450 0.997630 0.054566
O O11 0.509152 0.147883 0.006457
O O12 0.250000 0.521199 0.737536
O O13 0.458496 0.483417 0.659926
O O14 0.466951 0.418330 0.772290
O O15 0.750000 0.471571 0.417857
O O16 0.250000 0.649575 0.054056
O O17 0.488740 0.646105 0.114981
O O18 0.250000 0.121671 0.846232
O O19 0.086307 0.250000 0.797445
#
# Coordination Sequence:
#
# PCOD8241365 Si02
#       7
#     8   8   8   8   8   8   8
#     4  10  21  37  56  77 103 139 180 220 266 319
#     4   9  18  34  57  84 112 142 178 217 255 302
#     4   9  18  33  52  75 103 135 172 216 269 324
#     4  10  21  37  56  78 108 142 178 219 262 309
#     4   9  19  35  55  81 111 144 177 215 262 307
#     4  10  19  32  53  78 103 133 172 220 272 323
#     4  10  21  36  54  76 103 138 178 219 267 322
#
# _framework density 18.874079999999999
#
# number of rings (size 3 to 8) (size 9 to 14) (size 15 to 20)
#    0.000    2.429    1.429    0.429    0.000    4.286 
#    0.000    7.143    0.000    0.000    0.000    4.000 
#    0.000    0.000    0.000    0.000    0.000    0.000 
#
# Total GULP energy -694397.460545 kJ/mol
# GULP energy per Si atom -12399.954653 kJ/mol
# Density = 1.883112 g / cm^3
# Si number density = 18.874080 Si / 1000 Ang^3
#
#
#
# Elastic Constant Matrix: (Units=GPa)
#
#
# Indices 1 2 3 4 5 6 
#
# 1 62.2828 36.8913 46.0073 0.0000 0.0000 0.0000
# 2 36.8913 95.3349 45.5455 0.0000 0.0000 0.0000
# 3 46.0073 45.5455 121.5894 0.0000 0.0000 0.0000
# 4 0.0000 0.0000 0.0000 -0.2137 0.0000 0.0000
# 5 0.0000 0.0000 0.0000 0.0000 29.3208 0.0000
# 6 0.0000 0.0000 0.0000 0.0000 0.0000 21.4356
#
#
#
# Elastic Compliance Matrix: (Units=1/GPa)
#
#
# Indices 1 2 3 4 5 6 
#
# 1 0.025039 -0.006288 -0.007119 0.000000 0.000000 0.000000
# 2 -0.006288 0.014355 -0.002998 0.000000 0.000000 0.000000
# 3 -0.007119 -0.002998 0.012041 0.000000 0.000000 0.000000
# 4 0.000000 0.000000 0.000000 -4.679728 0.000000 0.000000
# 5 0.000000 0.000000 0.000000 0.000000 0.034106 0.000000
# 6 0.000000 0.000000 0.000000 0.000000 0.000000 0.046651
#
#
# Mechanical properties :
#
#
# Convention : Reuss Voigt Hill
#
# Bulk Modulus (GPa) = 53.69089 59.56614 56.62852
# Shear Modulus (GPa) = -1.10901 20.15940 9.52519
#
# Velocity S-wave (km/s) = -0.76737 3.27172 2.24892
# Velocity P-wave (km/s) = 5.26531 6.77499 6.06729
#
# Compressibility (1/GPa) = 0.01862513
#
# Stress axis : x y z
#
# Youngs Moduli (GPa) = 39.93764 69.66308 83.04987
#
# Poissons Ratio (x) = 0.43806 0.59122
# Poissons Ratio (y) = 0.25114 0.24896
# Poissons Ratio (z) = 0.28431 0.20883
#
# Static dielectric constant tensor:
#      x y z
#    x 3.538370 0.000000 0.000000 
#    y 0.000000 3.469800 0.000000 
#    z 0.000000 0.000000 3.466730 
# 
# 
# High freq. dielectric constant tensor:
#      x y z
#    x 1.727210 0.000000 0.000000 
#    y 0.000000 1.735440 0.000000 
#    z 0.000000 0.000000 1.728010 
# 
# From -- ./inp_files/29150.got.cif
#   From: 2010.03.12/outbox.cif.g09.slc.cpg/sg59_15_cif.got.tgz:29150.got - 2010.04.16 16:29:54.
