data_PCOD8241470
_publ_section_title
;
Structure prediction by ZEFSAII (Michael W. Deem and Ramdas Pophale) SiO2 
 PCOD8241470
Probable space group: P M M N
;
_chemical_formula_sum "Si O2"
_cell_formula_units_Z 48
_cell_length_a 8.886842
_cell_length_b 27.962638
_cell_length_c 10.295270
_cell_angle_alpha 90.000000
_cell_angle_beta 90.000000
_cell_angle_gamma 90.000000
_cell_volume 2558.369919
_symmetry_space_group_name_H-M "P M M N"
_symmetry_group_IT_number 59
_space_group.IT_coordinate_system_code '2'
_symmetry_cell_setting 'orthorhombic'
loop_
_space_group_symop_operation_xyz
x,y,z
1/2-x,1/2-y,z
1/2+x,-y,-z
-x,1/2+y,-z
-x,-y,-z
1/2+x,1/2+y,-z
1/2-x,y,z
x,1/2-y,z
loop_
_atom_site_type_symbol
_atom_site_label
_atom_site_fract_x
_atom_site_fract_y
_atom_site_fract_z
Si Si1 0.075350 0.853785 0.766186
Si Si2 0.576974 0.447791 0.372277
Si Si3 0.425231 0.444426 0.642273
Si Si4 0.071800 0.856921 0.249849
Si Si5 0.573327 0.805311 0.007717
Si Si6 0.571409 0.196819 0.495617
O O1 0.250000 0.842270 0.795607
O O2 0.049571 0.910610 0.745224
O O3 0.017618 0.827766 0.636450
O O4 0.973763 0.835449 0.882530
O O5 0.750000 0.445080 0.419509
O O6 0.477677 0.433381 0.495880
O O7 0.536379 0.500647 0.321112
O O8 0.250000 0.433570 0.652651
O O9 0.510563 0.411235 0.746876
O O10 0.250000 0.857964 0.240165
O O11 0.010470 0.831881 0.380501
O O12 0.010455 0.827211 0.130031
O O13 0.750000 0.810331 0.028825
O O14 0.525299 0.750000 0.990558
O O15 0.750000 0.197858 0.500989
O O16 0.503559 0.250000 0.500375
#
# Coordination Sequence:
#
# PCOD8241470 Si02
#       6
#     8   8   8   8   8   8
#     4  10  19  36  60  84 111 146 192 236 277 332
#     4   9  18  34  56  85 117 150 189 234 282 340
#     4  10  19  32  55  86 120 151 183 231 293 344
#     4  11  21  37  59  83 113 150 196 238 279 337
#     4  11  25  42  57  80 117 154 188 232 289 346
#     4   9  17  30  53  83 109 135 180 239 282 321
#
# _framework density 18.761945999999998
#
# number of rings (size 3 to 8) (size 9 to 14) (size 15 to 20)
#    0.000    2.000    1.667    2.500    0.000    4.000 
#    0.000    0.833    0.000    3.000    0.000    0.000 
#    0.000    0.000    0.000    0.000    0.000    0.000 
#
# Total GULP energy -595265.415084 kJ/mol
# GULP energy per Si atom -12401.362814 kJ/mol
# Density = 1.871924 g / cm^3
# Si number density = 18.761946 Si / 1000 Ang^3
#
#
#
# Elastic Constant Matrix: (Units=GPa)
#
#
# Indices 1 2 3 4 5 6 
#
# 1 69.7858 44.4588 39.0291 0.0000 0.0000 0.0000
# 2 44.4588 106.4826 26.0615 0.0000 0.0000 0.0000
# 3 39.0291 26.0615 81.9681 0.0000 0.0000 0.0000
# 4 0.0000 0.0000 0.0000 33.5638 0.0000 0.0000
# 5 0.0000 0.0000 0.0000 0.0000 27.9280 0.0000
# 6 0.0000 0.0000 0.0000 0.0000 0.0000 28.6248
#
#
#
# Elastic Compliance Matrix: (Units=1/GPa)
#
#
# Indices 1 2 3 4 5 6 
#
# 1 0.024545 -0.008011 -0.009140 0.000000 0.000000 0.000000
# 2 -0.008011 0.012798 -0.000255 0.000000 0.000000 0.000000
# 3 -0.009140 -0.000255 0.016633 0.000000 0.000000 0.000000
# 4 0.000000 0.000000 0.000000 0.029794 0.000000 0.000000
# 5 0.000000 0.000000 0.000000 0.000000 0.035806 0.000000
# 6 0.000000 0.000000 0.000000 0.000000 0.000000 0.034935
#
#
# Mechanical properties :
#
#
# Convention : Reuss Voigt Hill
#
# Bulk Modulus (GPa) = 52.17952 53.03728 52.60840
# Shear Modulus (GPa) = 25.54788 27.93578 26.74183
#
# Velocity S-wave (km/s) = 3.69411 3.86289 3.77944
# Velocity P-wave (km/s) = 6.78727 6.94448 6.86632
#
# Compressibility (1/GPa) = 0.01916461
#
# Stress axis : x y z
#
# Youngs Moduli (GPa) = 40.74167 78.13517 60.12194
#
# Poissons Ratio (x) = 0.62594 0.54951
# Poissons Ratio (y) = 0.32638 0.01532
# Poissons Ratio (z) = 0.37238 0.01990
#
# Static dielectric constant tensor:
#      x y z
#    x 3.303900 0.000000 0.000000 
#    y 0.000000 3.815840 0.000000 
#    z 0.000000 0.000000 3.377380 
# 
# 
# High freq. dielectric constant tensor:
#      x y z
#    x 1.716200 0.000000 0.000000 
#    y 0.000000 1.748460 0.000000 
#    z 0.000000 0.000000 1.710080 
# 
# From -- ./inp_files/6247.got.cif
#   From: 2010.03.12/outbox.cif.g09.slc.cpg/sg59_4_cif.got.tgz:6247.got - 2010.04.16 16:29:54.
