data_PCOD8241122
_publ_section_title
;
Structure prediction by ZEFSAII (Michael W. Deem and Ramdas Pophale) SiO2 
 PCOD8241122
Probable space group: P M M N
;
_chemical_formula_sum "Si O2"
_cell_formula_units_Z 64
_cell_length_a 19.686805
_cell_length_b 9.250989
_cell_length_c 20.038726
_cell_angle_alpha 90.000000
_cell_angle_beta 90.000000
_cell_angle_gamma 90.000000
_cell_volume 3649.501203
_symmetry_space_group_name_H-M "P M M N"
_symmetry_group_IT_number 59
_space_group.IT_coordinate_system_code '2'
_symmetry_cell_setting 'orthorhombic'
loop_
_space_group_symop_operation_xyz
x,y,z
1/2-x,1/2-y,z
1/2+x,-y,-z
-x,1/2+y,-z
-x,-y,-z
1/2+x,1/2+y,-z
1/2-x,y,z
x,1/2-y,z
loop_
_atom_site_type_symbol
_atom_site_label
_atom_site_fract_x
_atom_site_fract_y
_atom_site_fract_z
Si Si1 0.329335 0.416270 0.596792
Si Si2 0.427199 0.580267 0.694697
Si Si3 0.672341 0.914971 0.918648
Si Si4 0.325116 0.421454 0.447227
Si Si5 0.393918 0.582816 0.197335
Si Si6 0.564748 0.581435 0.027103
Si Si7 0.418438 0.079918 0.328079
Si Si8 0.449761 0.415641 0.824582
O O1 0.250000 0.433852 0.613141
O O2 0.351809 0.250000 0.605789
O O3 0.371556 0.515654 0.645997
O O4 0.344911 0.471915 0.521734
O O5 0.416307 0.750000 0.699351
O O6 0.502033 0.540268 0.667121
O O7 0.416205 0.515413 0.768348
O O8 0.750000 0.933457 0.939609
O O9 0.655267 0.750000 0.898391
O O10 0.657284 0.016551 0.856119
O O11 0.629520 0.962583 0.983225
O O12 0.250000 0.481410 0.427972
O O13 0.321962 0.250000 0.447127
O O14 0.381660 0.476798 0.395208
O O15 0.376303 0.750000 0.207529
O O16 0.382922 0.501989 0.267166
O O17 0.469786 0.558507 0.170851
O O18 0.547665 0.750000 0.023027
O O19 0.580884 0.539120 0.103793
O O20 0.500000 0.500000 0.000000
O O21 0.407804 0.250000 0.317178
O O22 0.433204 0.250000 0.806363
#
# Coordination Sequence:
#
# PCOD8241122 Si02
#       8
#     8   8   8   8   8   8   8   8
#     4   9  18  34  55  75  96 129 173 216 259 308
#     4  10  20  32  49  76 107 136 166 208 258 307
#     4  10  21  35  51  74 104 136 170 210 256 308
#     4   8  15  30  52  74  96 129 174 215 250 300
#     4  10  19  32  50  73 102 135 170 209 253 300
#     4  10  19  33  55  78 100 131 173 216 256 303
#     4   9  18  32  50  75 106 137 170 209 252 301
#     4   9  18  33  52  75 101 130 169 212 252 299
#
# _framework density 17.536643999999999
#
# number of rings (size 3 to 8) (size 9 to 14) (size 15 to 20)
#    0.000    2.625    1.250    1.500    0.000    3.000 
#    0.000    2.500    0.000    3.000    0.000    0.000 
#    0.000    0.000    0.000    0.000    0.000    0.000 
#
# Total GULP energy -793620.974014 kJ/mol
# GULP energy per Si atom -12400.327719 kJ/mol
# Density = 1.749673 g / cm^3
# Si number density = 17.536644 Si / 1000 Ang^3
#
#
#
# Elastic Constant Matrix: (Units=GPa)
#
#
# Indices 1 2 3 4 5 6 
#
# 1 82.3168 41.6017 74.8383 0.0000 0.0000 0.0000
# 2 41.6017 64.4471 59.5784 0.0000 0.0000 0.0000
# 3 74.8383 59.5784 151.6829 0.0000 0.0000 0.0000
# 4 0.0000 0.0000 0.0000 23.2988 0.0000 0.0000
# 5 0.0000 0.0000 0.0000 0.0000 29.9794 0.0000
# 6 0.0000 0.0000 0.0000 0.0000 0.0000 24.3398
#
#
#
# Elastic Compliance Matrix: (Units=1/GPa)
#
#
# Indices 1 2 3 4 5 6 
#
# 1 0.023945 -0.007121 -0.009017 0.000000 0.000000 0.000000
# 2 -0.007121 0.026481 -0.006888 0.000000 0.000000 0.000000
# 3 -0.009017 -0.006888 0.013747 0.000000 0.000000 0.000000
# 4 0.000000 0.000000 0.000000 0.042921 0.000000 0.000000
# 5 0.000000 0.000000 0.000000 0.000000 0.033356 0.000000
# 6 0.000000 0.000000 0.000000 0.000000 0.000000 0.041085
#
#
# Mechanical properties :
#
#
# Convention : Reuss Voigt Hill
#
# Bulk Modulus (GPa) = 55.18464 72.27596 63.73030
# Shear Modulus (GPa) = 21.40168 23.68549 22.54358
#
# Velocity S-wave (km/s) = 3.49721 3.67908 3.58929
# Velocity P-wave (km/s) = 6.91692 7.70397 7.32103
#
# Compressibility (1/GPa) = 0.01812098
#
# Stress axis : x y z
#
# Youngs Moduli (GPa) = 41.76256 37.76333 72.74296
#
# Poissons Ratio (x) = 0.26891 0.65593
# Poissons Ratio (y) = 0.29739 0.50104
# Poissons Ratio (z) = 0.37658 0.26011
#
# Static dielectric constant tensor:
#      x y z
#    x 3.193280 0.000000 0.000000 
#    y 0.000000 3.145460 0.000000 
#    z 0.000000 0.000000 3.447890 
# 
# 
# High freq. dielectric constant tensor:
#      x y z
#    x 1.663840 0.000000 0.000000 
#    y 0.000000 1.665830 0.000000 
#    z 0.000000 0.000000 1.686270 
# 
# From -- ./inp_files/28277.got.cif
#   From: 2010.03.12/outbox.cif.g09.slc.cpg/sg59_15_cif.got.tgz:28277.got - 2010.04.16 16:29:54.
