data_PCOD8241166
_publ_section_title
;
Structure prediction by ZEFSAII (Michael W. Deem and Ramdas Pophale) SiO2 
 PCOD8241166
Probable space group: P M M N
;
_chemical_formula_sum "Si O2"
_cell_formula_units_Z 64
_cell_length_a 8.929106
_cell_length_b 23.922205
_cell_length_c 15.471121
_cell_angle_alpha 90.000000
_cell_angle_beta 90.000000
_cell_angle_gamma 90.000000
_cell_volume 3304.691848
_symmetry_space_group_name_H-M "P M M N"
_symmetry_group_IT_number 59
_space_group.IT_coordinate_system_code '2'
_symmetry_cell_setting 'orthorhombic'
loop_
_space_group_symop_operation_xyz
x,y,z
1/2-x,1/2-y,z
1/2+x,-y,-z
-x,1/2+y,-z
-x,-y,-z
1/2+x,1/2+y,-z
1/2-x,y,z
x,1/2-y,z
loop_
_atom_site_type_symbol
_atom_site_label
_atom_site_fract_x
_atom_site_fract_y
_atom_site_fract_z
Si Si1 0.575707 0.314366 0.552880
Si Si2 0.580464 0.816158 0.620134
Si Si3 0.426881 0.618689 0.769604
Si Si4 0.427550 0.620688 0.275930
Si Si5 0.573690 0.647957 0.103770
Si Si6 0.576945 0.312554 0.064833
Si Si7 0.913112 0.996213 0.751775
Si Si8 0.586099 0.037491 0.935943
O O1 0.750000 0.322176 0.532888
O O2 0.536782 0.250000 0.572431
O O3 0.485226 0.337794 0.470920
O O4 0.525970 0.350341 0.635225
O O5 0.750000 0.837799 0.629033
O O6 0.570549 0.750000 0.622438
O O7 0.483349 0.838206 0.698758
O O8 0.250000 0.618324 0.768865
O O9 0.481772 0.641684 0.864169
O O10 0.480538 0.557146 0.740104
O O11 0.250000 0.620538 0.258270
O O12 0.501163 0.657492 0.198786
O O13 0.483027 0.555619 0.281134
O O14 0.750000 0.657323 0.111008
O O15 0.531522 0.585772 0.079220
O O16 0.510754 0.686168 0.026422
O O17 0.750000 0.324134 0.044353
O O18 0.554369 0.250000 0.103171
O O19 0.750000 0.985314 0.707135
O O20 0.885245 0.000855 0.852675
O O21 0.750000 0.058461 0.970551
O O22 0.500000 0.000000 0.000000
#
# Coordination Sequence:
#
# PCOD8241166 Si02
#       8
#     8   8   8   8   8   8   8   8
#     4   9  18  35  61  88 110 137 178 226 274 326
#     4  10  21  37  58  84 113 143 175 218 275 335
#     4  11  22  36  57  82 107 140 185 232 276 325
#     4   9  19  37  58  81 113 151 187 226 273 324
#     4  11  22  34  51  77 109 144 180 220 267 321
#     4  10  22  39  56  75 104 143 185 232 284 334
#     4   9  19  34  51  74 107 144 181 222 269 323
#     4  10  19  32  51  74 101 136 179 225 269 316
#
# _framework density 19.366405
#
# number of rings (size 3 to 8) (size 9 to 14) (size 15 to 20)
#    0.000    2.125    0.000    4.125    0.000    8.000 
#    0.000    1.875    0.000    0.000    0.000    0.000 
#    0.000    0.000    0.000    0.000    0.000    0.000 
#
# Total GULP energy -793082.198596 kJ/mol
# GULP energy per Si atom -12391.909353 kJ/mol
# Density = 1.932233 g / cm^3
# Si number density = 19.366405 Si / 1000 Ang^3
#
#
#
# Elastic Constant Matrix: (Units=GPa)
#
#
# Indices 1 2 3 4 5 6 
#
# 1 76.8217 31.0518 41.1403 0.0000 0.0000 0.0000
# 2 31.0518 55.9380 41.2854 0.0000 0.0000 0.0000
# 3 41.1403 41.2854 101.6731 0.0000 0.0000 0.0000
# 4 0.0000 0.0000 0.0000 24.3439 0.0000 0.0000
# 5 0.0000 0.0000 0.0000 0.0000 28.3707 0.0000
# 6 0.0000 0.0000 0.0000 0.0000 0.0000 26.7107
#
#
#
# Elastic Compliance Matrix: (Units=1/GPa)
#
#
# Indices 1 2 3 4 5 6 
#
# 1 0.018208 -0.006668 -0.004660 0.000000 0.000000 0.000000
# 2 -0.006668 0.027969 -0.008659 0.000000 0.000000 0.000000
# 3 -0.004660 -0.008659 0.015237 0.000000 0.000000 0.000000
# 4 0.000000 0.000000 0.000000 0.041078 0.000000 0.000000
# 5 0.000000 0.000000 0.000000 0.000000 0.035248 0.000000
# 6 0.000000 0.000000 0.000000 0.000000 0.000000 0.037438
#
#
# Mechanical properties :
#
#
# Convention : Reuss Voigt Hill
#
# Bulk Modulus (GPa) = 46.64141 51.26531 48.95336
# Shear Modulus (GPa) = 22.49220 23.94876 23.22048
#
# Velocity S-wave (km/s) = 3.41163 3.52037 3.46643
# Velocity P-wave (km/s) = 6.29722 6.56146 6.43069
#
# Compressibility (1/GPa) = 0.02144018
#
# Stress axis : x y z
#
# Youngs Moduli (GPa) = 54.92096 35.75336 65.62939
#
# Poissons Ratio (x) = 0.23841 0.30582
# Poissons Ratio (y) = 0.36622 0.56829
# Poissons Ratio (z) = 0.25592 0.30959
#
# Static dielectric constant tensor:
#      x y z
#    x 3.527660 0.000000 0.000000 
#    y 0.000000 3.512350 0.000000 
#    z 0.000000 0.000000 3.545150 
# 
# 
# High freq. dielectric constant tensor:
#      x y z
#    x 1.750690 0.000000 0.000000 
#    y 0.000000 1.750240 0.000000 
#    z 0.000000 0.000000 1.748150 
# 
# From -- ./inp_files/21621.got.cif
#   From: 2010.03.12/outbox.cif.g09.slc.cpg/sg59_11_cif.got.tgz:21621.got - 2010.04.16 16:29:54.
