data_PCOD8241460
_publ_section_title
;
Structure prediction by ZEFSAII (Michael W. Deem and Ramdas Pophale) SiO2 
 PCOD8241460
Probable space group: P M M N
;
_chemical_formula_sum "Si O2"
_cell_formula_units_Z 64
_cell_length_a 18.112597
_cell_length_b 8.679505
_cell_length_c 21.515113
_cell_angle_alpha 90.000000
_cell_angle_beta 90.000000
_cell_angle_gamma 90.000000
_cell_volume 3382.355979
_symmetry_space_group_name_H-M "P M M N"
_symmetry_group_IT_number 59
_space_group.IT_coordinate_system_code '2'
_symmetry_cell_setting 'orthorhombic'
loop_
_space_group_symop_operation_xyz
x,y,z
1/2-x,1/2-y,z
1/2+x,-y,-z
-x,1/2+y,-z
-x,-y,-z
1/2+x,1/2+y,-z
1/2-x,y,z
x,1/2-y,z
loop_
_atom_site_type_symbol
_atom_site_label
_atom_site_fract_x
_atom_site_fract_y
_atom_site_fract_z
Si Si1 0.336242 0.427488 0.500134
Si Si2 0.081715 0.929769 0.749061
Si Si3 0.024593 0.568005 0.935182
Si Si4 0.168925 0.568480 0.868530
Si Si5 0.576230 0.570787 0.378646
Si Si6 0.450514 0.570268 0.180721
Si Si7 0.905659 0.428333 0.618299
Si Si8 0.834628 0.570253 0.737339
O O1 0.250000 0.450116 0.511166
O O2 0.355812 0.250000 0.484871
O O3 0.377512 0.483787 0.562044
O O4 0.362248 0.535145 0.444449
O O5 0.062022 0.750000 0.753219
O O6 0.146094 0.972550 0.797883
O O7 0.107273 0.976316 0.680325
O O8 0.008361 0.025507 0.765481
O O9 0.025515 0.750000 0.939936
O O10 0.106384 0.504949 0.916027
O O11 0.966207 0.519508 0.882922
O O12 0.000000 0.500000 0.000000
O O13 0.250000 0.495223 0.882386
O O14 0.173829 0.750000 0.876579
O O15 0.588514 0.750000 0.364910
O O16 0.491176 0.530974 0.391598
O O17 0.454114 0.750000 0.166764
O O18 0.370042 0.523458 0.205454
O O19 0.894473 0.250000 0.635951
O O20 0.873701 0.532955 0.672646
O O21 0.750000 0.519392 0.732787
O O22 0.843413 0.750000 0.751022
#
# Coordination Sequence:
#
# PCOD8241460 Si02
#       8
#     8   8   8   8   8   8   8   8
#     4  10  22  39  55  73 104 145 186 232 286 341
#     4  10  19  32  55  83 110 144 182 225 278 332
#     4  10  20  36  60  87 116 155 196 236 281 331
#     4   8  16  32  54  82 114 146 185 231 276 324
#     4  10  21  36  54  78 107 142 183 229 280 336
#     4  11  21  36  58  83 114 148 185 229 273 330
#     4  11  22  36  56  80 106 141 185 233 280 336
#     4  11  23  38  58  84 113 145 183 231 286 339
#
# _framework density 18.921721999999999
#
# number of rings (size 3 to 8) (size 9 to 14) (size 15 to 20)
#    0.000    1.875    1.250    4.125    0.000    4.250 
#    0.000    0.625    0.000   15.375    0.000    0.000 
#    0.000    0.000    0.000    0.000    0.000    0.000 
#
# Total GULP energy -793764.588490 kJ/mol
# GULP energy per Si atom -12402.571695 kJ/mol
# Density = 1.887866 g / cm^3
# Si number density = 18.921722 Si / 1000 Ang^3
#
#
#
# Elastic Constant Matrix: (Units=GPa)
#
#
# Indices 1 2 3 4 5 6 
#
# 1 121.9662 28.6627 58.1176 0.0000 0.0000 0.0000
# 2 28.6627 57.2175 22.7468 0.0000 0.0000 0.0000
# 3 58.1176 22.7468 119.8011 0.0000 0.0000 0.0000
# 4 0.0000 0.0000 0.0000 35.5262 0.0000 0.0000
# 5 0.0000 0.0000 0.0000 0.0000 22.6580 0.0000
# 6 0.0000 0.0000 0.0000 0.0000 0.0000 20.2581
#
#
#
# Elastic Compliance Matrix: (Units=1/GPa)
#
#
# Indices 1 2 3 4 5 6 
#
# 1 0.011377 -0.003791 -0.004799 0.000000 0.000000 0.000000
# 2 -0.003791 0.020167 -0.001990 0.000000 0.000000 0.000000
# 3 -0.004799 -0.001990 0.011053 0.000000 0.000000 0.000000
# 4 0.000000 0.000000 0.000000 0.028148 0.000000 0.000000
# 5 0.000000 0.000000 0.000000 0.000000 0.044135 0.000000
# 6 0.000000 0.000000 0.000000 0.000000 0.000000 0.049363
#
#
# Mechanical properties :
#
#
# Convention : Reuss Voigt Hill
#
# Bulk Modulus (GPa) = 46.64932 57.55987 52.10460
# Shear Modulus (GPa) = 25.96729 28.31895 27.14312
#
# Velocity S-wave (km/s) = 3.70855 3.87284 3.79158
# Velocity P-wave (km/s) = 6.56088 7.10525 6.83848
#
# Compressibility (1/GPa) = 0.02143654
#
# Stress axis : x y z
#
# Youngs Moduli (GPa) = 87.89808 49.58473 90.47131
#
# Poissons Ratio (x) = 0.18799 0.43419
# Poissons Ratio (y) = 0.33324 0.18004
# Poissons Ratio (z) = 0.42185 0.09868
#
# Static dielectric constant tensor:
#      x y z
#    x 1.073790 0.000000 0.000000 
#    y 0.000000 3.365150 0.000000 
#    z 0.000000 0.000000 3.526300 
# 
# 
# High freq. dielectric constant tensor:
#      x y z
#    x 1.735260 0.000000 0.000000 
#    y 0.000000 1.728860 0.000000 
#    z 0.000000 0.000000 1.734070 
# 
# From -- ./inp_files/30730.got.cif
#   From: 2010.03.12/outbox.cif.g09.slc.cpg/sg59_16_cif.got.tgz:30730.got - 2010.04.16 16:29:54.
