data_PCOD8241764
_publ_section_title
;
Structure prediction by ZEFSAII (Michael W. Deem and Ramdas Pophale) SiO2 
 PCOD8241764
Probable space group: P M M N
;
_chemical_formula_sum "Si O2"
_cell_formula_units_Z 64
_cell_length_a 8.638726
_cell_length_b 21.317465
_cell_length_c 16.997422
_cell_angle_alpha 90.000000
_cell_angle_beta 90.000000
_cell_angle_gamma 90.000000
_cell_volume 3130.172812
_symmetry_space_group_name_H-M "P M M N"
_symmetry_group_IT_number 59
_space_group.IT_coordinate_system_code '2'
_symmetry_cell_setting 'orthorhombic'
loop_
_space_group_symop_operation_xyz
x,y,z
1/2-x,1/2-y,z
1/2+x,-y,-z
-x,1/2+y,-z
-x,-y,-z
1/2+x,1/2+y,-z
1/2-x,y,z
x,1/2-y,z
loop_
_atom_site_type_symbol
_atom_site_label
_atom_site_fract_x
_atom_site_fract_y
_atom_site_fract_z
Si Si1 0.076501 0.320678 0.202138
Si Si2 0.575245 0.583053 0.666799
Si Si3 0.566591 0.179065 0.610711
Si Si4 0.069604 0.930298 0.505794
Si Si5 0.072806 0.597928 0.920371
Si Si6 0.931414 0.181871 0.945662
Si Si7 0.429360 0.870171 0.219770
Si Si8 0.068484 0.998558 0.798261
O O1 0.250000 0.329621 0.166833
O O2 0.033015 0.250000 0.218129
O O3 0.066325 0.352442 0.286760
O O4 0.948481 0.347317 0.143361
O O5 0.750000 0.567255 0.639147
O O6 0.464404 0.593549 0.592922
O O7 0.517933 0.526211 0.721081
O O8 0.750000 0.180571 0.603483
O O9 0.503835 0.250000 0.589965
O O10 0.500746 0.123022 0.554350
O O11 0.516362 0.163189 0.700121
O O12 0.250000 0.936419 0.489594
O O13 0.000000 0.000000 0.500000
O O14 0.250000 0.583426 0.937301
O O15 0.001769 0.535008 0.878899
O O16 0.995243 0.624332 0.001863
O O17 0.750000 0.181664 0.964490
O O18 0.000847 0.250000 0.970833
O O19 0.959519 0.176166 0.852777
O O20 0.250000 0.890915 0.225094
O O21 0.536787 0.928507 0.198551
O O22 0.250000 0.984078 0.790283
#
# Coordination Sequence:
#
# PCOD8241764 Si02
#       8
#     8   8   8   8   8   8   8   8
#     4   9  18  32  50  73 102 136 171 209 259 318
#     4  10  20  35  54  76 104 136 172 214 260 315
#     4   9  19  36  57  81 108 140 182 229 272 318
#     4  11  22  36  57  83 111 143 180 224 273 326
#     4   9  18  32  50  74 104 139 178 219 262 311
#     4   9  17  30  51  78 104 133 176 226 268 313
#     4  10  19  33  56  80 102 135 178 222 271 324
#     4  10  20  34  52  76 108 142 177 219 267 320
#
# _framework density 20.446155000000001
#
# number of rings (size 3 to 8) (size 9 to 14) (size 15 to 20)
#    0.000    2.375    0.000    2.625    0.000    5.250 
#    0.000    1.250    0.000    4.875    0.000    0.000 
#    0.000    0.000    0.000    0.000    0.000    0.000 
#
# Total GULP energy -792959.280105 kJ/mol
# GULP energy per Si atom -12389.988752 kJ/mol
# Density = 2.039962 g / cm^3
# Si number density = 20.446155 Si / 1000 Ang^3
#
#
#
# Elastic Constant Matrix: (Units=GPa)
#
#
# Indices 1 2 3 4 5 6 
#
# 1 23.6018 13.2088 3.0419 0.0000 0.0000 0.0000
# 2 13.2088 133.4583 39.8811 0.0000 0.0000 0.0000
# 3 3.0419 39.8811 114.0455 0.0000 0.0000 0.0000
# 4 0.0000 0.0000 0.0000 24.9124 0.0000 0.0000
# 5 0.0000 0.0000 0.0000 0.0000 15.5815 0.0000
# 6 0.0000 0.0000 0.0000 0.0000 0.0000 22.5687
#
#
#
# Elastic Compliance Matrix: (Units=1/GPa)
#
#
# Indices 1 2 3 4 5 6 
#
# 1 0.044870 -0.004560 0.000398 0.000000 0.000000 0.000000
# 2 -0.004560 0.008831 -0.002966 0.000000 0.000000 0.000000
# 3 0.000398 -0.002966 0.009795 0.000000 0.000000 0.000000
# 4 0.000000 0.000000 0.000000 0.040141 0.000000 0.000000
# 5 0.000000 0.000000 0.000000 0.000000 0.064179 0.000000
# 6 0.000000 0.000000 0.000000 0.000000 0.000000 0.044309
#
#
# Mechanical properties :
#
#
# Convention : Reuss Voigt Hill
#
# Bulk Modulus (GPa) = 20.30902 42.59658 31.45280
# Shear Modulus (GPa) = 20.59353 26.94411 23.76882
#
# Velocity S-wave (km/s) = 3.17710 3.63410 3.41326
# Velocity P-wave (km/s) = 4.83871 6.20384 5.56331
#
# Compressibility (1/GPa) = 0.04923920
#
# Stress axis : x y z
#
# Youngs Moduli (GPa) = 22.28644 113.24094 102.09110
#
# Poissons Ratio (x) = 0.51636 -0.04060
# Poissons Ratio (y) = 0.10162 0.30285
# Poissons Ratio (z) = -0.00886 0.33592
#
# Static dielectric constant tensor:
#      x y z
#    x 3.413060 0.000000 0.000000 
#    y 0.000000 3.878670 0.000000 
#    z 0.000000 0.000000 3.866180 
# 
# 
# High freq. dielectric constant tensor:
#      x y z
#    x 1.760060 0.000000 0.000000 
#    y 0.000000 1.807860 0.000000 
#    z 0.000000 0.000000 1.803070 
# 
# From -- ./inp_files/26252.got.cif
#   From: 2010.03.12/outbox.cif.g09.slc.cpg/sg59_14_cif.got.tgz:26252.got - 2010.04.16 16:29:54.
