data_PCOD8241543
_publ_section_title
;
Structure prediction by ZEFSAII (Michael W. Deem and Ramdas Pophale) SiO2 
 PCOD8241543
Probable space group: P M M N
;
_chemical_formula_sum "Si O2"
_cell_formula_units_Z 64
_cell_length_a 21.925854
_cell_length_b 22.464550
_cell_length_c 6.710843
_cell_angle_alpha 90.000000
_cell_angle_beta 90.000000
_cell_angle_gamma 90.000000
_cell_volume 3305.455539
_symmetry_space_group_name_H-M "P M M N"
_symmetry_group_IT_number 59
_space_group.IT_coordinate_system_code '2'
_symmetry_cell_setting 'orthorhombic'
loop_
_space_group_symop_operation_xyz
x,y,z
1/2-x,1/2-y,z
1/2+x,-y,-z
-x,1/2+y,-z
-x,-y,-z
1/2+x,1/2+y,-z
1/2-x,y,z
x,1/2-y,z
loop_
_atom_site_type_symbol
_atom_site_label
_atom_site_fract_x
_atom_site_fract_y
_atom_site_fract_z
Si Si1 0.117081 0.394713 0.353228
Si Si2 0.985578 0.402370 0.253529
Si Si3 0.088491 0.982402 0.505822
Si Si4 0.398544 0.181355 0.705811
Si Si5 0.405211 0.907493 0.125129
Si Si6 0.819334 0.905472 0.035393
Si Si7 0.179927 0.960454 0.829424
Si Si8 0.462104 0.818599 0.396294
O O1 0.105705 0.448233 0.510868
O O2 0.128374 0.336580 0.488720
O O3 0.056503 0.389390 0.219241
O O4 0.173578 0.404233 0.205251
O O5 0.974506 0.464368 0.378422
O O6 0.956849 0.349185 0.386952
O O7 0.958904 0.408565 0.035386
O O8 0.086318 0.962194 0.276790
O O9 0.141588 0.947307 0.629250
O O10 0.383211 0.250000 0.747616
O O11 0.365860 0.142317 0.874001
O O12 0.471385 0.170402 0.701670
O O13 0.410765 0.846045 0.248618
O O14 0.341438 0.916152 0.007879
O O15 0.750000 0.887687 0.088974
O O16 0.833397 0.971777 0.107930
O O17 0.250000 0.947506 0.784832
O O18 0.447020 0.750000 0.425678
#
# Coordination Sequence:
#
# PCOD8241543 Si02
#       8
#     8   8   8   8   8   8   8   8
#     4  11  20  35  55  79 107 147 184 231 283 339
#     4   9  20  32  51  81 117 143 178 224 282 338
#     4  10  19  33  52  80 111 146 184 222 277 341
#     4  10  22  40  57  76 107 147 190 236 284 333
#     4  10  19  35  55  87 115 143 181 227 280 335
#     4  11  23  37  55  79 108 148 196 240 282 328
#     4  10  21  36  54  80 114 150 188 230 278 330
#     4   9  19  36  58  83 111 145 184 225 277 342
#
# _framework density 19.361930000000001
#
# number of rings (size 3 to 8) (size 9 to 14) (size 15 to 20)
#    0.000    2.000    2.500    1.125    0.000    3.250 
#    0.000    2.500    0.000    0.375    0.000    0.000 
#    0.000    0.000    0.000    0.000    0.000    0.000 
#
# Total GULP energy -793338.821542 kJ/mol
# GULP energy per Si atom -12395.919087 kJ/mol
# Density = 1.931786 g / cm^3
# Si number density = 19.361930 Si / 1000 Ang^3
#
#
#
# Elastic Constant Matrix: (Units=GPa)
#
#
# Indices 1 2 3 4 5 6 
#
# 1 45.3045 28.7719 24.6802 0.0000 0.0000 0.0000
# 2 28.7719 94.5815 31.0073 0.0000 0.0000 0.0000
# 3 24.6802 31.0073 94.3762 0.0000 0.0000 0.0000
# 4 0.0000 0.0000 0.0000 22.8000 0.0000 0.0000
# 5 0.0000 0.0000 0.0000 0.0000 23.4618 0.0000
# 6 0.0000 0.0000 0.0000 0.0000 0.0000 22.1948
#
#
#
# Elastic Compliance Matrix: (Units=1/GPa)
#
#
# Indices 1 2 3 4 5 6 
#
# 1 0.029593 -0.007246 -0.005358 0.000000 0.000000 0.000000
# 2 -0.007246 0.013623 -0.002581 0.000000 0.000000 0.000000
# 3 -0.005358 -0.002581 0.012845 0.000000 0.000000 0.000000
# 4 0.000000 0.000000 0.000000 0.043860 0.000000 0.000000
# 5 0.000000 0.000000 0.000000 0.000000 0.042622 0.000000
# 6 0.000000 0.000000 0.000000 0.000000 0.000000 0.045056
#
#
# Mechanical properties :
#
#
# Convention : Reuss Voigt Hill
#
# Bulk Modulus (GPa) = 38.92338 44.79790 41.86064
# Shear Modulus (GPa) = 22.07178 23.67820 22.87499
#
# Velocity S-wave (km/s) = 3.37999 3.50083 3.44094
# Velocity P-wave (km/s) = 5.94803 6.28716 6.11995
#
# Compressibility (1/GPa) = 0.02569150
#
# Stress axis : x y z
#
# Youngs Moduli (GPa) = 33.79123 73.40396 77.85028
#
# Poissons Ratio (x) = 0.53187 0.41715
# Poissons Ratio (y) = 0.24484 0.20094
# Poissons Ratio (z) = 0.18107 0.18946
#
# Static dielectric constant tensor:
#      x y z
#    x 3.408870 0.000000 0.000000 
#    y 0.000000 3.444660 0.000000 
#    z 0.000000 0.000000 3.532590 
# 
# 
# High freq. dielectric constant tensor:
#      x y z
#    x 1.733550 0.000000 0.000000 
#    y 0.000000 1.735460 0.000000 
#    z 0.000000 0.000000 1.765210 
# 
# From -- ./inp_files/3941.got.cif
#   From: 2010.03.12/outbox.cif.g09.slc.cpg/sg59_2_cif.got.tgz:3941.got - 2010.04.16 16:29:54.
