data_PCOD8241607
_publ_section_title
;
Structure prediction by ZEFSAII (Michael W. Deem and Ramdas Pophale) SiO2 
 PCOD8241607
Probable space group: P M M N
;
_chemical_formula_sum "Si O2"
_cell_formula_units_Z 64
_cell_length_a 9.052291
_cell_length_b 18.867760
_cell_length_c 20.317833
_cell_angle_alpha 90.000000
_cell_angle_beta 90.000000
_cell_angle_gamma 90.000000
_cell_volume 3470.213830
_symmetry_space_group_name_H-M "P M M N"
_symmetry_group_IT_number 59
_space_group.IT_coordinate_system_code '2'
_symmetry_cell_setting 'orthorhombic'
loop_
_space_group_symop_operation_xyz
x,y,z
1/2-x,1/2-y,z
1/2+x,-y,-z
-x,1/2+y,-z
-x,-y,-z
1/2+x,1/2+y,-z
1/2-x,y,z
x,1/2-y,z
loop_
_atom_site_type_symbol
_atom_site_label
_atom_site_fract_x
_atom_site_fract_y
_atom_site_fract_z
Si Si1 0.916617 0.334387 0.589093
Si Si2 0.416536 0.334433 0.461230
Si Si3 0.921496 0.331279 0.331387
Si Si4 0.575352 0.328737 0.081513
Si Si5 0.425008 0.932850 0.180481
Si Si6 0.922899 0.067512 0.969891
Si Si7 0.424238 0.920864 0.796328
Si Si8 0.920036 0.833787 0.280228
O O1 0.750000 0.363915 0.593438
O O2 0.916268 0.250000 0.587036
O O3 0.993025 0.364995 0.523328
O O4 0.008394 0.361367 0.651892
O O5 0.250000 0.363273 0.465316
O O6 0.420233 0.250000 0.462991
O O7 0.489289 0.361575 0.393684
O O8 0.750000 0.337902 0.348773
O O9 0.963721 0.250000 0.315976
O O10 0.965027 0.376972 0.268384
O O11 0.750000 0.322859 0.088807
O O12 0.505184 0.250000 0.084958
O O13 0.515043 0.376880 0.141133
O O14 0.530379 0.363472 0.011883
O O15 0.250000 0.933206 0.189321
O O16 0.472720 0.921167 0.104944
O O17 0.493310 0.867457 0.219616
O O18 0.490440 0.005564 0.208134
O O19 0.750000 0.053613 0.975252
O O20 0.000000 0.000000 0.000000
O O21 0.250000 0.935447 0.802107
O O22 0.750000 0.857794 0.279494
O O23 0.936192 0.750000 0.273322
#
# Coordination Sequence:
#
# PCOD8241607 Si02
#       8
#     8   8   8   8   8   8   8   8
#     4   9  16  28  49  76 106 138 173 219 269 316
#     4   9  16  26  43  70 104 142 180 217 263 319
#     4   9  17  29  47  74 105 137 179 229 274 315
#     4   9  17  31  54  82 106 134 177 225 271 318
#     4  11  23  36  54  80 109 144 180 218 266 324
#     4  10  20  35  56  79 105 140 179 222 267 320
#     4  10  19  33  54  76 103 142 182 224 268 319
#     4  10  21  37  57  81 108 139 177 222 270 321
#
# _framework density 18.442668000000001
#
# number of rings (size 3 to 8) (size 9 to 14) (size 15 to 20)
#    0.000    2.375    1.250    1.875    0.000    6.750 
#    0.000    1.250    0.000    3.000    0.000    0.000 
#    0.000    0.000    0.000    0.000    0.000    0.000 
#
# Total GULP energy -793674.817734 kJ/mol
# GULP energy per Si atom -12401.169027 kJ/mol
# Density = 1.840069 g / cm^3
# Si number density = 18.442668 Si / 1000 Ang^3
#
#
#
# Elastic Constant Matrix: (Units=GPa)
#
#
# Indices 1 2 3 4 5 6 
#
# 1 88.5930 28.4502 67.8164 0.0000 0.0000 0.0000
# 2 28.4502 53.8785 40.1038 0.0000 0.0000 0.0000
# 3 67.8164 40.1038 165.8134 0.0000 0.0000 0.0000
# 4 0.0000 0.0000 0.0000 17.6501 0.0000 0.0000
# 5 0.0000 0.0000 0.0000 0.0000 28.0800 0.0000
# 6 0.0000 0.0000 0.0000 0.0000 0.0000 22.4968
#
#
#
# Elastic Compliance Matrix: (Units=1/GPa)
#
#
# Indices 1 2 3 4 5 6 
#
# 1 0.017370 -0.004737 -0.005958 0.000000 0.000000 0.000000
# 2 -0.004737 0.023927 -0.003850 0.000000 0.000000 0.000000
# 3 -0.005958 -0.003850 0.009399 0.000000 0.000000 0.000000
# 4 0.000000 0.000000 0.000000 0.056657 0.000000 0.000000
# 5 0.000000 0.000000 0.000000 0.000000 0.035613 0.000000
# 6 0.000000 0.000000 0.000000 0.000000 0.000000 0.044451
#
#
# Mechanical properties :
#
#
# Convention : Reuss Voigt Hill
#
# Bulk Modulus (GPa) = 46.28401 64.55841 55.42121
# Shear Modulus (GPa) = 22.35058 25.10636 23.72847
#
# Velocity S-wave (km/s) = 3.48501 3.69361 3.59082
# Velocity P-wave (km/s) = 6.42995 7.29872 6.87807
#
# Compressibility (1/GPa) = 0.02160574
#
# Stress axis : x y z
#
# Youngs Moduli (GPa) = 57.57103 41.79372 106.39524
#
# Poissons Ratio (x) = 0.19797 0.63395
# Poissons Ratio (y) = 0.27271 0.40958
# Poissons Ratio (z) = 0.34303 0.16089
#
# Static dielectric constant tensor:
#      x y z
#    x 3.363610 0.000000 0.000000 
#    y 0.000000 3.044620 0.000000 
#    z 0.000000 0.000000 3.645250 
# 
# 
# High freq. dielectric constant tensor:
#      x y z
#    x 1.707550 0.000000 0.000000 
#    y 0.000000 1.684690 0.000000 
#    z 0.000000 0.000000 1.731890 
# 
# From -- ./inp_files/29539.got.cif
#   From: 2010.03.12/outbox.cif.g09.slc.cpg/sg59_15_cif.got.tgz:29539.got - 2010.04.16 16:29:54.
