data_PCOD8241398
_publ_section_title
;
Structure prediction by ZEFSAII (Michael W. Deem and Ramdas Pophale) SiO2 
 PCOD8241398
Probable space group: P M M N
;
_chemical_formula_sum "Si O2"
_cell_formula_units_Z 64
_cell_length_a 18.478513
_cell_length_b 9.338048
_cell_length_c 19.700172
_cell_angle_alpha 90.000000
_cell_angle_beta 90.000000
_cell_angle_gamma 90.000000
_cell_volume 3399.328534
_symmetry_space_group_name_H-M "P M M N"
_symmetry_group_IT_number 59
_space_group.IT_coordinate_system_code '2'
_symmetry_cell_setting 'orthorhombic'
loop_
_space_group_symop_operation_xyz
x,y,z
1/2-x,1/2-y,z
1/2+x,-y,-z
-x,1/2+y,-z
-x,-y,-z
1/2+x,1/2+y,-z
1/2-x,y,z
x,1/2-y,z
loop_
_atom_site_type_symbol
_atom_site_label
_atom_site_fract_x
_atom_site_fract_y
_atom_site_fract_z
Si Si1 0.414977 0.416983 0.090620
Si Si2 0.898799 0.415644 0.661962
Si Si3 0.833366 0.083514 0.521814
Si Si4 0.553655 0.915858 0.278268
Si Si5 0.069942 0.918075 0.859775
Si Si6 0.666779 0.586952 0.780141
Si Si7 0.832788 0.583925 0.390392
Si Si8 0.334466 0.417596 0.958281
O O1 0.396490 0.250000 0.091446
O O2 0.500640 0.447248 0.091800
O O3 0.378714 0.483964 0.158131
O O4 0.378404 0.480771 0.022871
O O5 0.878780 0.250000 0.670215
O O6 0.881887 0.466226 0.585459
O O7 0.846410 0.500074 0.712011
O O8 0.982201 0.446681 0.677956
O O9 0.750000 0.044703 0.537365
O O10 0.843104 0.250000 0.506515
O O11 0.861793 0.000331 0.455825
O O12 0.557496 0.750000 0.255196
O O13 0.621654 0.959198 0.324395
O O14 0.553725 0.017818 0.213642
O O15 0.085667 0.750000 0.852329
O O16 0.139029 0.996227 0.892274
O O17 0.750000 0.578747 0.801124
O O18 0.641893 0.750000 0.767202
O O19 0.750000 0.543309 0.374240
O O20 0.842510 0.750000 0.407158
O O21 0.250000 0.447015 0.969496
O O22 0.350120 0.250000 0.946384
#
# Coordination Sequence:
#
# PCOD8241398 Si02
#       8
#     8   8   8   8   8   8   8   8
#     4   9  18  35  57  82 110 144 182 221 269 323
#     4  10  20  34  52  76 110 146 181 222 267 324
#     4   9  18  33  52  75 106 142 177 217 273 333
#     4  10  21  37  56  79 108 145 187 226 270 328
#     4  11  22  37  58  83 114 146 180 229 279 325
#     4  10  19  32  53  80 110 144 183 223 263 315
#     4   9  19  36  56  77 102 135 180 231 275 319
#     4  10  21  38  60  83 109 145 187 227 271 329
#
# _framework density 18.827245999999999
#
# number of rings (size 3 to 8) (size 9 to 14) (size 15 to 20)
#    0.000    2.250    1.250    1.500    0.000    4.500 
#    0.000    3.750    0.000    1.500    0.000    0.000 
#    0.000    0.000    0.000    0.000    0.000    0.000 
#
# Total GULP energy -793772.989880 kJ/mol
# GULP energy per Si atom -12402.702967 kJ/mol
# Density = 1.878439 g / cm^3
# Si number density = 18.827246 Si / 1000 Ang^3
#
#
#
# Elastic Constant Matrix: (Units=GPa)
#
#
# Indices 1 2 3 4 5 6 
#
# 1 83.3989 39.4342 52.5992 0.0000 0.0000 0.0000
# 2 39.4342 60.3193 48.6657 0.0000 0.0000 0.0000
# 3 52.5992 48.6657 101.6673 0.0000 0.0000 0.0000
# 4 0.0000 0.0000 0.0000 31.7028 0.0000 0.0000
# 5 0.0000 0.0000 0.0000 0.0000 38.6401 0.0000
# 6 0.0000 0.0000 0.0000 0.0000 0.0000 23.8460
#
#
#
# Elastic Compliance Matrix: (Units=1/GPa)
#
#
# Indices 1 2 3 4 5 6 
#
# 1 0.019725 -0.007595 -0.006569 0.000000 0.000000 0.000000
# 2 -0.007595 0.029934 -0.010399 0.000000 0.000000 0.000000
# 3 -0.006569 -0.010399 0.018213 0.000000 0.000000 0.000000
# 4 0.000000 0.000000 0.000000 0.031543 0.000000 0.000000
# 5 0.000000 0.000000 0.000000 0.000000 0.025880 0.000000
# 6 0.000000 0.000000 0.000000 0.000000 0.000000 0.041936
#
#
# Mechanical properties :
#
#
# Convention : Reuss Voigt Hill
#
# Bulk Modulus (GPa) = 53.35024 58.53153 55.94089
# Shear Modulus (GPa) = 22.46121 25.81688 24.13905
#
# Velocity S-wave (km/s) = 3.45775 3.70706 3.58457
# Velocity P-wave (km/s) = 6.65880 7.03415 6.84905
#
# Compressibility (1/GPa) = 0.01874406
#
# Stress axis : x y z
#
# Youngs Moduli (GPa) = 50.69651 33.40691 54.90691
#
# Poissons Ratio (x) = 0.25373 0.36071
# Poissons Ratio (y) = 0.38505 0.57098
# Poissons Ratio (z) = 0.33305 0.34740
#
# Static dielectric constant tensor:
#      x y z
#    x 3.482690 0.000000 0.000000 
#    y 0.000000 3.290220 0.000000 
#    z 0.000000 0.000000 3.494190 
# 
# 
# High freq. dielectric constant tensor:
#      x y z
#    x 1.734770 0.000000 0.000000 
#    y 0.000000 1.712670 0.000000 
#    z 0.000000 0.000000 1.736180 
# 
# From -- ./inp_files/30802.got.cif
#   From: 2010.03.12/outbox.cif.g09.slc.cpg/sg59_16_cif.got.tgz:30802.got - 2010.04.16 16:29:54.
