data_PCOD8241629
_publ_section_title
;
Structure prediction by ZEFSAII (Michael W. Deem and Ramdas Pophale) SiO2 
 PCOD8241629
Probable space group: P M M N
;
_chemical_formula_sum "Si O2"
_cell_formula_units_Z 64
_cell_length_a 8.780271
_cell_length_b 15.918694
_cell_length_c 23.104543
_cell_angle_alpha 90.000000
_cell_angle_beta 90.000000
_cell_angle_gamma 90.000000
_cell_volume 3229.332309
_symmetry_space_group_name_H-M "P M M N"
_symmetry_group_IT_number 59
_space_group.IT_coordinate_system_code '2'
_symmetry_cell_setting 'orthorhombic'
loop_
_space_group_symop_operation_xyz
x,y,z
1/2-x,1/2-y,z
1/2+x,-y,-z
-x,1/2+y,-z
-x,-y,-z
1/2+x,1/2+y,-z
1/2-x,y,z
x,1/2-y,z
loop_
_atom_site_type_symbol
_atom_site_label
_atom_site_fract_x
_atom_site_fract_y
_atom_site_fract_z
Si Si1 0.581582 0.655764 0.970738
Si Si2 0.573510 0.000279 0.242415
Si Si3 0.927100 0.082290 0.128047
Si Si4 0.074556 0.924978 0.075836
Si Si5 0.926462 0.158562 0.806628
Si Si6 0.570350 0.154234 0.575836
Si Si7 0.928508 0.488629 0.373522
Si Si8 0.927816 0.654639 0.548270
O O1 0.750000 0.614625 0.973276
O O2 0.591320 0.750000 0.992545
O O3 0.519116 0.655930 0.904351
O O4 0.465157 0.608559 0.012652
O O5 0.750000 0.988142 0.230434
O O6 0.502030 0.909032 0.234976
O O7 0.539776 0.033427 0.306505
O O8 0.511672 0.066123 0.193844
O O9 0.750000 0.104658 0.128271
O O10 0.962038 0.001393 0.088753
O O11 0.250000 0.954301 0.076802
O O12 0.044512 0.855912 0.125280
O O13 0.750000 0.155486 0.791951
O O14 0.994316 0.250000 0.791189
O O15 0.750000 0.140811 0.580920
O O16 0.525903 0.250000 0.595584
O O17 0.488039 0.082906 0.613904
O O18 0.521322 0.140250 0.509979
O O19 0.750000 0.485132 0.388508
O O20 0.016423 0.415509 0.407080
O O21 0.750000 0.640420 0.535496
O O22 0.956384 0.750000 0.571756
#
# Coordination Sequence:
#
# PCOD8241629 Si02
#       8
#     8   8   8   8   8   8   8   8
#     4  11  23  36  51  75 104 131 164 209 261 315
#     4   9  21  38  54  75 102 138 182 221 260 311
#     4  10  20  37  57  74  98 133 173 213 256 308
#     4  10  19  33  54  78 104 133 167 207 256 316
#     4   9  18  32  51  76 105 137 173 215 263 314
#     4  10  21  37  58  86 120 155 188 223 268 323
#     4  11  22  37  58  83 114 150 188 231 276 324
#     4  10  21  38  60  86 115 147 186 231 278 328
#
# _framework density 19.818339000000002
#
# number of rings (size 3 to 8) (size 9 to 14) (size 15 to 20)
#    0.000    2.000    0.000    3.375    0.000    5.750 
#    0.000    3.125    0.000    3.750    0.000    0.000 
#    0.000    0.000    0.000    0.000    0.000    0.000 
#
# Total GULP energy -793303.183162 kJ/mol
# GULP energy per Si atom -12395.362237 kJ/mol
# Density = 1.977323 g / cm^3
# Si number density = 19.818339 Si / 1000 Ang^3
#
#
#
# Elastic Constant Matrix: (Units=GPa)
#
#
# Indices 1 2 3 4 5 6 
#
# 1 54.5979 14.0390 19.7433 0.0000 0.0000 0.0000
# 2 14.0390 65.7445 21.5250 0.0000 0.0000 0.0000
# 3 19.7433 21.5250 72.0411 0.0000 0.0000 0.0000
# 4 0.0000 0.0000 0.0000 17.6955 0.0000 0.0000
# 5 0.0000 0.0000 0.0000 0.0000 28.0359 0.0000
# 6 0.0000 0.0000 0.0000 0.0000 0.0000 28.0506
#
#
#
# Elastic Compliance Matrix: (Units=1/GPa)
#
#
# Indices 1 2 3 4 5 6 
#
# 1 0.020803 -0.002855 -0.004848 0.000000 0.000000 0.000000
# 2 -0.002855 0.017251 -0.004372 0.000000 0.000000 0.000000
# 3 -0.004848 -0.004372 0.016516 0.000000 0.000000 0.000000
# 4 0.000000 0.000000 0.000000 0.056512 0.000000 0.000000
# 5 0.000000 0.000000 0.000000 0.000000 0.035669 0.000000
# 6 0.000000 0.000000 0.000000 0.000000 0.000000 0.035650
#
#
# Mechanical properties :
#
#
# Convention : Reuss Voigt Hill
#
# Bulk Modulus (GPa) = 32.87310 33.66645 33.26978
# Shear Modulus (GPa) = 23.07434 23.89481 23.48457
#
# Velocity S-wave (km/s) = 3.41587 3.47607 3.44611
# Velocity P-wave (km/s) = 5.67281 5.75632 5.71472
#
# Compressibility (1/GPa) = 0.03042001
#
# Stress axis : x y z
#
# Youngs Moduli (GPa) = 48.06999 57.96600 60.54744
#
# Poissons Ratio (x) = 0.16549 0.29354
# Poissons Ratio (y) = 0.13724 0.26472
# Poissons Ratio (z) = 0.23305 0.25343
#
# Static dielectric constant tensor:
#      x y z
#    x 3.641610 0.000000 0.000000 
#    y 0.000000 3.798590 0.000000 
#    z 0.000000 0.000000 3.664170 
# 
# 
# High freq. dielectric constant tensor:
#      x y z
#    x 1.777900 0.000000 0.000000 
#    y 0.000000 1.768360 0.000000 
#    z 0.000000 0.000000 1.767050 
# 
# From -- ./inp_files/29427.got.cif
#   From: 2010.03.12/outbox.cif.g09.slc.cpg/sg59_15_cif.got.tgz:29427.got - 2010.04.16 16:29:54.
