data_PCOD8241736
_publ_section_title
;
Structure prediction by ZEFSAII (Michael W. Deem and Ramdas Pophale) SiO2 
 PCOD8241736
Probable space group: P M M N
;
_chemical_formula_sum "Si O2"
_cell_formula_units_Z 64
_cell_length_a 8.926730
_cell_length_b 19.975091
_cell_length_c 19.830399
_cell_angle_alpha 90.000000
_cell_angle_beta 90.000000
_cell_angle_gamma 90.000000
_cell_volume 3536.002947
_symmetry_space_group_name_H-M "P M M N"
_symmetry_group_IT_number 59
_space_group.IT_coordinate_system_code '2'
_symmetry_cell_setting 'orthorhombic'
loop_
_space_group_symop_operation_xyz
x,y,z
1/2-x,1/2-y,z
1/2+x,-y,-z
-x,1/2+y,-z
-x,-y,-z
1/2+x,1/2+y,-z
1/2-x,y,z
x,1/2-y,z
loop_
_atom_site_type_symbol
_atom_site_label
_atom_site_fract_x
_atom_site_fract_y
_atom_site_fract_z
Si Si1 0.076327 0.078559 0.161427
Si Si2 0.424595 0.325945 0.915399
Si Si3 0.075988 0.456657 0.662163
Si Si4 0.075072 0.440651 0.813847
Si Si5 0.419405 0.410038 0.313257
Si Si6 0.921635 0.826190 0.561485
Si Si7 0.926269 0.066861 0.528909
Si Si8 0.926487 0.326293 0.053854
O O1 0.250000 0.078112 0.142151
O O2 0.046838 0.108672 0.235886
O O3 0.990390 0.126003 0.110680
O O4 0.016300 0.002945 0.156370
O O5 0.250000 0.332074 0.931888
O O6 0.467713 0.250000 0.894974
O O7 0.471022 0.373993 0.853955
O O8 0.512857 0.349615 0.981443
O O9 0.250000 0.448317 0.645582
O O10 0.034296 0.427129 0.735620
O O11 0.034943 0.534892 0.659964
O O12 0.982313 0.418280 0.604926
O O13 0.250000 0.457734 0.821279
O O14 0.250000 0.438943 0.319281
O O15 0.439865 0.344841 0.359584
O O16 0.750000 0.837409 0.538515
O O17 0.971637 0.750000 0.552865
O O18 0.030395 0.869905 0.515862
O O19 0.750000 0.056625 0.528566
O O20 0.000000 0.000000 0.500000
O O21 0.750000 0.333305 0.053160
O O22 0.977296 0.250000 0.068523
#
# Coordination Sequence:
#
# PCOD8241736 Si02
#       8
#     8   8   8   8   8   8   8   8
#     4  10  20  33  53  81 110 142 181 221 265 319
#     4   9  18  35  58  80 103 137 181 226 271 322
#     4  10  19  33  55  82 109 139 177 221 269 323
#     4   9  19  35  55  81 112 140 174 223 275 326
#     4   9  18  33  53  77 106 140 178 219 265 319
#     4  10  21  37  56  80 111 144 180 225 276 328
#     4  12  23  36  57  82 108 143 187 229 269 321
#     4  10  21  36  53  75 105 142 182 224 271 324
#
# _framework density 18.099533000000001
#
# number of rings (size 3 to 8) (size 9 to 14) (size 15 to 20)
#    0.000    2.125    1.250    2.250    0.000    3.500 
#    0.000    1.875    0.000    2.250    0.000    0.000 
#    0.000    0.000    0.000    0.000    0.000    0.000 
#
# Total GULP energy -793713.117815 kJ/mol
# GULP energy per Si atom -12401.767466 kJ/mol
# Density = 1.805834 g / cm^3
# Si number density = 18.099533 Si / 1000 Ang^3
#
#
#
# Elastic Constant Matrix: (Units=GPa)
#
#
# Indices 1 2 3 4 5 6 
#
# 1 85.0164 46.1999 56.3921 0.0000 0.0000 0.0000
# 2 46.1999 102.1243 76.5604 0.0000 0.0000 0.0000
# 3 56.3921 76.5604 134.4518 0.0000 0.0000 0.0000
# 4 0.0000 0.0000 0.0000 30.9939 0.0000 0.0000
# 5 0.0000 0.0000 0.0000 0.0000 29.0227 0.0000
# 6 0.0000 0.0000 0.0000 0.0000 0.0000 25.9196
#
#
#
# Elastic Compliance Matrix: (Units=1/GPa)
#
#
# Indices 1 2 3 4 5 6 
#
# 1 0.017249 -0.004152 -0.004870 0.000000 0.000000 0.000000
# 2 -0.004152 0.018085 -0.008557 0.000000 0.000000 0.000000
# 3 -0.004870 -0.008557 0.014353 0.000000 0.000000 0.000000
# 4 0.000000 0.000000 0.000000 0.032264 0.000000 0.000000
# 5 0.000000 0.000000 0.000000 0.000000 0.034456 0.000000
# 6 0.000000 0.000000 0.000000 0.000000 0.000000 0.038581
#
#
# Mechanical properties :
#
#
# Convention : Reuss Voigt Hill
#
# Bulk Modulus (GPa) = 68.82881 75.54415 72.18648
# Shear Modulus (GPa) = 25.64238 26.68325 26.16282
#
# Velocity S-wave (km/s) = 3.76805 3.84376 3.80609
# Velocity P-wave (km/s) = 7.55258 7.84399 7.69966
#
# Compressibility (1/GPa) = 0.01452880
#
# Stress axis : x y z
#
# Youngs Moduli (GPa) = 57.97293 55.29418 69.67316
#
# Poissons Ratio (x) = 0.22959 0.33934
# Poissons Ratio (y) = 0.24071 0.59617
# Poissons Ratio (z) = 0.28235 0.47313
#
# Static dielectric constant tensor:
#      x y z
#    x 3.391200 0.000000 0.000000 
#    y 0.000000 3.232280 0.000000 
#    z 0.000000 0.000000 3.566890 
# 
# 
# High freq. dielectric constant tensor:
#      x y z
#    x 1.705940 0.000000 0.000000 
#    y 0.000000 1.682440 0.000000 
#    z 0.000000 0.000000 1.710650 
# 
# From -- ./inp_files/28182.got.cif
#   From: 2010.03.12/outbox.cif.g09.slc.cpg/sg59_15_cif.got.tgz:28182.got - 2010.04.16 16:29:54.
