data_PCOD8241893
_publ_section_title
;
Structure prediction by ZEFSAII (Michael W. Deem and Ramdas Pophale) SiO2 
 PCOD8241893
Probable space group: P M M N
;
_chemical_formula_sum "Si O2"
_cell_formula_units_Z 56
_cell_length_a 15.003315
_cell_length_b 15.696475
_cell_length_c 11.826145
_cell_angle_alpha 90.000000
_cell_angle_beta 90.000000
_cell_angle_gamma 90.000000
_cell_volume 2785.047200
_symmetry_space_group_name_H-M "P M M N"
_symmetry_group_IT_number 59
_space_group.IT_coordinate_system_code '2'
_symmetry_cell_setting 'orthorhombic'
loop_
_space_group_symop_operation_xyz
x,y,z
1/2-x,1/2-y,z
1/2+x,-y,-z
-x,1/2+y,-z
-x,-y,-z
1/2+x,1/2+y,-z
1/2-x,y,z
x,1/2-y,z
loop_
_atom_site_type_symbol
_atom_site_label
_atom_site_fract_x
_atom_site_fract_y
_atom_site_fract_z
Si Si1 0.967017 0.654608 0.720839
Si Si2 0.153980 0.591966 0.450653
Si Si3 0.851765 0.108917 0.180788
Si Si4 0.029903 0.156857 0.537910
Si Si5 0.648531 0.998718 0.774580
Si Si6 0.152996 0.030661 0.656004
Si Si7 0.354083 0.654112 0.074762
O O1 0.928254 0.750000 0.740739
O O2 0.953621 0.627124 0.590309
O O3 0.913077 0.585053 0.795990
O O4 0.072146 0.659300 0.750564
O O5 0.250000 0.638799 0.438598
O O6 0.146900 0.517311 0.358374
O O7 0.145537 0.549344 0.572689
O O8 0.075424 0.659688 0.435604
O O9 0.750000 0.142773 0.205678
O O10 0.858495 0.009170 0.218231
O O11 0.874748 0.119308 0.049789
O O12 0.069697 0.250000 0.557095
O O13 0.075822 0.096689 0.629640
O O14 0.750000 0.978975 0.815571
O O15 0.608434 0.082138 0.839357
O O16 0.250000 0.075063 0.643864
O O17 0.250000 0.662449 0.096683
O O18 0.395924 0.750000 0.092278
#
# Coordination Sequence:
#
# PCOD8241893 Si02
#       7
#     8   8   8   8   8   8   8
#     4  11  22  34  53  83 116 150 189 229 270 325
#     4  10  19  34  55  79 107 142 183 226 280 339
#     4  10  20  36  59  82 106 140 181 231 283 330
#     4  11  22  34  51  79 116 151 184 227 275 329
#     4  10  21  37  58  80 111 152 187 226 277 328
#     4  10  19  34  56  79 106 144 185 227 276 331
#     4   9  19  37  60  84 110 142 183 230 281 337
#
# _framework density 20.107379999999999
#
# number of rings (size 3 to 8) (size 9 to 14) (size 15 to 20)
#    0.000    1.857    2.857    1.714    0.000    2.857 
#    0.000    4.286    0.000    0.857    0.000    4.000 
#    0.000    0.000    0.000    0.000    0.000    0.000 
#
# Total GULP energy -693864.174322 kJ/mol
# GULP energy per Si atom -12390.431684 kJ/mol
# Density = 2.006161 g / cm^3
# Si number density = 20.107380 Si / 1000 Ang^3
#
#
#
# Elastic Constant Matrix: (Units=GPa)
#
#
# Indices 1 2 3 4 5 6 
#
# 1 88.8812 61.2455 22.5288 0.0000 0.0000 0.0000
# 2 61.2455 124.7703 51.2301 0.0000 0.0000 0.0000
# 3 22.5288 51.2301 55.2870 0.0000 0.0000 0.0000
# 4 0.0000 0.0000 0.0000 29.0663 0.0000 0.0000
# 5 0.0000 0.0000 0.0000 0.0000 20.4484 0.0000
# 6 0.0000 0.0000 0.0000 0.0000 0.0000 14.6411
#
#
#
# Elastic Compliance Matrix: (Units=1/GPa)
#
#
# Indices 1 2 3 4 5 6 
#
# 1 0.017060 -0.008909 0.001304 0.000000 0.000000 0.000000
# 2 -0.008909 0.017590 -0.012668 0.000000 0.000000 0.000000
# 3 0.001304 -0.012668 0.029295 0.000000 0.000000 0.000000
# 4 0.000000 0.000000 0.000000 0.034404 0.000000 0.000000
# 5 0.000000 0.000000 0.000000 0.000000 0.048904 0.000000
# 6 0.000000 0.000000 0.000000 0.000000 0.000000 0.068301
#
#
# Mechanical properties :
#
#
# Convention : Reuss Voigt Hill
#
# Bulk Modulus (GPa) = 42.74133 59.88301 51.31217
# Shear Modulus (GPa) = 18.94664 21.76012 20.35338
#
# Velocity S-wave (km/s) = 3.07298 3.29324 3.18501
# Velocity P-wave (km/s) = 5.82182 6.65634 6.25302
#
# Compressibility (1/GPa) = 0.02339656
#
# Stress axis : x y z
#
# Youngs Moduli (GPa) = 58.61772 56.85149 34.13566
#
# Poissons Ratio (x) = 0.50652 -0.04452
# Poissons Ratio (y) = 0.52225 0.43245
# Poissons Ratio (z) = -0.07644 0.72022
#
# Static dielectric constant tensor:
#      x y z
#    x 3.679110 0.000000 0.000000 
#    y 0.000000 3.522830 0.000000 
#    z 0.000000 0.000000 3.562280 
# 
# 
# High freq. dielectric constant tensor:
#      x y z
#    x 1.775770 0.000000 0.000000 
#    y 0.000000 1.766920 0.000000 
#    z 0.000000 0.000000 1.767130 
# 
# From -- ./inp_files/16946.got.cif
#   From: 2010.03.12/outbox.cif.g09.slc.cpg/sg59_9_cif.got.tgz:16946.got - 2010.04.16 16:29:54.
