data_PCOD8241840
_publ_section_title
;
Structure prediction by ZEFSAII (Michael W. Deem and Ramdas Pophale) SiO2 
 PCOD8241840
Probable space group: P M M N
;
_chemical_formula_sum "Si O2"
_cell_formula_units_Z 64
_cell_length_a 19.444794
_cell_length_b 9.346138
_cell_length_c 19.925312
_cell_angle_alpha 90.000000
_cell_angle_beta 90.000000
_cell_angle_gamma 90.000000
_cell_volume 3621.101233
_symmetry_space_group_name_H-M "P M M N"
_symmetry_group_IT_number 59
_space_group.IT_coordinate_system_code '2'
_symmetry_cell_setting 'orthorhombic'
loop_
_space_group_symop_operation_xyz
x,y,z
1/2-x,1/2-y,z
1/2+x,-y,-z
-x,1/2+y,-z
-x,-y,-z
1/2+x,1/2+y,-z
1/2-x,y,z
x,1/2-y,z
loop_
_atom_site_type_symbol
_atom_site_label
_atom_site_fract_x
_atom_site_fract_y
_atom_site_fract_z
Si Si1 0.169783 0.085166 0.889347
Si Si2 0.045380 0.914812 0.648022
Si Si3 0.671263 0.085957 0.726760
Si Si4 0.613314 0.911032 0.614718
Si Si5 0.934600 0.417368 0.199736
Si Si6 0.826246 0.580113 0.961288
Si Si7 0.586506 0.918899 0.836700
Si Si8 0.434329 0.084218 0.525460
O O1 0.250000 0.064170 0.873925
O O2 0.148436 0.250000 0.882756
O O3 0.127545 0.996525 0.835668
O O4 0.152650 0.027055 0.964374
O O5 0.064588 0.750000 0.635417
O O6 0.064707 0.964313 0.722689
O O7 0.964691 0.940694 0.637534
O O8 0.089391 0.011494 0.595484
O O9 0.750000 0.071819 0.749377
O O10 0.647167 0.250000 0.726993
O O11 0.662782 0.022763 0.651857
O O12 0.624307 0.996069 0.776285
O O13 0.634277 0.750000 0.635451
O O14 0.622152 0.930029 0.534003
O O15 0.921632 0.250000 0.193148
O O16 0.006363 0.459710 0.164182
O O17 0.750000 0.521618 0.942434
O O18 0.823355 0.750000 0.962569
O O19 0.881562 0.525605 0.906980
O O20 0.597367 0.750000 0.826567
O O21 0.452939 0.250000 0.537750
O O22 0.500000 0.000000 0.500000
#
# Coordination Sequence:
#
# PCOD8241840 Si02
#       8
#     8   8   8   8   8   8   8   8
#     4   9  19  36  55  76 101 130 170 214 256 312
#     4   9  17  31  48  72 104 131 161 206 253 300
#     4  11  23  34  46  71 106 140 175 216 259 304
#     4   9  17  32  50  69  96 131 171 210 246 296
#     4  10  20  33  51  78 109 135 166 213 261 308
#     4   8  15  30  53  76  98 132 177 216 249 296
#     4  10  19  34  54  75 101 136 176 214 253 306
#     4   9  17  28  46  72  98 126 164 206 248 297
#
# _framework density 17.674181000000001
#
# number of rings (size 3 to 8) (size 9 to 14) (size 15 to 20)
#    0.000    2.625    1.250    2.625    0.000    5.750 
#    0.000    0.625    0.000    1.500    0.000    0.000 
#    0.000    0.000    0.000    0.000    0.000    0.000 
#
# Total GULP energy -793368.152692 kJ/mol
# GULP energy per Si atom -12396.377386 kJ/mol
# Density = 1.763395 g / cm^3
# Si number density = 17.674181 Si / 1000 Ang^3
#
#
#
# Elastic Constant Matrix: (Units=GPa)
#
#
# Indices 1 2 3 4 5 6 
#
# 1 56.5192 32.1604 51.7726 0.0000 0.0000 0.0000
# 2 32.1604 63.0425 49.6452 0.0000 0.0000 0.0000
# 3 51.7726 49.6452 140.1922 0.0000 0.0000 0.0000
# 4 0.0000 0.0000 0.0000 26.2855 0.0000 0.0000
# 5 0.0000 0.0000 0.0000 0.0000 18.3100 0.0000
# 6 0.0000 0.0000 0.0000 0.0000 0.0000 24.4284
#
#
#
# Elastic Compliance Matrix: (Units=1/GPa)
#
#
# Indices 1 2 3 4 5 6 
#
# 1 0.030125 -0.009162 -0.007881 0.000000 0.000000 0.000000
# 2 -0.009162 0.024783 -0.005393 0.000000 0.000000 0.000000
# 3 -0.007881 -0.005393 0.011953 0.000000 0.000000 0.000000
# 4 0.000000 0.000000 0.000000 0.038044 0.000000 0.000000
# 5 0.000000 0.000000 0.000000 0.000000 0.054615 0.000000
# 6 0.000000 0.000000 0.000000 0.000000 0.000000 0.040936
#
#
# Mechanical properties :
#
#
# Convention : Reuss Voigt Hill
#
# Bulk Modulus (GPa) = 45.47442 58.54558 52.01000
# Shear Modulus (GPa) = 19.78966 22.21649 21.00307
#
# Velocity S-wave (km/s) = 3.34981 3.54927 3.45098
# Velocity P-wave (km/s) = 6.38332 7.07059 6.73573
#
# Compressibility (1/GPa) = 0.02199038
#
# Stress axis : x y z
#
# Youngs Moduli (GPa) = 33.19458 40.35039 83.66068
#
# Poissons Ratio (x) = 0.36970 0.65931
# Poissons Ratio (y) = 0.30413 0.45115
# Poissons Ratio (z) = 0.26160 0.21759
#
# Static dielectric constant tensor:
#      x y z
#    x 3.060680 0.000000 0.000000 
#    y 0.000000 3.210990 0.000000 
#    z 0.000000 0.000000 3.754750 
# 
# 
# High freq. dielectric constant tensor:
#      x y z
#    x 1.649940 0.000000 0.000000 
#    y 0.000000 1.671810 0.000000 
#    z 0.000000 0.000000 1.696520 
# 
# From -- ./inp_files/26329.got.cif
#   From: 2010.03.12/outbox.cif.g09.slc.cpg/sg59_14_cif.got.tgz:26329.got - 2010.04.16 16:29:54.
