data_PCOD8241584
_publ_section_title
;
Structure prediction by ZEFSAII (Michael W. Deem and Ramdas Pophale) SiO2 
 PCOD8241584
Probable space group: P M M N
;
_chemical_formula_sum "Si O2"
_cell_formula_units_Z 64
_cell_length_a 23.641096
_cell_length_b 9.135302
_cell_length_c 15.007596
_cell_angle_alpha 90.000000
_cell_angle_beta 90.000000
_cell_angle_gamma 90.000000
_cell_volume 3241.168771
_symmetry_space_group_name_H-M "P M M N"
_symmetry_group_IT_number 59
_space_group.IT_coordinate_system_code '2'
_symmetry_cell_setting 'orthorhombic'
loop_
_space_group_symop_operation_xyz
x,y,z
1/2-x,1/2-y,z
1/2+x,-y,-z
-x,1/2+y,-z
-x,-y,-z
1/2+x,1/2+y,-z
1/2-x,y,z
x,1/2-y,z
loop_
_atom_site_type_symbol
_atom_site_label
_atom_site_fract_x
_atom_site_fract_y
_atom_site_fract_z
Si Si1 0.025330 0.584960 0.082288
Si Si2 0.656293 0.415139 0.954146
Si Si3 0.376499 0.077709 0.690056
Si Si4 0.185054 0.578841 0.848151
Si Si5 0.618408 0.423174 0.646376
Si Si6 0.684698 0.576746 0.489020
Si Si7 0.813060 0.585036 0.791119
Si Si8 0.998217 0.422673 0.722610
O O1 0.002330 0.750000 0.076033
O O2 0.092184 0.580009 0.076450
O O3 0.007239 0.511837 0.176976
O O4 0.000000 0.500000 0.000000
O O5 0.680802 0.250000 0.945582
O O6 0.690687 0.526243 0.891951
O O7 0.663654 0.470217 0.054911
O O8 0.371376 0.250000 0.702008
O O9 0.340376 0.024748 0.605426
O O10 0.442233 0.030296 0.678571
O O11 0.352701 0.005461 0.778023
O O12 0.250000 0.533466 0.835414
O O13 0.175922 0.750000 0.833161
O O14 0.624820 0.250000 0.634432
O O15 0.646234 0.502407 0.562994
O O16 0.649753 0.471955 0.735687
O O17 0.552798 0.473391 0.657363
O O18 0.750000 0.525479 0.495826
O O19 0.679906 0.750000 0.501223
O O20 0.750000 0.587942 0.750612
O O21 0.838382 0.750000 0.788380
O O22 0.992796 0.250000 0.733687
#
# Coordination Sequence:
#
# PCOD8241584 Si02
#       8
#     8   8   8   8   8   8   8   8
#     4  10  19  33  53  79 113 152 194 240 281 331
#     4  10  20  36  56  80 114 157 197 235 290 350
#     4  10  21  39  63  85 113 155 195 237 294 351
#     4  10  21  36  55  83 119 154 194 247 294 338
#     4  11  22  39  62  86 115 152 190 233 289 350
#     4  10  22  40  60  86 118 150 190 240 292 348
#     4  11  23  37  55  83 117 150 189 239 287 339
#     4   9  19  37  58  84 117 149 189 240 286 337
#
# _framework density 19.745964000000001
#
# number of rings (size 3 to 8) (size 9 to 14) (size 15 to 20)
#    0.000    1.875    1.250    2.625    0.000    6.000 
#    0.000    1.250    0.000    0.000    0.000    0.000 
#    0.000    0.000    0.000    0.000    0.000    0.000 
#
# Total GULP energy -793620.105067 kJ/mol
# GULP energy per Si atom -12400.314142 kJ/mol
# Density = 1.970102 g / cm^3
# Si number density = 19.745964 Si / 1000 Ang^3
#
#
#
# Elastic Constant Matrix: (Units=GPa)
#
#
# Indices 1 2 3 4 5 6 
#
# 1 114.8532 33.8410 59.0363 0.0000 0.0000 0.0000
# 2 33.8410 35.8841 29.6983 0.0000 0.0000 0.0000
# 3 59.0363 29.6983 117.9137 0.0000 0.0000 0.0000
# 4 0.0000 0.0000 0.0000 30.4827 0.0000 0.0000
# 5 0.0000 0.0000 0.0000 0.0000 39.8820 0.0000
# 6 0.0000 0.0000 0.0000 0.0000 0.0000 23.9582
#
#
#
# Elastic Compliance Matrix: (Units=1/GPa)
#
#
# Indices 1 2 3 4 5 6 
#
# 1 0.013770 -0.009197 -0.004578 0.000000 0.000000 0.000000
# 2 -0.009197 0.041349 -0.005810 0.000000 0.000000 0.000000
# 3 -0.004578 -0.005810 0.012236 0.000000 0.000000 0.000000
# 4 0.000000 0.000000 0.000000 0.032806 0.000000 0.000000
# 5 0.000000 0.000000 0.000000 0.000000 0.025074 0.000000
# 6 0.000000 0.000000 0.000000 0.000000 0.000000 0.041739
#
#
# Mechanical properties :
#
#
# Convention : Reuss Voigt Hill
#
# Bulk Modulus (GPa) = 35.47878 57.08912 46.28395
# Shear Modulus (GPa) = 23.19782 28.60295 25.90039
#
# Velocity S-wave (km/s) = 3.43127 3.81011 3.62564
# Velocity P-wave (km/s) = 5.80558 6.95201 6.40450
#
# Compressibility (1/GPa) = 0.02818587
#
# Stress axis : x y z
#
# Youngs Moduli (GPa) = 72.62347 24.18435 81.72652
#
# Poissons Ratio (x) = 0.22243 0.37412
# Poissons Ratio (y) = 0.66793 0.47480
# Poissons Ratio (z) = 0.33245 0.14050
#
# Static dielectric constant tensor:
#      x y z
#    x 1.246120 0.000000 0.000000 
#    y 0.000000 3.442170 0.000000 
#    z 0.000000 0.000000 3.694290 
# 
# 
# High freq. dielectric constant tensor:
#      x y z
#    x 1.782330 0.000000 0.000000 
#    y 0.000000 1.749990 0.000000 
#    z 0.000000 0.000000 1.775050 
# 
# From -- ./inp_files/24735.got.cif
#   From: 2010.03.12/outbox.cif.g09.slc.cpg/sg59_13_cif.got.tgz:24735.got - 2010.04.16 16:29:54.
