data_PCOD8241813
_publ_section_title
;
Structure prediction by ZEFSAII (Michael W. Deem and Ramdas Pophale) SiO2 
 PCOD8241813
Probable space group: P M M N
;
_chemical_formula_sum "Si O2"
_cell_formula_units_Z 64
_cell_length_a 14.811137
_cell_length_b 22.676515
_cell_length_c 9.544152
_cell_angle_alpha 90.000000
_cell_angle_beta 90.000000
_cell_angle_gamma 90.000000
_cell_volume 3205.546328
_symmetry_space_group_name_H-M "P M M N"
_symmetry_group_IT_number 59
_space_group.IT_coordinate_system_code '2'
_symmetry_cell_setting 'orthorhombic'
loop_
_space_group_symop_operation_xyz
x,y,z
1/2-x,1/2-y,z
1/2+x,-y,-z
-x,1/2+y,-z
-x,-y,-z
1/2+x,1/2+y,-z
1/2-x,y,z
x,1/2-y,z
loop_
_atom_site_type_symbol
_atom_site_label
_atom_site_fract_x
_atom_site_fract_y
_atom_site_fract_z
Si Si1 0.849320 0.886555 0.967588
Si Si2 0.975969 0.317149 0.718620
Si Si3 0.850790 0.081500 0.674844
Si Si4 0.023661 0.683013 0.950388
Si Si5 0.905164 0.490398 0.425574
Si Si6 0.595786 0.489769 0.929380
Si Si7 0.649160 0.888528 0.292125
Si Si8 0.648176 0.413971 0.174379
O O1 0.750000 0.859580 0.938709
O O2 0.922770 0.839621 0.915730
O O3 0.860169 0.948067 0.884902
O O4 0.862221 0.904566 0.129393
O O5 0.965267 0.250000 0.668211
O O6 0.899858 0.356365 0.641706
O O7 0.075450 0.338766 0.670713
O O8 0.959471 0.322751 0.884459
O O9 0.750000 0.092705 0.733752
O O10 0.840966 0.042539 0.535810
O O11 0.914049 0.048249 0.788029
O O12 0.031046 0.750000 0.899197
O O13 0.097731 0.646530 0.864604
O O14 0.863532 0.553018 0.383819
O O15 0.911367 0.448191 0.290020
O O16 0.000000 0.500000 0.500000
O O17 0.500000 0.500000 0.000000
O O18 0.658106 0.454411 0.037275
O O19 0.750000 0.863381 0.321133
O O20 0.750000 0.400478 0.228140
#
# Coordination Sequence:
#
# PCOD8241813 Si02
#       8
#     8   8   8   8   8   8   8   8
#     4  10  19  33  59  91 124 159 197 247 308 368
#     4  10  21  38  58  87 123 163 207 253 301 355
#     4  12  24  38  58  92 125 158 200 251 310 369
#     4  10  22  38  60  89 122 163 209 253 299 350
#     4  12  24  40  62  90 125 160 196 254 317 376
#     4  12  20  36  60  90 123 155 200 253 313 375
#     4  10  19  36  60  89 120 156 201 251 308 370
#     4  12  23  39  63  90 122 162 203 252 307 368
#
# _framework density 19.965395000000001
#
# number of rings (size 3 to 8) (size 9 to 14) (size 15 to 20)
#    0.000    1.000    5.000    3.750    0.000    1.000 
#    0.000    4.375    0.000    1.500    0.000    0.000 
#    0.000    0.000    0.000    0.000    0.000    0.000 
#
# Total GULP energy -793635.207351 kJ/mol
# GULP energy per Si atom -12400.550115 kJ/mol
# Density = 1.991995 g / cm^3
# Si number density = 19.965395 Si / 1000 Ang^3
#
#
#
# Elastic Constant Matrix: (Units=GPa)
#
#
# Indices 1 2 3 4 5 6 
#
# 1 123.5982 54.7664 14.5230 0.0000 0.0000 0.0000
# 2 54.7664 142.3864 37.9018 0.0000 0.0000 0.0000
# 3 14.5230 37.9018 63.6478 0.0000 0.0000 0.0000
# 4 0.0000 0.0000 0.0000 25.7763 0.0000 0.0000
# 5 0.0000 0.0000 0.0000 0.0000 24.4785 0.0000
# 6 0.0000 0.0000 0.0000 0.0000 0.0000 16.7272
#
#
#
# Elastic Compliance Matrix: (Units=1/GPa)
#
#
# Indices 1 2 3 4 5 6 
#
# 1 0.009753 -0.003754 0.000010 0.000000 0.000000 0.000000
# 2 -0.003754 0.009791 -0.004974 0.000000 0.000000 0.000000
# 3 0.000010 -0.004974 0.018671 0.000000 0.000000 0.000000
# 4 0.000000 0.000000 0.000000 0.038795 0.000000 0.000000
# 5 0.000000 0.000000 0.000000 0.000000 0.040852 0.000000
# 6 0.000000 0.000000 0.000000 0.000000 0.000000 0.059783
#
#
# Mechanical properties :
#
#
# Convention : Reuss Voigt Hill
#
# Bulk Modulus (GPa) = 48.12454 60.44609 54.28532
# Shear Modulus (GPa) = 24.75153 28.22580 26.48867
#
# Velocity S-wave (km/s) = 3.52479 3.76405 3.64638
# Velocity P-wave (km/s) = 6.38136 7.01654 6.70648
#
# Compressibility (1/GPa) = 0.02077942
#
# Stress axis : x y z
#
# Youngs Moduli (GPa) = 102.53319 102.13412 53.55870
#
# Poissons Ratio (x) = 0.38341 -0.00054
# Poissons Ratio (y) = 0.38491 0.26640
# Poissons Ratio (z) = -0.00103 0.50801
#
# Static dielectric constant tensor:
#      x y z
#    x 3.709460 0.000000 0.000000 
#    y 0.000000 3.649110 0.000000 
#    z 0.000000 0.000000 3.483450 
# 
# 
# High freq. dielectric constant tensor:
#      x y z
#    x 1.793380 0.000000 0.000000 
#    y 0.000000 1.768800 0.000000 
#    z 0.000000 0.000000 1.747670 
# 
# From -- ./inp_files/9620.got.cif
#   From: 2010.03.12/outbox.cif.g09.slc.cpg/sg59_5_cif.got.tgz:9620.got - 2010.04.16 16:29:54.
