data_PCOD8241831
_publ_section_title
;
Structure prediction by ZEFSAII (Michael W. Deem and Ramdas Pophale) SiO2 
 PCOD8241831
Probable space group: P M M N
;
_chemical_formula_sum "Si O2"
_cell_formula_units_Z 56
_cell_length_a 12.991649
_cell_length_b 15.790530
_cell_length_c 14.208057
_cell_angle_alpha 90.000000
_cell_angle_beta 90.000000
_cell_angle_gamma 90.000000
_cell_volume 2914.712184
_symmetry_space_group_name_H-M "P M M N"
_symmetry_group_IT_number 59
_space_group.IT_coordinate_system_code '2'
_symmetry_cell_setting 'orthorhombic'
loop_
_space_group_symop_operation_xyz
x,y,z
1/2-x,1/2-y,z
1/2+x,-y,-z
-x,1/2+y,-z
-x,-y,-z
1/2+x,1/2+y,-z
1/2-x,y,z
x,1/2-y,z
loop_
_atom_site_type_symbol
_atom_site_label
_atom_site_fract_x
_atom_site_fract_y
_atom_site_fract_z
Si Si1 0.136972 0.652053 0.319861
Si Si2 0.866430 0.995448 0.325610
Si Si3 0.132041 0.101120 0.173007
Si Si4 0.011330 0.563228 0.165735
Si Si5 0.552242 0.653514 0.441318
Si Si6 0.000483 0.655003 0.649198
Si Si7 0.634988 0.844519 0.029205
O O1 0.250000 0.606955 0.329681
O O2 0.157558 0.750000 0.318920
O O3 0.080988 0.629681 0.222350
O O4 0.063746 0.627308 0.407927
O O5 0.750000 0.015007 0.302270
O O6 0.912738 0.083823 0.362567
O O7 0.919161 0.970171 0.229170
O O8 0.872194 0.917288 0.399081
O O9 0.250000 0.089494 0.203515
O O10 0.073290 0.137960 0.262848
O O11 0.120135 0.162087 0.083416
O O12 0.086345 0.012420 0.136735
O O13 0.958127 0.602390 0.073877
O O14 0.577767 0.750000 0.405324
O O15 0.565047 0.650492 0.553315
O O16 0.048328 0.750000 0.659246
O O17 0.750000 0.881895 0.051334
O O18 0.628050 0.750000 0.070506
#
# Coordination Sequence:
#
# PCOD8241831 Si02
#       7
#     8   8   8   8   8   8   8
#     4   9  17  30  50  77 107 138 175 219 266 320
#     4  10  21  35  52  77 108 140 177 221 267 321
#     4  10  21  36  55  79 106 138 179 224 267 316
#     4  10  19  34  53  76 105 138 172 216 270 323
#     4   9  19  35  54  79 110 142 178 222 272 323
#     4  10  21  37  56  78 107 144 184 225 268 315
#     4  10  20  34  54  79 105 136 175 218 266 321
#
# _framework density 19.212876000000001
#
# number of rings (size 3 to 8) (size 9 to 14) (size 15 to 20)
#    0.000    2.286    0.000    2.571    0.000    3.143 
#    0.000    2.857    0.000    0.857    0.000    0.000 
#    0.000    0.000    0.000    0.000    0.000    0.000 
#
# Total GULP energy -694046.605956 kJ/mol
# GULP energy per Si atom -12393.689392 kJ/mol
# Density = 1.916915 g / cm^3
# Si number density = 19.212876 Si / 1000 Ang^3
#
#
#
# Elastic Constant Matrix: (Units=GPa)
#
#
# Indices 1 2 3 4 5 6 
#
# 1 84.6508 29.7873 22.9037 0.0000 0.0000 0.0000
# 2 29.7873 80.4519 21.3017 0.0000 0.0000 0.0000
# 3 22.9037 21.3017 78.7383 0.0000 0.0000 0.0000
# 4 0.0000 0.0000 0.0000 27.0942 0.0000 0.0000
# 5 0.0000 0.0000 0.0000 0.0000 12.1222 0.0000
# 6 0.0000 0.0000 0.0000 0.0000 0.0000 12.0282
#
#
#
# Elastic Compliance Matrix: (Units=1/GPa)
#
#
# Indices 1 2 3 4 5 6 
#
# 1 0.014177 -0.004478 -0.002912 0.000000 0.000000 0.000000
# 2 -0.004478 0.014803 -0.002702 0.000000 0.000000 0.000000
# 3 -0.002912 -0.002702 0.014279 0.000000 0.000000 0.000000
# 4 0.000000 0.000000 0.000000 0.036908 0.000000 0.000000
# 5 0.000000 0.000000 0.000000 0.000000 0.082494 0.000000
# 6 0.000000 0.000000 0.000000 0.000000 0.000000 0.083138
#
#
# Mechanical properties :
#
#
# Convention : Reuss Voigt Hill
#
# Bulk Modulus (GPa) = 43.33966 43.53626 43.43796
# Shear Modulus (GPa) = 18.26987 21.57214 19.92101
#
# Velocity S-wave (km/s) = 3.08704 3.35445 3.22352
# Velocity P-wave (km/s) = 5.94248 6.14103 6.04257
#
# Compressibility (1/GPa) = 0.02307356
#
# Stress axis : x y z
#
# Youngs Moduli (GPa) = 70.53712 67.55286 70.03519
#
# Poissons Ratio (x) = 0.30249 0.20397
# Poissons Ratio (y) = 0.31586 0.18926
# Poissons Ratio (z) = 0.20543 0.18255
#
# Static dielectric constant tensor:
#      x y z
#    x 3.576630 0.000000 0.000000 
#    y 0.000000 3.671580 0.000000 
#    z 0.000000 0.000000 3.369490 
# 
# 
# High freq. dielectric constant tensor:
#      x y z
#    x 1.739050 0.000000 0.000000 
#    y 0.000000 1.753990 0.000000 
#    z 0.000000 0.000000 1.741850 
# 
# From -- ./inp_files/22516.got.cif
#   From: 2010.03.12/outbox.cif.g09.slc.cpg/sg59_12_cif.got.tgz:22516.got - 2010.04.16 16:29:54.
