data_PCOD8241871
_publ_section_title
;
Structure prediction by ZEFSAII (Michael W. Deem and Ramdas Pophale) SiO2 
 PCOD8241871
Probable space group: P M M N
;
_chemical_formula_sum "Si O2"
_cell_formula_units_Z 56
_cell_length_a 22.705454
_cell_length_b 9.133587
_cell_length_c 14.468378
_cell_angle_alpha 90.000000
_cell_angle_beta 90.000000
_cell_angle_gamma 90.000000
_cell_volume 3000.484631
_symmetry_space_group_name_H-M "P M M N"
_symmetry_group_IT_number 59
_space_group.IT_coordinate_system_code '2'
_symmetry_cell_setting 'orthorhombic'
loop_
_space_group_symop_operation_xyz
x,y,z
1/2-x,1/2-y,z
1/2+x,-y,-z
-x,1/2+y,-z
-x,-y,-z
1/2+x,1/2+y,-z
1/2-x,y,z
x,1/2-y,z
loop_
_atom_site_type_symbol
_atom_site_label
_atom_site_fract_x
_atom_site_fract_y
_atom_site_fract_z
Si Si1 0.075570 0.079927 0.586027
Si Si2 0.405809 0.584957 0.216265
Si Si3 0.518659 0.914658 0.090729
Si Si4 0.632077 0.419864 0.126057
Si Si5 0.182948 0.919397 0.677803
Si Si6 0.815371 0.424336 0.933979
Si Si7 0.958437 0.580607 0.622859
O O1 0.072735 0.250000 0.612862
O O2 0.070008 0.054760 0.476897
O O3 0.137907 0.015428 0.618252
O O4 0.020929 0.000401 0.635606
O O5 0.389044 0.750000 0.247037
O O6 0.466657 0.585390 0.163041
O O7 0.356171 0.516902 0.148861
O O8 0.410706 0.483541 0.306058
O O9 0.535743 0.750000 0.062036
O O10 0.572506 0.991376 0.142806
O O11 0.500000 0.000000 0.000000
O O12 0.615762 0.250000 0.114414
O O13 0.674573 0.446448 0.212890
O O14 0.662705 0.481648 0.033423
O O15 0.250000 0.964379 0.652734
O O16 0.171501 0.750000 0.653670
O O17 0.750000 0.484724 0.916462
O O18 0.816947 0.250000 0.935535
O O19 0.969815 0.750000 0.643639
#
# Coordination Sequence:
#
# PCOD8241871 Si02
#       7
#     8   8   8   8   8   8   8
#     4  10  21  38  59  83 111 143 179 224 279 335
#     4  10  20  34  53  80 109 139 179 223 269 322
#     4  11  21  33  50  77 109 142 178 222 272 321
#     4  10  19  34  54  79 109 143 182 223 268 320
#     4  10  21  36  57  86 116 148 187 229 273 325
#     4   9  17  32  53  74 101 140 182 219 257 308
#     4  10  21  37  59  84 108 140 179 225 282 334
#
# _framework density 18.663651000000002
#
# number of rings (size 3 to 8) (size 9 to 14) (size 15 to 20)
#    0.000    2.000    1.429    2.571    0.000    7.714 
#    0.000    0.714    0.000    5.143    0.000    0.000 
#    0.000    0.000    0.000    0.000    0.000    0.000 
#
# Total GULP energy -694520.697330 kJ/mol
# GULP energy per Si atom -12402.155309 kJ/mol
# Density = 1.862117 g / cm^3
# Si number density = 18.663651 Si / 1000 Ang^3
#
#
#
# Elastic Constant Matrix: (Units=GPa)
#
#
# Indices 1 2 3 4 5 6 
#
# 1 139.2619 53.5446 50.4916 0.0000 0.0000 0.0000
# 2 53.5446 94.4641 49.4989 0.0000 0.0000 0.0000
# 3 50.4916 49.4989 87.6023 0.0000 0.0000 0.0000
# 4 0.0000 0.0000 0.0000 29.6938 0.0000 0.0000
# 5 0.0000 0.0000 0.0000 0.0000 28.3871 0.0000
# 6 0.0000 0.0000 0.0000 0.0000 0.0000 26.2988
#
#
#
# Elastic Compliance Matrix: (Units=1/GPa)
#
#
# Indices 1 2 3 4 5 6 
#
# 1 0.009926 -0.003734 -0.003611 0.000000 0.000000 0.000000
# 2 -0.003734 0.016443 -0.007139 0.000000 0.000000 0.000000
# 3 -0.003611 -0.007139 0.017530 0.000000 0.000000 0.000000
# 4 0.000000 0.000000 0.000000 0.033677 0.000000 0.000000
# 5 0.000000 0.000000 0.000000 0.000000 0.035227 0.000000
# 6 0.000000 0.000000 0.000000 0.000000 0.000000 0.038025
#
#
# Mechanical properties :
#
#
# Convention : Reuss Voigt Hill
#
# Bulk Modulus (GPa) = 66.97317 69.82206 68.39762
# Shear Modulus (GPa) = 27.06020 28.06217 27.56118
#
# Velocity S-wave (km/s) = 3.81187 3.88180 3.84699
# Velocity P-wave (km/s) = 7.43882 7.58835 7.51396
#
# Compressibility (1/GPa) = 0.01493135
#
# Stress axis : x y z
#
# Youngs Moduli (GPa) = 100.74964 60.81489 57.04384
#
# Poissons Ratio (x) = 0.22708 0.20599
# Poissons Ratio (y) = 0.37619 0.40724
# Poissons Ratio (z) = 0.36381 0.43416
#
# Static dielectric constant tensor:
#      x y z
#    x 3.526120 0.000000 0.000000 
#    y 0.000000 3.521640 0.000000 
#    z 0.000000 0.000000 3.591850 
# 
# 
# High freq. dielectric constant tensor:
#      x y z
#    x 1.721300 0.000000 0.000000 
#    y 0.000000 1.711260 0.000000 
#    z 0.000000 0.000000 1.726190 
# 
# From -- ./inp_files/24224.got.cif
#   From: 2010.03.12/outbox.cif.g09.slc.cpg/sg59_13_cif.got.tgz:24224.got - 2010.04.16 16:29:54.
