data_PCOD8241121
_publ_section_title
;
Structure prediction by ZEFSAII (Michael W. Deem and Ramdas Pophale) SiO2 
 PCOD8241121
Probable space group: P M M N
;
_chemical_formula_sum "Si O2"
_cell_formula_units_Z 56
_cell_length_a 9.119974
_cell_length_b 17.670123
_cell_length_c 18.951225
_cell_angle_alpha 90.000000
_cell_angle_beta 90.000000
_cell_angle_gamma 90.000000
_cell_volume 3054.010041
_symmetry_space_group_name_H-M "P M M N"
_symmetry_group_IT_number 59
_space_group.IT_coordinate_system_code '2'
_symmetry_cell_setting 'orthorhombic'
loop_
_space_group_symop_operation_xyz
x,y,z
1/2-x,1/2-y,z
1/2+x,-y,-z
-x,1/2+y,-z
-x,-y,-z
1/2+x,1/2+y,-z
1/2-x,y,z
x,1/2-y,z
loop_
_atom_site_type_symbol
_atom_site_label
_atom_site_fract_x
_atom_site_fract_y
_atom_site_fract_z
Si Si1 0.918749 0.663641 0.856798
Si Si2 0.582746 0.337520 0.696246
Si Si3 0.080024 0.580737 0.571629
Si Si4 0.078201 0.406141 0.566082
Si Si5 0.084448 0.447519 0.789743
Si Si6 0.416968 0.891095 0.726867
Si Si7 0.922177 0.469282 0.068802
O O1 0.750000 0.637703 0.859010
O O2 0.936015 0.750000 0.881892
O O3 0.975513 0.656712 0.776367
O O4 0.012037 0.611907 0.909726
O O5 0.750000 0.361040 0.682253
O O6 0.567535 0.250000 0.715117
O O7 0.490573 0.354907 0.626594
O O8 0.524474 0.382405 0.764438
O O9 0.250000 0.587857 0.551513
O O10 0.036158 0.493043 0.580436
O O11 0.045520 0.624192 0.644872
O O12 0.985943 0.619360 0.509763
O O13 0.250000 0.391797 0.566069
O O14 0.250000 0.416806 0.783659
O O15 0.064020 0.519774 0.739702
O O16 0.047040 0.469896 0.869897
O O17 0.250000 0.867090 0.744496
O O18 0.750000 0.458516 0.055491
O O19 0.000000 0.500000 0.000000
#
# Coordination Sequence:
#
# PCOD8241121 Si02
#       7
#     8   8   8   8   8   8   8
#     4  10  21  36  55  83 117 149 183 223 267 319
#     4  11  23  36  51  74 105 142 184 229 276 324
#     4   9  17  31  50  75 104 133 173 225 276 327
#     4  10  19  32  50  73 101 135 179 226 275 327
#     4   9  18  35  56  80 106 135 175 219 262 317
#     4   9  17  32  54  79 107 138 177 223 270 324
#     4  10  21  38  62  89 116 145 181 222 267 321
#
# _framework density 18.336546999999999
#
# number of rings (size 3 to 8) (size 9 to 14) (size 15 to 20)
#    0.000    2.286    1.429    2.571    0.000    6.286 
#    0.000    1.429    0.000    1.714    0.000    0.000 
#    0.000    0.000    0.000    0.000    0.000    0.000 
#
# Total GULP energy -694488.058164 kJ/mol
# GULP energy per Si atom -12401.572467 kJ/mol
# Density = 1.829481 g / cm^3
# Si number density = 18.336547 Si / 1000 Ang^3
#
#
#
# Elastic Constant Matrix: (Units=GPa)
#
#
# Indices 1 2 3 4 5 6 
#
# 1 118.8333 51.7014 69.6336 0.0000 0.0000 0.0000
# 2 51.7014 66.9053 44.1293 0.0000 0.0000 0.0000
# 3 69.6336 44.1293 125.8321 0.0000 0.0000 0.0000
# 4 0.0000 0.0000 0.0000 17.6348 0.0000 0.0000
# 5 0.0000 0.0000 0.0000 0.0000 37.7450 0.0000
# 6 0.0000 0.0000 0.0000 0.0000 0.0000 27.6523
#
#
#
# Elastic Compliance Matrix: (Units=1/GPa)
#
#
# Indices 1 2 3 4 5 6 
#
# 1 0.015191 -0.008058 -0.005581 0.000000 0.000000 0.000000
# 2 -0.008058 0.023719 -0.003859 0.000000 0.000000 0.000000
# 3 -0.005581 -0.003859 0.012389 0.000000 0.000000 0.000000
# 4 0.000000 0.000000 0.000000 0.056706 0.000000 0.000000
# 5 0.000000 0.000000 0.000000 0.000000 0.026494 0.000000
# 6 0.000000 0.000000 0.000000 0.000000 0.000000 0.036163
#
#
# Mechanical properties :
#
#
# Convention : Reuss Voigt Hill
#
# Bulk Modulus (GPa) = 61.33750 71.38882 66.36316
# Shear Modulus (GPa) = 23.68644 26.34685 25.01665
#
# Velocity S-wave (km/s) = 3.59801 3.79469 3.69766
# Velocity P-wave (km/s) = 7.12632 7.62998 7.38245
#
# Compressibility (1/GPa) = 0.01630324
#
# Stress axis : x y z
#
# Youngs Moduli (GPa) = 65.82774 42.16065 80.71947
#
# Poissons Ratio (x) = 0.33974 0.45046
# Poissons Ratio (y) = 0.53046 0.31149
# Poissons Ratio (z) = 0.36735 0.16269
#
# Static dielectric constant tensor:
#      x y z
#    x 3.467480 0.000000 0.000000 
#    y 0.000000 3.090890 0.000000 
#    z 0.000000 0.000000 3.429340 
# 
# 
# High freq. dielectric constant tensor:
#      x y z
#    x 1.719290 0.000000 0.000000 
#    y 0.000000 1.684470 0.000000 
#    z 0.000000 0.000000 1.711200 
# 
# From -- ./inp_files/29634.got.cif
#   From: 2010.03.12/outbox.cif.g09.slc.cpg/sg59_15_cif.got.tgz:29634.got - 2010.04.16 16:29:54.
