data_PCOD8241926
_publ_section_title
;
Structure prediction by ZEFSAII (Michael W. Deem and Ramdas Pophale) SiO2 
 PCOD8241926
Probable space group: P M M N
;
_chemical_formula_sum "Si O2"
_cell_formula_units_Z 48
_cell_length_a 8.801284
_cell_length_b 9.452351
_cell_length_c 29.307538
_cell_angle_alpha 90.000000
_cell_angle_beta 90.000000
_cell_angle_gamma 90.000000
_cell_volume 2438.176898
_symmetry_space_group_name_H-M "P M M N"
_symmetry_group_IT_number 59
_space_group.IT_coordinate_system_code '2'
_symmetry_cell_setting 'orthorhombic'
loop_
_space_group_symop_operation_xyz
x,y,z
1/2-x,1/2-y,z
1/2+x,-y,-z
-x,1/2+y,-z
-x,-y,-z
1/2+x,1/2+y,-z
1/2-x,y,z
x,1/2-y,z
loop_
_atom_site_type_symbol
_atom_site_label
_atom_site_fract_x
_atom_site_fract_y
_atom_site_fract_z
Si Si1 0.069945 0.585343 0.958251
Si Si2 0.570169 0.250000 0.535857
Si Si3 0.069741 0.983400 0.394671
Si Si4 0.929323 0.415538 0.875571
Si Si5 0.069610 0.594642 0.294274
Si Si6 0.427928 0.750000 0.565645
Si Si7 0.569734 0.909081 0.787415
O O1 0.250000 0.579279 0.962119
O O2 0.015176 0.750000 0.958108
O O3 0.017123 0.505095 0.913181
O O4 0.000000 0.500000 0.000000
O O5 0.750000 0.250000 0.532937
O O6 0.514155 0.115873 0.564292
O O7 0.497029 0.250000 0.485186
O O8 0.250000 0.005048 0.395004
O O9 0.012594 0.928188 0.345781
O O10 0.981889 0.124600 0.403243
O O11 0.750000 0.429681 0.884149
O O12 0.977465 0.250000 0.876192
O O13 0.979434 0.486578 0.828047
O O14 0.250000 0.587697 0.293461
O O15 0.014950 0.750000 0.278103
O O16 0.004509 0.476541 0.259550
O O17 0.250000 0.750000 0.559440
O O18 0.750000 0.900028 0.785331
O O19 0.502729 0.750000 0.793721
#
# Coordination Sequence:
#
# PCOD8241926 Si02
#       7
#     8   4   8   8   8   4   8
#     4  11  24  40  59  85 116 151 193 238 282 328
#     4   9  18  35  55  77 103 135 177 223 270 321
#     4  10  19  34  56  79 102 134 178 225 269 319
#     4  10  20  35  56  83 116 152 188 225 270 328
#     4   9  16  28  49  77 106 134 170 222 276 322
#     4  11  23  35  49  73 109 143 173 215 270 329
#     4   9  17  28  47  79 115 144 173 217 275 329
#
# _framework density 19.68684
#
# number of rings (size 3 to 8) (size 9 to 14) (size 15 to 20)
#    0.000    2.167    0.833    2.750    1.167    6.333 
#    0.000    1.250    0.000    1.000    0.000    0.000 
#    0.000    0.000    0.000    0.000    0.000    0.000 
#
# Total GULP energy -594972.453688 kJ/mol
# GULP energy per Si atom -12395.259452 kJ/mol
# Density = 1.964203 g / cm^3
# Si number density = 19.686840 Si / 1000 Ang^3
#
#
#
# Elastic Constant Matrix: (Units=GPa)
#
#
# Indices 1 2 3 4 5 6 
#
# 1 25.7155 27.7050 21.0381 0.0000 0.0000 0.0000
# 2 27.7050 185.9131 70.7165 0.0000 0.0000 0.0000
# 3 21.0381 70.7165 128.9480 0.0000 0.0000 0.0000
# 4 0.0000 0.0000 0.0000 43.3740 0.0000 0.0000
# 5 0.0000 0.0000 0.0000 0.0000 19.4919 0.0000
# 6 0.0000 0.0000 0.0000 0.0000 0.0000 67.3781
#
#
#
# Elastic Compliance Matrix: (Units=1/GPa)
#
#
# Indices 1 2 3 4 5 6 
#
# 1 0.048765 -0.005359 -0.005017 0.000000 0.000000 0.000000
# 2 -0.005359 0.007385 -0.003176 0.000000 0.000000 0.000000
# 3 -0.005017 -0.003176 0.010315 0.000000 0.000000 0.000000
# 4 0.000000 0.000000 0.000000 0.023055 0.000000 0.000000
# 5 0.000000 0.000000 0.000000 0.000000 0.051303 0.000000
# 6 0.000000 0.000000 0.000000 0.000000 0.000000 0.014842
#
#
# Mechanical properties :
#
#
# Convention : Reuss Voigt Hill
#
# Bulk Modulus (GPa) = 25.40524 64.38841 44.89682
# Shear Modulus (GPa) = 25.52442 40.78994 33.15718
#
# Velocity S-wave (km/s) = 3.60463 4.55679 4.10839
# Velocity P-wave (km/s) = 5.50065 7.77581 6.73500
#
# Compressibility (1/GPa) = 0.03936197
#
# Stress axis : x y z
#
# Youngs Moduli (GPa) = 20.50651 135.40108 96.94216
#
# Poissons Ratio (x) = 0.72555 0.48640
# Poissons Ratio (y) = 0.10988 0.30789
# Poissons Ratio (z) = 0.10289 0.43004
#
# Static dielectric constant tensor:
#      x y z
#    x 3.100230 0.000000 0.000000 
#    y 0.000000 4.068280 0.000000 
#    z 0.000000 0.000000 4.019330 
# 
# 
# High freq. dielectric constant tensor:
#      x y z
#    x 1.711500 0.000000 0.000000 
#    y 0.000000 1.787740 0.000000 
#    z 0.000000 0.000000 1.785350 
# 
# From -- ./inp_files/33040.got.cif
#   From: 2010.03.12/outbox.cif.g09.slc.cpg/sg59_17_cif.got.tgz:33040.got - 2010.04.16 16:29:54.
