data_PCOD8241338
_publ_section_title
;
Structure prediction by ZEFSAII (Michael W. Deem and Ramdas Pophale) SiO2 
 PCOD8241338
Probable space group: P M M N
;
_chemical_formula_sum "Si O2"
_cell_formula_units_Z 64
_cell_length_a 25.222448
_cell_length_b 14.492945
_cell_length_c 8.925273
_cell_angle_alpha 90.000000
_cell_angle_beta 90.000000
_cell_angle_gamma 90.000000
_cell_volume 3262.611693
_symmetry_space_group_name_H-M "P M M N"
_symmetry_group_IT_number 59
_space_group.IT_coordinate_system_code '2'
_symmetry_cell_setting 'orthorhombic'
loop_
_space_group_symop_operation_xyz
x,y,z
1/2-x,1/2-y,z
1/2+x,-y,-z
-x,1/2+y,-z
-x,-y,-z
1/2+x,1/2+y,-z
1/2-x,y,z
x,1/2-y,z
loop_
_atom_site_type_symbol
_atom_site_label
_atom_site_fract_x
_atom_site_fract_y
_atom_site_fract_z
Si Si1 0.504625 0.359211 0.509616
Si Si2 0.597136 0.854743 0.326092
Si Si3 0.937858 0.850423 0.992653
Si Si4 0.689904 0.986331 0.236567
Si Si5 0.957666 0.355111 0.183210
Si Si6 0.309239 0.645746 0.537577
Si Si7 0.382013 0.970139 0.010468
Si Si8 0.896025 0.140988 0.695591
O O1 0.504331 0.250000 0.518941
O O2 0.445436 0.394746 0.552598
O O3 0.518907 0.391060 0.341426
O O4 0.548640 0.396891 0.627278
O O5 0.613830 0.750000 0.366227
O O6 0.650905 0.913929 0.318970
O O7 0.565159 0.857590 0.170897
O O8 0.915345 0.750000 0.938293
O O9 0.998760 0.858226 0.946913
O O10 0.906063 0.935375 0.920921
O O11 0.750000 0.947626 0.243898
O O12 0.685371 0.085054 0.314940
O O13 0.674708 0.002613 0.061679
O O14 0.935677 0.250000 0.200269
O O15 0.913380 0.427678 0.132361
O O16 0.250000 0.640143 0.470416
O O17 0.324084 0.750000 0.584901
O O18 0.349036 0.608468 0.412682
O O19 0.380831 0.897274 0.142302
O O20 0.897834 0.250000 0.713447
#
# Coordination Sequence:
#
# PCOD8241338 Si02
#       8
#     8   8   8   8   8   8   8   8
#     4   9  18  32  52  80 113 143 169 205 257 318
#     4   9  18  35  57  79 105 137 173 215 265 319
#     4   9  19  35  51  70 102 140 174 210 253 305
#     4  10  22  38  55  77 103 134 177 227 271 311
#     4  10  19  32  52  80 114 144 171 206 251 311
#     4   9  19  37  57  75 102 143 183 216 257 310
#     4  11  21  33  52  78 105 139 177 215 262 313
#     4  10  20  34  54  81 112 142 174 214 259 312
#
# _framework density 19.616185999999999
#
# number of rings (size 3 to 8) (size 9 to 14) (size 15 to 20)
#    0.000    2.375    0.000    2.250    0.000    6.750 
#    0.000    3.750    0.000    0.000    0.000    0.000 
#    0.000    5.000    0.000    0.000    0.000    0.000 
#
# Total GULP energy -793302.251164 kJ/mol
# GULP energy per Si atom -12395.347674 kJ/mol
# Density = 1.957154 g / cm^3
# Si number density = 19.616186 Si / 1000 Ang^3
#
#
#
# Elastic Constant Matrix: (Units=GPa)
#
#
# Indices 1 2 3 4 5 6 
#
# 1 121.2355 39.9531 36.1620 0.0000 0.0000 0.0000
# 2 39.9531 68.0836 21.3490 0.0000 0.0000 0.0000
# 3 36.1620 21.3490 59.0401 0.0000 0.0000 0.0000
# 4 0.0000 0.0000 0.0000 18.1611 0.0000 0.0000
# 5 0.0000 0.0000 0.0000 0.0000 28.0213 0.0000
# 6 0.0000 0.0000 0.0000 0.0000 0.0000 23.0029
#
#
#
# Elastic Compliance Matrix: (Units=1/GPa)
#
#
# Indices 1 2 3 4 5 6 
#
# 1 0.011478 -0.005111 -0.005183 0.000000 0.000000 0.000000
# 2 -0.005111 0.018842 -0.003683 0.000000 0.000000 0.000000
# 3 -0.005183 -0.003683 0.021444 0.000000 0.000000 0.000000
# 4 0.000000 0.000000 0.000000 0.055063 0.000000 0.000000
# 5 0.000000 0.000000 0.000000 0.000000 0.035687 0.000000
# 6 0.000000 0.000000 0.000000 0.000000 0.000000 0.043473
#
#
# Mechanical properties :
#
#
# Convention : Reuss Voigt Hill
#
# Bulk Modulus (GPa) = 41.99628 49.25414 45.62521
# Shear Modulus (GPa) = 22.53508 23.89672 23.21590
#
# Velocity S-wave (km/s) = 3.39307 3.49408 3.44395
# Velocity P-wave (km/s) = 6.06680 6.43751 6.25490
#
# Compressibility (1/GPa) = 0.02381163
#
# Stress axis : x y z
#
# Youngs Moduli (GPa) = 87.11940 53.07348 46.63381
#
# Poissons Ratio (x) = 0.27125 0.24168
# Poissons Ratio (y) = 0.44525 0.17175
# Poissons Ratio (z) = 0.45150 0.19546
#
# Static dielectric constant tensor:
#      x y z
#    x 3.626180 0.000000 0.000000 
#    y 0.000000 3.724280 0.000000 
#    z 0.000000 0.000000 3.460350 
# 
# 
# High freq. dielectric constant tensor:
#      x y z
#    x 1.749990 0.000000 0.000000 
#    y 0.000000 1.768500 0.000000 
#    z 0.000000 0.000000 1.753280 
# 
# From -- ./inp_files/12207.got.cif
#   From: 2010.03.12/outbox.cif.g09.slc.cpg/sg59_7_cif.got.tgz:12207.got - 2010.04.16 16:29:54.
