data_PCOD8241751
_publ_section_title
;
Structure prediction by ZEFSAII (Michael W. Deem and Ramdas Pophale) SiO2 
 PCOD8241751
Probable space group: P M M N
;
_chemical_formula_sum "Si O2"
_cell_formula_units_Z 64
_cell_length_a 17.894594
_cell_length_b 15.783256
_cell_length_c 11.602059
_cell_angle_alpha 90.000000
_cell_angle_beta 90.000000
_cell_angle_gamma 90.000000
_cell_volume 3276.827048
_symmetry_space_group_name_H-M "P M M N"
_symmetry_group_IT_number 59
_space_group.IT_coordinate_system_code '2'
_symmetry_cell_setting 'orthorhombic'
loop_
_space_group_symop_operation_xyz
x,y,z
1/2-x,1/2-y,z
1/2+x,-y,-z
-x,1/2+y,-z
-x,-y,-z
1/2+x,1/2+y,-z
1/2-x,y,z
x,1/2-y,z
loop_
_atom_site_type_symbol
_atom_site_label
_atom_site_fract_x
_atom_site_fract_y
_atom_site_fract_z
Si Si1 0.667211 0.659689 0.660806
Si Si2 0.402530 0.389395 0.118473
Si Si3 0.586657 0.055242 0.735732
Si Si4 0.931371 0.150091 0.125514
Si Si5 0.838314 0.994821 0.518415
Si Si6 0.163008 0.347302 0.878031
Si Si7 0.582700 0.512011 0.277595
Si Si8 0.167319 0.848118 0.086749
O O1 0.750000 0.628776 0.698002
O O2 0.669665 0.750000 0.597737
O O3 0.618026 0.671488 0.775391
O O4 0.634754 0.596200 0.566573
O O5 0.390800 0.482624 0.171860
O O6 0.485796 0.366927 0.076056
O O7 0.349154 0.374803 0.010102
O O8 0.499841 0.049446 0.705479
O O9 0.613141 0.138466 0.803377
O O10 0.632797 0.059076 0.616265
O O11 0.921694 0.250000 0.161753
O O12 0.918041 0.083476 0.227987
O O13 0.873206 0.120114 0.028900
O O14 0.750000 0.004305 0.500149
O O15 0.878654 0.005655 0.398347
O O16 0.250000 0.350701 0.850101
O O17 0.133879 0.250000 0.857736
O O18 0.124550 0.416481 0.796062
O O19 0.250000 0.891221 0.098828
O O20 0.179291 0.750000 0.073899
#
# Coordination Sequence:
#
# PCOD8241751 Si02
#       8
#     8   8   8   8   8   8   8   8
#     4   9  17  30  51  78 106 140 182 224 267 317
#     4  10  19  33  55  83 114 143 177 226 276 324
#     4  10  21  37  58  82 106 140 187 234 282 329
#     4  10  21  37  58  83 111 145 183 224 276 336
#     4  10  21  37  56  77 106 145 186 231 277 324
#     4  11  23  36  54  84 120 154 183 216 269 335
#     4  11  23  38  56  81 114 150 187 228 275 333
#     4  10  21  37  57  81 109 141 182 233 283 332
#
# _framework density 19.531089999999999
#
# number of rings (size 3 to 8) (size 9 to 14) (size 15 to 20)
#    0.000    1.875    0.000    4.125    0.000    8.500 
#    0.000    1.875    0.000    2.250    0.000    0.000 
#    0.000    0.000    0.000    0.000    0.000    0.000 
#
# Total GULP energy -793046.092992 kJ/mol
# GULP energy per Si atom -12391.345203 kJ/mol
# Density = 1.948664 g / cm^3
# Si number density = 19.531090 Si / 1000 Ang^3
#
#
#
# Elastic Constant Matrix: (Units=GPa)
#
#
# Indices 1 2 3 4 5 6 
#
# 1 108.4048 13.5427 47.0395 0.0000 0.0000 0.0000
# 2 13.5427 40.2251 27.3984 0.0000 0.0000 0.0000
# 3 47.0395 27.3984 105.5339 0.0000 0.0000 0.0000
# 4 0.0000 0.0000 0.0000 11.9671 0.0000 0.0000
# 5 0.0000 0.0000 0.0000 0.0000 38.1385 0.0000
# 6 0.0000 0.0000 0.0000 0.0000 0.0000 26.1427
#
#
#
# Elastic Compliance Matrix: (Units=1/GPa)
#
#
# Indices 1 2 3 4 5 6 
#
# 1 0.011444 -0.000460 -0.004981 0.000000 0.000000 0.000000
# 2 -0.000460 0.030219 -0.007640 0.000000 0.000000 0.000000
# 3 -0.004981 -0.007640 0.013680 0.000000 0.000000 0.000000
# 4 0.000000 0.000000 0.000000 0.083563 0.000000 0.000000
# 5 0.000000 0.000000 0.000000 0.000000 0.026220 0.000000
# 6 0.000000 0.000000 0.000000 0.000000 0.000000 0.038252
#
#
# Mechanical properties :
#
#
# Convention : Reuss Voigt Hill
#
# Bulk Modulus (GPa) = 34.27125 47.79166 41.03146
# Shear Modulus (GPa) = 20.89723 26.32854 23.61288
#
# Velocity S-wave (km/s) = 3.27455 3.67554 3.48082
# Velocity P-wave (km/s) = 5.64642 6.52192 6.09990
#
# Compressibility (1/GPa) = 0.02917897
#
# Stress axis : x y z
#
# Youngs Moduli (GPa) = 87.38455 33.09181 73.10173
#
# Poissons Ratio (x) = 0.01522 0.36415
# Poissons Ratio (y) = 0.04018 0.55853
# Poissons Ratio (z) = 0.43530 0.25284
#
# Static dielectric constant tensor:
#      x y z
#    x 3.895500 0.000000 0.000000 
#    y 0.000000 3.620700 0.000000 
#    z 0.000000 0.000000 3.434760 
# 
# 
# High freq. dielectric constant tensor:
#      x y z
#    x 1.771330 0.000000 0.000000 
#    y 0.000000 1.759740 0.000000 
#    z 0.000000 0.000000 1.749960 
# 
# From -- ./inp_files/17814.got.cif
#   From: 2010.03.12/outbox.cif.g09.slc.cpg/sg59_9_cif.got.tgz:17814.got - 2010.04.16 16:29:54.
