data_PCOD8241151
_publ_section_title
;
Structure prediction by ZEFSAII (Michael W. Deem and Ramdas Pophale) SiO2 
 PCOD8241151
Probable space group: P M M N
;
_chemical_formula_sum "Si O2"
_cell_formula_units_Z 64
_cell_length_a 18.028261
_cell_length_b 27.571688
_cell_length_c 6.960707
_cell_angle_alpha 90.000000
_cell_angle_beta 90.000000
_cell_angle_gamma 90.000000
_cell_volume 3459.955757
_symmetry_space_group_name_H-M "P M M N"
_symmetry_group_IT_number 59
_space_group.IT_coordinate_system_code '2'
_symmetry_cell_setting 'orthorhombic'
loop_
_space_group_symop_operation_xyz
x,y,z
1/2-x,1/2-y,z
1/2+x,-y,-z
-x,1/2+y,-z
-x,-y,-z
1/2+x,1/2+y,-z
1/2-x,y,z
x,1/2-y,z
loop_
_atom_site_type_symbol
_atom_site_label
_atom_site_fract_x
_atom_site_fract_y
_atom_site_fract_z
Si Si1 0.456820 0.893577 0.553525
Si Si2 0.553763 0.949783 0.824985
Si Si3 0.335193 0.450001 0.865697
Si Si4 0.831280 0.804965 0.897949
Si Si5 0.066243 0.558815 0.154885
Si Si6 0.663032 0.058859 0.180585
Si Si7 0.667373 0.852480 0.298825
Si Si8 0.946662 0.693470 0.575285
O O1 0.530690 0.920362 0.634847
O O2 0.446042 0.903741 0.327701
O O3 0.382471 0.907834 0.669245
O O4 0.475928 0.836299 0.575218
O O5 0.561420 0.005245 0.756370
O O6 0.630285 0.934968 0.927601
O O7 0.494523 0.937730 0.989585
O O8 0.250000 0.454291 0.914949
O O9 0.362957 0.502594 0.787989
O O10 0.350985 0.410314 0.698364
O O11 0.750000 0.809574 0.796409
O O12 0.843348 0.750000 0.968878
O O13 0.897777 0.820393 0.759295
O O14 0.833546 0.840319 0.075862
O O15 0.143520 0.571120 0.042863
O O16 0.750000 0.067438 0.218348
O O17 0.750000 0.842274 0.384847
O O18 0.604249 0.820832 0.395675
O O19 0.967000 0.750000 0.565068
#
# Coordination Sequence:
#
# PCOD8241151 Si02
#       8
#     8   8   8   8   8   8   8   8
#     4  11  21  33  54  76  98 135 174 208 258 315
#     4   9  17  31  49  74 108 138 168 204 242 295
#     4   9  17  31  51  75 107 141 171 208 250 295
#     4   9  18  33  52  72  97 136 183 221 253 292
#     4   9  18  31  52  78 103 133 165 201 248 308
#     4   9  20  38  56  78 105 129 161 209 261 318
#     4  10  19  32  51  73 102 142 178 208 247 293
#     4  11  23  35  49  74 105 135 175 225 264 295
#
# _framework density 18.497347000000001
#
# number of rings (size 3 to 8) (size 9 to 14) (size 15 to 20)
#    0.000    2.375    0.000    3.375    0.000    3.750 
#    0.000    0.625    0.000    5.625    0.000    0.000 
#    0.000    0.000    0.000    0.000    0.000    0.000 
#
# Total GULP energy -793052.393182 kJ/mol
# GULP energy per Si atom -12391.443643 kJ/mol
# Density = 1.845525 g / cm^3
# Si number density = 18.497347 Si / 1000 Ang^3
#
#
#
# Elastic Constant Matrix: (Units=GPa)
#
#
# Indices 1 2 3 4 5 6 
#
# 1 78.1964 40.7323 26.1179 0.0000 0.0000 0.0000
# 2 40.7323 84.2411 33.1268 0.0000 0.0000 0.0000
# 3 26.1179 33.1268 62.8651 0.0000 0.0000 0.0000
# 4 0.0000 0.0000 0.0000 20.7195 0.0000 0.0000
# 5 0.0000 0.0000 0.0000 0.0000 37.0462 0.0000
# 6 0.0000 0.0000 0.0000 0.0000 0.0000 13.8997
#
#
#
# Elastic Compliance Matrix: (Units=1/GPa)
#
#
# Indices 1 2 3 4 5 6 
#
# 1 0.017713 -0.007153 -0.003590 0.000000 0.000000 0.000000
# 2 -0.007153 0.017862 -0.006441 0.000000 0.000000 0.000000
# 3 -0.003590 -0.006441 0.020792 0.000000 0.000000 0.000000
# 4 0.000000 0.000000 0.000000 0.048264 0.000000 0.000000
# 5 0.000000 0.000000 0.000000 0.000000 0.026993 0.000000
# 6 0.000000 0.000000 0.000000 0.000000 0.000000 0.071944
#
#
# Mechanical properties :
#
#
# Convention : Reuss Voigt Hill
#
# Bulk Modulus (GPa) = 45.45310 47.25074 46.35192
# Shear Modulus (GPa) = 20.38573 22.68812 21.53692
#
# Velocity S-wave (km/s) = 3.32337 3.50603 3.41592
# Velocity P-wave (km/s) = 6.27316 6.47995 6.37739
#
# Compressibility (1/GPa) = 0.02200070
#
# Stress axis : x y z
#
# Youngs Moduli (GPa) = 56.45456 55.98463 48.09458
#
# Poissons Ratio (x) = 0.40046 0.17265
# Poissons Ratio (y) = 0.40383 0.30976
# Poissons Ratio (z) = 0.20266 0.36057
#
# Static dielectric constant tensor:
#      x y z
#    x 3.491310 0.000000 0.000000 
#    y 0.000000 3.445840 0.000000 
#    z 0.000000 0.000000 3.264270 
# 
# 
# High freq. dielectric constant tensor:
#      x y z
#    x 1.704120 0.000000 0.000000 
#    y 0.000000 1.702650 0.000000 
#    z 0.000000 0.000000 1.708170 
# 
# From -- ./inp_files/3553.got.cif
#   From: 2010.03.12/outbox.cif.g09.slc.cpg/sg59_2_cif.got.tgz:3553.got - 2010.04.16 16:29:54.
