data_PCOD8241754
_publ_section_title
;
Structure prediction by ZEFSAII (Michael W. Deem and Ramdas Pophale) SiO2 
 PCOD8241754
Probable space group: P M M N
;
_chemical_formula_sum "Si O2"
_cell_formula_units_Z 48
_cell_length_a 8.847474
_cell_length_b 18.695528
_cell_length_c 14.834526
_cell_angle_alpha 90.000000
_cell_angle_beta 90.000000
_cell_angle_gamma 90.000000
_cell_volume 2453.752212
_symmetry_space_group_name_H-M "P M M N"
_symmetry_group_IT_number 59
_space_group.IT_coordinate_system_code '2'
_symmetry_cell_setting 'orthorhombic'
loop_
_space_group_symop_operation_xyz
x,y,z
1/2-x,1/2-y,z
1/2+x,-y,-z
-x,1/2+y,-z
-x,-y,-z
1/2+x,1/2+y,-z
1/2-x,y,z
x,1/2-y,z
loop_
_atom_site_type_symbol
_atom_site_label
_atom_site_fract_x
_atom_site_fract_y
_atom_site_fract_z
Si Si1 0.572547 0.833756 0.965971
Si Si2 0.427563 0.553207 0.621829
Si Si3 0.069916 0.569716 0.826339
Si Si4 0.426793 0.400171 0.548436
Si Si5 0.077240 0.669628 0.294377
Si Si6 0.070079 0.922725 0.126130
O O1 0.750000 0.850128 0.971681
O O2 0.538453 0.750000 0.974946
O O3 0.505599 0.860738 0.870901
O O4 0.485013 0.875404 0.043573
O O5 0.250000 0.561441 0.614544
O O6 0.483678 0.569847 0.722484
O O7 0.481002 0.473735 0.595284
O O8 0.501609 0.608383 0.550998
O O9 0.250000 0.572063 0.835374
O O10 0.008827 0.499686 0.877696
O O11 0.250000 0.395650 0.536874
O O12 0.482321 0.337418 0.613857
O O13 0.250000 0.652117 0.317508
O O14 0.057814 0.750000 0.257708
O O15 0.016744 0.616501 0.217484
O O16 0.250000 0.931231 0.120839
#
# Coordination Sequence:
#
# PCOD8241754 Si02
#       6
#     8   8   8   8   8   8
#     4  11  25  43  61  84 117 155 195 242 296 350
#     4   9  19  35  56  83 114 148 188 233 284 340
#     4  11  22  39  63  90 119 151 195 244 291 347
#     4  10  19  33  55  83 114 148 190 236 283 338
#     4  10  21  36  55  82 118 157 195 238 291 349
#     4  11  22  38  62  89 118 153 196 242 292 350
#
# _framework density 19.561876999999999
#
# number of rings (size 3 to 8) (size 9 to 14) (size 15 to 20)
#    0.000    1.667    1.667    3.000    0.000    5.000 
#    0.000    0.833    0.000    1.000    0.000    0.000 
#    0.000    0.000    0.000    0.000    0.000    0.000 
#
# Total GULP energy -595384.434616 kJ/mol
# GULP energy per Si atom -12403.842388 kJ/mol
# Density = 1.951735 g / cm^3
# Si number density = 19.561877 Si / 1000 Ang^3
#
#
#
# Elastic Constant Matrix: (Units=GPa)
#
#
# Indices 1 2 3 4 5 6 
#
# 1 39.2591 15.3668 20.3790 0.0000 0.0000 0.0000
# 2 15.3668 53.0723 25.3351 0.0000 0.0000 0.0000
# 3 20.3790 25.3351 112.2723 0.0000 0.0000 0.0000
# 4 0.0000 0.0000 0.0000 23.3584 0.0000 0.0000
# 5 0.0000 0.0000 0.0000 0.0000 33.5163 0.0000
# 6 0.0000 0.0000 0.0000 0.0000 0.0000 27.1255
#
#
#
# Elastic Compliance Matrix: (Units=1/GPa)
#
#
# Indices 1 2 3 4 5 6 
#
# 1 0.030201 -0.006867 -0.003932 0.000000 0.000000 0.000000
# 2 -0.006867 0.022679 -0.003871 0.000000 0.000000 0.000000
# 3 -0.003932 -0.003871 0.010494 0.000000 0.000000 0.000000
# 4 0.000000 0.000000 0.000000 0.042811 0.000000 0.000000
# 5 0.000000 0.000000 0.000000 0.000000 0.029836 0.000000
# 6 0.000000 0.000000 0.000000 0.000000 0.000000 0.036866
#
#
# Mechanical properties :
#
#
# Convention : Reuss Voigt Hill
#
# Bulk Modulus (GPa) = 29.38377 36.30727 32.84552
# Shear Modulus (GPa) = 23.41125 26.36821 24.88973
#
# Velocity S-wave (km/s) = 3.46320 3.67541 3.57088
# Velocity P-wave (km/s) = 5.57183 6.05079 5.81624
#
# Compressibility (1/GPa) = 0.03403240
#
# Stress axis : x y z
#
# Youngs Moduli (GPa) = 33.11147 44.09447 95.29065
#
# Poissons Ratio (x) = 0.30281 0.37471
# Poissons Ratio (y) = 0.22739 0.36888
# Poissons Ratio (z) = 0.13020 0.17069
#
# Static dielectric constant tensor:
#      x y z
#    x 3.510620 0.000000 0.000000 
#    y 0.000000 3.460310 0.000000 
#    z 0.000000 0.000000 3.780390 
# 
# 
# High freq. dielectric constant tensor:
#      x y z
#    x 1.767180 0.000000 0.000000 
#    y 0.000000 1.744910 0.000000 
#    z 0.000000 0.000000 1.773890 
# 
# From -- ./inp_files/20452.got.cif
#   From: 2010.03.12/outbox.cif.g09.slc.cpg/sg59_11_cif.got.tgz:20452.got - 2010.04.16 16:29:54.
