data_PCOD8241525
_publ_section_title
;
Structure prediction by ZEFSAII (Michael W. Deem and Ramdas Pophale) SiO2 
 PCOD8241525
Probable space group: P M M N
;
_chemical_formula_sum "Si O2"
_cell_formula_units_Z 48
_cell_length_a 8.868485
_cell_length_b 15.663242
_cell_length_c 19.048264
_cell_angle_alpha 90.000000
_cell_angle_beta 90.000000
_cell_angle_gamma 90.000000
_cell_volume 2645.979623
_symmetry_space_group_name_H-M "P M M N"
_symmetry_group_IT_number 59
_space_group.IT_coordinate_system_code '2'
_symmetry_cell_setting 'orthorhombic'
loop_
_space_group_symop_operation_xyz
x,y,z
1/2-x,1/2-y,z
1/2+x,-y,-z
-x,1/2+y,-z
-x,-y,-z
1/2+x,1/2+y,-z
1/2-x,y,z
x,1/2-y,z
loop_
_atom_site_type_symbol
_atom_site_label
_atom_site_fract_x
_atom_site_fract_y
_atom_site_fract_z
Si Si1 0.423472 0.250000 0.790485
Si Si2 0.575601 0.921923 0.703312
Si Si3 0.923700 0.437465 0.945462
Si Si4 0.930097 0.566260 0.206093
Si Si5 0.580045 0.250000 0.931372
Si Si6 0.080715 0.750000 0.536949
Si Si7 0.579586 0.250000 0.296143
Si Si8 0.923814 0.921412 0.537863
O O1 0.250000 0.250000 0.772892
O O2 0.488177 0.341050 0.763031
O O3 0.450445 0.250000 0.873572
O O4 0.750000 0.926540 0.724467
O O5 0.508286 0.832945 0.731677
O O6 0.551696 0.930734 0.620562
O O7 0.483717 0.997325 0.738631
O O8 0.750000 0.463247 0.938380
O O9 0.940466 0.339020 0.974035
O O10 0.999277 0.450655 0.869857
O O11 0.000000 0.500000 0.000000
O O12 0.750000 0.563978 0.198720
O O13 0.750000 0.250000 0.898056
O O14 0.250000 0.750000 0.507061
O O15 0.079953 0.750000 0.620411
O O16 0.996753 0.834118 0.508938
O O17 0.750000 0.250000 0.266582
O O18 0.750000 0.919187 0.517298
O O19 0.000000 0.000000 0.500000
#
# Coordination Sequence:
#
# PCOD8241525 Si02
#       8
#     4   8   8   8   4   4   4   8
#     4   8  16  30  49  72  97 126 164 205 244 292
#     4  10  20  34  52  76 104 134 168 209 253 300
#     4  10  19  33  52  75 101 130 165 206 251 300
#     4  10  19  33  53  76 101 132 169 209 253 302
#     4   8  16  30  49  70  95 128 163 197 239 294
#     4   9  17  31  52  75 100 131 169 209 253 307
#     4   9  17  31  52  75  98 131 170 207 248 301
#     4  10  20  34  53  76 103 135 172 212 255 302
#
# _framework density 18.140730999999999
#
# number of rings (size 3 to 8) (size 9 to 14) (size 15 to 20)
#    0.000    2.500    0.000    2.500    0.000    5.333 
#    0.000    1.667    0.000    5.000    0.000    0.000 
#    0.000    0.000    0.000    0.000    0.000    0.000 
#
# Total GULP energy -594828.657398 kJ/mol
# GULP energy per Si atom -12392.263696 kJ/mol
# Density = 1.809944 g / cm^3
# Si number density = 18.140731 Si / 1000 Ang^3
#
#
#
# Elastic Constant Matrix: (Units=GPa)
#
#
# Indices 1 2 3 4 5 6 
#
# 1 119.0290 73.9964 35.3727 0.0000 0.0000 0.0000
# 2 73.9964 185.7702 42.7486 0.0000 0.0000 0.0000
# 3 35.3727 42.7486 28.9692 0.0000 0.0000 0.0000
# 4 0.0000 0.0000 0.0000 28.0775 0.0000 0.0000
# 5 0.0000 0.0000 0.0000 0.0000 27.6892 0.0000
# 6 0.0000 0.0000 0.0000 0.0000 0.0000 34.3488
#
#
#
# Elastic Compliance Matrix: (Units=1/GPa)
#
#
# Indices 1 2 3 4 5 6 
#
# 1 0.013896 -0.002469 -0.013324 0.000000 0.000000 0.000000
# 2 -0.002469 0.008589 -0.009660 0.000000 0.000000 0.000000
# 3 -0.013324 -0.009660 0.065044 0.000000 0.000000 0.000000
# 4 0.000000 0.000000 0.000000 0.035616 0.000000 0.000000
# 5 0.000000 0.000000 0.000000 0.000000 0.036115 0.000000
# 6 0.000000 0.000000 0.000000 0.000000 0.000000 0.029113
#
#
# Mechanical properties :
#
#
# Convention : Reuss Voigt Hill
#
# Bulk Modulus (GPa) = 27.30564 70.88932 49.09748
# Shear Modulus (GPa) = 19.88172 30.13314 25.00743
#
# Velocity S-wave (km/s) = 3.31414 4.08005 3.71688
# Velocity P-wave (km/s) = 5.45247 7.83314 6.74861
#
# Compressibility (1/GPa) = 0.03662248
#
# Stress axis : x y z
#
# Youngs Moduli (GPa) = 71.96445 116.42228 15.37423
#
# Poissons Ratio (x) = 0.28744 0.20485
# Poissons Ratio (y) = 0.17767 0.14852
# Poissons Ratio (z) = 0.95886 1.12468
#
# Static dielectric constant tensor:
#      x y z
#    x 3.557320 0.000000 0.000000 
#    y 0.000000 3.808550 0.000000 
#    z 0.000000 0.000000 2.889470 
# 
# 
# High freq. dielectric constant tensor:
#      x y z
#    x 1.719110 0.000000 0.000000 
#    y 0.000000 1.729270 0.000000 
#    z 0.000000 0.000000 1.649510 
# 
# From -- ./inp_files/25692.got.cif
#   From: 2010.03.12/outbox.cif.g09.slc.cpg/sg59_13_cif.got.tgz:25692.got - 2010.04.16 16:29:54.
