data_PCOD8241691
_publ_section_title
;
Structure prediction by ZEFSAII (Michael W. Deem and Ramdas Pophale) SiO2 
 PCOD8241691
Probable space group: P M M N
;
_chemical_formula_sum "Si O2"
_cell_formula_units_Z 40
_cell_length_a 18.726334
_cell_length_b 12.393717
_cell_length_c 9.869981
_cell_angle_alpha 90.000000
_cell_angle_beta 90.000000
_cell_angle_gamma 90.000000
_cell_volume 2290.712876
_symmetry_space_group_name_H-M "P M M N"
_symmetry_group_IT_number 59
_space_group.IT_coordinate_system_code '2'
_symmetry_cell_setting 'orthorhombic'
loop_
_space_group_symop_operation_xyz
x,y,z
1/2-x,1/2-y,z
1/2+x,-y,-z
-x,1/2+y,-z
-x,-y,-z
1/2+x,1/2+y,-z
1/2-x,y,z
x,1/2-y,z
loop_
_atom_site_type_symbol
_atom_site_label
_atom_site_fract_x
_atom_site_fract_y
_atom_site_fract_z
Si Si1 0.435184 0.122317 0.113652
Si Si2 0.668516 0.624766 0.644795
Si Si3 0.409758 0.959682 0.878297
Si Si4 0.827887 0.250000 0.414133
Si Si5 0.671165 0.250000 0.092298
Si Si6 0.664639 0.479249 0.398689
O O1 0.434641 0.250000 0.085281
O O2 0.379419 0.089143 0.229546
O O3 0.512239 0.082736 0.163378
O O4 0.412433 0.061332 0.977673
O O5 0.750000 0.592702 0.678687
O O6 0.660580 0.750000 0.614253
O O7 0.641644 0.567120 0.508213
O O8 0.369453 0.859582 0.951857
O O9 0.370605 0.005397 0.745313
O O10 0.750000 0.250000 0.482111
O O11 0.822602 0.250000 0.252675
O O12 0.865473 0.137223 0.454553
O O13 0.750000 0.250000 0.025490
O O14 0.750000 0.473784 0.377037
#
# Coordination Sequence:
#
# PCOD8241691 Si02
#       6
#     8   8   8   4   4   8
#     4  10  21  36  52  73 107 144 176 214 262 317
#     4   9  19  35  52  71 101 138 172 210 259 312
#     4  10  19  33  55  77 104 138 178 219 261 310
#     4   7  12  24  45  71  97 122 152 200 254 294
#     4   9  16  30  53  81 104 128 170 220 265 304
#     4   9  17  31  53  78 101 128 170 217 258 305
#
# _framework density 17.461812999999999
#
# number of rings (size 3 to 8) (size 9 to 14) (size 15 to 20)
#    0.000    2.800    1.000    1.800    0.000    3.200 
#    0.000    1.000    0.000    1.200    0.000    0.000 
#    0.000    0.000    0.000    0.000    0.000    0.000 
#
# Total GULP energy -495745.147310 kJ/mol
# GULP energy per Si atom -12393.628683 kJ/mol
# Density = 1.742207 g / cm^3
# Si number density = 17.461813 Si / 1000 Ang^3
#
#
#
# Elastic Constant Matrix: (Units=GPa)
#
#
# Indices 1 2 3 4 5 6 
#
# 1 89.8110 47.9897 56.6281 0.0000 0.0000 0.0000
# 2 47.9897 86.7830 61.2179 0.0000 0.0000 0.0000
# 3 56.6281 61.2179 92.4865 0.0000 0.0000 0.0000
# 4 0.0000 0.0000 0.0000 24.9301 0.0000 0.0000
# 5 0.0000 0.0000 0.0000 0.0000 28.0123 0.0000
# 6 0.0000 0.0000 0.0000 0.0000 0.0000 22.3982
#
#
#
# Elastic Compliance Matrix: (Units=1/GPa)
#
#
# Indices 1 2 3 4 5 6 
#
# 1 0.018957 -0.004305 -0.008757 0.000000 0.000000 0.000000
# 2 -0.004305 0.022594 -0.012319 0.000000 0.000000 0.000000
# 3 -0.008757 -0.012319 0.024328 0.000000 0.000000 0.000000
# 4 0.000000 0.000000 0.000000 0.040112 0.000000 0.000000
# 5 0.000000 0.000000 0.000000 0.000000 0.035699 0.000000
# 6 0.000000 0.000000 0.000000 0.000000 0.000000 0.044646
#
#
# Mechanical properties :
#
#
# Convention : Reuss Voigt Hill
#
# Bulk Modulus (GPa) = 66.15575 66.75019 66.45297
# Shear Modulus (GPa) = 20.64945 21.95111 21.30028
#
# Velocity S-wave (km/s) = 3.44255 3.54940 3.49638
# Velocity P-wave (km/s) = 7.33279 7.42341 7.37824
#
# Compressibility (1/GPa) = 0.01511584
#
# Stress axis : x y z
#
# Youngs Moduli (GPa) = 52.75216 44.25997 41.10436
#
# Poissons Ratio (x) = 0.19055 0.35995
# Poissons Ratio (y) = 0.22712 0.50636
# Poissons Ratio (z) = 0.46195 0.54524
#
# Static dielectric constant tensor:
#      x y z
#    x 3.346430 0.000000 0.000000 
#    y 0.000000 3.531800 0.000000 
#    z 0.000000 0.000000 2.939300 
# 
# 
# High freq. dielectric constant tensor:
#      x y z
#    x 1.672220 0.000000 0.000000 
#    y 0.000000 1.687010 0.000000 
#    z 0.000000 0.000000 1.645290 
# 
# From -- ./inp_files/11143.got.cif
#   From: 2010.03.12/outbox.cif.g09.slc.cpg/sg59_6_cif.got.tgz:11143.got - 2010.04.16 16:29:54.
