data_PCOD8241792
_publ_section_title
;
Structure prediction by ZEFSAII (Michael W. Deem and Ramdas Pophale) SiO2 
 PCOD8241792
Probable space group: P M M N
;
_chemical_formula_sum "Si O2"
_cell_formula_units_Z 64
_cell_length_a 19.059000
_cell_length_b 14.246285
_cell_length_c 12.475194
_cell_angle_alpha 90.000000
_cell_angle_beta 90.000000
_cell_angle_gamma 90.000000
_cell_volume 3387.263999
_symmetry_space_group_name_H-M "P M M N"
_symmetry_group_IT_number 59
_space_group.IT_coordinate_system_code '2'
_symmetry_cell_setting 'orthorhombic'
loop_
_space_group_symop_operation_xyz
x,y,z
1/2-x,1/2-y,z
1/2+x,-y,-z
-x,1/2+y,-z
-x,-y,-z
1/2+x,1/2+y,-z
1/2-x,y,z
x,1/2-y,z
loop_
_atom_site_type_symbol
_atom_site_label
_atom_site_fract_x
_atom_site_fract_y
_atom_site_fract_z
Si Si1 0.670073 0.063696 0.451170
Si Si2 0.963121 0.637779 0.683383
Si Si3 0.966637 0.143928 0.528137
Si Si4 0.361633 0.643551 0.181489
Si Si5 0.487635 0.356188 0.754345
Si Si6 0.907002 0.468008 0.231721
Si Si7 0.672707 0.526881 0.670370
Si Si8 0.329204 0.645052 0.944108
O O1 0.750000 0.103264 0.441788
O O2 0.614867 0.141130 0.492921
O O3 0.644137 0.029941 0.334744
O O4 0.667320 0.981670 0.540793
O O5 0.963907 0.750000 0.694433
O O6 0.886389 0.598314 0.713709
O O7 0.982068 0.603072 0.562888
O O8 0.023026 0.594964 0.758644
O O9 0.986387 0.250000 0.549401
O O10 0.984569 0.096010 0.641841
O O11 0.337997 0.750000 0.212032
O O12 0.445762 0.640752 0.167559
O O13 0.334340 0.575215 0.274599
O O14 0.330599 0.612202 0.067632
O O15 0.457996 0.250000 0.745183
O O16 0.426461 0.424161 0.795757
O O17 0.868724 0.429507 0.127965
O O18 0.750000 0.567447 0.698830
O O19 0.250000 0.647062 0.903231
O O20 0.361896 0.750000 0.932806
#
# Coordination Sequence:
#
# PCOD8241792 Si02
#       8
#     8   8   8   8   8   8   8   8
#     4  10  20  31  49  80 111 141 178 221 268 317
#     4  10  20  34  52  77 107 147 186 218 258 314
#     4   9  17  31  51  75 110 148 179 215 265 322
#     4  10  20  37  58  82 107 136 177 222 269 323
#     4  10  19  33  56  85 110 138 180 225 272 320
#     4  11  20  36  58  79 110 144 181 220 269 318
#     4  11  21  34  53  79 110 142 176 221 272 318
#     4  10  22  39  58  80 108 143 180 219 267 326
#
# _framework density 18.894306
#
# number of rings (size 3 to 8) (size 9 to 14) (size 15 to 20)
#    0.000    1.875    2.500    1.875    0.000    4.250 
#    0.000    1.250    0.000    2.250    0.000    0.000 
#    0.000    0.000    0.000    0.000    0.000    0.000 
#
# Total GULP energy -793192.045816 kJ/mol
# GULP energy per Si atom -12393.625716 kJ/mol
# Density = 1.885130 g / cm^3
# Si number density = 18.894306 Si / 1000 Ang^3
#
#
#
# Elastic Constant Matrix: (Units=GPa)
#
#
# Indices 1 2 3 4 5 6 
#
# 1 114.4639 48.1551 35.3283 0.0000 0.0000 0.0000
# 2 48.1551 83.6507 33.5608 0.0000 0.0000 0.0000
# 3 35.3283 33.5608 57.0585 0.0000 0.0000 0.0000
# 4 0.0000 0.0000 0.0000 18.5323 0.0000 0.0000
# 5 0.0000 0.0000 0.0000 0.0000 22.9787 0.0000
# 6 0.0000 0.0000 0.0000 0.0000 0.0000 26.0839
#
#
#
# Elastic Compliance Matrix: (Units=1/GPa)
#
#
# Indices 1 2 3 4 5 6 
#
# 1 0.012366 -0.005297 -0.004541 0.000000 0.000000 0.000000
# 2 -0.005297 0.017916 -0.007258 0.000000 0.000000 0.000000
# 3 -0.004541 -0.007258 0.024607 0.000000 0.000000 0.000000
# 4 0.000000 0.000000 0.000000 0.053960 0.000000 0.000000
# 5 0.000000 0.000000 0.000000 0.000000 0.043519 0.000000
# 6 0.000000 0.000000 0.000000 0.000000 0.000000 0.038338
#
#
# Mechanical properties :
#
#
# Convention : Reuss Voigt Hill
#
# Bulk Modulus (GPa) = 48.31771 54.36239 51.34005
# Shear Modulus (GPa) = 21.57068 22.72759 22.14914
#
# Velocity S-wave (km/s) = 3.38250 3.47202 3.42755
# Velocity P-wave (km/s) = 6.39400 6.70131 6.54945
#
# Compressibility (1/GPa) = 0.02069634
#
# Stress axis : x y z
#
# Youngs Moduli (GPa) = 80.86400 55.81688 40.63952
#
# Poissons Ratio (x) = 0.29566 0.18455
# Poissons Ratio (y) = 0.42834 0.29496
# Poissons Ratio (z) = 0.36722 0.40512
#
# Static dielectric constant tensor:
#      x y z
#    x 3.536880 0.000000 0.000000 
#    y 0.000000 3.233920 0.000000 
#    z 0.000000 0.000000 3.387270 
# 
# 
# High freq. dielectric constant tensor:
#      x y z
#    x 1.734000 0.000000 0.000000 
#    y 0.000000 1.714590 0.000000 
#    z 0.000000 0.000000 1.719320 
# 
# From -- ./inp_files/17836.got.cif
#   From: 2010.03.12/outbox.cif.g09.slc.cpg/sg59_9_cif.got.tgz:17836.got - 2010.04.16 16:29:54.
