data_PCOD8241152
_publ_section_title
;
Structure prediction by ZEFSAII (Michael W. Deem and Ramdas Pophale) SiO2 
 PCOD8241152
Probable space group: P M M N
;
_chemical_formula_sum "Si O2"
_cell_formula_units_Z 64
_cell_length_a 9.512895
_cell_length_b 18.958451
_cell_length_c 20.064978
_cell_angle_alpha 90.000000
_cell_angle_beta 90.000000
_cell_angle_gamma 90.000000
_cell_volume 3618.713841
_symmetry_space_group_name_H-M "P M M N"
_symmetry_group_IT_number 59
_space_group.IT_coordinate_system_code '2'
_symmetry_cell_setting 'orthorhombic'
loop_
_space_group_symop_operation_xyz
x,y,z
1/2-x,1/2-y,z
1/2+x,-y,-z
-x,1/2+y,-z
-x,-y,-z
1/2+x,1/2+y,-z
1/2-x,y,z
x,1/2-y,z
loop_
_atom_site_type_symbol
_atom_site_label
_atom_site_fract_x
_atom_site_fract_y
_atom_site_fract_z
Si Si1 0.410989 0.039527 0.785583
Si Si2 0.413906 0.171111 0.532358
Si Si3 0.411801 0.554338 0.093623
Si Si4 0.409741 0.575603 0.951984
Si Si5 0.405602 0.875746 0.816149
Si Si6 0.907613 0.827850 0.705963
Si Si7 0.085652 0.444088 0.634797
Si Si8 0.917967 0.574303 0.588048
O O1 0.250000 0.062959 0.793928
O O2 0.502081 0.081433 0.841642
O O3 0.465505 0.058519 0.711487
O O4 0.433666 0.957174 0.798080
O O5 0.250000 0.180066 0.518853
O O6 0.482814 0.250000 0.532285
O O7 0.441601 0.133157 0.603308
O O8 0.473628 0.120207 0.474396
O O9 0.250000 0.545589 0.115332
O O10 0.471247 0.481076 0.065378
O O11 0.426873 0.605390 0.027951
O O12 0.250000 0.543554 0.944124
O O13 0.426741 0.636572 0.895769
O O14 0.250000 0.853778 0.793960
O O15 0.509750 0.827061 0.775195
O O16 0.750000 0.849011 0.724059
O O17 0.915342 0.750000 0.673755
O O18 0.967925 0.883305 0.653396
O O19 0.250000 0.465302 0.630604
O O20 0.997340 0.499795 0.590912
O O21 0.750000 0.562324 0.585007
#
# Coordination Sequence:
#
# PCOD8241152 Si02
#       8
#     8   8   8   8   8   8   8   8
#     4   9  17  28  41  62  94 123 149 190 237 276
#     4   9  18  33  53  75  97 125 161 198 239 288
#     4   9  15  23  39  62  87 117 152 187 226 276
#     4   8  15  26  38  57  87 119 150 188 230 272
#     4   9  16  28  43  59  86 121 154 192 233 277
#     4  10  20  31  43  63  92 124 158 197 240 286
#     4  10  19  32  51  73  98 128 161 198 238 285
#     4  10  19  32  51  73  97 124 157 199 242 287
#
# _framework density 17.685842000000001
#
# number of rings (size 3 to 8) (size 9 to 14) (size 15 to 20)
#    0.000    2.750    1.250    1.875    0.000    4.750 
#    0.000    0.000    0.000    2.250    0.000    0.875 
#    0.000    3.000    0.000    0.000    0.000    0.000 
#
# Total GULP energy -792930.041647 kJ/mol
# GULP energy per Si atom -12389.531901 kJ/mol
# Density = 1.764559 g / cm^3
# Si number density = 17.685842 Si / 1000 Ang^3
#
#
#
# Elastic Constant Matrix: (Units=GPa)
#
#
# Indices 1 2 3 4 5 6 
#
# 1 54.0288 20.1695 38.7413 0.0000 0.0000 0.0000
# 2 20.1695 57.7017 38.9605 0.0000 0.0000 0.0000
# 3 38.7413 38.9605 136.3068 0.0000 0.0000 0.0000
# 4 0.0000 0.0000 0.0000 12.6852 0.0000 0.0000
# 5 0.0000 0.0000 0.0000 0.0000 24.3533 0.0000
# 6 0.0000 0.0000 0.0000 0.0000 0.0000 14.4790
#
#
#
# Elastic Compliance Matrix: (Units=1/GPa)
#
#
# Indices 1 2 3 4 5 6 
#
# 1 0.024248 -0.004737 -0.005538 0.000000 0.000000 0.000000
# 2 -0.004737 0.022400 -0.005056 0.000000 0.000000 0.000000
# 3 -0.005538 -0.005056 0.010356 0.000000 0.000000 0.000000
# 4 0.000000 0.000000 0.000000 0.078832 0.000000 0.000000
# 5 0.000000 0.000000 0.000000 0.000000 0.041062 0.000000
# 6 0.000000 0.000000 0.000000 0.000000 0.000000 0.069065
#
#
# Mechanical properties :
#
#
# Convention : Reuss Voigt Hill
#
# Bulk Modulus (GPa) = 37.96220 49.30889 43.63554
# Shear Modulus (GPa) = 17.51893 20.31459 18.91676
#
# Velocity S-wave (km/s) = 3.15073 3.39283 3.27402
# Velocity P-wave (km/s) = 5.89470 6.57946 6.24647
#
# Compressibility (1/GPa) = 0.02634199
#
# Stress axis : x y z
#
# Youngs Moduli (GPa) = 41.24088 44.64227 96.56558
#
# Poissons Ratio (x) = 0.21145 0.53477
# Poissons Ratio (y) = 0.19534 0.48828
# Poissons Ratio (z) = 0.22839 0.22573
#
# Static dielectric constant tensor:
#      x y z
#    x 3.161470 0.000000 0.000000 
#    y 0.000000 2.903190 0.000000 
#    z 0.000000 0.000000 3.755070 
# 
# 
# High freq. dielectric constant tensor:
#      x y z
#    x 1.670290 0.000000 0.000000 
#    y 0.000000 1.627440 0.000000 
#    z 0.000000 0.000000 1.704330 
# 
# From -- ./inp_files/29479.got.cif
#   From: 2010.03.12/outbox.cif.g09.slc.cpg/sg59_15_cif.got.tgz:29479.got - 2010.04.16 16:29:54.
