data_PCOD8241912
_publ_section_title
;
Structure prediction by ZEFSAII (Michael W. Deem and Ramdas Pophale) SiO2 
 PCOD8241912
Probable space group: P M M N
;
_chemical_formula_sum "Si O2"
_cell_formula_units_Z 64
_cell_length_a 23.146957
_cell_length_b 20.599800
_cell_length_c 6.632774
_cell_angle_alpha 90.000000
_cell_angle_beta 90.000000
_cell_angle_gamma 90.000000
_cell_volume 3162.657106
_symmetry_space_group_name_H-M "P M M N"
_symmetry_group_IT_number 59
_space_group.IT_coordinate_system_code '2'
_symmetry_cell_setting 'orthorhombic'
loop_
_space_group_symop_operation_xyz
x,y,z
1/2-x,1/2-y,z
1/2+x,-y,-z
-x,1/2+y,-z
-x,-y,-z
1/2+x,1/2+y,-z
1/2-x,y,z
x,1/2-y,z
loop_
_atom_site_type_symbol
_atom_site_label
_atom_site_fract_x
_atom_site_fract_y
_atom_site_fract_z
Si Si1 0.185648 0.924805 0.389341
Si Si2 0.851989 0.561520 0.706269
Si Si3 0.906845 0.878028 0.334147
Si Si4 0.015424 0.323809 0.328366
Si Si5 0.434629 0.486233 0.975606
Si Si6 0.604523 0.107313 0.245919
Si Si7 0.315868 0.823535 0.042855
Si Si8 0.627469 0.677974 0.940213
O O1 0.250000 0.909264 0.473258
O O2 0.136280 0.919622 0.556254
O O3 0.168439 0.872685 0.220968
O O4 0.189028 0.998611 0.301186
O O5 0.860366 0.589883 0.483521
O O6 0.829818 0.622277 0.846639
O O7 0.911970 0.538924 0.809185
O O8 0.957000 0.841575 0.455986
O O9 0.933261 0.934101 0.200367
O O10 0.875149 0.827702 0.182888
O O11 0.993684 0.250000 0.336484
O O12 0.063125 0.332898 0.152976
O O13 0.960005 0.368847 0.292429
O O14 0.397879 0.548916 0.913053
O O15 0.500000 0.500000 0.000000
O O16 0.642774 0.164260 0.148125
O O17 0.250000 0.833962 0.971447
O O18 0.325868 0.750000 0.119586
O O19 0.650417 0.750000 0.884144
#
# Coordination Sequence:
#
# PCOD8241912 Si02
#       8
#     8   8   8   8   8   8   8   8
#     4  11  24  41  62  87 113 150 201 254 301 349
#     4  10  20  37  57  86 114 150 197 235 291 351
#     4  10  19  34  55  81 117 154 190 232 282 343
#     4  10  22  35  52  82 118 159 199 234 283 351
#     4  11  22  33  54  84 116 155 188 230 286 351
#     4  12  22  37  58  84 118 154 200 247 297 342
#     4  10  23  43  63  82 111 155 205 257 304 344
#     4   9  19  36  57  85 120 156 192 229 282 357
#
# _framework density 20.236146999999999
#
# number of rings (size 3 to 8) (size 9 to 14) (size 15 to 20)
#    0.000    1.625    2.500    3.375    1.750    3.500 
#    0.000    1.250    0.000    0.375    0.000    0.000 
#    0.000    0.000    0.000    0.000    0.000    0.000 
#
# Total GULP energy -793287.375833 kJ/mol
# GULP energy per Si atom -12395.115247 kJ/mol
# Density = 2.019009 g / cm^3
# Si number density = 20.236147 Si / 1000 Ang^3
#
#
#
# Elastic Constant Matrix: (Units=GPa)
#
#
# Indices 1 2 3 4 5 6 
#
# 1 34.3618 15.2505 18.4206 0.0000 0.0000 0.0000
# 2 15.2505 137.9293 35.1656 0.0000 0.0000 0.0000
# 3 18.4206 35.1656 105.5548 0.0000 0.0000 0.0000
# 4 0.0000 0.0000 0.0000 30.9414 0.0000 0.0000
# 5 0.0000 0.0000 0.0000 0.0000 19.9792 0.0000
# 6 0.0000 0.0000 0.0000 0.0000 0.0000 27.2632
#
#
#
# Elastic Compliance Matrix: (Units=1/GPa)
#
#
# Indices 1 2 3 4 5 6 
#
# 1 0.032799 -0.002368 -0.004935 0.000000 0.000000 0.000000
# 2 -0.002368 0.008094 -0.002283 0.000000 0.000000 0.000000
# 3 -0.004935 -0.002283 0.011096 0.000000 0.000000 0.000000
# 4 0.000000 0.000000 0.000000 0.032319 0.000000 0.000000
# 5 0.000000 0.000000 0.000000 0.000000 0.050052 0.000000
# 6 0.000000 0.000000 0.000000 0.000000 0.000000 0.036680
#
#
# Mechanical properties :
#
#
# Convention : Reuss Voigt Hill
#
# Bulk Modulus (GPa) = 30.47328 46.16881 38.32104
# Shear Modulus (GPa) = 24.85706 29.57071 27.21389
#
# Velocity S-wave (km/s) = 3.50858 3.82682 3.67115
# Velocity P-wave (km/s) = 5.61294 6.51081 6.07847
#
# Compressibility (1/GPa) = 0.03281563
#
# Stress axis : x y z
#
# Youngs Moduli (GPa) = 30.48912 123.54720 90.12595
#
# Poissons Ratio (x) = 0.29260 0.44475
# Poissons Ratio (y) = 0.07221 0.20578
# Poissons Ratio (z) = 0.15046 0.28209
#
# Static dielectric constant tensor:
#      x y z
#    x 3.274870 0.000000 0.000000 
#    y 0.000000 4.095230 0.000000 
#    z 0.000000 0.000000 3.719780 
# 
# 
# High freq. dielectric constant tensor:
#      x y z
#    x 1.753860 0.000000 0.000000 
#    y 0.000000 1.816430 0.000000 
#    z 0.000000 0.000000 1.791750 
# 
# From -- ./inp_files/4331.got.cif
#   From: 2010.03.12/outbox.cif.g09.slc.cpg/sg59_3_cif.got.tgz:4331.got - 2010.04.16 16:29:54.
