data_PCOD8241443
_publ_section_title
;
Structure prediction by ZEFSAII (Michael W. Deem and Ramdas Pophale) SiO2 
 PCOD8241443
Probable space group: P M M N
;
_chemical_formula_sum "Si O2"
_cell_formula_units_Z 64
_cell_length_a 16.151760
_cell_length_b 9.304253
_cell_length_c 22.801392
_cell_angle_alpha 90.000000
_cell_angle_beta 90.000000
_cell_angle_gamma 90.000000
_cell_volume 3426.594591
_symmetry_space_group_name_H-M "P M M N"
_symmetry_group_IT_number 59
_space_group.IT_coordinate_system_code '2'
_symmetry_cell_setting 'orthorhombic'
loop_
_space_group_symop_operation_xyz
x,y,z
1/2-x,1/2-y,z
1/2+x,-y,-z
-x,1/2+y,-z
-x,-y,-z
1/2+x,1/2+y,-z
1/2-x,y,z
x,1/2-y,z
loop_
_atom_site_type_symbol
_atom_site_label
_atom_site_fract_x
_atom_site_fract_y
_atom_site_fract_z
Si Si1 0.027286 0.084621 0.943336
Si Si2 0.154029 0.407723 0.250889
Si Si3 0.345080 0.417618 0.645161
Si Si4 0.157921 0.906547 0.884864
Si Si5 0.045856 0.582773 0.180354
Si Si6 0.504518 0.583859 0.440049
Si Si7 0.844764 0.414717 0.636354
Si Si8 0.099814 0.582251 0.759348
O O1 0.032905 0.250000 0.960323
O O2 0.966441 0.056025 0.888667
O O3 0.116374 0.030526 0.922829
O O4 0.000000 0.000000 0.000000
O O5 0.250000 0.384588 0.249515
O O6 0.111026 0.250000 0.246557
O O7 0.133522 0.512153 0.196041
O O8 0.127479 0.483990 0.310827
O O9 0.250000 0.444315 0.622182
O O10 0.357979 0.250000 0.659960
O O11 0.415794 0.467814 0.598611
O O12 0.357033 0.508104 0.704208
O O13 0.250000 0.900958 0.908622
O O14 0.114854 0.750000 0.895495
O O15 0.158830 0.940048 0.815611
O O16 0.040083 0.750000 0.195887
O O17 0.985424 0.496105 0.224005
O O18 0.500000 0.500000 0.500000
O O19 0.517106 0.750000 0.454366
O O20 0.414390 0.555160 0.412000
O O21 0.750000 0.448902 0.614321
O O22 0.849167 0.250000 0.657746
O O23 0.084949 0.750000 0.745264
#
# Coordination Sequence:
#
# PCOD8241443 Si02
#       8
#     8   8   8   8   8   8   8   8
#     4  10  21  36  54  75 100 135 179 221 260 305
#     4  10  20  33  52  81 111 136 169 216 267 316
#     4  10  21  36  53  76 109 145 176 211 261 321
#     4   9  18  33  53  78 108 138 168 208 258 309
#     4  10  20  34  53  77 105 140 178 214 261 320
#     4  10  22  38  54  74 101 135 178 223 265 313
#     4   9  18  34  56  79 104 136 173 216 267 321
#     4  10  19  32  54  83 111 138 171 213 261 311
#
# _framework density 18.677436
#
# number of rings (size 3 to 8) (size 9 to 14) (size 15 to 20)
#    0.000    2.250    0.000    2.625    0.000    6.250 
#    0.000    0.625    0.000    0.750    0.000    0.000 
#    0.000    0.000    0.000    0.000    0.000    0.000 
#
# Total GULP energy -793169.699313 kJ/mol
# GULP energy per Si atom -12393.276552 kJ/mol
# Density = 1.863493 g / cm^3
# Si number density = 18.677436 Si / 1000 Ang^3
#
#
#
# Elastic Constant Matrix: (Units=GPa)
#
#
# Indices 1 2 3 4 5 6 
#
# 1 68.2613 49.5209 66.6696 0.0000 0.0000 0.0000
# 2 49.5209 120.7658 79.1875 0.0000 0.0000 0.0000
# 3 66.6696 79.1875 114.9883 0.0000 0.0000 0.0000
# 4 0.0000 0.0000 0.0000 36.1229 0.0000 0.0000
# 5 0.0000 0.0000 0.0000 0.0000 12.6980 0.0000
# 6 0.0000 0.0000 0.0000 0.0000 0.0000 24.7470
#
#
#
# Elastic Compliance Matrix: (Units=1/GPa)
#
#
# Indices 1 2 3 4 5 6 
#
# 1 0.034002 -0.001852 -0.018439 0.000000 0.000000 0.000000
# 2 -0.001852 0.015199 -0.009393 0.000000 0.000000 0.000000
# 3 -0.018439 -0.009393 0.025856 0.000000 0.000000 0.000000
# 4 0.000000 0.000000 0.000000 0.027683 0.000000 0.000000
# 5 0.000000 0.000000 0.000000 0.000000 0.078753 0.000000
# 6 0.000000 0.000000 0.000000 0.000000 0.000000 0.040409
#
#
# Mechanical properties :
#
#
# Convention : Reuss Voigt Hill
#
# Bulk Modulus (GPa) = 63.73899 77.19683 70.46791
# Shear Modulus (GPa) = 17.45205 21.95607 19.70406
#
# Velocity S-wave (km/s) = 3.06010 3.43233 3.25155
# Velocity P-wave (km/s) = 6.83271 7.55839 7.20469
#
# Compressibility (1/GPa) = 0.01568898
#
# Stress axis : x y z
#
# Youngs Moduli (GPa) = 29.40995 65.79297 38.67622
#
# Poissons Ratio (x) = 0.12188 0.71313
# Poissons Ratio (y) = 0.05448 0.36329
# Poissons Ratio (z) = 0.54228 0.61799
#
# Static dielectric constant tensor:
#      x y z
#    x 3.557450 0.000000 0.000000 
#    y 0.000000 3.715880 0.000000 
#    z 0.000000 0.000000 3.275000 
# 
# 
# High freq. dielectric constant tensor:
#      x y z
#    x 1.727530 0.000000 0.000000 
#    y 0.000000 1.736890 0.000000 
#    z 0.000000 0.000000 1.707740 
# 
# From -- ./inp_files/30727.got.cif
#   From: 2010.03.12/outbox.cif.g09.slc.cpg/sg59_16_cif.got.tgz:30727.got - 2010.04.16 16:29:54.
