data_PCOD8241907
_publ_section_title
;
Structure prediction by ZEFSAII (Michael W. Deem and Ramdas Pophale) SiO2 
 PCOD8241907
Probable space group: P M M N
;
_chemical_formula_sum "Si O2"
_cell_formula_units_Z 48
_cell_length_a 18.929118
_cell_length_b 13.377111
_cell_length_c 10.096782
_cell_angle_alpha 90.000000
_cell_angle_beta 90.000000
_cell_angle_gamma 90.000000
_cell_volume 2556.675965
_symmetry_space_group_name_H-M "P M M N"
_symmetry_group_IT_number 59
_space_group.IT_coordinate_system_code '2'
_symmetry_cell_setting 'orthorhombic'
loop_
_space_group_symop_operation_xyz
x,y,z
1/2-x,1/2-y,z
1/2+x,-y,-z
-x,1/2+y,-z
-x,-y,-z
1/2+x,1/2+y,-z
1/2-x,y,z
x,1/2-y,z
loop_
_atom_site_type_symbol
_atom_site_label
_atom_site_fract_x
_atom_site_fract_y
_atom_site_fract_z
Si Si1 0.957937 0.568250 0.821582
Si Si2 0.032959 0.632929 0.559264
Si Si3 0.921350 0.861400 0.330955
Si Si4 0.831196 0.010527 0.459633
Si Si5 0.482789 0.860786 0.091218
Si Si6 0.327008 0.139620 0.301676
O O1 0.936100 0.452984 0.854464
O O2 0.884925 0.627892 0.811912
O O3 0.004487 0.574136 0.688113
O O4 0.001582 0.620532 0.937924
O O5 0.030878 0.750000 0.589121
O O6 0.114734 0.603422 0.530395
O O7 0.983849 0.605226 0.433515
O O8 0.896244 0.750000 0.368070
O O9 0.855470 0.937380 0.340588
O O10 0.946284 0.864492 0.179133
O O11 0.750000 0.046683 0.438382
O O12 0.839712 0.944885 0.590617
O O13 0.446938 0.750000 0.107729
O O14 0.250000 0.127789 0.236152
O O15 0.335100 0.250000 0.366566
#
# Coordination Sequence:
#
# PCOD8241907 Si02
#       6
#     8   8   8   8   8   8
#     4  11  20  36  59  81 110 144 183 228 271 321
#     4  11  21  35  58  81 105 143 190 229 266 321
#     4  10  19  34  55  81 109 136 176 229 277 321
#     4  11  21  33  51  79 113 143 176 220 274 324
#     4  10  21  34  55  84 112 141 179 227 275 320
#     4  10  20  34  55  83 111 142 182 228 277 328
#
# _framework density 18.774377999999999
#
# number of rings (size 3 to 8) (size 9 to 14) (size 15 to 20)
#    0.000    1.500    3.333    3.500    0.000    1.333 
#    0.000    0.833    0.000    2.500    0.000    0.000 
#    0.000    0.000    0.000    0.000    0.000    0.000 
#
# Total GULP energy -594835.295552 kJ/mol
# GULP energy per Si atom -12392.401991 kJ/mol
# Density = 1.873165 g / cm^3
# Si number density = 18.774378 Si / 1000 Ang^3
#
#
#
# Elastic Constant Matrix: (Units=GPa)
#
#
# Indices 1 2 3 4 5 6 
#
# 1 105.0364 31.0680 16.8113 0.0000 0.0000 0.0000
# 2 31.0680 91.5948 28.8415 0.0000 0.0000 0.0000
# 3 16.8113 28.8415 71.0725 0.0000 0.0000 0.0000
# 4 0.0000 0.0000 0.0000 23.5646 0.0000 0.0000
# 5 0.0000 0.0000 0.0000 0.0000 13.3523 0.0000
# 6 0.0000 0.0000 0.0000 0.0000 0.0000 26.2784
#
#
#
# Elastic Compliance Matrix: (Units=1/GPa)
#
#
# Indices 1 2 3 4 5 6 
#
# 1 0.010672 -0.003239 -0.001210 0.000000 0.000000 0.000000
# 2 -0.003239 0.013500 -0.004712 0.000000 0.000000 0.000000
# 3 -0.001210 -0.004712 0.016269 0.000000 0.000000 0.000000
# 4 0.000000 0.000000 0.000000 0.042437 0.000000 0.000000
# 5 0.000000 0.000000 0.000000 0.000000 0.074894 0.000000
# 6 0.000000 0.000000 0.000000 0.000000 0.000000 0.038054
#
#
# Mechanical properties :
#
#
# Convention : Reuss Voigt Hill
#
# Bulk Modulus (GPa) = 45.21097 46.79392 46.00244
# Shear Modulus (GPa) = 22.57131 25.37126 23.97129
#
# Velocity S-wave (km/s) = 3.47110 3.68010 3.57712
# Velocity P-wave (km/s) = 6.34020 6.56018 6.45113
#
# Compressibility (1/GPa) = 0.02211853
#
# Stress axis : x y z
#
# Youngs Moduli (GPa) = 93.70154 74.07384 61.46810
#
# Poissons Ratio (x) = 0.23992 0.07438
# Poissons Ratio (y) = 0.30349 0.28965
# Poissons Ratio (z) = 0.11338 0.34905
#
# Static dielectric constant tensor:
#      x y z
#    x 3.369860 0.000000 0.000000 
#    y 0.000000 3.786490 0.000000 
#    z 0.000000 0.000000 3.327610 
# 
# 
# High freq. dielectric constant tensor:
#      x y z
#    x 1.694680 0.000000 0.000000 
#    y 0.000000 1.751380 0.000000 
#    z 0.000000 0.000000 1.717740 
# 
# From -- ./inp_files/11288.got.cif
#   From: 2010.03.12/outbox.cif.g09.slc.cpg/sg59_6_cif.got.tgz:11288.got - 2010.04.16 16:29:54.
