data_PCOD8241286
_publ_section_title
;
Structure prediction by ZEFSAII (Michael W. Deem and Ramdas Pophale) SiO2 
 PCOD8241286
Probable space group: P M M N
;
_chemical_formula_sum "Si O2"
_cell_formula_units_Z 64
_cell_length_a 8.983573
_cell_length_b 32.938656
_cell_length_c 11.586815
_cell_angle_alpha 90.000000
_cell_angle_beta 90.000000
_cell_angle_gamma 90.000000
_cell_volume 3428.617589
_symmetry_space_group_name_H-M "P M M N"
_symmetry_group_IT_number 59
_space_group.IT_coordinate_system_code '2'
_symmetry_cell_setting 'orthorhombic'
loop_
_space_group_symop_operation_xyz
x,y,z
1/2-x,1/2-y,z
1/2+x,-y,-z
-x,1/2+y,-z
-x,-y,-z
1/2+x,1/2+y,-z
1/2-x,y,z
x,1/2-y,z
loop_
_atom_site_type_symbol
_atom_site_label
_atom_site_fract_x
_atom_site_fract_y
_atom_site_fract_z
Si Si1 0.076801 0.029457 0.735361
Si Si2 0.075226 0.560051 0.732710
Si Si3 0.580312 0.353692 0.653075
Si Si4 0.579693 0.063190 0.523801
Si Si5 0.927278 0.130391 0.102020
Si Si6 0.574002 0.890545 0.137953
Si Si7 0.924870 0.703393 0.773529
Si Si8 0.084308 0.297586 0.487903
O O1 0.250000 0.035646 0.714406
O O2 0.020635 0.064116 0.823766
O O3 0.003729 0.032559 0.609226
O O4 0.040245 0.984668 0.786012
O O5 0.250000 0.567645 0.723824
O O6 0.007197 0.562293 0.603786
O O7 0.007750 0.595213 0.813551
O O8 0.750000 0.347996 0.694328
O O9 0.562270 0.391399 0.568478
O O10 0.475362 0.358662 0.764304
O O11 0.530123 0.314785 0.580863
O O12 0.750000 0.048864 0.519569
O O13 0.750000 0.130397 0.097875
O O14 0.983308 0.174345 0.142082
O O15 0.989095 0.120905 0.976843
O O16 0.750000 0.887849 0.118582
O O17 0.750000 0.696695 0.793102
O O18 0.967702 0.750000 0.801851
O O19 0.969200 0.692498 0.642097
O O20 0.250000 0.315736 0.507637
O O21 0.089190 0.250000 0.506144
#
# Coordination Sequence:
#
# PCOD8241286 Si02
#       8
#     8   8   8   8   8   8   8   8
#     4   9  18  33  52  73 100 137 177 214 256 307
#     4   9  18  32  50  75 107 138 168 210 263 311
#     4  10  19  32  52  77 104 136 173 212 258 310
#     4   9  17  30  49  74 104 134 166 209 261 312
#     4  11  22  36  55  78 105 138 177 221 265 310
#     4  10  21  37  54  72  99 138 182 224 262 304
#     4   9  19  37  59  82 110 141 170 205 253 308
#     4   9  18  33  54  81 111 139 166 201 251 310
#
# _framework density 18.666416000000002
#
# number of rings (size 3 to 8) (size 9 to 14) (size 15 to 20)
#    0.000    2.500    0.000    3.000    0.000    3.500 
#    0.000    4.375    0.000    3.750    0.000    0.000 
#    0.000    0.000    0.000    0.000    0.000    0.000 
#
# Total GULP energy -793537.063130 kJ/mol
# GULP energy per Si atom -12399.016611 kJ/mol
# Density = 1.862393 g / cm^3
# Si number density = 18.666416 Si / 1000 Ang^3
#
#
#
# Elastic Constant Matrix: (Units=GPa)
#
#
# Indices 1 2 3 4 5 6 
#
# 1 56.4468 38.7082 40.3423 0.0000 0.0000 0.0000
# 2 38.7082 91.2048 70.8172 0.0000 0.0000 0.0000
# 3 40.3423 70.8172 122.3852 0.0000 0.0000 0.0000
# 4 0.0000 0.0000 0.0000 26.0485 0.0000 0.0000
# 5 0.0000 0.0000 0.0000 0.0000 29.3558 0.0000
# 6 0.0000 0.0000 0.0000 0.0000 0.0000 24.3717
#
#
#
# Elastic Compliance Matrix: (Units=1/GPa)
#
#
# Indices 1 2 3 4 5 6 
#
# 1 0.026009 -0.007956 -0.003970 0.000000 0.000000 0.000000
# 2 -0.007956 0.022343 -0.010306 0.000000 0.000000 0.000000
# 3 -0.003970 -0.010306 0.015443 0.000000 0.000000 0.000000
# 4 0.000000 0.000000 0.000000 0.038390 0.000000 0.000000
# 5 0.000000 0.000000 0.000000 0.000000 0.034065 0.000000
# 6 0.000000 0.000000 0.000000 0.000000 0.000000 0.041031
#
#
# Mechanical properties :
#
#
# Convention : Reuss Voigt Hill
#
# Bulk Modulus (GPa) = 51.72959 63.30802 57.51881
# Shear Modulus (GPa) = 21.91168 23.96646 22.93907
#
# Velocity S-wave (km/s) = 3.42987 3.58709 3.50936
# Velocity P-wave (km/s) = 6.59228 7.15160 6.87763
#
# Compressibility (1/GPa) = 0.01933129
#
# Stress axis : x y z
#
# Youngs Moduli (GPa) = 38.44859 44.75598 64.75406
#
# Poissons Ratio (x) = 0.35608 0.25705
# Poissons Ratio (y) = 0.30590 0.66737
# Poissons Ratio (z) = 0.15263 0.46126
#
# Static dielectric constant tensor:
#      x y z
#    x 3.321290 0.000000 0.000000 
#    y 0.000000 3.477000 0.000000 
#    z 0.000000 0.000000 3.417860 
# 
# 
# High freq. dielectric constant tensor:
#      x y z
#    x 1.712540 0.000000 0.000000 
#    y 0.000000 1.726620 0.000000 
#    z 0.000000 0.000000 1.717970 
# 
# From -- ./inp_files/14979.got.cif
#   From: 2010.03.12/outbox.cif.g09.slc.cpg/sg59_8_cif.got.tgz:14979.got - 2010.04.16 16:29:54.
