data_PCOD8241203
_publ_section_title
;
Structure prediction by ZEFSAII (Michael W. Deem and Ramdas Pophale) SiO2 
 PCOD8241203
Probable space group: P M M N
;
_chemical_formula_sum "Si O2"
_cell_formula_units_Z 56
_cell_length_a 9.038967
_cell_length_b 21.208180
_cell_length_c 16.825096
_cell_angle_alpha 90.000000
_cell_angle_beta 90.000000
_cell_angle_gamma 90.000000
_cell_volume 3225.371562
_symmetry_space_group_name_H-M "P M M N"
_symmetry_group_IT_number 59
_space_group.IT_coordinate_system_code '2'
_symmetry_cell_setting 'orthorhombic'
loop_
_space_group_symop_operation_xyz
x,y,z
1/2-x,1/2-y,z
1/2+x,-y,-z
-x,1/2+y,-z
-x,-y,-z
1/2+x,1/2+y,-z
1/2-x,y,z
x,1/2-y,z
loop_
_atom_site_type_symbol
_atom_site_label
_atom_site_fract_x
_atom_site_fract_y
_atom_site_fract_z
Si Si1 0.075707 0.009714 0.788017
Si Si2 0.081584 0.594856 0.525492
Si Si3 0.925461 0.131631 0.201521
Si Si4 0.419406 0.035894 0.614678
Si Si5 0.924141 0.942652 0.045551
Si Si6 0.584465 0.823622 0.643708
Si Si7 0.422218 0.320547 0.048793
O O1 0.250000 0.003619 0.777707
O O2 0.015117 0.037155 0.704624
O O3 0.030925 0.054954 0.861268
O O4 0.014001 0.939814 0.806147
O O5 0.250000 0.617832 0.518218
O O6 0.068860 0.534878 0.582750
O O7 0.021472 0.581356 0.437331
O O8 0.981350 0.649090 0.562499
O O9 0.750000 0.135384 0.197315
O O10 0.977313 0.159983 0.284219
O O11 0.990936 0.173045 0.130732
O O12 0.250000 0.059659 0.610756
O O13 0.750000 0.952332 0.035387
O O14 0.976116 0.874333 0.013163
O O15 0.000000 0.000000 0.000000
O O16 0.750000 0.850559 0.658687
O O17 0.591239 0.750000 0.631657
O O18 0.250000 0.329505 0.067512
O O19 0.452775 0.250000 0.014183
#
# Coordination Sequence:
#
# PCOD8241203 Si02
#       7
#     8   8   8   8   8   8   8
#     4   9  17  31  51  75 103 132 168 214 261 305
#     4  10  19  32  51  76 101 131 170 207 249 301
#     4  11  20  33  52  76 104 137 176 213 256 311
#     4   9  17  32  51  72 100 132 162 206 259 304
#     4  10  19  33  53  75 101 136 176 221 265 309
#     4  11  23  36  50  72 105 142 175 208 251 307
#     4  10  21  35  50  73 106 141 175 213 263 321
#
# _framework density 17.362341000000001
#
# number of rings (size 3 to 8) (size 9 to 14) (size 15 to 20)
#    0.000    2.000    2.857    1.714    0.000    3.714 
#    0.000    0.714    0.000    0.857    0.000    4.000 
#    0.000    0.000    0.000    0.000    0.000    0.000 
#
# Total GULP energy -694370.805334 kJ/mol
# GULP energy per Si atom -12399.478667 kJ/mol
# Density = 1.732282 g / cm^3
# Si number density = 17.362341 Si / 1000 Ang^3
#
#
#
# Elastic Constant Matrix: (Units=GPa)
#
#
# Indices 1 2 3 4 5 6 
#
# 1 51.4704 35.3012 26.9154 0.0000 0.0000 0.0000
# 2 35.3012 97.5803 56.0501 0.0000 0.0000 0.0000
# 3 26.9154 56.0501 125.8675 0.0000 0.0000 0.0000
# 4 0.0000 0.0000 0.0000 24.1720 0.0000 0.0000
# 5 0.0000 0.0000 0.0000 0.0000 14.1954 0.0000
# 6 0.0000 0.0000 0.0000 0.0000 0.0000 21.8696
#
#
#
# Elastic Compliance Matrix: (Units=1/GPa)
#
#
# Indices 1 2 3 4 5 6 
#
# 1 0.026158 -0.008398 -0.001854 0.000000 0.000000 0.000000
# 2 -0.008398 0.016467 -0.005537 0.000000 0.000000 0.000000
# 3 -0.001854 -0.005537 0.010807 0.000000 0.000000 0.000000
# 4 0.000000 0.000000 0.000000 0.041370 0.000000 0.000000
# 5 0.000000 0.000000 0.000000 0.000000 0.070445 0.000000
# 6 0.000000 0.000000 0.000000 0.000000 0.000000 0.045726
#
#
# Mechanical properties :
#
#
# Convention : Reuss Voigt Hill
#
# Bulk Modulus (GPa) = 45.75886 56.82793 51.29340
# Shear Modulus (GPa) = 20.01322 22.49083 21.25202
#
# Velocity S-wave (km/s) = 3.39880 3.60304 3.50241
# Velocity P-wave (km/s) = 6.46644 7.07890 6.77959
#
# Compressibility (1/GPa) = 0.02185369
#
# Stress axis : x y z
#
# Youngs Moduli (GPa) = 38.22915 60.72925 92.53359
#
# Poissons Ratio (x) = 0.51002 0.17154
# Poissons Ratio (y) = 0.32106 0.51234
# Poissons Ratio (z) = 0.07087 0.33625
#
# Static dielectric constant tensor:
#      x y z
#    x 3.232130 0.000000 0.000000 
#    y 0.000000 3.240140 0.000000 
#    z 0.000000 0.000000 3.402270 
# 
# 
# High freq. dielectric constant tensor:
#      x y z
#    x 1.665160 0.000000 0.000000 
#    y 0.000000 1.651390 0.000000 
#    z 0.000000 0.000000 1.670800 
# 
# From -- ./inp_files/26118.got.cif
#   From: 2010.03.12/outbox.cif.g09.slc.cpg/sg59_14_cif.got.tgz:26118.got - 2010.04.16 16:29:54.
