data_PCOD8241481
_publ_section_title
;
Structure prediction by ZEFSAII (Michael W. Deem and Ramdas Pophale) SiO2 
 PCOD8241481
Probable space group: P M M N
;
_chemical_formula_sum "Si O2"
_cell_formula_units_Z 52
_cell_length_a 7.769102
_cell_length_b 22.976896
_cell_length_c 15.903923
_cell_angle_alpha 90.000000
_cell_angle_beta 90.000000
_cell_angle_gamma 90.000000
_cell_volume 2839.006888
_symmetry_space_group_name_H-M "P M M N"
_symmetry_group_IT_number 59
_space_group.IT_coordinate_system_code '2'
_symmetry_cell_setting 'orthorhombic'
loop_
_space_group_symop_operation_xyz
x,y,z
1/2-x,1/2-y,z
1/2+x,-y,-z
-x,1/2+y,-z
-x,-y,-z
1/2+x,1/2+y,-z
1/2-x,y,z
x,1/2-y,z
loop_
_atom_site_type_symbol
_atom_site_label
_atom_site_fract_x
_atom_site_fract_y
_atom_site_fract_z
Si Si1 0.059877 0.180991 0.448078
Si Si2 0.750000 0.319521 0.564880
Si Si3 0.250000 0.891622 0.265689
Si Si4 0.951921 0.815940 0.740174
Si Si5 0.444032 0.585320 0.861961
Si Si6 0.250000 0.682571 0.099422
Si Si7 0.939422 0.615538 0.038103
Si Si8 0.948007 0.961500 0.197083
O O1 0.250000 0.156330 0.472260
O O2 0.068563 0.250000 0.447818
O O3 0.007243 0.161336 0.354066
O O4 0.918526 0.159250 0.514216
O O5 0.750000 0.250000 0.579433
O O6 0.750000 0.353036 0.651682
O O7 0.250000 0.847456 0.189085
O O8 0.422858 0.930895 0.263014
O O9 0.750000 0.818490 0.757646
O O10 0.020077 0.750000 0.752798
O O11 0.047364 0.857183 0.805488
O O12 0.250000 0.576213 0.893790
O O13 0.499873 0.529382 0.807110
O O14 0.561169 0.589723 0.944379
O O15 0.250000 0.750000 0.116503
O O16 0.419599 0.666168 0.046463
O O17 0.750000 0.642211 0.055480
O O18 0.978170 0.564212 0.103983
O O19 0.750000 0.952441 0.227074
#
# Coordination Sequence:
#
# PCOD8241481 Si02
#       8
#     8   4   4   8   8   4   8   8
#     4   8  16  32  52  77 108 138 169 212 260 310
#     4  10  19  32  57  88 107 132 177 217 264 328
#     4  10  21  36  58  80 105 142 174 222 278 310
#     4   9  19  34  51  77 111 143 175 212 263 324
#     4  11  21  33  53  82 106 140 184 226 264 307
#     4  10  21  38  53  76 113 144 175 217 270 326
#     4  10  20  36  55  76 106 142 185 225 267 302
#     4   9  21  37  54  78 105 139 183 231 264 309
#
# _framework density 18.316265000000001
#
# number of rings (size 3 to 8) (size 9 to 14) (size 15 to 20)
#    0.000    2.462    0.769    2.077    3.231    1.846 
#    0.000    0.000    0.000    3.692    0.000    0.000 
#    0.000    0.000    0.000    0.000    0.000    0.000 
#
# Total GULP energy -644721.712779 kJ/mol
# GULP energy per Si atom -12398.494477 kJ/mol
# Density = 1.827458 g / cm^3
# Si number density = 18.316265 Si / 1000 Ang^3
#
#
#
# Elastic Constant Matrix: (Units=GPa)
#
#
# Indices 1 2 3 4 5 6 
#
# 1 106.1551 35.9873 37.9200 0.0000 0.0000 0.0000
# 2 35.9873 83.0986 22.7055 0.0000 0.0000 0.0000
# 3 37.9200 22.7055 80.4101 0.0000 0.0000 0.0000
# 4 0.0000 0.0000 0.0000 19.7820 0.0000 0.0000
# 5 0.0000 0.0000 0.0000 0.0000 25.6999 0.0000
# 6 0.0000 0.0000 0.0000 0.0000 0.0000 18.9220
#
#
#
# Elastic Compliance Matrix: (Units=1/GPa)
#
#
# Indices 1 2 3 4 5 6 
#
# 1 0.012509 -0.004124 -0.004735 0.000000 0.000000 0.000000
# 2 -0.004124 0.014399 -0.002121 0.000000 0.000000 0.000000
# 3 -0.004735 -0.002121 0.015268 0.000000 0.000000 0.000000
# 4 0.000000 0.000000 0.000000 0.050551 0.000000 0.000000
# 5 0.000000 0.000000 0.000000 0.000000 0.038911 0.000000
# 6 0.000000 0.000000 0.000000 0.000000 0.000000 0.052848
#
#
# Mechanical properties :
#
#
# Convention : Reuss Voigt Hill
#
# Bulk Modulus (GPa) = 49.46272 51.43218 50.44745
# Shear Modulus (GPa) = 23.45370 24.41751 23.93560
#
# Velocity S-wave (km/s) = 3.58227 3.65513 3.61888
# Velocity P-wave (km/s) = 6.64632 6.77896 6.71297
#
# Compressibility (1/GPa) = 0.02021725
#
# Stress axis : x y z
#
# Youngs Moduli (GPa) = 79.93929 69.44749 65.49604
#
# Poissons Ratio (x) = 0.28638 0.31011
# Poissons Ratio (y) = 0.32965 0.13894
# Poissons Ratio (z) = 0.37850 0.14732
#
# Static dielectric constant tensor:
#      x y z
#    x 3.728460 0.000000 0.000000 
#    y 0.000000 3.190590 0.000000 
#    z 0.000000 0.000000 3.199720 
# 
# 
# High freq. dielectric constant tensor:
#      x y z
#    x 1.726020 0.000000 0.000000 
#    y 0.000000 1.685220 0.000000 
#    z 0.000000 0.000000 1.691170 
# 
# From -- ./inp_files/20859.got.cif
#   From: 2010.03.12/outbox.cif.g09.slc.cpg/sg59_11_cif.got.tgz:20859.got - 2010.04.16 16:29:54.
