data_PCOD8241272
_publ_section_title
;
Structure prediction by ZEFSAII (Michael W. Deem and Ramdas Pophale) SiO2 
 PCOD8241272
Probable space group: P M M N
;
_chemical_formula_sum "Si O2"
_cell_formula_units_Z 64
_cell_length_a 9.046897
_cell_length_b 24.850665
_cell_length_c 15.650521
_cell_angle_alpha 90.000000
_cell_angle_beta 90.000000
_cell_angle_gamma 90.000000
_cell_volume 3518.572146
_symmetry_space_group_name_H-M "P M M N"
_symmetry_group_IT_number 59
_space_group.IT_coordinate_system_code '2'
_symmetry_cell_setting 'orthorhombic'
loop_
_space_group_symop_operation_xyz
x,y,z
1/2-x,1/2-y,z
1/2+x,-y,-z
-x,1/2+y,-z
-x,-y,-z
1/2+x,1/2+y,-z
1/2-x,y,z
x,1/2-y,z
loop_
_atom_site_type_symbol
_atom_site_label
_atom_site_fract_x
_atom_site_fract_y
_atom_site_fract_z
Si Si1 0.913365 0.553912 0.985611
Si Si2 0.079445 0.689096 0.112415
Si Si3 0.575608 0.553626 0.467807
Si Si4 0.577250 0.810216 0.759586
Si Si5 0.076593 0.651171 0.923972
Si Si6 0.574239 0.474010 0.693827
Si Si7 0.086787 0.406128 0.825450
Si Si8 0.922716 0.907123 0.644651
O O1 0.750000 0.542511 0.947095
O O2 0.002957 0.591930 0.920580
O O3 0.898574 0.582731 0.075339
O O4 0.000000 0.500000 0.000000
O O5 0.250000 0.674888 0.126366
O O6 0.042070 0.750000 0.136856
O O7 0.988587 0.652536 0.179337
O O8 0.039052 0.680167 0.013093
O O9 0.500000 0.500000 0.500000
O O10 0.750000 0.545143 0.454888
O O11 0.497292 0.566358 0.377512
O O12 0.544321 0.597861 0.542430
O O13 0.750000 0.820298 0.776826
O O14 0.551678 0.750000 0.721883
O O15 0.491615 0.813345 0.848775
O O16 0.511085 0.855098 0.693777
O O17 0.250000 0.644685 0.909281
O O18 0.750000 0.470032 0.688536
O O19 0.515167 0.452220 0.783840
O O20 0.517301 0.535630 0.681546
O O21 0.250000 0.404967 0.782756
O O22 0.750000 0.907422 0.660513
#
# Coordination Sequence:
#
# PCOD8241272 Si02
#       8
#     8   8   8   8   8   8   8   8
#     4  10  21  35  50  71 102 138 175 214 260 311
#     4   9  18  34  54  72  95 131 172 211 256 306
#     4   9  16  30  51  74 100 128 163 205 252 307
#     4  10  20  34  52  75 103 136 176 218 259 309
#     4  10  20  34  51  73 100 134 176 218 261 304
#     4  10  19  32  52  76 104 135 168 208 261 317
#     4  10  21  34  49  75 104 130 168 211 255 303
#     4   8  17  32  50  74 100 132 167 205 258 312
#
# _framework density 18.189197
#
# number of rings (size 3 to 8) (size 9 to 14) (size 15 to 20)
#    0.000    2.500    0.000    3.000    1.750    3.000 
#    0.000    3.125    0.000    0.750    0.000    1.750 
#    0.000    0.000    0.000    0.000    0.000    0.000 
#
# Total GULP energy -793200.342858 kJ/mol
# GULP energy per Si atom -12393.755357 kJ/mol
# Density = 1.814780 g / cm^3
# Si number density = 18.189197 Si / 1000 Ang^3
#
#
#
# Elastic Constant Matrix: (Units=GPa)
#
#
# Indices 1 2 3 4 5 6 
#
# 1 93.1733 41.5156 29.1265 0.0000 0.0000 0.0000
# 2 41.5156 110.0511 35.2858 0.0000 0.0000 0.0000
# 3 29.1265 35.2858 53.2789 0.0000 0.0000 0.0000
# 4 0.0000 0.0000 0.0000 22.5309 0.0000 0.0000
# 5 0.0000 0.0000 0.0000 0.0000 29.0856 0.0000
# 6 0.0000 0.0000 0.0000 0.0000 0.0000 23.7582
#
#
#
# Elastic Compliance Matrix: (Units=1/GPa)
#
#
# Indices 1 2 3 4 5 6 
#
# 1 0.013976 -0.003583 -0.005267 0.000000 0.000000 0.000000
# 2 -0.003583 0.012455 -0.006290 0.000000 0.000000 0.000000
# 3 -0.005267 -0.006290 0.025814 0.000000 0.000000 0.000000
# 4 0.000000 0.000000 0.000000 0.044384 0.000000 0.000000
# 5 0.000000 0.000000 0.000000 0.000000 0.034381 0.000000
# 6 0.000000 0.000000 0.000000 0.000000 0.000000 0.042091
#
#
# Mechanical properties :
#
#
# Convention : Reuss Voigt Hill
#
# Bulk Modulus (GPa) = 45.52797 52.03990 48.78393
# Shear Modulus (GPa) = 23.73004 25.11329 24.42167
#
# Velocity S-wave (km/s) = 3.61587 3.71977 3.66819
# Velocity P-wave (km/s) = 6.52053 6.86450 6.69472
#
# Compressibility (1/GPa) = 0.02196452
#
# Stress axis : x y z
#
# Youngs Moduli (GPa) = 71.55168 80.28737 38.73830
#
# Poissons Ratio (x) = 0.28771 0.20404
# Poissons Ratio (y) = 0.25640 0.24366
# Poissons Ratio (z) = 0.37687 0.50500
#
# Static dielectric constant tensor:
#      x y z
#    x 3.513970 0.000000 0.000000 
#    y 0.000000 3.495080 0.000000 
#    z 0.000000 0.000000 3.541480 
# 
# 
# High freq. dielectric constant tensor:
#      x y z
#    x 1.705240 0.000000 0.000000 
#    y 0.000000 1.689850 0.000000 
#    z 0.000000 0.000000 1.688000 
# 
# From -- ./inp_files/21507.got.cif
#   From: 2010.03.12/outbox.cif.g09.slc.cpg/sg59_11_cif.got.tgz:21507.got - 2010.04.16 16:29:54.
