data_PCOD8241540
_publ_section_title
;
Structure prediction by ZEFSAII (Michael W. Deem and Ramdas Pophale) SiO2 
 PCOD8241540
Probable space group: P M M N
;
_chemical_formula_sum "Si O2"
_cell_formula_units_Z 64
_cell_length_a 19.804614
_cell_length_b 9.053020
_cell_length_c 19.062916
_cell_angle_alpha 90.000000
_cell_angle_beta 90.000000
_cell_angle_gamma 90.000000
_cell_volume 3417.820074
_symmetry_space_group_name_H-M "P M M N"
_symmetry_group_IT_number 59
_space_group.IT_coordinate_system_code '2'
_symmetry_cell_setting 'orthorhombic'
loop_
_space_group_symop_operation_xyz
x,y,z
1/2-x,1/2-y,z
1/2+x,-y,-z
-x,1/2+y,-z
-x,-y,-z
1/2+x,1/2+y,-z
1/2-x,y,z
x,1/2-y,z
loop_
_atom_site_type_symbol
_atom_site_label
_atom_site_fract_x
_atom_site_fract_y
_atom_site_fract_z
Si Si1 0.170646 0.924578 0.190079
Si Si2 0.591887 0.575878 0.935287
Si Si3 0.566451 0.577839 0.713699
Si Si4 0.823209 0.574954 0.477350
Si Si5 0.824681 0.924188 0.322488
Si Si6 0.548591 0.575933 0.555736
Si Si7 0.063359 0.581665 0.931805
Si Si8 0.925213 0.415963 0.224688
O O1 0.250000 0.963980 0.196761
O O2 0.159391 0.750000 0.186611
O O3 0.141254 0.996447 0.119281
O O4 0.131189 0.988192 0.258076
O O5 0.604329 0.750000 0.928820
O O6 0.514227 0.530537 0.922386
O O7 0.606462 0.519372 0.014612
O O8 0.587017 0.750000 0.711201
O O9 0.541264 0.524418 0.636488
O O10 0.504637 0.548361 0.766616
O O11 0.750000 0.511685 0.499422
O O12 0.819989 0.750000 0.473341
O O13 0.843290 0.515336 0.400020
O O14 0.876410 0.523582 0.534928
O O15 0.750000 0.982236 0.301223
O O16 0.824890 0.750000 0.322449
O O17 0.880431 0.974518 0.268621
O O18 0.500000 0.500000 0.500000
O O19 0.537259 0.750000 0.548361
O O20 0.065614 0.750000 0.958956
O O21 0.097073 0.565502 0.855759
O O22 0.911760 0.250000 0.251344
#
# Coordination Sequence:
#
# PCOD8241540 Si02
#       8
#     8   8   8   8   8   8   8   8
#     4  11  24  40  58  82 114 152 192 235 285 339
#     4  10  19  35  58  83 109 139 180 225 268 320
#     4  10  21  37  55  81 112 145 188 233 277 333
#     4   8  15  30  50  71  97 133 177 219 261 315
#     4   9  18  32  50  73 102 136 177 223 268 321
#     4  10  20  33  54  81 110 141 178 227 280 332
#     4   9  18  33  54  80 111 142 174 217 268 321
#     4  10  19  33  52  77 110 142 175 219 269 323
#
# _framework density 18.725386
#
# number of rings (size 3 to 8) (size 9 to 14) (size 15 to 20)
#    0.000    2.375    1.250    2.250    0.000    3.750 
#    0.000    1.875    0.000    1.875    0.000    0.000 
#    0.000    0.000    0.000    0.000    0.000    0.000 
#
# Total GULP energy -793299.994928 kJ/mol
# GULP energy per Si atom -12395.312421 kJ/mol
# Density = 1.868277 g / cm^3
# Si number density = 18.725386 Si / 1000 Ang^3
#
#
#
# Elastic Constant Matrix: (Units=GPa)
#
#
# Indices 1 2 3 4 5 6 
#
# 1 73.8427 36.5221 45.4260 0.0000 0.0000 0.0000
# 2 36.5221 58.4413 40.1365 0.0000 0.0000 0.0000
# 3 45.4260 40.1365 119.1597 0.0000 0.0000 0.0000
# 4 0.0000 0.0000 0.0000 27.3606 0.0000 0.0000
# 5 0.0000 0.0000 0.0000 0.0000 30.4552 0.0000
# 6 0.0000 0.0000 0.0000 0.0000 0.0000 25.2261
#
#
#
# Elastic Compliance Matrix: (Units=1/GPa)
#
#
# Indices 1 2 3 4 5 6 
#
# 1 0.021505 -0.010159 -0.004776 0.000000 0.000000 0.000000
# 2 -0.010159 0.027060 -0.005242 0.000000 0.000000 0.000000
# 3 -0.004776 -0.005242 0.011978 0.000000 0.000000 0.000000
# 4 0.000000 0.000000 0.000000 0.036549 0.000000 0.000000
# 5 0.000000 0.000000 0.000000 0.000000 0.032835 0.000000
# 6 0.000000 0.000000 0.000000 0.000000 0.000000 0.039641
#
#
# Mechanical properties :
#
#
# Convention : Reuss Voigt Hill
#
# Bulk Modulus (GPa) = 49.53114 55.06810 52.29962
# Shear Modulus (GPa) = 23.07836 25.23231 24.15533
#
# Velocity S-wave (km/s) = 3.51445 3.67480 3.59552
# Velocity P-wave (km/s) = 6.55571 6.89040 6.72514
#
# Compressibility (1/GPa) = 0.02018932
#
# Stress axis : x y z
#
# Youngs Moduli (GPa) = 46.50039 36.95503 83.48295
#
# Poissons Ratio (x) = 0.37543 0.39874
# Poissons Ratio (y) = 0.47240 0.43759
# Poissons Ratio (z) = 0.22210 0.19371
#
# Static dielectric constant tensor:
#      x y z
#    x 2.869590 0.000000 0.000000 
#    y 0.000000 3.263580 0.000000 
#    z 0.000000 0.000000 3.606190 
# 
# 
# High freq. dielectric constant tensor:
#      x y z
#    x 1.715670 0.000000 0.000000 
#    y 0.000000 1.708290 0.000000 
#    z 0.000000 0.000000 1.736870 
# 
# From -- ./inp_files/28135.got.cif
#   From: 2010.03.12/outbox.cif.g09.slc.cpg/sg59_15_cif.got.tgz:28135.got - 2010.04.16 16:29:54.
