data_PCOD8241787
_publ_section_title
;
Structure prediction by ZEFSAII (Michael W. Deem and Ramdas Pophale) SiO2 
 PCOD8241787
Probable space group: P M M N
;
_chemical_formula_sum "Si O2"
_cell_formula_units_Z 64
_cell_length_a 29.306344
_cell_length_b 8.825909
_cell_length_c 12.669442
_cell_angle_alpha 90.000000
_cell_angle_beta 90.000000
_cell_angle_gamma 90.000000
_cell_volume 3277.016108
_symmetry_space_group_name_H-M "P M M N"
_symmetry_group_IT_number 59
_space_group.IT_coordinate_system_code '2'
_symmetry_cell_setting 'orthorhombic'
loop_
_space_group_symop_operation_xyz
x,y,z
1/2-x,1/2-y,z
1/2+x,-y,-z
-x,1/2+y,-z
-x,-y,-z
1/2+x,1/2+y,-z
1/2-x,y,z
x,1/2-y,z
loop_
_atom_site_type_symbol
_atom_site_label
_atom_site_fract_x
_atom_site_fract_y
_atom_site_fract_z
Si Si1 0.675435 0.928949 0.167230
Si Si2 0.417989 0.929349 0.887707
Si Si3 0.395506 0.928010 0.117593
Si Si4 0.962305 0.573674 0.295119
Si Si5 0.299481 0.575703 0.042805
Si Si6 0.111156 0.429326 0.533224
Si Si7 0.699396 0.074973 0.378953
Si Si8 0.935332 0.072158 0.665495
O O1 0.672126 0.750000 0.177276
O O2 0.625204 0.998389 0.170119
O O3 0.702441 0.993836 0.266275
O O4 0.701783 0.973939 0.061357
O O5 0.414363 0.750000 0.884571
O O6 0.460538 0.986826 0.817863
O O7 0.419701 0.987485 0.009574
O O8 0.401838 0.750000 0.122191
O O9 0.341543 0.973466 0.117691
O O10 0.419134 0.995823 0.221326
O O11 0.956843 0.750000 0.270458
O O12 0.923308 0.514583 0.374990
O O13 0.011063 0.539404 0.347865
O O14 0.250000 0.555837 0.100041
O O15 0.307191 0.750000 0.007991
O O16 0.115140 0.250000 0.535302
O O17 0.161343 0.498854 0.547156
O O18 0.092022 0.481272 0.421634
O O19 0.750000 0.058095 0.430820
O O20 0.686503 0.250000 0.363543
O O21 0.924261 0.250000 0.654746
#
# Coordination Sequence:
#
# PCOD8241787 Si02
#       8
#     8   8   8   8   8   8   8   8
#     4  11  20  31  50  80 117 149 178 220 276 333
#     4  10  19  33  56  83 114 149 184 226 278 336
#     4   8  17  34  54  79 110 147 190 236 281 329
#     4  10  21  36  57  86 115 148 187 236 293 343
#     4   9  17  31  52  77 106 143 187 229 272 327
#     4  11  23  39  58  83 116 148 189 239 288 335
#     4  11  23  38  58  84 112 147 189 227 276 341
#     4  10  21  39  60  80 111 153 197 239 283 337
#
# _framework density 19.529959999999999
#
# number of rings (size 3 to 8) (size 9 to 14) (size 15 to 20)
#    0.000    2.000    1.250    3.750    0.000    4.250 
#    0.000    3.750    0.000    2.250    0.000    0.000 
#    0.000    0.000    0.000    0.000    0.000    0.000 
#
# Total GULP energy -793410.429578 kJ/mol
# GULP energy per Si atom -12397.037962 kJ/mol
# Density = 1.948551 g / cm^3
# Si number density = 19.529960 Si / 1000 Ang^3
#
#
#
# Elastic Constant Matrix: (Units=GPa)
#
#
# Indices 1 2 3 4 5 6 
#
# 1 104.5483 36.0261 52.3451 0.0000 0.0000 0.0000
# 2 36.0261 74.2223 33.3173 0.0000 0.0000 0.0000
# 3 52.3451 33.3173 111.9602 0.0000 0.0000 0.0000
# 4 0.0000 0.0000 0.0000 20.1247 0.0000 0.0000
# 5 0.0000 0.0000 0.0000 0.0000 22.0142 0.0000
# 6 0.0000 0.0000 0.0000 0.0000 0.0000 22.5094
#
#
#
# Elastic Compliance Matrix: (Units=1/GPa)
#
#
# Indices 1 2 3 4 5 6 
#
# 1 0.013592 -0.004322 -0.005069 0.000000 0.000000 0.000000
# 2 -0.004322 0.016925 -0.003016 0.000000 0.000000 0.000000
# 3 -0.005069 -0.003016 0.012199 0.000000 0.000000 0.000000
# 4 0.000000 0.000000 0.000000 0.049690 0.000000 0.000000
# 5 0.000000 0.000000 0.000000 0.000000 0.045425 0.000000
# 6 0.000000 0.000000 0.000000 0.000000 0.000000 0.044426
#
#
# Mechanical properties :
#
#
# Convention : Reuss Voigt Hill
#
# Bulk Modulus (GPa) = 55.85730 59.34533 57.60132
# Shear Modulus (GPa) = 23.47010 24.19916 23.83463
#
# Velocity S-wave (km/s) = 3.47038 3.52387 3.49723
# Velocity P-wave (km/s) = 6.68738 6.85636 6.77240
#
# Compressibility (1/GPa) = 0.01790276
#
# Stress axis : x y z
#
# Youngs Moduli (GPa) = 73.57264 59.08555 81.97476
#
# Poissons Ratio (x) = 0.25537 0.41549
# Poissons Ratio (y) = 0.31799 0.24721
# Poissons Ratio (z) = 0.37291 0.17819
#
# Static dielectric constant tensor:
#      x y z
#    x 3.735070 0.000000 0.000000 
#    y 0.000000 3.421190 0.000000 
#    z 0.000000 0.000000 3.574570 
# 
# 
# High freq. dielectric constant tensor:
#      x y z
#    x 1.768800 0.000000 0.000000 
#    y 0.000000 1.747480 0.000000 
#    z 0.000000 0.000000 1.742710 
# 
# From -- ./inp_files/19209.got.cif
#   From: 2010.03.12/outbox.cif.g09.slc.cpg/sg59_10_cif.got.tgz:19209.got - 2010.04.16 16:29:54.
