data_PCOD8241010
_publ_section_title
;
Structure prediction by ZEFSAII (Michael W. Deem and Ramdas Pophale) SiO2 
 PCOD8241010
Probable space group: P M M N
;
_chemical_formula_sum "Si O2"
_cell_formula_units_Z 48
_cell_length_a 19.593898
_cell_length_b 12.284375
_cell_length_c 11.446711
_cell_angle_alpha 90.000000
_cell_angle_beta 90.000000
_cell_angle_gamma 90.000000
_cell_volume 2755.209496
_symmetry_space_group_name_H-M "P M M N"
_symmetry_group_IT_number 59
_space_group.IT_coordinate_system_code '2'
_symmetry_cell_setting 'orthorhombic'
loop_
_space_group_symop_operation_xyz
x,y,z
1/2-x,1/2-y,z
1/2+x,-y,-z
-x,1/2+y,-z
-x,-y,-z
1/2+x,1/2+y,-z
1/2-x,y,z
x,1/2-y,z
loop_
_atom_site_type_symbol
_atom_site_label
_atom_site_fract_x
_atom_site_fract_y
_atom_site_fract_z
Si Si1 0.111371 0.503957 0.025614
Si Si2 0.061200 0.984750 0.655215
Si Si3 0.929378 0.876312 0.566896
Si Si4 0.671778 0.375637 0.189847
Si Si5 0.327594 0.125091 0.231380
Si Si6 0.510636 0.623008 0.130074
O O1 0.161117 0.447626 0.117526
O O2 0.065557 0.595722 0.087814
O O3 0.158281 0.559981 0.929110
O O4 0.063465 0.410943 0.970581
O O5 0.088497 0.058054 0.549749
O O6 0.025668 0.060106 0.750983
O O7 0.125325 0.919978 0.705753
O O8 0.006269 0.897720 0.609616
O O9 0.920327 0.750000 0.538712
O O10 0.876446 0.915697 0.665228
O O11 0.750000 0.392504 0.227228
O O12 0.654240 0.250000 0.168084
O O13 0.250000 0.111184 0.273685
O O14 0.344187 0.250000 0.199534
O O15 0.517305 0.750000 0.154735
#
# Coordination Sequence:
#
# PCOD8241010 Si02
#       6
#     8   8   8   8   8   8
#     4  10  19  33  51  78 106 142 174 214 262 311
#     4  10  20  35  55  79 103 139 175 220 264 308
#     4  10  20  35  55  79 105 136 177 220 262 310
#     4  10  21  36  55  78 106 141 177 214 260 312
#     4  10  20  34  53  77 107 142 175 212 261 314
#     4  10  19  31  51  79 107 134 174 222 266 309
#
# _framework density 17.421541999999999
#
# number of rings (size 3 to 8) (size 9 to 14) (size 15 to 20)
#    0.000    2.000    1.667    2.500    0.000    0.667 
#    0.000    0.000    0.000    9.500    0.000    0.000 
#    0.000    0.000    0.000    0.000    0.000    0.000 
#
# Total GULP energy -595406.397039 kJ/mol
# GULP energy per Si atom -12404.299938 kJ/mol
# Density = 1.738189 g / cm^3
# Si number density = 17.421542 Si / 1000 Ang^3
#
#
#
# Elastic Constant Matrix: (Units=GPa)
#
#
# Indices 1 2 3 4 5 6 
#
# 1 86.5503 28.1896 41.2067 0.0000 0.0000 0.0000
# 2 28.1896 63.0869 24.3189 0.0000 0.0000 0.0000
# 3 41.2067 24.3189 99.7027 0.0000 0.0000 0.0000
# 4 0.0000 0.0000 0.0000 16.2881 0.0000 0.0000
# 5 0.0000 0.0000 0.0000 0.0000 19.0139 0.0000
# 6 0.0000 0.0000 0.0000 0.0000 0.0000 23.6578
#
#
#
# Elastic Compliance Matrix: (Units=1/GPa)
#
#
# Indices 1 2 3 4 5 6 
#
# 1 0.015683 -0.004977 -0.005268 0.000000 0.000000 0.000000
# 2 -0.004977 0.019076 -0.002596 0.000000 0.000000 0.000000
# 3 -0.005268 -0.002596 0.012840 0.000000 0.000000 0.000000
# 4 0.000000 0.000000 0.000000 0.061394 0.000000 0.000000
# 5 0.000000 0.000000 0.000000 0.000000 0.052593 0.000000
# 6 0.000000 0.000000 0.000000 0.000000 0.000000 0.042269
#
#
# Mechanical properties :
#
#
# Convention : Reuss Voigt Hill
#
# Bulk Modulus (GPa) = 45.62561 48.53003 47.07782
# Shear Modulus (GPa) = 21.11103 22.16695 21.63899
#
# Velocity S-wave (km/s) = 3.48484 3.57092 3.52814
# Velocity P-wave (km/s) = 6.51446 6.70215 6.60897
#
# Compressibility (1/GPa) = 0.02191752
#
# Stress axis : x y z
#
# Youngs Moduli (GPa) = 63.76332 52.42250 77.88102
#
# Poissons Ratio (x) = 0.26091 0.41026
# Poissons Ratio (y) = 0.31736 0.20217
# Poissons Ratio (z) = 0.33589 0.13608
#
# Static dielectric constant tensor:
#      x y z
#    x 3.178760 0.000000 0.000000 
#    y 0.000000 3.167370 0.000000 
#    z 0.000000 0.000000 3.259840 
# 
# 
# High freq. dielectric constant tensor:
#      x y z
#    x 1.673300 0.000000 0.000000 
#    y 0.000000 1.674600 0.000000 
#    z 0.000000 0.000000 1.678190 
# 
# From -- ./inp_files/15750.got.cif
#   From: 2010.03.12/outbox.cif.g09.slc.cpg/sg59_8_cif.got.tgz:15750.got - 2010.04.16 16:29:54.
