data_PCOD8241805
_publ_section_title
;
Structure prediction by ZEFSAII (Michael W. Deem and Ramdas Pophale) SiO2 
 PCOD8241805
Probable space group: P M M N
;
_chemical_formula_sum "Si O2"
_cell_formula_units_Z 64
_cell_length_a 8.779903
_cell_length_b 31.010414
_cell_length_c 11.884946
_cell_angle_alpha 90.000000
_cell_angle_beta 90.000000
_cell_angle_gamma 90.000000
_cell_volume 3235.895551
_symmetry_space_group_name_H-M "P M M N"
_symmetry_group_IT_number 59
_space_group.IT_coordinate_system_code '2'
_symmetry_cell_setting 'orthorhombic'
loop_
_space_group_symop_operation_xyz
x,y,z
1/2-x,1/2-y,z
1/2+x,-y,-z
-x,1/2+y,-z
-x,-y,-z
1/2+x,1/2+y,-z
1/2-x,y,z
x,1/2-y,z
loop_
_atom_site_type_symbol
_atom_site_label
_atom_site_fract_x
_atom_site_fract_y
_atom_site_fract_z
Si Si1 0.929294 0.623150 0.361632
Si Si2 0.423661 0.864853 0.126586
Si Si3 0.427851 0.967380 0.412067
Si Si4 0.078727 0.066489 0.000747
Si Si5 0.076435 0.995750 0.163328
Si Si6 0.420343 0.301151 0.270983
Si Si7 0.073711 0.798416 0.949871
Si Si8 0.570560 0.299847 0.500703
O O1 0.750000 0.621762 0.379764
O O2 0.966913 0.623551 0.229174
O O3 0.999774 0.580501 0.419089
O O4 0.993468 0.667789 0.411336
O O5 0.250000 0.870018 0.167740
O O6 0.457585 0.895790 0.020065
O O7 0.456879 0.818258 0.073278
O O8 0.250000 0.962163 0.436554
O O9 0.500000 0.000000 0.500000
O O10 0.461191 0.990047 0.293420
O O11 0.250000 0.084009 0.984474
O O12 0.059583 0.045849 0.125360
O O13 0.047735 0.030444 0.906438
O O14 0.250000 0.979812 0.137867
O O15 0.250000 0.318631 0.290853
O O16 0.424540 0.250000 0.261322
O O17 0.483479 0.320862 0.153808
O O18 0.523528 0.315383 0.376083
O O19 0.250000 0.801601 0.917451
O O20 0.016543 0.750000 0.963494
O O21 0.750000 0.303727 0.514252
O O22 0.518254 0.250000 0.523236
#
# Coordination Sequence:
#
# PCOD8241805 Si02
#       8
#     8   8   8   8   8   8   8   8
#     4  12  25  41  62  89 121 159 203 252 306 363
#     4  11  22  37  57  83 117 156 197 246 300 356
#     4  11  23  42  65  88 120 161 203 248 302 363
#     4  10  19  33  57  86 112 144 187 235 288 348
#     4   9  19  36  59  84 112 147 188 234 285 344
#     4   9  17  32  56  84 114 148 188 239 296 349
#     4   9  19  36  57  81 113 156 201 241 287 349
#     4  10  21  39  64  91 121 161 206 250 300 360
#
# _framework density 19.778143
#
# number of rings (size 3 to 8) (size 9 to 14) (size 15 to 20)
#    0.000    1.875    1.250    3.000    0.000    4.750 
#    2.250    1.250    0.000    0.000    0.000    0.000 
#    0.000    0.000    0.000    0.000    0.000    0.000 
#
# Total GULP energy -793349.978431 kJ/mol
# GULP energy per Si atom -12396.093413 kJ/mol
# Density = 1.973313 g / cm^3
# Si number density = 19.778143 Si / 1000 Ang^3
#
#
#
# Elastic Constant Matrix: (Units=GPa)
#
#
# Indices 1 2 3 4 5 6 
#
# 1 97.2018 43.1433 38.0241 0.0000 0.0000 0.0000
# 2 43.1433 95.4941 50.9798 0.0000 0.0000 0.0000
# 3 38.0241 50.9798 83.1755 0.0000 0.0000 0.0000
# 4 0.0000 0.0000 0.0000 30.4981 0.0000 0.0000
# 5 0.0000 0.0000 0.0000 0.0000 32.5672 0.0000
# 6 0.0000 0.0000 0.0000 0.0000 0.0000 29.8557
#
#
#
# Elastic Compliance Matrix: (Units=1/GPa)
#
#
# Indices 1 2 3 4 5 6 
#
# 1 0.013570 -0.004190 -0.003635 0.000000 0.000000 0.000000
# 2 -0.004190 0.016858 -0.008417 0.000000 0.000000 0.000000
# 3 -0.003635 -0.008417 0.018844 0.000000 0.000000 0.000000
# 4 0.000000 0.000000 0.000000 0.032789 0.000000 0.000000
# 5 0.000000 0.000000 0.000000 0.000000 0.030706 0.000000
# 6 0.000000 0.000000 0.000000 0.000000 0.000000 0.033494
#
#
# Mechanical properties :
#
#
# Convention : Reuss Voigt Hill
#
# Bulk Modulus (GPa) = 59.57120 60.01842 59.79481
# Shear Modulus (GPa) = 27.12348 28.16581 27.64464
#
# Velocity S-wave (km/s) = 3.70724 3.77780 3.74269
# Velocity P-wave (km/s) = 6.96491 7.03141 6.99824
#
# Compressibility (1/GPa) = 0.01678663
#
# Stress axis : x y z
#
# Youngs Moduli (GPa) = 73.69359 59.31737 53.06752
#
# Poissons Ratio (x) = 0.24853 0.19292
# Poissons Ratio (y) = 0.30877 0.44669
# Poissons Ratio (z) = 0.26791 0.49930
#
# Static dielectric constant tensor:
#      x y z
#    x 3.651580 0.000000 0.000000 
#    y 0.000000 3.725660 0.000000 
#    z 0.000000 0.000000 3.624290 
# 
# 
# High freq. dielectric constant tensor:
#      x y z
#    x 1.778110 0.000000 0.000000 
#    y 0.000000 1.759830 0.000000 
#    z 0.000000 0.000000 1.766730 
# 
# From -- ./inp_files/15074.got.cif
#   From: 2010.03.12/outbox.cif.g09.slc.cpg/sg59_8_cif.got.tgz:15074.got - 2010.04.16 16:29:54.
