data_PCOD8241982
_publ_section_title
;
Structure prediction by ZEFSAII (Michael W. Deem and Ramdas Pophale) SiO2 
 PCOD8241982
Probable space group: P M M N
;
_chemical_formula_sum "Si O2"
_cell_formula_units_Z 40
_cell_length_a 22.075231
_cell_length_b 17.072118
_cell_length_c 5.254384
_cell_angle_alpha 90.000000
_cell_angle_beta 90.000000
_cell_angle_gamma 90.000000
_cell_volume 1980.224682
_symmetry_space_group_name_H-M "P M M N"
_symmetry_group_IT_number 59
_space_group.IT_coordinate_system_code '2'
_symmetry_cell_setting 'orthorhombic'
loop_
_space_group_symop_operation_xyz
x,y,z
1/2-x,1/2-y,z
1/2+x,-y,-z
-x,1/2+y,-z
-x,-y,-z
1/2+x,1/2+y,-z
1/2-x,y,z
x,1/2-y,z
loop_
_atom_site_type_symbol
_atom_site_label
_atom_site_fract_x
_atom_site_fract_y
_atom_site_fract_z
Si Si1 0.182121 0.121850 0.095880
Si Si2 0.587232 0.159204 0.095414
Si Si3 0.012001 0.658905 0.402070
Si Si4 0.879092 0.607584 0.398728
Si Si5 0.818211 0.030437 0.171650
O O1 0.250000 0.156563 0.106622
O O2 0.145802 0.148362 0.345789
O O3 0.147319 0.155256 0.845694
O O4 0.184093 0.026727 0.075302
O O5 0.605432 0.250000 0.090303
O O6 0.547393 0.138540 0.340934
O O7 0.649591 0.111503 0.103011
O O8 0.551326 0.134876 0.842172
O O9 0.994163 0.750000 0.391736
O O10 0.951462 0.607472 0.397415
O O11 0.855505 0.517304 0.389219
O O12 0.750000 0.048792 0.267540
#
# Coordination Sequence:
#
# PCOD8241982 Si02
#       5
#     8   8   8   8   8
#     4   9  18  33  52  80 110 138 173 219 267 315
#     4  10  22  38  55  79 111 145 182 222 266 321
#     4  10  22  39  56  78 111 146 181 223 269 320
#     4  10  19  34  57  81 107 144 179 222 271 320
#     4   9  21  36  57  82 110 142 180 225 271 317
#
# _framework density 20.199728
#
# number of rings (size 3 to 8) (size 9 to 14) (size 15 to 20)
#    1.200    1.200    0.000    2.400    2.800    2.000 
#    0.000    0.000    0.000   10.200    0.000    0.000 
#    0.000    0.000    0.000    0.000    0.000    0.000 
#
# Total GULP energy -495733.806226 kJ/mol
# GULP energy per Si atom -12393.345156 kJ/mol
# Density = 2.015375 g / cm^3
# Si number density = 20.199728 Si / 1000 Ang^3
#
#
#
# Elastic Constant Matrix: (Units=GPa)
#
#
# Indices 1 2 3 4 5 6 
#
# 1 134.4397 48.7183 28.2136 0.0000 0.0000 0.0000
# 2 48.7183 43.1599 13.8055 0.0000 0.0000 0.0000
# 3 28.2136 13.8055 139.4785 0.0000 0.0000 0.0000
# 4 0.0000 0.0000 0.0000 3.3088 0.0000 0.0000
# 5 0.0000 0.0000 0.0000 0.0000 25.5849 0.0000
# 6 0.0000 0.0000 0.0000 0.0000 0.0000 1.9504
#
#
#
# Elastic Compliance Matrix: (Units=1/GPa)
#
#
# Indices 1 2 3 4 5 6 
#
# 1 0.012777 -0.014040 -0.001195 0.000000 0.000000 0.000000
# 2 -0.014040 0.039356 -0.001055 0.000000 0.000000 0.000000
# 3 -0.001195 -0.001055 0.007516 0.000000 0.000000 0.000000
# 4 0.000000 0.000000 0.000000 0.302224 0.000000 0.000000
# 5 0.000000 0.000000 0.000000 0.000000 0.039086 0.000000
# 6 0.000000 0.000000 0.000000 0.000000 0.000000 0.512713
#
#
# Mechanical properties :
#
#
# Convention : Reuss Voigt Hill
#
# Bulk Modulus (GPa) = 36.94470 55.39477 46.16973
# Shear Modulus (GPa) = 5.23410 21.25820 13.24615
#
# Velocity S-wave (km/s) = 1.61146 3.24759 2.56356
# Velocity P-wave (km/s) = 4.66817 6.44558 5.62749
#
# Compressibility (1/GPa) = 0.02706748
#
# Stress axis : x y z
#
# Youngs Moduli (GPa) = 78.26613 25.40931 133.05471
#
# Poissons Ratio (x) = 0.35675 0.15897
# Poissons Ratio (y) = 1.09887 0.14042
# Poissons Ratio (z) = 0.09351 0.02682
#
# Static dielectric constant tensor:
#      x y z
#    x 3.484750 0.000000 0.000000 
#    y 0.000000 3.258730 0.000000 
#    z 0.000000 0.000000 3.676950 
# 
# 
# High freq. dielectric constant tensor:
#      x y z
#    x 1.789990 0.000000 0.000000 
#    y 0.000000 1.754740 0.000000 
#    z 0.000000 0.000000 1.793510 
# 
# From -- ./inp_files/2743.got.cif
#   From: 2010.03.12/outbox.cif.g09.slc.cpg/sg59_2_cif.got.tgz:2743.got - 2010.04.16 16:29:54.
