data_PCOD8241942
_publ_section_title
;
Structure prediction by ZEFSAII (Michael W. Deem and Ramdas Pophale) SiO2 
 PCOD8241942
Probable space group: P M M N
;
_chemical_formula_sum "Si O2"
_cell_formula_units_Z 48
_cell_length_a 16.953533
_cell_length_b 8.510362
_cell_length_c 16.358597
_cell_angle_alpha 90.000000
_cell_angle_beta 90.000000
_cell_angle_gamma 90.000000
_cell_volume 2360.229875
_symmetry_space_group_name_H-M "P M M N"
_symmetry_group_IT_number 59
_space_group.IT_coordinate_system_code '2'
_symmetry_cell_setting 'orthorhombic'
loop_
_space_group_symop_operation_xyz
x,y,z
1/2-x,1/2-y,z
1/2+x,-y,-z
-x,1/2+y,-z
-x,-y,-z
1/2+x,1/2+y,-z
1/2-x,y,z
x,1/2-y,z
loop_
_atom_site_type_symbol
_atom_site_label
_atom_site_fract_x
_atom_site_fract_y
_atom_site_fract_z
Si Si1 0.250000 0.073123 0.191230
Si Si2 0.920340 0.434059 0.043052
Si Si3 0.163545 0.063143 0.637162
Si Si4 0.250000 0.931136 0.020333
Si Si5 0.416384 0.064282 0.476736
Si Si6 0.403922 0.431704 0.293653
Si Si7 0.946266 0.933308 0.218463
O O1 0.250000 0.250000 0.155316
O O2 0.177200 0.042310 0.249044
O O3 0.250000 0.951807 0.117325
O O4 0.921751 0.250000 0.025593
O O5 0.924684 0.468843 0.138663
O O6 0.834344 0.503652 0.012662
O O7 0.000000 0.500000 0.000000
O O8 0.250000 0.001138 0.659310
O O9 0.159194 0.250000 0.637000
O O10 0.142550 0.999431 0.546562
O O11 0.105711 0.998525 0.706936
O O12 0.250000 0.750000 0.995864
O O13 0.417258 0.250000 0.478573
O O14 0.392892 0.005731 0.386401
O O15 0.500000 0.000000 0.500000
O O16 0.431520 0.250000 0.292459
O O17 0.464050 0.539465 0.243918
O O18 0.931262 0.750000 0.201062
#
# Coordination Sequence:
#
# PCOD8241942 Si02
#       7
#     4   8   8   4   8   8   8
#     4  10  22  38  58  87 116 148 193 240 285 341
#     4  11  24  43  65  91 121 155 195 241 297 357
#     4   9  19  34  54  82 115 152 195 240 281 332
#     4  10  24  44  64  87 118 156 191 236 299 357
#     4  10  19  34  56  80 111 151 193 238 286 335
#     4  10  21  36  57  85 118 155 196 242 289 340
#     4  11  22  37  60  88 117 153 195 239 290 346
#
# _framework density 20.337002999999999
#
# number of rings (size 3 to 8) (size 9 to 14) (size 15 to 20)
#    0.000    1.833    1.667    2.000    2.333    4.667 
#    0.000    0.000    0.000    2.500    0.000    0.000 
#    0.000    0.000    0.000    0.000    0.000    0.000 
#
# Total GULP energy -594965.727784 kJ/mol
# GULP energy per Si atom -12395.119329 kJ/mol
# Density = 2.029071 g / cm^3
# Si number density = 20.337003 Si / 1000 Ang^3
#
#
#
# Elastic Constant Matrix: (Units=GPa)
#
#
# Indices 1 2 3 4 5 6 
#
# 1 165.7898 18.8043 66.5525 0.0000 0.0000 0.0000
# 2 18.8043 22.3383 16.3390 0.0000 0.0000 0.0000
# 3 66.5525 16.3390 155.2507 0.0000 0.0000 0.0000
# 4 0.0000 0.0000 0.0000 25.1751 0.0000 0.0000
# 5 0.0000 0.0000 0.0000 0.0000 4.3207 0.0000
# 6 0.0000 0.0000 0.0000 0.0000 0.0000 25.2041
#
#
#
# Elastic Compliance Matrix: (Units=1/GPa)
#
#
# Indices 1 2 3 4 5 6 
#
# 1 0.007662 -0.004385 -0.002823 0.000000 0.000000 0.000000
# 2 -0.004385 0.051009 -0.003489 0.000000 0.000000 0.000000
# 3 -0.002823 -0.003489 0.008019 0.000000 0.000000 0.000000
# 4 0.000000 0.000000 0.000000 0.039722 0.000000 0.000000
# 5 0.000000 0.000000 0.000000 0.000000 0.231443 0.000000
# 6 0.000000 0.000000 0.000000 0.000000 0.000000 0.039676
#
#
# Mechanical properties :
#
#
# Convention : Reuss Voigt Hill
#
# Bulk Modulus (GPa) = 22.07680 60.75227 41.41454
# Shear Modulus (GPa) = 12.07661 27.05219 19.56440
#
# Velocity S-wave (km/s) = 2.43950 3.65114 3.10499
# Velocity P-wave (km/s) = 4.33750 6.90739 5.76741
#
# Compressibility (1/GPa) = 0.04529641
#
# Stress axis : x y z
#
# Youngs Moduli (GPa) = 130.50709 19.60428 124.71041
#
# Poissons Ratio (x) = 0.08597 0.35208
# Poissons Ratio (y) = 0.57230 0.43506
# Poissons Ratio (z) = 0.36845 0.06839
#
# Static dielectric constant tensor:
#      x y z
#    x 4.021380 0.000000 0.000000 
#    y 0.000000 3.461410 0.000000 
#    z 0.000000 0.000000 4.129330 
# 
# 
# High freq. dielectric constant tensor:
#      x y z
#    x 1.808180 0.000000 0.000000 
#    y 0.000000 1.764340 0.000000 
#    z 0.000000 0.000000 1.811980 
# 
# From -- ./inp_files/20600.got.cif
#   From: 2010.03.12/outbox.cif.g09.slc.cpg/sg59_11_cif.got.tgz:20600.got - 2010.04.16 16:29:54.
