data_PCOD8241935
_publ_section_title
;
Structure prediction by ZEFSAII (Michael W. Deem and Ramdas Pophale) SiO2 
 PCOD8241935
Probable space group: P M M N
;
_chemical_formula_sum "Si O2"
_cell_formula_units_Z 64
_cell_length_a 9.102263
_cell_length_b 18.797084
_cell_length_c 19.821025
_cell_angle_alpha 90.000000
_cell_angle_beta 90.000000
_cell_angle_gamma 90.000000
_cell_volume 3391.298137
_symmetry_space_group_name_H-M "P M M N"
_symmetry_group_IT_number 59
_space_group.IT_coordinate_system_code '2'
_symmetry_cell_setting 'orthorhombic'
loop_
_space_group_symop_operation_xyz
x,y,z
1/2-x,1/2-y,z
1/2+x,-y,-z
-x,1/2+y,-z
-x,-y,-z
1/2+x,1/2+y,-z
1/2-x,y,z
x,1/2-y,z
loop_
_atom_site_type_symbol
_atom_site_label
_atom_site_fract_x
_atom_site_fract_y
_atom_site_fract_z
Si Si1 0.422193 0.937024 0.312114
Si Si2 0.077256 0.427792 0.914404
Si Si3 0.076792 0.917836 0.704559
Si Si4 0.583226 0.567132 0.932362
Si Si5 0.922335 0.332016 0.805682
Si Si6 0.077839 0.566054 0.465347
Si Si7 0.416349 0.168156 0.186020
Si Si8 0.076746 0.671038 0.578187
O O1 0.250000 0.952458 0.309396
O O2 0.464635 0.870545 0.264707
O O3 0.474428 0.921522 0.388611
O O4 0.503530 0.006071 0.284252
O O5 0.250000 0.426564 0.901318
O O6 0.015908 0.506228 0.897609
O O7 0.005063 0.367860 0.868070
O O8 0.033834 0.412297 0.992099
O O9 0.250000 0.928561 0.701512
O O10 0.014907 0.880420 0.636688
O O11 0.034645 0.868229 0.766383
O O12 0.750000 0.538300 0.933009
O O13 0.566819 0.638298 0.889237
O O14 0.750000 0.338612 0.819598
O O15 0.971665 0.250000 0.799675
O O16 0.250000 0.550624 0.469354
O O17 0.035817 0.637554 0.505872
O O18 0.000000 0.500000 0.500000
O O19 0.250000 0.155571 0.212817
O O20 0.457211 0.250000 0.182444
O O21 0.250000 0.677484 0.587275
O O22 0.005934 0.750000 0.583174
#
# Coordination Sequence:
#
# PCOD8241935 Si02
#       8
#     8   8   8   8   8   8   8   8
#     4  10  21  36  57  81 106 140 183 227 268 321
#     4  10  20  35  58  85 109 139 182 231 276 323
#     4  11  21  34  54  79 109 143 178 221 268 321
#     4   9  19  36  57  80 109 144 183 224 270 327
#     4  10  22  39  56  78 111 148 185 228 280 333
#     4  10  19  34  56  80 106 138 177 222 267 318
#     4  10  21  36  53  75 106 143 179 217 264 317
#     4   9  18  32  51  77 107 138 172 213 264 316
#
# _framework density 18.871831
#
# number of rings (size 3 to 8) (size 9 to 14) (size 15 to 20)
#    0.000    2.125    1.250    1.875    0.000    6.500 
#    0.000    3.750    0.000    1.125    0.000    1.750 
#    0.000    0.000    0.000    0.000    0.000    0.000 
#
# Total GULP energy -793683.824498 kJ/mol
# GULP energy per Si atom -12401.309758 kJ/mol
# Density = 1.882888 g / cm^3
# Si number density = 18.871831 Si / 1000 Ang^3
#
#
#
# Elastic Constant Matrix: (Units=GPa)
#
#
# Indices 1 2 3 4 5 6 
#
# 1 41.9886 46.8617 39.6563 0.0000 0.0000 0.0000
# 2 46.8617 152.4562 77.2762 0.0000 0.0000 0.0000
# 3 39.6563 77.2762 121.5039 0.0000 0.0000 0.0000
# 4 0.0000 0.0000 0.0000 32.4125 0.0000 0.0000
# 5 0.0000 0.0000 0.0000 0.0000 23.2395 0.0000
# 6 0.0000 0.0000 0.0000 0.0000 0.0000 20.8196
#
#
#
# Elastic Compliance Matrix: (Units=1/GPa)
#
#
# Indices 1 2 3 4 5 6 
#
# 1 0.040795 -0.008546 -0.007880 0.000000 0.000000 0.000000
# 2 -0.008546 0.011470 -0.004506 0.000000 0.000000 0.000000
# 3 -0.007880 -0.004506 0.013668 0.000000 0.000000 0.000000
# 4 0.000000 0.000000 0.000000 0.030852 0.000000 0.000000
# 5 0.000000 0.000000 0.000000 0.000000 0.043030 0.000000
# 6 0.000000 0.000000 0.000000 0.000000 0.000000 0.048032
#
#
# Mechanical properties :
#
#
# Convention : Reuss Voigt Hill
#
# Bulk Modulus (GPa) = 41.54418 71.50412 56.52415
# Shear Modulus (GPa) = 21.03202 25.43795 23.23499
#
# Velocity S-wave (km/s) = 3.34198 3.67540 3.51265
# Velocity P-wave (km/s) = 6.07894 7.48218 6.81676
#
# Compressibility (1/GPa) = 0.02407076
#
# Stress axis : x y z
#
# Youngs Moduli (GPa) = 24.51251 87.18559 73.16572
#
# Poissons Ratio (x) = 0.74505 0.57653
# Poissons Ratio (y) = 0.20947 0.32966
# Poissons Ratio (z) = 0.19315 0.39283
#
# Static dielectric constant tensor:
#      x y z
#    x 3.324900 0.000000 0.000000 
#    y 0.000000 3.578930 0.000000 
#    z 0.000000 0.000000 3.647080 
# 
# 
# High freq. dielectric constant tensor:
#      x y z
#    x 1.716350 0.000000 0.000000 
#    y 0.000000 1.733600 0.000000 
#    z 0.000000 0.000000 1.744550 
# 
# From -- ./inp_files/29553.got.cif
#   From: 2010.03.12/outbox.cif.g09.slc.cpg/sg59_15_cif.got.tgz:29553.got - 2010.04.16 16:29:54.
