data_PCOD8241896
_publ_section_title
;
Structure prediction by ZEFSAII (Michael W. Deem and Ramdas Pophale) SiO2 
 PCOD8241896
Probable space group: P M M N
;
_chemical_formula_sum "Si O2"
_cell_formula_units_Z 64
_cell_length_a 28.265933
_cell_length_b 9.168546
_cell_length_c 12.735872
_cell_angle_alpha 90.000000
_cell_angle_beta 90.000000
_cell_angle_gamma 90.000000
_cell_volume 3300.596836
_symmetry_space_group_name_H-M "P M M N"
_symmetry_group_IT_number 59
_space_group.IT_coordinate_system_code '2'
_symmetry_cell_setting 'orthorhombic'
loop_
_space_group_symop_operation_xyz
x,y,z
1/2-x,1/2-y,z
1/2+x,-y,-z
-x,1/2+y,-z
-x,-y,-z
1/2+x,1/2+y,-z
1/2-x,y,z
x,1/2-y,z
loop_
_atom_site_type_symbol
_atom_site_label
_atom_site_fract_x
_atom_site_fract_y
_atom_site_fract_z
Si Si1 0.066685 0.589492 0.251168
Si Si2 0.647454 0.578809 0.012320
Si Si3 0.957579 0.920757 0.943285
Si Si4 0.826267 0.411193 0.816630
Si Si5 0.303840 0.077028 0.773385
Si Si6 0.549644 0.422797 0.512283
Si Si7 0.802172 0.912135 0.620292
Si Si8 0.363787 0.076273 0.573683
O O1 0.042651 0.750000 0.240427
O O2 0.040372 0.473104 0.177656
O O3 0.119773 0.599072 0.214295
O O4 0.066515 0.537277 0.370763
O O5 0.654728 0.750000 0.997052
O O6 0.667269 0.524376 0.124110
O O7 0.591927 0.538072 0.000323
O O8 0.679254 0.500338 0.924339
O O9 0.966732 0.750000 0.945775
O O10 0.000000 0.000000 0.000000
O O11 0.804699 0.250000 0.832676
O O12 0.798883 0.489254 0.723034
O O13 0.250000 0.013954 0.772855
O O14 0.301191 0.250000 0.770832
O O15 0.333283 0.020832 0.672886
O O16 0.500000 0.500000 0.500000
O O17 0.546061 0.250000 0.492407
O O18 0.585912 0.493637 0.428406
O O19 0.750000 0.906008 0.569811
O O20 0.819093 0.750000 0.653546
O O21 0.836489 0.974413 0.531075
O O22 0.371769 0.250000 0.578199
#
# Coordination Sequence:
#
# PCOD8241896 Si02
#       8
#     8   8   8   8   8   8   8   8
#     4   9  19  36  55  74 105 145 184 231 285 341
#     4   9  19  35  55  81 112 148 190 237 288 347
#     4  10  20  33  53  81 113 150 194 240 292 349
#     4  10  19  34  55  79 108 144 183 229 286 340
#     4   9  18  35  60  86 114 152 196 242 294 352
#     4  11  23  39  58  84 115 151 194 238 292 350
#     4  10  20  33  53  82 113 145 185 231 278 335
#     4  10  20  36  59  85 114 149 192 239 287 342
#
# _framework density 19.390431
#
# number of rings (size 3 to 8) (size 9 to 14) (size 15 to 20)
#    0.000    2.250    1.250    1.500    0.000    5.250 
#    0.000    4.375    0.000    1.875    0.000    0.000 
#    0.000    0.000    0.000    0.000    0.000    0.000 
#
# Total GULP energy -793465.809844 kJ/mol
# GULP energy per Si atom -12397.903279 kJ/mol
# Density = 1.934630 g / cm^3
# Si number density = 19.390431 Si / 1000 Ang^3
#
#
#
# Elastic Constant Matrix: (Units=GPa)
#
#
# Indices 1 2 3 4 5 6 
#
# 1 92.8498 42.9450 56.9890 0.0000 0.0000 0.0000
# 2 42.9450 72.3937 48.0391 0.0000 0.0000 0.0000
# 3 56.9890 48.0391 135.6886 0.0000 0.0000 0.0000
# 4 0.0000 0.0000 0.0000 23.9642 0.0000 0.0000
# 5 0.0000 0.0000 0.0000 0.0000 27.5273 0.0000
# 6 0.0000 0.0000 0.0000 0.0000 0.0000 23.4817
#
#
#
# Elastic Compliance Matrix: (Units=1/GPa)
#
#
# Indices 1 2 3 4 5 6 
#
# 1 0.016791 -0.006903 -0.004608 0.000000 0.000000 0.000000
# 2 -0.006903 0.020893 -0.004498 0.000000 0.000000 0.000000
# 3 -0.004608 -0.004498 0.010898 0.000000 0.000000 0.000000
# 4 0.000000 0.000000 0.000000 0.041729 0.000000 0.000000
# 5 0.000000 0.000000 0.000000 0.000000 0.036328 0.000000
# 6 0.000000 0.000000 0.000000 0.000000 0.000000 0.042586
#
#
# Mechanical properties :
#
#
# Convention : Reuss Voigt Hill
#
# Bulk Modulus (GPa) = 60.37217 66.31983 63.34600
# Shear Modulus (GPa) = 24.18217 25.19191 24.68704
#
# Velocity S-wave (km/s) = 3.53529 3.60834 3.57200
# Velocity P-wave (km/s) = 6.91860 7.18587 7.05350
#
# Compressibility (1/GPa) = 0.01656392
#
# Stress axis : x y z
#
# Youngs Moduli (GPa) = 59.55456 47.86341 91.76213
#
# Poissons Ratio (x) = 0.33039 0.42288
# Poissons Ratio (y) = 0.41109 0.41272
# Poissons Ratio (z) = 0.27446 0.21528
#
# Static dielectric constant tensor:
#      x y z
#    x 3.570410 0.000000 0.000000 
#    y 0.000000 3.608280 0.000000 
#    z 0.000000 0.000000 3.988160 
# 
# 
# High freq. dielectric constant tensor:
#      x y z
#    x 1.754740 0.000000 0.000000 
#    y 0.000000 1.740010 0.000000 
#    z 0.000000 0.000000 1.755780 
# 
# From -- ./inp_files/19379.got.cif
#   From: 2010.03.12/outbox.cif.g09.slc.cpg/sg59_10_cif.got.tgz:19379.got - 2010.04.16 16:29:54.
