data_PCOD8242407
_publ_section_title
;
Structure prediction by ZEFSAII (Michael W. Deem and Ramdas Pophale) SiO2 
 PCOD8242407
Probable space group: P M M N
;
_chemical_formula_sum "Si O2"
_cell_formula_units_Z 64
_cell_length_a 14.618671
_cell_length_b 9.146855
_cell_length_c 26.143833
_cell_angle_alpha 90.000000
_cell_angle_beta 90.000000
_cell_angle_gamma 90.000000
_cell_volume 3495.819072
_symmetry_space_group_name_H-M "P M M N"
_symmetry_group_IT_number 59
_space_group.IT_coordinate_system_code '2'
_symmetry_cell_setting 'orthorhombic'
loop_
_space_group_symop_operation_xyz
x,y,z
1/2-x,1/2-y,z
1/2+x,-y,-z
-x,1/2+y,-z
-x,-y,-z
1/2+x,1/2+y,-z
1/2-x,y,z
x,1/2-y,z
loop_
_atom_site_type_symbol
_atom_site_label
_atom_site_fract_x
_atom_site_fract_y
_atom_site_fract_z
Si Si1 0.853793 0.080018 0.134996
Si Si2 0.994331 0.422097 0.684516
Si Si3 0.999465 0.077996 0.053775
Si Si4 0.356345 0.419783 0.504251
Si Si5 0.142229 0.416596 0.245741
Si Si6 0.490566 0.920909 0.577255
Si Si7 0.146244 0.079411 0.764488
Si Si8 0.149479 0.076120 0.131671
O O1 0.750000 0.033636 0.124639
O O2 0.865817 0.250000 0.146649
O O3 0.907348 0.036093 0.083813
O O4 0.892668 0.998646 0.184839
O O5 0.986898 0.250000 0.675139
O O6 0.905246 0.475476 0.714585
O O7 0.999070 0.502863 0.631158
O O8 0.084966 0.464749 0.716214
O O9 0.008411 0.250000 0.044630
O O10 0.082257 0.015893 0.088230
O O11 0.000000 0.000000 0.000000
O O12 0.250000 0.465691 0.495784
O O13 0.362837 0.250000 0.519654
O O14 0.414890 0.450952 0.453129
O O15 0.401257 0.513595 0.549496
O O16 0.250000 0.426599 0.254664
O O17 0.108676 0.250000 0.254602
O O18 0.117218 0.471016 0.188390
O O19 0.473471 0.750000 0.584686
O O20 0.250000 0.028290 0.752784
O O21 0.141183 0.250000 0.775458
O O22 0.250000 0.012227 0.119783
O O23 0.152032 0.250000 0.130878
#
# Coordination Sequence:
#
# PCOD8242407 Si02
#       8
#     8   8   8   8   8   8   8   8
#     4   9  18  33  52  72  95 125 162 206 254 301
#     4  11  22  34  51  78 113 146 172 209 261 309
#     4  10  20  32  47  69  96 124 157 199 247 299
#     4   9  19  38  61  80 103 139 179 221 270 315
#     4   9  18  34  56  78 100 132 174 216 259 309
#     4  10  21  36  55  82 111 140 180 222 259 306
#     4   9  19  35  53  74 101 135 174 211 251 305
#     4   8  15  30  51  71  91 121 163 205 244 292
#
# _framework density 18.307583000000001
#
# number of rings (size 3 to 8) (size 9 to 14) (size 15 to 20)
#    0.000    2.625    0.000    2.250    0.000    5.000 
#    0.000    3.125    0.000    0.750    0.000    0.000 
#    0.000    0.000    0.000    0.000    0.000    0.000 
#
# Total GULP energy -793551.962294 kJ/mol
# GULP energy per Si atom -12399.249411 kJ/mol
# Density = 1.826591 g / cm^3
# Si number density = 18.307583 Si / 1000 Ang^3
#
#
#
# Elastic Constant Matrix: (Units=GPa)
#
#
# Indices 1 2 3 4 5 6 
#
# 1 114.9557 48.6331 77.8879 0.0000 0.0000 0.0000
# 2 48.6331 60.3716 67.2101 0.0000 0.0000 0.0000
# 3 77.8879 67.2101 171.0297 0.0000 0.0000 0.0000
# 4 0.0000 0.0000 0.0000 36.9672 0.0000 0.0000
# 5 0.0000 0.0000 0.0000 0.0000 -1.6926 0.0000
# 6 0.0000 0.0000 0.0000 0.0000 0.0000 24.7387
#
#
#
# Elastic Compliance Matrix: (Units=1/GPa)
#
#
# Indices 1 2 3 4 5 6 
#
# 1 0.014303 -0.007592 -0.003530 0.000000 0.000000 0.000000
# 2 -0.007592 0.033476 -0.009698 0.000000 0.000000 0.000000
# 3 -0.003530 -0.009698 0.011266 0.000000 0.000000 0.000000
# 4 0.000000 0.000000 0.000000 0.027051 0.000000 0.000000
# 5 0.000000 0.000000 0.000000 0.000000 -0.590811 0.000000
# 6 0.000000 0.000000 0.000000 0.000000 0.000000 0.040422
#
#
# Mechanical properties :
#
#
# Convention : Reuss Voigt Hill
#
# Bulk Modulus (GPa) = 57.45527 81.53548 69.49537
# Shear Modulus (GPa) = -11.99466 22.17773 5.09153
#
# Velocity S-wave (km/s) = -2.56241 3.48429 1.66947
# Velocity P-wave (km/s) = 4.76412 7.79873 6.46208
#
# Compressibility (1/GPa) = 0.01740484
#
# Stress axis : x y z
#
# Youngs Moduli (GPa) = 69.91767 29.87216 88.76552
#
# Poissons Ratio (x) = 0.22678 0.31336
# Poissons Ratio (y) = 0.53078 0.86084
# Poissons Ratio (z) = 0.24682 0.28970
#
# Static dielectric constant tensor:
#      x y z
#    x 3.689800 0.000000 0.000000 
#    y 0.000000 3.310490 0.000000 
#    z 0.000000 0.000000 3.388440 
# 
# 
# High freq. dielectric constant tensor:
#      x y z
#    x 1.718980 0.000000 0.000000 
#    y 0.000000 1.694570 0.000000 
#    z 0.000000 0.000000 1.709510 
# 
# From -- ./inp_files/32265.got.cif
#   From: 2010.03.12/outbox.cif.g09.slc.cpg/sg59_17_cif.got.tgz:32265.got - 2010.04.16 16:29:54.
