data_PCOD8242384
_publ_section_title
;
Structure prediction by ZEFSAII (Michael W. Deem and Ramdas Pophale) SiO2 
 PCOD8242384
Probable space group: P M M N
;
_chemical_formula_sum "Si O2"
_cell_formula_units_Z 56
_cell_length_a 8.871477
_cell_length_b 24.055885
_cell_length_c 14.271632
_cell_angle_alpha 90.000000
_cell_angle_beta 90.000000
_cell_angle_gamma 90.000000
_cell_volume 3045.726546
_symmetry_space_group_name_H-M "P M M N"
_symmetry_group_IT_number 59
_space_group.IT_coordinate_system_code '2'
_symmetry_cell_setting 'orthorhombic'
loop_
_space_group_symop_operation_xyz
x,y,z
1/2-x,1/2-y,z
1/2+x,-y,-z
-x,1/2+y,-z
-x,-y,-z
1/2+x,1/2+y,-z
1/2-x,y,z
x,1/2-y,z
loop_
_atom_site_type_symbol
_atom_site_label
_atom_site_fract_x
_atom_site_fract_y
_atom_site_fract_z
Si Si1 0.071747 0.407898 0.837918
Si Si2 0.925692 0.185557 0.717321
Si Si3 0.571443 0.097781 0.037601
Si Si4 0.922062 0.685251 0.842376
Si Si5 0.928900 0.188284 0.508676
Si Si6 0.929348 0.127838 0.327089
Si Si7 0.427697 0.526371 0.788020
O O1 0.250000 0.404818 0.846532
O O2 0.018710 0.462414 0.778012
O O3 0.014967 0.351890 0.790322
O O4 0.004286 0.416459 0.939960
O O5 0.750000 0.172187 0.727673
O O6 0.958178 0.250000 0.740191
O O7 0.984576 0.171053 0.612430
O O8 0.750000 0.099287 0.025188
O O9 0.514156 0.157455 0.073023
O O10 0.515831 0.052238 0.113621
O O11 0.750000 0.663944 0.842122
O O12 0.930905 0.750000 0.861077
O O13 0.997555 0.671911 0.742904
O O14 0.750000 0.190990 0.511058
O O15 0.990633 0.250000 0.483241
O O16 0.985126 0.143248 0.432097
O O17 0.750000 0.133821 0.318703
O O18 0.983328 0.065159 0.298970
O O19 0.250000 0.528496 0.789677
#
# Coordination Sequence:
#
# PCOD8242384 Si02
#       7
#     8   8   8   8   8   8   8
#     4  11  21  34  52  73 100 131 162 200 251 300
#     4   9  19  36  54  73  98 128 168 212 246 284
#     4  10  20  35  54  73  94 127 172 210 242 286
#     4  10  20  32  46  71 107 137 160 195 247 300
#     4   8  14  27  51  78  99 125 165 210 247 279
#     4   9  16  30  53  77 100 129 167 204 241 288
#     4   8  17  32  50  75 103 129 158 198 244 293
#
# _framework density 18.386417000000002
#
# number of rings (size 3 to 8) (size 9 to 14) (size 15 to 20)
#    0.000    2.714    0.000    3.857    0.000    2.571 
#    0.000    7.857    0.000    0.857    0.000    0.000 
#    0.000    0.000    0.000    0.000    0.000    0.000 
#
# Total GULP energy -694076.973120 kJ/mol
# GULP energy per Si atom -12394.231663 kJ/mol
# Density = 1.834457 g / cm^3
# Si number density = 18.386417 Si / 1000 Ang^3
#
#
#
# Elastic Constant Matrix: (Units=GPa)
#
#
# Indices 1 2 3 4 5 6 
#
# 1 55.7477 35.1743 20.7808 0.0000 0.0000 0.0000
# 2 35.1743 94.7582 39.9431 0.0000 0.0000 0.0000
# 3 20.7808 39.9431 75.1221 0.0000 0.0000 0.0000
# 4 0.0000 0.0000 0.0000 21.1015 0.0000 0.0000
# 5 0.0000 0.0000 0.0000 0.0000 14.1607 0.0000
# 6 0.0000 0.0000 0.0000 0.0000 0.0000 18.8441
#
#
#
# Elastic Compliance Matrix: (Units=1/GPa)
#
#
# Indices 1 2 3 4 5 6 
#
# 1 0.023763 -0.007798 -0.002427 0.000000 0.000000 0.000000
# 2 -0.007798 0.016160 -0.006436 0.000000 0.000000 0.000000
# 3 -0.002427 -0.006436 0.017405 0.000000 0.000000 0.000000
# 4 0.000000 0.000000 0.000000 0.047390 0.000000 0.000000
# 5 0.000000 0.000000 0.000000 0.000000 0.070618 0.000000
# 6 0.000000 0.000000 0.000000 0.000000 0.000000 0.053067
#
#
# Mechanical properties :
#
#
# Convention : Reuss Voigt Hill
#
# Bulk Modulus (GPa) = 41.65444 46.38048 44.01746
# Shear Modulus (GPa) = 18.53730 19.46992 19.00361
#
# Velocity S-wave (km/s) = 3.17867 3.25765 3.21840
# Velocity P-wave (km/s) = 6.01466 6.27932 6.14841
#
# Compressibility (1/GPa) = 0.02400704
#
# Stress axis : x y z
#
# Youngs Moduli (GPa) = 42.08282 61.87959 57.45461
#
# Poissons Ratio (x) = 0.48251 0.13946
# Poissons Ratio (y) = 0.32814 0.36976
# Poissons Ratio (z) = 0.10215 0.39823
#
# Static dielectric constant tensor:
#      x y z
#    x 3.188970 0.000000 0.000000 
#    y 0.000000 3.659070 0.000000 
#    z 0.000000 0.000000 3.477270 
# 
# 
# High freq. dielectric constant tensor:
#      x y z
#    x 1.691010 0.000000 0.000000 
#    y 0.000000 1.713930 0.000000 
#    z 0.000000 0.000000 1.706810 
# 
# From -- ./inp_files/20920.got.cif
#   From: 2010.03.12/outbox.cif.g09.slc.cpg/sg59_11_cif.got.tgz:20920.got - 2010.04.16 16:29:54.
