data_PCOD8242798
_publ_section_title
;
Structure prediction by ZEFSAII (Michael W. Deem and Ramdas Pophale) SiO2 
 PCOD8242798
Probable space group: P M M N
;
_chemical_formula_sum "Si O2"
_cell_formula_units_Z 48
_cell_length_a 14.765839
_cell_length_b 8.661312
_cell_length_c 20.702874
_cell_angle_alpha 90.000000
_cell_angle_beta 90.000000
_cell_angle_gamma 90.000000
_cell_volume 2647.722408
_symmetry_space_group_name_H-M "P M M N"
_symmetry_group_IT_number 59
_space_group.IT_coordinate_system_code '2'
_symmetry_cell_setting 'orthorhombic'
loop_
_space_group_symop_operation_xyz
x,y,z
1/2-x,1/2-y,z
1/2+x,-y,-z
-x,1/2+y,-z
-x,-y,-z
1/2+x,1/2+y,-z
1/2-x,y,z
x,1/2-y,z
loop_
_atom_site_type_symbol
_atom_site_label
_atom_site_fract_x
_atom_site_fract_y
_atom_site_fract_z
Si Si1 0.062141 0.431645 0.944483
Si Si2 0.750000 0.066532 0.018437
Si Si3 0.064508 0.069186 0.302754
Si Si4 0.750000 0.418421 0.544715
Si Si5 0.434543 0.068054 0.447792
Si Si6 0.250000 0.579558 0.305625
Si Si7 0.750000 0.566674 0.875049
Si Si8 0.562764 0.430273 0.825012
O O1 0.073149 0.250000 0.955297
O O2 0.161033 0.508670 0.943845
O O3 0.012300 0.472123 0.877868
O O4 0.000000 0.500000 0.000000
O O5 0.750000 0.250000 0.016179
O O6 0.750000 0.003851 0.946175
O O7 0.046898 0.250000 0.299217
O O8 0.040840 0.006817 0.375170
O O9 0.167265 0.027110 0.285905
O O10 0.014824 0.984835 0.242907
O O11 0.750000 0.250000 0.509461
O O12 0.662919 0.517279 0.526193
O O13 0.750000 0.386644 0.619591
O O14 0.439346 0.250000 0.446977
O O15 0.500000 0.000000 0.500000
O O16 0.250000 0.750000 0.271244
O O17 0.750000 0.750000 0.880257
O O18 0.658969 0.513036 0.838432
O O19 0.582706 0.250000 0.822636
#
# Coordination Sequence:
#
# PCOD8242798 Si02
#       8
#     8   4   8   4   8   4   4   8
#     4  11  23  39  60  83 110 144 184 229 276 325
#     4  12  24  39  59  83 113 145 185 230 276 333
#     4  10  20  33  50  75 108 143 180 221 271 327
#     4   9  17  30  50  76 106 140 176 217 267 322
#     4  10  20  34  54  80 110 145 184 227 273 328
#     4   9  16  28  47  71 103 140 174 211 261 321
#     4  12  23  35  56  82 114 149 183 224 272 326
#     4  11  23  37  55  80 112 146 184 227 275 329
#
# _framework density 18.128786999999999
#
# number of rings (size 3 to 8) (size 9 to 14) (size 15 to 20)
#    0.000    1.500    1.667    4.500    0.000    6.000 
#    0.000    0.000    0.000    1.000    0.000    4.667 
#    0.000    0.000    0.000    0.000    0.000    0.000 
#
# Total GULP energy -594836.677399 kJ/mol
# GULP energy per Si atom -12392.430779 kJ/mol
# Density = 1.808753 g / cm^3
# Si number density = 18.128787 Si / 1000 Ang^3
#
#
#
# Elastic Constant Matrix: (Units=GPa)
#
#
# Indices 1 2 3 4 5 6 
#
# 1 113.2384 47.0677 69.2920 0.0000 0.0000 0.0000
# 2 47.0677 100.8655 55.0027 0.0000 0.0000 0.0000
# 3 69.2920 55.0027 142.4984 0.0000 0.0000 0.0000
# 4 0.0000 0.0000 0.0000 30.3336 0.0000 0.0000
# 5 0.0000 0.0000 0.0000 0.0000 27.5010 0.0000
# 6 0.0000 0.0000 0.0000 0.0000 0.0000 34.1356
#
#
#
# Elastic Compliance Matrix: (Units=1/GPa)
#
#
# Indices 1 2 3 4 5 6 
#
# 1 0.013448 -0.003432 -0.005215 0.000000 0.000000 0.000000
# 2 -0.003432 0.013433 -0.003516 0.000000 0.000000 0.000000
# 3 -0.005215 -0.003516 0.010911 0.000000 0.000000 0.000000
# 4 0.000000 0.000000 0.000000 0.032967 0.000000 0.000000
# 5 0.000000 0.000000 0.000000 0.000000 0.036362 0.000000
# 6 0.000000 0.000000 0.000000 0.000000 0.000000 0.029295
#
#
# Mechanical properties :
#
#
# Convention : Reuss Voigt Hill
#
# Bulk Modulus (GPa) = 74.25952 77.70302 75.98127
# Shear Modulus (GPa) = 30.26073 30.74336 30.50205
#
# Velocity S-wave (km/s) = 4.09003 4.12251 4.10630
# Velocity P-wave (km/s) = 7.95962 8.10030 8.03027
#
# Compressibility (1/GPa) = 0.01346629
#
# Stress axis : x y z
#
# Youngs Moduli (GPa) = 74.35822 74.44325 91.65368
#
# Poissons Ratio (x) = 0.25548 0.47796
# Poissons Ratio (y) = 0.25519 0.32227
# Poissons Ratio (z) = 0.38777 0.26176
#
# Static dielectric constant tensor:
#      x y z
#    x 2.644910 0.000000 0.000000 
#    y 0.000000 3.502940 0.000000 
#    z 0.000000 0.000000 3.553410 
# 
# 
# High freq. dielectric constant tensor:
#      x y z
#    x 1.675440 0.000000 0.000000 
#    y 0.000000 1.720200 0.000000 
#    z 0.000000 0.000000 1.705940 
# 
# From -- ./inp_files/27527.got.cif
#   From: 2010.03.12/outbox.cif.g09.slc.cpg/sg59_14_cif.got.tgz:27527.got - 2010.04.16 16:29:54.
