data_PCOD8242226
_publ_section_title
;
Structure prediction by ZEFSAII (Michael W. Deem and Ramdas Pophale) SiO2 
 PCOD8242226
Probable space group: P M M N
;
_chemical_formula_sum "Si O2"
_cell_formula_units_Z 64
_cell_length_a 9.094733
_cell_length_b 18.675016
_cell_length_c 19.821840
_cell_angle_alpha 90.000000
_cell_angle_beta 90.000000
_cell_angle_gamma 90.000000
_cell_volume 3366.626228
_symmetry_space_group_name_H-M "P M M N"
_symmetry_group_IT_number 59
_space_group.IT_coordinate_system_code '2'
_symmetry_cell_setting 'orthorhombic'
loop_
_space_group_symop_operation_xyz
x,y,z
1/2-x,1/2-y,z
1/2+x,-y,-z
-x,1/2+y,-z
-x,-y,-z
1/2+x,1/2+y,-z
1/2-x,y,z
x,1/2-y,z
loop_
_atom_site_type_symbol
_atom_site_label
_atom_site_fract_x
_atom_site_fract_y
_atom_site_fract_z
Si Si1 0.924334 0.426309 0.981035
Si Si2 0.576955 0.433485 0.221500
Si Si3 0.419658 0.169604 0.715327
Si Si4 0.581482 0.916561 0.154794
Si Si5 0.421782 0.582683 0.397328
Si Si6 0.077183 0.423626 0.363632
Si Si7 0.075743 0.670344 0.896182
Si Si8 0.922136 0.166849 0.471922
O O1 0.750000 0.436656 0.981776
O O2 0.976902 0.399917 0.908056
O O3 0.977124 0.367827 0.035411
O O4 0.000000 0.500000 0.000000
O O5 0.750000 0.428888 0.236967
O O6 0.534517 0.509787 0.190321
O O7 0.488994 0.421277 0.289532
O O8 0.522552 0.373235 0.169204
O O9 0.250000 0.164248 0.694769
O O10 0.479771 0.250000 0.705749
O O11 0.441330 0.148031 0.793063
O O12 0.506454 0.115405 0.668747
O O13 0.750000 0.921993 0.129913
O O14 0.250000 0.596084 0.390407
O O15 0.460973 0.498717 0.400377
O O16 0.481908 0.621999 0.464069
O O17 0.250000 0.411594 0.358398
O O18 0.007540 0.359206 0.406040
O O19 0.250000 0.673773 0.895732
O O20 0.007440 0.750000 0.893536
O O21 0.750000 0.153503 0.460344
O O22 0.957076 0.250000 0.484647
#
# Coordination Sequence:
#
# PCOD8242226 Si02
#       8
#     8   8   8   8   8   8   8   8
#     4  11  21  35  58  85 112 146 187 233 285 340
#     4  10  19  36  60  82 109 151 192 231 282 340
#     4  10  21  36  56  83 116 153 189 230 285 344
#     4  10  20  36  56  82 113 147 188 230 276 337
#     4  10  21  38  60  86 115 150 191 237 284 340
#     4  11  23  37  58  89 119 146 187 241 293 342
#     4   9  19  36  57  82 110 143 190 239 280 329
#     4  10  22  40  60  82 112 153 196 235 284 346
#
# _framework density 19.010128999999999
#
# number of rings (size 3 to 8) (size 9 to 14) (size 15 to 20)
#    0.000    1.875    2.500    1.500    0.000    4.000 
#    0.000    1.250    0.000    2.625    0.000    0.000 
#    0.000    0.000    0.000    0.000    0.000    0.000 
#
# Total GULP energy -793820.293014 kJ/mol
# GULP energy per Si atom -12403.442078 kJ/mol
# Density = 1.896686 g / cm^3
# Si number density = 19.010129 Si / 1000 Ang^3
#
#
#
# Elastic Constant Matrix: (Units=GPa)
#
#
# Indices 1 2 3 4 5 6 
#
# 1 48.0342 31.6745 45.1043 0.0000 0.0000 0.0000
# 2 31.6745 94.7575 46.0129 0.0000 0.0000 0.0000
# 3 45.1043 46.0129 131.9754 0.0000 0.0000 0.0000
# 4 0.0000 0.0000 0.0000 29.8824 0.0000 0.0000
# 5 0.0000 0.0000 0.0000 0.0000 33.8959 0.0000
# 6 0.0000 0.0000 0.0000 0.0000 0.0000 20.0256
#
#
#
# Elastic Compliance Matrix: (Units=1/GPa)
#
#
# Indices 1 2 3 4 5 6 
#
# 1 0.034028 -0.006895 -0.009226 0.000000 0.000000 0.000000
# 2 -0.006895 0.014101 -0.002560 0.000000 0.000000 0.000000
# 3 -0.009226 -0.002560 0.011623 0.000000 0.000000 0.000000
# 4 0.000000 0.000000 0.000000 0.033465 0.000000 0.000000
# 5 0.000000 0.000000 0.000000 0.000000 0.029502 0.000000
# 6 0.000000 0.000000 0.000000 0.000000 0.000000 0.049936
#
#
# Mechanical properties :
#
#
# Convention : Reuss Voigt Hill
#
# Bulk Modulus (GPa) = 44.66069 57.81673 51.23871
# Shear Modulus (GPa) = 22.99078 26.89246 24.94162
#
# Velocity S-wave (km/s) = 3.48141 3.76525 3.62611
# Velocity P-wave (km/s) = 6.30114 7.02727 6.67409
#
# Compressibility (1/GPa) = 0.02239105
#
# Stress axis : x y z
#
# Youngs Moduli (GPa) = 29.38770 70.91699 86.03859
#
# Poissons Ratio (x) = 0.48894 0.79376
# Poissons Ratio (y) = 0.20262 0.22026
# Poissons Ratio (z) = 0.27112 0.18154
#
# Static dielectric constant tensor:
#      x y z
#    x 3.340790 0.000000 0.000000 
#    y 0.000000 3.675100 0.000000 
#    z 0.000000 0.000000 3.649290 
# 
# 
# High freq. dielectric constant tensor:
#      x y z
#    x 1.721030 0.000000 0.000000 
#    y 0.000000 1.745290 0.000000 
#    z 0.000000 0.000000 1.749620 
# 
# From -- ./inp_files/26174.got.cif
#   From: 2010.03.12/outbox.cif.g09.slc.cpg/sg59_14_cif.got.tgz:26174.got - 2010.04.16 16:29:54.
