data_PCOD8242636
_publ_section_title
;
Structure prediction by ZEFSAII (Michael W. Deem and Ramdas Pophale) SiO2 
 PCOD8242636
Probable space group: P M M N
;
_chemical_formula_sum "Si O2"
_cell_formula_units_Z 48
_cell_length_a 17.996676
_cell_length_b 9.683232
_cell_length_c 15.379416
_cell_angle_alpha 90.000000
_cell_angle_beta 90.000000
_cell_angle_gamma 90.000000
_cell_volume 2680.109139
_symmetry_space_group_name_H-M "P M M N"
_symmetry_group_IT_number 59
_space_group.IT_coordinate_system_code '2'
_symmetry_cell_setting 'orthorhombic'
loop_
_space_group_symop_operation_xyz
x,y,z
1/2-x,1/2-y,z
1/2+x,-y,-z
-x,1/2+y,-z
-x,-y,-z
1/2+x,1/2+y,-z
1/2-x,y,z
x,1/2-y,z
loop_
_atom_site_type_symbol
_atom_site_label
_atom_site_fract_x
_atom_site_fract_y
_atom_site_fract_z
Si Si1 0.835563 0.591275 0.483879
Si Si2 0.572839 0.913750 0.649272
Si Si3 0.166945 0.414655 0.191127
Si Si4 0.661488 0.596209 0.999668
Si Si5 0.164155 0.591224 0.844964
Si Si6 0.595780 0.412077 0.338472
O O1 0.750000 0.578240 0.511713
O O2 0.855676 0.750000 0.461914
O O3 0.885145 0.533873 0.563246
O O4 0.849976 0.497525 0.400273
O O5 0.576772 0.750000 0.654709
O O6 0.612825 0.976124 0.734840
O O7 0.488054 0.963997 0.645805
O O8 0.250000 0.473375 0.207074
O O9 0.169761 0.250000 0.194960
O O10 0.136203 0.458461 0.095683
O O11 0.750000 0.598854 0.000225
O O12 0.630258 0.750000 0.017267
O O13 0.631072 0.496171 0.074861
O O14 0.250000 0.555150 0.826243
O O15 0.154485 0.750000 0.870700
O O16 0.117067 0.553604 0.760197
O O17 0.605834 0.250000 0.358425
#
# Coordination Sequence:
#
# PCOD8242636 Si02
#       6
#     8   8   8   8   8   8
#     4  10  20  33  51  74  95 118 153 195 235 274
#     4   9  17  30  48  70  96 124 153 188 232 280
#     4   8  13  24  45  71  95 119 152 194 234 273
#     4   8  14  25  44  69  91 114 150 194 233 265
#     4   9  17  29  44  62  87 121 157 189 224 270
#     4  10  20  33  49  69  95 127 158 188 228 279
#
# _framework density 17.909718999999999
#
# number of rings (size 3 to 8) (size 9 to 14) (size 15 to 20)
#    0.000    3.000    0.000    2.500    0.000    3.667 
#    0.000    2.500    0.000    2.000    0.000    2.333 
#    0.000    0.000    0.000    0.000    0.000    0.000 
#
# Total GULP energy -595090.924090 kJ/mol
# GULP energy per Si atom -12397.727585 kJ/mol
# Density = 1.786896 g / cm^3
# Si number density = 17.909719 Si / 1000 Ang^3
#
#
#
# Elastic Constant Matrix: (Units=GPa)
#
#
# Indices 1 2 3 4 5 6 
#
# 1 58.8984 18.5345 29.9064 0.0000 0.0000 0.0000
# 2 18.5345 42.5253 46.2294 0.0000 0.0000 0.0000
# 3 29.9064 46.2294 118.1269 0.0000 0.0000 0.0000
# 4 0.0000 0.0000 0.0000 19.0798 0.0000 0.0000
# 5 0.0000 0.0000 0.0000 0.0000 18.4647 0.0000
# 6 0.0000 0.0000 0.0000 0.0000 0.0000 15.4775
#
#
#
# Elastic Compliance Matrix: (Units=1/GPa)
#
#
# Indices 1 2 3 4 5 6 
#
# 1 0.020236 -0.005657 -0.002909 0.000000 0.000000 0.000000
# 2 -0.005657 0.042509 -0.015204 0.000000 0.000000 0.000000
# 3 -0.002909 -0.015204 0.015152 0.000000 0.000000 0.000000
# 4 0.000000 0.000000 0.000000 0.052412 0.000000 0.000000
# 5 0.000000 0.000000 0.000000 0.000000 0.054157 0.000000
# 6 0.000000 0.000000 0.000000 0.000000 0.000000 0.064610
#
#
# Mechanical properties :
#
#
# Convention : Reuss Voigt Hill
#
# Bulk Modulus (GPa) = 32.94163 45.43235 39.18699
# Shear Modulus (GPa) = 16.30068 18.92974 17.61521
#
# Velocity S-wave (km/s) = 3.02016 3.25461 3.13957
# Velocity P-wave (km/s) = 5.53126 6.28855 5.92202
#
# Compressibility (1/GPa) = 0.03035673
#
# Stress axis : x y z
#
# Youngs Moduli (GPa) = 49.41740 23.52426 65.99724
#
# Poissons Ratio (x) = 0.13308 0.19200
# Poissons Ratio (y) = 0.27956 1.00342
# Poissons Ratio (z) = 0.14377 0.35766
#
# Static dielectric constant tensor:
#      x y z
#    x 3.259480 0.000000 0.000000 
#    y 0.000000 3.015830 0.000000 
#    z 0.000000 0.000000 3.555550 
# 
# 
# High freq. dielectric constant tensor:
#      x y z
#    x 1.678560 0.000000 0.000000 
#    y 0.000000 1.650210 0.000000 
#    z 0.000000 0.000000 1.707400 
# 
# From -- ./inp_files/15794.got.cif
#   From: 2010.03.12/outbox.cif.g09.slc.cpg/sg59_8_cif.got.tgz:15794.got - 2010.04.16 16:29:54.
