data_PCOD8242795
_publ_section_title
;
Structure prediction by ZEFSAII (Michael W. Deem and Ramdas Pophale) SiO2 
 PCOD8242795
Probable space group: P M M N
;
_chemical_formula_sum "Si O2"
_cell_formula_units_Z 48
_cell_length_a 23.580829
_cell_length_b 9.221484
_cell_length_c 11.358878
_cell_angle_alpha 90.000000
_cell_angle_beta 90.000000
_cell_angle_gamma 90.000000
_cell_volume 2469.990717
_symmetry_space_group_name_H-M "P M M N"
_symmetry_group_IT_number 59
_space_group.IT_coordinate_system_code '2'
_symmetry_cell_setting 'orthorhombic'
loop_
_space_group_symop_operation_xyz
x,y,z
1/2-x,1/2-y,z
1/2+x,-y,-z
-x,1/2+y,-z
-x,-y,-z
1/2+x,1/2+y,-z
1/2-x,y,z
x,1/2-y,z
loop_
_atom_site_type_symbol
_atom_site_label
_atom_site_fract_x
_atom_site_fract_y
_atom_site_fract_z
Si Si1 0.185443 0.084854 0.165828
Si Si2 0.412297 0.917832 0.058216
Si Si3 0.871747 0.916883 0.594172
Si Si4 0.025566 0.420491 0.256859
Si Si5 0.315156 0.422829 0.640358
Si Si6 0.097327 0.915940 0.787535
O O1 0.250000 0.051703 0.137552
O O2 0.169000 0.250000 0.133137
O O3 0.174278 0.058488 0.303870
O O4 0.150429 0.974152 0.087234
O O5 0.416961 0.750000 0.091361
O O6 0.458804 0.003787 0.133625
O O7 0.421718 0.945804 0.920748
O O8 0.880112 0.750000 0.563597
O O9 0.933014 0.979352 0.638337
O O10 0.846502 0.989213 0.475737
O O11 0.036592 0.250000 0.237430
O O12 0.959746 0.451128 0.288576
O O13 0.250000 0.477496 0.645075
O O14 0.316216 0.250000 0.643171
O O15 0.350214 0.482838 0.751503
O O16 0.116435 0.750000 0.769958
#
# Coordination Sequence:
#
# PCOD8242795 Si02
#       6
#     8   8   8   8   8   8
#     4   9  17  31  53  77 101 134 175 217 261 309
#     4  10  20  33  50  75 107 138 168 210 261 306
#     4   8  15  31  55  79 101 127 164 213 263 304
#     4   9  18  35  58  80 102 131 169 212 258 311
#     4  10  21  36  54  76 102 135 175 213 249 298
#     4  10  22  37  52  74 106 141 172 206 254 307
#
# _framework density 19.433271999999999
#
# number of rings (size 3 to 8) (size 9 to 14) (size 15 to 20)
#    0.000    2.667    0.000    2.500    0.000    6.000 
#    0.000    6.667    0.000    4.000    0.000    0.000 
#    0.000    0.000    0.000    0.000    0.000    0.000 
#
# Total GULP energy -594960.137809 kJ/mol
# GULP energy per Si atom -12395.002871 kJ/mol
# Density = 1.938904 g / cm^3
# Si number density = 19.433272 Si / 1000 Ang^3
#
#
#
# Elastic Constant Matrix: (Units=GPa)
#
#
# Indices 1 2 3 4 5 6 
#
# 1 134.0704 37.4314 42.5705 0.0000 0.0000 0.0000
# 2 37.4314 45.4002 30.8377 0.0000 0.0000 0.0000
# 3 42.5705 30.8377 53.4203 0.0000 0.0000 0.0000
# 4 0.0000 0.0000 0.0000 20.4954 0.0000 0.0000
# 5 0.0000 0.0000 0.0000 0.0000 19.9769 0.0000
# 6 0.0000 0.0000 0.0000 0.0000 0.0000 26.0657
#
#
#
# Elastic Compliance Matrix: (Units=1/GPa)
#
#
# Indices 1 2 3 4 5 6 
#
# 1 0.010621 -0.004948 -0.005607 0.000000 0.000000 0.000000
# 2 -0.004948 0.038539 -0.018304 0.000000 0.000000 0.000000
# 3 -0.005607 -0.018304 0.033754 0.000000 0.000000 0.000000
# 4 0.000000 0.000000 0.000000 0.048791 0.000000 0.000000
# 5 0.000000 0.000000 0.000000 0.000000 0.050058 0.000000
# 6 0.000000 0.000000 0.000000 0.000000 0.000000 0.038365
#
#
# Mechanical properties :
#
#
# Convention : Reuss Voigt Hill
#
# Bulk Modulus (GPa) = 39.69043 50.50778 45.09910
# Shear Modulus (GPa) = 17.46760 21.44437 19.45599
#
# Velocity S-wave (km/s) = 3.00134 3.32548 3.16756
# Velocity P-wave (km/s) = 5.69903 6.38685 6.05272
#
# Compressibility (1/GPa) = 0.02519499
#
# Stress axis : x y z
#
# Youngs Moduli (GPa) = 94.15670 25.94804 29.62575
#
# Poissons Ratio (x) = 0.12838 0.16612
# Poissons Ratio (y) = 0.46585 0.54228
# Poissons Ratio (z) = 0.52798 0.47496
#
# Static dielectric constant tensor:
#      x y z
#    x 3.793970 0.000000 0.000000 
#    y 0.000000 3.272960 0.000000 
#    z 0.000000 0.000000 3.472090 
# 
# 
# High freq. dielectric constant tensor:
#      x y z
#    x 1.769230 0.000000 0.000000 
#    y 0.000000 1.727670 0.000000 
#    z 0.000000 0.000000 1.745270 
# 
# From -- ./inp_files/18588.got.cif
#   From: 2010.03.12/outbox.cif.g09.slc.cpg/sg59_10_cif.got.tgz:18588.got - 2010.04.16 16:29:54.
