data_PCOD8242367
_publ_section_title
;
Structure prediction by ZEFSAII (Michael W. Deem and Ramdas Pophale) SiO2 
 PCOD8242367
Probable space group: P M M N
;
_chemical_formula_sum "Si O2"
_cell_formula_units_Z 64
_cell_length_a 9.518411
_cell_length_b 23.094623
_cell_length_c 17.749162
_cell_angle_alpha 90.000000
_cell_angle_beta 90.000000
_cell_angle_gamma 90.000000
_cell_volume 3901.693804
_symmetry_space_group_name_H-M "P M M N"
_symmetry_group_IT_number 59
_space_group.IT_coordinate_system_code '2'
_symmetry_cell_setting 'orthorhombic'
loop_
_space_group_symop_operation_xyz
x,y,z
1/2-x,1/2-y,z
1/2+x,-y,-z
-x,1/2+y,-z
-x,-y,-z
1/2+x,1/2+y,-z
1/2-x,y,z
x,1/2-y,z
loop_
_atom_site_type_symbol
_atom_site_label
_atom_site_fract_x
_atom_site_fract_y
_atom_site_fract_z
Si Si1 0.412102 0.682932 0.206400
Si Si2 0.915256 0.316233 0.240017
Si Si3 0.087122 0.116570 0.362048
Si Si4 0.086557 0.629222 0.363592
Si Si5 0.088100 0.505544 0.424562
Si Si6 0.905569 0.181414 0.070463
Si Si7 0.910107 0.683560 0.490948
Si Si8 0.408077 0.181057 0.935379
O O1 0.250000 0.674157 0.183458
O O2 0.442326 0.750000 0.225187
O O3 0.453967 0.644556 0.278241
O O4 0.507528 0.660169 0.138047
O O5 0.750000 0.323044 0.253915
O O6 0.961442 0.250000 0.255978
O O7 0.954839 0.334440 0.154773
O O8 0.997775 0.359748 0.293191
O O9 0.250000 0.131484 0.347772
O O10 0.034185 0.145810 0.439318
O O11 0.060140 0.048045 0.368678
O O12 0.250000 0.640877 0.378087
O O13 0.044452 0.562863 0.379011
O O14 0.002793 0.671680 0.418098
O O15 0.250000 0.507302 0.449511
O O16 0.000000 0.500000 0.500000
O O17 0.750000 0.155708 0.054553
O O18 0.896950 0.250000 0.062615
O O19 0.015332 0.155828 0.009880
O O20 0.750000 0.666893 0.471587
O O21 0.924517 0.750000 0.514596
O O22 0.250000 0.156211 0.932486
O O23 0.406320 0.250000 0.938476
#
# Coordination Sequence:
#
# PCOD8242367 Si02
#       8
#     8   8   8   8   8   8   8   8
#     4   9  17  29  44  64  93 124 151 184 230 279
#     4   9  18  31  47  70  98 126 158 194 230 274
#     4  10  20  33  48  67  93 125 157 191 238 287
#     4  10  20  33  50  70  90 118 159 202 238 274
#     4  10  20  35  53  70  89 117 158 204 242 280
#     4   8  14  26  43  63  91 125 155 184 223 270
#     4  10  20  32  46  66  94 126 155 185 231 289
#     4   9  16  25  40  65  94 123 155 185 217 267
#
# _framework density 16.403131999999999
#
# number of rings (size 3 to 8) (size 9 to 14) (size 15 to 20)
#    0.000    2.625    1.250    1.875    0.000    5.000 
#    0.000    2.500    0.000    0.000    0.000    0.875 
#    0.000    0.000    0.000    0.000    0.000    0.000 
#
# Total GULP energy -793606.896277 kJ/mol
# GULP energy per Si atom -12400.107754 kJ/mol
# Density = 1.636580 g / cm^3
# Si number density = 16.403132 Si / 1000 Ang^3
#
#
#
# Elastic Constant Matrix: (Units=GPa)
#
#
# Indices 1 2 3 4 5 6 
#
# 1 77.3071 27.7587 69.6122 0.0000 0.0000 0.0000
# 2 27.7587 57.7755 37.5728 0.0000 0.0000 0.0000
# 3 69.6122 37.5728 129.0900 0.0000 0.0000 0.0000
# 4 0.0000 0.0000 0.0000 8.5659 0.0000 0.0000
# 5 0.0000 0.0000 0.0000 0.0000 31.0385 0.0000
# 6 0.0000 0.0000 0.0000 0.0000 0.0000 18.4099
#
#
#
# Elastic Compliance Matrix: (Units=1/GPa)
#
#
# Indices 1 2 3 4 5 6 
#
# 1 0.025928 -0.004150 -0.012774 0.000000 0.000000 0.000000
# 2 -0.004150 0.022014 -0.004169 0.000000 0.000000 0.000000
# 3 -0.012774 -0.004169 0.015848 0.000000 0.000000 0.000000
# 4 0.000000 0.000000 0.000000 0.116741 0.000000 0.000000
# 5 0.000000 0.000000 0.000000 0.000000 0.032218 0.000000
# 6 0.000000 0.000000 0.000000 0.000000 0.000000 0.054319
#
#
# Mechanical properties :
#
#
# Convention : Reuss Voigt Hill
#
# Bulk Modulus (GPa) = 46.28871 59.33998 52.81434
# Shear Modulus (GPa) = 15.79999 20.21812 18.00905
#
# Velocity S-wave (km/s) = 3.10696 3.51462 3.31706
# Velocity P-wave (km/s) = 6.41495 7.26117 6.85114
#
# Compressibility (1/GPa) = 0.02160354
#
# Stress axis : x y z
#
# Youngs Moduli (GPa) = 38.56838 45.42611 63.09802
#
# Poissons Ratio (x) = 0.18853 0.80600
# Poissons Ratio (y) = 0.16007 0.26307
# Poissons Ratio (z) = 0.49266 0.18940
#
# Static dielectric constant tensor:
#      x y z
#    x 3.202370 0.000000 0.000000 
#    y 0.000000 2.900650 0.000000 
#    z 0.000000 0.000000 3.149910 
# 
# 
# High freq. dielectric constant tensor:
#      x y z
#    x 1.633750 0.000000 0.000000 
#    y 0.000000 1.595270 0.000000 
#    z 0.000000 0.000000 1.633500 
# 
# From -- ./inp_files/26355.got.cif
#   From: 2010.03.12/outbox.cif.g09.slc.cpg/sg59_14_cif.got.tgz:26355.got - 2010.04.16 16:29:54.
