data_PCOD8242769
_publ_section_title
;
Structure prediction by ZEFSAII (Michael W. Deem and Ramdas Pophale) SiO2 
 PCOD8242769
Probable space group: P M M N
;
_chemical_formula_sum "Si O2"
_cell_formula_units_Z 56
_cell_length_a 19.830627
_cell_length_b 8.891671
_cell_length_c 16.269552
_cell_angle_alpha 90.000000
_cell_angle_beta 90.000000
_cell_angle_gamma 90.000000
_cell_volume 2868.767982
_symmetry_space_group_name_H-M "P M M N"
_symmetry_group_IT_number 59
_space_group.IT_coordinate_system_code '2'
_symmetry_cell_setting 'orthorhombic'
loop_
_space_group_symop_operation_xyz
x,y,z
1/2-x,1/2-y,z
1/2+x,-y,-z
-x,1/2+y,-z
-x,-y,-z
1/2+x,1/2+y,-z
1/2-x,y,z
x,1/2-y,z
loop_
_atom_site_type_symbol
_atom_site_label
_atom_site_fract_x
_atom_site_fract_y
_atom_site_fract_z
Si Si1 0.828231 0.578154 0.190356
Si Si2 0.416831 0.927445 0.676335
Si Si3 0.325277 0.579093 0.976526
Si Si4 0.044272 0.576568 0.069494
Si Si5 0.675261 0.071236 0.653778
Si Si6 0.325017 0.928625 0.530263
Si Si7 0.044869 0.570769 0.253700
O O1 0.750000 0.556397 0.211346
O O2 0.851632 0.750000 0.203537
O O3 0.870307 0.467482 0.246826
O O4 0.843294 0.534146 0.096661
O O5 0.427524 0.750000 0.673048
O O6 0.380631 0.991033 0.594035
O O7 0.489090 0.006181 0.684662
O O8 0.250000 0.548017 0.010344
O O9 0.331414 0.750000 0.943367
O O10 0.376678 0.550910 0.050918
O O11 0.024601 0.750000 0.068001
O O12 0.031146 0.511077 0.160877
O O13 0.000000 0.500000 0.000000
O O14 0.750000 0.012216 0.679923
O O15 0.676145 0.250000 0.653760
O O16 0.657669 0.014455 0.561552
O O17 0.618069 0.011410 0.716039
O O18 0.250000 0.986098 0.555252
O O19 0.325624 0.750000 0.533775
O O20 0.042513 0.750000 0.256236
#
# Coordination Sequence:
#
# PCOD8242769 Si02
#       7
#     8   8   8   8   8   8   8
#     4  10  20  33  50  74 104 135 168 210 259 305
#     4  11  21  32  49  74 105 140 176 208 243 297
#     4   9  18  33  52  73  97 127 166 210 255 306
#     4  10  21  35  51  72  99 132 167 205 250 299
#     4   8  15  31  55  79 102 130 166 209 257 307
#     4   8  15  29  50  76 103 132 168 207 246 294
#     4  10  21  35  52  77 105 132 167 214 263 304
#
# _framework density 19.520574
#
# number of rings (size 3 to 8) (size 9 to 14) (size 15 to 20)
#    0.000    2.571    0.000    3.000    0.000    6.000 
#    0.000    2.857    0.000    1.286    0.000    6.000 
#    0.000    0.000    0.000    0.000    0.000    0.000 
#
# Total GULP energy -694225.691608 kJ/mol
# GULP energy per Si atom -12396.887350 kJ/mol
# Density = 1.947614 g / cm^3
# Si number density = 19.520574 Si / 1000 Ang^3
#
#
#
# Elastic Constant Matrix: (Units=GPa)
#
#
# Indices 1 2 3 4 5 6 
#
# 1 132.0592 26.8314 81.8035 0.0000 0.0000 0.0000
# 2 26.8314 28.9458 23.5149 0.0000 0.0000 0.0000
# 3 81.8035 23.5149 114.3508 0.0000 0.0000 0.0000
# 4 0.0000 0.0000 0.0000 16.0256 0.0000 0.0000
# 5 0.0000 0.0000 0.0000 0.0000 38.7041 0.0000
# 6 0.0000 0.0000 0.0000 0.0000 0.0000 26.9729
#
#
#
# Elastic Compliance Matrix: (Units=1/GPa)
#
#
# Indices 1 2 3 4 5 6 
#
# 1 0.014413 -0.005983 -0.009080 0.000000 0.000000 0.000000
# 2 -0.005983 0.043960 -0.004760 0.000000 0.000000 0.000000
# 3 -0.009080 -0.004760 0.016219 0.000000 0.000000 0.000000
# 4 0.000000 0.000000 0.000000 0.062400 0.000000 0.000000
# 5 0.000000 0.000000 0.000000 0.000000 0.025837 0.000000
# 6 0.000000 0.000000 0.000000 0.000000 0.000000 0.037074
#
#
# Mechanical properties :
#
#
# Convention : Reuss Voigt Hill
#
# Bulk Modulus (GPa) = 28.61536 59.96172 44.28854
# Shear Modulus (GPa) = 19.90460 25.88758 22.89609
#
# Velocity S-wave (km/s) = 3.19670 3.64561 3.42851
# Velocity P-wave (km/s) = 5.32128 6.96452 6.19760
#
# Compressibility (1/GPa) = 0.03494627
#
# Stress axis : x y z
#
# Youngs Moduli (GPa) = 69.38370 22.74786 61.65488
#
# Poissons Ratio (x) = 0.13611 0.55982
# Poissons Ratio (y) = 0.41515 0.29345
# Poissons Ratio (z) = 0.63000 0.10827
#
# Static dielectric constant tensor:
#      x y z
#    x 3.870030 0.000000 0.000000 
#    y 0.000000 3.234180 0.000000 
#    z 0.000000 0.000000 3.684370 
# 
# 
# High freq. dielectric constant tensor:
#      x y z
#    x 1.773520 0.000000 0.000000 
#    y 0.000000 1.721620 0.000000 
#    z 0.000000 0.000000 1.755000 
# 
# From -- ./inp_files/24211.got.cif
#   From: 2010.03.12/outbox.cif.g09.slc.cpg/sg59_13_cif.got.tgz:24211.got - 2010.04.16 16:29:54.
