data_PCOD8242320
_publ_section_title
;
Structure prediction by ZEFSAII (Michael W. Deem and Ramdas Pophale) SiO2 
 PCOD8242320
Probable space group: P M M N
;
_chemical_formula_sum "Si O2"
_cell_formula_units_Z 64
_cell_length_a 9.138336
_cell_length_b 23.808024
_cell_length_c 16.128881
_cell_angle_alpha 90.000000
_cell_angle_beta 90.000000
_cell_angle_gamma 90.000000
_cell_volume 3509.091653
_symmetry_space_group_name_H-M "P M M N"
_symmetry_group_IT_number 59
_space_group.IT_coordinate_system_code '2'
_symmetry_cell_setting 'orthorhombic'
loop_
_space_group_symop_operation_xyz
x,y,z
1/2-x,1/2-y,z
1/2+x,-y,-z
-x,1/2+y,-z
-x,-y,-z
1/2+x,1/2+y,-z
1/2-x,y,z
x,1/2-y,z
loop_
_atom_site_type_symbol
_atom_site_label
_atom_site_fract_x
_atom_site_fract_y
_atom_site_fract_z
Si Si1 0.584266 0.315357 0.165667
Si Si2 0.412936 0.465276 0.933607
Si Si3 0.583330 0.189152 0.859135
Si Si4 0.919365 0.538468 0.385132
Si Si5 0.423900 0.687498 0.649142
Si Si6 0.588883 0.656001 0.989410
Si Si7 0.576505 0.074557 0.779952
Si Si8 0.419858 0.918459 0.542928
O O1 0.750000 0.337763 0.160582
O O2 0.577143 0.250000 0.143013
O O3 0.519004 0.325595 0.257866
O O4 0.489449 0.349348 0.099329
O O5 0.250000 0.490258 0.917944
O O6 0.399239 0.403993 0.969636
O O7 0.503169 0.465817 0.848040
O O8 0.500000 0.500000 0.000000
O O9 0.750000 0.176941 0.883980
O O10 0.565929 0.250000 0.814018
O O11 0.497996 0.194202 0.945705
O O12 0.530787 0.139492 0.798052
O O13 0.750000 0.554082 0.371923
O O14 0.939259 0.471583 0.396155
O O15 0.014144 0.558039 0.308220
O O16 0.978956 0.572899 0.463497
O O17 0.250000 0.688227 0.652933
O O18 0.478804 0.750000 0.620501
O O19 0.477536 0.638361 0.587603
O O20 0.750000 0.681807 0.975541
O O21 0.750000 0.065552 0.780800
O O22 0.250000 0.912743 0.516069
#
# Coordination Sequence:
#
# PCOD8242320 Si02
#       8
#     8   8   8   8   8   8   8   8
#     4   9  17  29  46  69  97 129 164 200 240 291
#     4  10  21  36  51  70  99 133 169 208 251 300
#     4   9  18  33  52  72  95 128 171 213 252 298
#     4  10  20  34  53  78 106 133 165 206 249 299
#     4   8  15  30  52  76 100 127 164 209 251 294
#     4  10  20  31  45  69  98 128 165 208 251 293
#     4  10  20  35  55  77 102 133 169 212 258 301
#     4   9  18  34  56  79 100 128 166 204 248 301
#
# _framework density 18.238337999999999
#
# number of rings (size 3 to 8) (size 9 to 14) (size 15 to 20)
#    0.000    2.625    0.000    2.625    0.000    5.500 
#    0.000    2.500    0.000    4.875    0.000    0.000 
#    0.000    0.000    0.000    0.000    0.000    0.000 
#
# Total GULP energy -793343.597203 kJ/mol
# GULP energy per Si atom -12395.993706 kJ/mol
# Density = 1.819683 g / cm^3
# Si number density = 18.238338 Si / 1000 Ang^3
#
#
#
# Elastic Constant Matrix: (Units=GPa)
#
#
# Indices 1 2 3 4 5 6 
#
# 1 98.9402 33.2902 52.2329 0.0000 0.0000 0.0000
# 2 33.2902 71.1166 50.5650 0.0000 0.0000 0.0000
# 3 52.2329 50.5650 109.3008 0.0000 0.0000 0.0000
# 4 0.0000 0.0000 0.0000 18.9827 0.0000 0.0000
# 5 0.0000 0.0000 0.0000 0.0000 30.5859 0.0000
# 6 0.0000 0.0000 0.0000 0.0000 0.0000 18.9054
#
#
#
# Elastic Compliance Matrix: (Units=1/GPa)
#
#
# Indices 1 2 3 4 5 6 
#
# 1 0.013844 -0.002647 -0.005391 0.000000 0.000000 0.000000
# 2 -0.002647 0.021460 -0.008663 0.000000 0.000000 0.000000
# 3 -0.005391 -0.008663 0.015733 0.000000 0.000000 0.000000
# 4 0.000000 0.000000 0.000000 0.052679 0.000000 0.000000
# 5 0.000000 0.000000 0.000000 0.000000 0.032695 0.000000
# 6 0.000000 0.000000 0.000000 0.000000 0.000000 0.052895
#
#
# Mechanical properties :
#
#
# Convention : Reuss Voigt Hill
#
# Bulk Modulus (GPa) = 56.70677 61.28153 58.99415
# Shear Modulus (GPa) = 21.87355 23.24611 22.55983
#
# Velocity S-wave (km/s) = 3.46687 3.57399 3.52084
# Velocity P-wave (km/s) = 6.86915 7.12071 6.99606
#
# Compressibility (1/GPa) = 0.01763458
#
# Stress axis : x y z
#
# Youngs Moduli (GPa) = 72.23386 46.59825 63.56084
#
# Poissons Ratio (x) = 0.12336 0.34266
# Poissons Ratio (y) = 0.19123 0.55061
# Poissons Ratio (z) = 0.38942 0.40367
#
# Static dielectric constant tensor:
#      x y z
#    x 3.498420 0.000000 0.000000 
#    y 0.000000 3.332080 0.000000 
#    z 0.000000 0.000000 3.253010 
# 
# 
# High freq. dielectric constant tensor:
#      x y z
#    x 1.701410 0.000000 0.000000 
#    y 0.000000 1.703600 0.000000 
#    z 0.000000 0.000000 1.696770 
# 
# From -- ./inp_files/21578.got.cif
#   From: 2010.03.12/outbox.cif.g09.slc.cpg/sg59_11_cif.got.tgz:21578.got - 2010.04.16 16:29:54.
