data_PCOD8242314
_publ_section_title
;
Structure prediction by ZEFSAII (Michael W. Deem and Ramdas Pophale) SiO2 
 PCOD8242314
Probable space group: P M M N
;
_chemical_formula_sum "Si O2"
_cell_formula_units_Z 64
_cell_length_a 18.725857
_cell_length_b 9.059773
_cell_length_c 21.122733
_cell_angle_alpha 90.000000
_cell_angle_beta 90.000000
_cell_angle_gamma 90.000000
_cell_volume 3583.514187
_symmetry_space_group_name_H-M "P M M N"
_symmetry_group_IT_number 59
_space_group.IT_coordinate_system_code '2'
_symmetry_cell_setting 'orthorhombic'
loop_
_space_group_symop_operation_xyz
x,y,z
1/2-x,1/2-y,z
1/2+x,-y,-z
-x,1/2+y,-z
-x,-y,-z
1/2+x,1/2+y,-z
1/2-x,y,z
x,1/2-y,z
loop_
_atom_site_type_symbol
_atom_site_label
_atom_site_fract_x
_atom_site_fract_y
_atom_site_fract_z
Si Si1 0.575933 0.074164 0.495945
Si Si2 0.961374 0.576447 0.057969
Si Si3 0.671432 0.074634 0.750269
Si Si4 0.330384 0.925471 0.622600
Si Si5 0.399026 0.576901 0.752494
Si Si6 0.168384 0.922214 0.884950
Si Si7 0.171113 0.574882 0.390693
Si Si8 0.971639 0.423001 0.809403
O O1 0.568123 0.250000 0.495625
O O2 0.618927 0.018985 0.434074
O O3 0.616555 0.012710 0.557767
O O4 0.500000 0.000000 0.500000
O O5 0.956564 0.750000 0.045969
O O6 0.881515 0.513663 0.067123
O O7 0.008373 0.535710 0.119163
O O8 0.000000 0.500000 0.000000
O O9 0.750000 0.013367 0.770841
O O10 0.675113 0.250000 0.750194
O O11 0.651539 0.018420 0.679708
O O12 0.609351 0.019699 0.797609
O O13 0.250000 0.987647 0.613272
O O14 0.327582 0.750000 0.623434
O O15 0.361409 0.984615 0.689276
O O16 0.412286 0.750000 0.747434
O O17 0.348898 0.537314 0.812221
O O18 0.475791 0.500866 0.759859
O O19 0.250000 0.966110 0.898971
O O20 0.154850 0.750000 0.897493
O O21 0.250000 0.518646 0.408980
O O22 0.169495 0.750000 0.392531
O O23 0.978186 0.250000 0.796791
#
# Coordination Sequence:
#
# PCOD8242314 Si02
#       8
#     8   8   8   8   8   8   8   8
#     4  10  20  31  45  67  93 123 158 198 240 283
#     4  10  20  34  51  73 102 135 168 200 241 292
#     4   8  14  26  46  70  92 116 153 200 242 278
#     4   9  17  30  48  69  94 125 162 201 238 283
#     4   9  17  29  48  73  98 127 160 197 243 293
#     4   9  17  31  52  76 100 128 166 207 245 289
#     4   8  14  26  45  66  86 115 157 198 233 274
#     4   9  18  31  49  73  99 126 157 198 244 287
#
# _framework density 17.859563000000001
#
# number of rings (size 3 to 8) (size 9 to 14) (size 15 to 20)
#    0.000    3.000    0.000    1.875    1.750    3.750 
#    0.000    0.625    0.000    6.000    0.000    1.750 
#    0.000    0.000    0.000    0.000    0.000    0.000 
#
# Total GULP energy -793349.527591 kJ/mol
# GULP energy per Si atom -12396.086369 kJ/mol
# Density = 1.781891 g / cm^3
# Si number density = 17.859563 Si / 1000 Ang^3
#
#
#
# Elastic Constant Matrix: (Units=GPa)
#
#
# Indices 1 2 3 4 5 6 
#
# 1 179.1810 37.9583 88.2103 0.0000 0.0000 0.0000
# 2 37.9583 28.1069 29.7974 0.0000 0.0000 0.0000
# 3 88.2103 29.7974 104.3087 0.0000 0.0000 0.0000
# 4 0.0000 0.0000 0.0000 15.4984 0.0000 0.0000
# 5 0.0000 0.0000 0.0000 0.0000 32.9937 0.0000
# 6 0.0000 0.0000 0.0000 0.0000 0.0000 27.8961
#
#
#
# Elastic Compliance Matrix: (Units=1/GPa)
#
#
# Indices 1 2 3 4 5 6 
#
# 1 0.010387 -0.006764 -0.006852 0.000000 0.000000 0.000000
# 2 -0.006764 0.055438 -0.010117 0.000000 0.000000 0.000000
# 3 -0.006852 -0.010117 0.018271 0.000000 0.000000 0.000000
# 4 0.000000 0.000000 0.000000 0.064523 0.000000 0.000000
# 5 0.000000 0.000000 0.000000 0.000000 0.030309 0.000000
# 6 0.000000 0.000000 0.000000 0.000000 0.000000 0.035847
#
#
# Mechanical properties :
#
#
# Convention : Reuss Voigt Hill
#
# Bulk Modulus (GPa) = 27.29877 69.28095 48.28986
# Shear Modulus (GPa) = 18.21824 25.65302 21.93563
#
# Velocity S-wave (km/s) = 3.19734 3.79406 3.50841
# Velocity P-wave (km/s) = 5.38043 7.62034 6.59616
#
# Compressibility (1/GPa) = 0.03663168
#
# Stress axis : x y z
#
# Youngs Moduli (GPa) = 96.27581 18.03808 54.73084
#
# Poissons Ratio (x) = 0.12200 0.37500
# Poissons Ratio (y) = 0.65117 0.55371
# Poissons Ratio (z) = 0.65965 0.18249
#
# Static dielectric constant tensor:
#      x y z
#    x 3.650510 0.000000 0.000000 
#    y 0.000000 2.905560 0.000000 
#    z 0.000000 0.000000 3.408190 
# 
# 
# High freq. dielectric constant tensor:
#      x y z
#    x 1.702910 0.000000 0.000000 
#    y 0.000000 1.646730 0.000000 
#    z 0.000000 0.000000 1.687930 
# 
# From -- ./inp_files/30772.got.cif
#   From: 2010.03.12/outbox.cif.g09.slc.cpg/sg59_16_cif.got.tgz:30772.got - 2010.04.16 16:29:54.
