data_PCOD8242531
_publ_section_title
;
Structure prediction by ZEFSAII (Michael W. Deem and Ramdas Pophale) SiO2 
 PCOD8242531
Probable space group: P M M N
;
_chemical_formula_sum "Si O2"
_cell_formula_units_Z 64
_cell_length_a 16.031064
_cell_length_b 9.099220
_cell_length_c 22.395563
_cell_angle_alpha 90.000000
_cell_angle_beta 90.000000
_cell_angle_gamma 90.000000
_cell_volume 3266.844765
_symmetry_space_group_name_H-M "P M M N"
_symmetry_group_IT_number 59
_space_group.IT_coordinate_system_code '2'
_symmetry_cell_setting 'orthorhombic'
loop_
_space_group_symop_operation_xyz
x,y,z
1/2-x,1/2-y,z
1/2+x,-y,-z
-x,1/2+y,-z
-x,-y,-z
1/2+x,1/2+y,-z
1/2-x,y,z
x,1/2-y,z
loop_
_atom_site_type_symbol
_atom_site_label
_atom_site_fract_x
_atom_site_fract_y
_atom_site_fract_z
Si Si1 0.342606 0.925209 0.999785
Si Si2 0.505058 0.074311 0.563706
Si Si3 0.846155 0.089778 0.242789
Si Si4 0.412880 0.922404 0.124191
Si Si5 0.845243 0.090409 0.751385
Si Si6 0.848688 0.577557 0.636972
Si Si7 0.580707 0.076460 0.121511
Si Si8 0.345637 0.077556 0.642131
O O1 0.250000 0.986480 0.993745
O O2 0.343101 0.750000 0.000249
O O3 0.391566 0.989149 0.942545
O O4 0.378616 0.987103 0.061878
O O5 0.513481 0.250000 0.559264
O O6 0.417000 0.029686 0.595164
O O7 0.500000 0.000000 0.500000
O O8 0.589365 0.011843 0.593959
O O9 0.750000 0.109262 0.254105
O O10 0.890288 0.250000 0.248976
O O11 0.858400 0.029216 0.175506
O O12 0.879317 0.982663 0.294283
O O13 0.428877 0.750000 0.117351
O O14 0.353040 0.960117 0.179752
O O15 0.495224 0.006734 0.141006
O O16 0.750000 0.115267 0.737391
O O17 0.890842 0.250000 0.742047
O O18 0.876681 0.969209 0.704194
O O19 0.750000 0.542726 0.623660
O O20 0.865283 0.750000 0.629337
O O21 0.574195 0.250000 0.115165
O O22 0.250000 0.022891 0.625357
O O23 0.342790 0.250000 0.648484
#
# Coordination Sequence:
#
# PCOD8242531 Si02
#       8
#     8   8   8   8   8   8   8   8
#     4   9  17  32  53  72  95 134 183 229 273 327
#     4  11  24  41  63  92 124 159 198 238 286 346
#     4   9  18  33  53  78 106 139 182 228 274 328
#     4  10  20  32  50  76 104 137 178 226 278 335
#     4   9  18  34  55  79 107 141 185 234 283 338
#     4  10  22  40  62  88 120 158 199 245 296 347
#     4  10  20  32  49  75 105 138 175 223 279 332
#     4   9  20  39  61  85 116 153 191 234 284 338
#
# _framework density 19.590769999999999
#
# number of rings (size 3 to 8) (size 9 to 14) (size 15 to 20)
#    0.000    2.375    0.000    1.875    1.750    6.250 
#    0.000    1.250    0.000    3.000    0.000    0.000 
#    0.000    0.000    0.000    0.000    0.000    0.000 
#
# Total GULP energy -792911.219868 kJ/mol
# GULP energy per Si atom -12389.237810 kJ/mol
# Density = 1.954618 g / cm^3
# Si number density = 19.590770 Si / 1000 Ang^3
#
#
#
# Elastic Constant Matrix: (Units=GPa)
#
#
# Indices 1 2 3 4 5 6 
#
# 1 81.3504 39.6238 49.8135 0.0000 0.0000 0.0000
# 2 39.6238 44.7242 53.7754 0.0000 0.0000 0.0000
# 3 49.8135 53.7754 163.5202 0.0000 0.0000 0.0000
# 4 0.0000 0.0000 0.0000 28.9844 0.0000 0.0000
# 5 0.0000 0.0000 0.0000 0.0000 35.5669 0.0000
# 6 0.0000 0.0000 0.0000 0.0000 0.0000 23.9902
#
#
#
# Elastic Compliance Matrix: (Units=1/GPa)
#
#
# Indices 1 2 3 4 5 6 
#
# 1 0.021646 -0.018606 -0.000475 0.000000 0.000000 0.000000
# 2 -0.018606 0.052976 -0.011754 0.000000 0.000000 0.000000
# 3 -0.000475 -0.011754 0.010126 0.000000 0.000000 0.000000
# 4 0.000000 0.000000 0.000000 0.034501 0.000000 0.000000
# 5 0.000000 0.000000 0.000000 0.000000 0.028116 0.000000
# 6 0.000000 0.000000 0.000000 0.000000 0.000000 0.041684
#
#
# Mechanical properties :
#
#
# Convention : Reuss Voigt Hill
#
# Bulk Modulus (GPa) = 43.33243 64.00224 53.66734
# Shear Modulus (GPa) = 19.34903 27.46712 23.40807
#
# Velocity S-wave (km/s) = 3.14612 3.74845 3.46041
# Velocity P-wave (km/s) = 5.94678 7.17461 6.58936
#
# Compressibility (1/GPa) = 0.02307740
#
# Stress axis : x y z
#
# Youngs Moduli (GPa) = 46.19769 18.87656 98.76015
#
# Poissons Ratio (x) = 0.35122 0.04694
# Poissons Ratio (y) = 0.85956 1.16079
# Poissons Ratio (z) = 0.02196 0.22187
#
# Static dielectric constant tensor:
#      x y z
#    x 3.786870 0.000000 0.000000 
#    y 0.000000 3.652630 0.000000 
#    z 0.000000 0.000000 3.858370 
# 
# 
# High freq. dielectric constant tensor:
#      x y z
#    x 1.761220 0.000000 0.000000 
#    y 0.000000 1.741410 0.000000 
#    z 0.000000 0.000000 1.773960 
# 
# From -- ./inp_files/30639.got.cif
#   From: 2010.03.12/outbox.cif.g09.slc.cpg/sg59_16_cif.got.tgz:30639.got - 2010.04.16 16:29:54.
