data_PCOD8242816
_publ_section_title
;
Structure prediction by ZEFSAII (Michael W. Deem and Ramdas Pophale) SiO2 
 PCOD8242816
Probable space group: P M M N
;
_chemical_formula_sum "Si O2"
_cell_formula_units_Z 64
_cell_length_a 9.276722
_cell_length_b 19.211425
_cell_length_c 21.256639
_cell_angle_alpha 90.000000
_cell_angle_beta 90.000000
_cell_angle_gamma 90.000000
_cell_volume 3788.337986
_symmetry_space_group_name_H-M "P M M N"
_symmetry_group_IT_number 59
_space_group.IT_coordinate_system_code '2'
_symmetry_cell_setting 'orthorhombic'
loop_
_space_group_symop_operation_xyz
x,y,z
1/2-x,1/2-y,z
1/2+x,-y,-z
-x,1/2+y,-z
-x,-y,-z
1/2+x,1/2+y,-z
1/2-x,y,z
x,1/2-y,z
loop_
_atom_site_type_symbol
_atom_site_label
_atom_site_fract_x
_atom_site_fract_y
_atom_site_fract_z
Si Si1 0.585568 0.673249 0.093685
Si Si2 0.911988 0.905847 0.357134
Si Si3 0.081853 0.942130 0.697058
Si Si4 0.080701 0.536303 0.056707
Si Si5 0.080134 0.828579 0.461264
Si Si6 0.078524 0.827487 0.601994
Si Si7 0.415987 0.489505 0.191705
Si Si8 0.088887 0.119802 0.776120
O O1 0.750000 0.656522 0.073175
O O2 0.539478 0.750000 0.068722
O O3 0.482651 0.613892 0.066063
O O4 0.576684 0.678255 0.170207
O O5 0.750000 0.903172 0.383458
O O6 0.929851 0.854209 0.296166
O O7 0.014740 0.883386 0.413026
O O8 0.951825 0.983709 0.334831
O O9 0.250000 0.930194 0.707609
O O10 0.015648 0.882603 0.651857
O O11 0.007078 0.935264 0.765916
O O12 0.250000 0.544241 0.042522
O O13 0.054376 0.485539 0.116729
O O14 0.000000 0.500000 0.000000
O O15 0.250000 0.835952 0.457207
O O16 0.032502 0.750000 0.443847
O O17 0.025252 0.846659 0.531622
O O18 0.250000 0.829744 0.602187
O O19 0.024820 0.750000 0.620350
O O20 0.250000 0.477271 0.207384
O O21 0.461183 0.566462 0.211279
O O22 0.250000 0.084175 0.780167
#
# Coordination Sequence:
#
# PCOD8242816 Si02
#       8
#     8   8   8   8   8   8   8   8
#     4   9  17  30  49  72  98 129 164 199 236 280
#     4   9  17  27  41  65  94 120 149 187 229 272
#     4   9  17  30  49  70  90 115 149 190 233 277
#     4  10  20  33  51  74 100 131 165 198 233 277
#     4   9  18  31  44  59  83 117 155 192 230 276
#     4   8  15  30  50  67  84 112 152 194 235 281
#     4   9  17  29  46  70  96 118 144 182 227 270
#     4   8  15  28  44  63  90 123 155 185 220 267
#
# _framework density 16.893951999999999
#
# number of rings (size 3 to 8) (size 9 to 14) (size 15 to 20)
#    0.000    3.125    0.000    2.250    0.000    5.000 
#    0.000    1.875    0.000    1.875    0.000    3.500 
#    0.000    0.000    0.000    0.000    0.000    0.000 
#
# Total GULP energy -792845.470230 kJ/mol
# GULP energy per Si atom -12388.210472 kJ/mol
# Density = 1.685550 g / cm^3
# Si number density = 16.893952 Si / 1000 Ang^3
#
#
#
# Elastic Constant Matrix: (Units=GPa)
#
#
# Indices 1 2 3 4 5 6 
#
# 1 65.4942 39.6675 58.3137 0.0000 0.0000 0.0000
# 2 39.6675 74.8044 59.9151 0.0000 0.0000 0.0000
# 3 58.3137 59.9151 118.4382 0.0000 0.0000 0.0000
# 4 0.0000 0.0000 0.0000 20.6333 0.0000 0.0000
# 5 0.0000 0.0000 0.0000 0.0000 28.0004 0.0000
# 6 0.0000 0.0000 0.0000 0.0000 0.0000 17.0544
#
#
#
# Elastic Compliance Matrix: (Units=1/GPa)
#
#
# Indices 1 2 3 4 5 6 
#
# 1 0.029020 -0.006632 -0.010933 0.000000 0.000000 0.000000
# 2 -0.006632 0.023990 -0.008871 0.000000 0.000000 0.000000
# 3 -0.010933 -0.008871 0.018314 0.000000 0.000000 0.000000
# 4 0.000000 0.000000 0.000000 0.048465 0.000000 0.000000
# 5 0.000000 0.000000 0.000000 0.000000 0.035714 0.000000
# 6 0.000000 0.000000 0.000000 0.000000 0.000000 0.058636
#
#
# Mechanical properties :
#
#
# Convention : Reuss Voigt Hill
#
# Bulk Modulus (GPa) = 54.19438 63.83661 59.01549
# Shear Modulus (GPa) = 18.30425 19.86031 19.08228
#
# Velocity S-wave (km/s) = 3.29520 3.43240 3.36450
# Velocity P-wave (km/s) = 6.82836 7.31965 7.07827
#
# Compressibility (1/GPa) = 0.01845210
#
# Stress axis : x y z
#
# Youngs Moduli (GPa) = 34.45949 41.68405 54.60352
#
# Poissons Ratio (x) = 0.27643 0.59699
# Poissons Ratio (y) = 0.22852 0.48438
# Poissons Ratio (z) = 0.37675 0.36978
#
# Static dielectric constant tensor:
#      x y z
#    x 3.034890 0.000000 0.000000 
#    y 0.000000 3.035070 0.000000 
#    z 0.000000 0.000000 3.358910 
# 
# 
# High freq. dielectric constant tensor:
#      x y z
#    x 1.639260 0.000000 0.000000 
#    y 0.000000 1.622250 0.000000 
#    z 0.000000 0.000000 1.651000 
# 
# From -- ./inp_files/29730.got.cif
#   From: 2010.03.12/outbox.cif.g09.slc.cpg/sg59_15_cif.got.tgz:29730.got - 2010.04.16 16:29:54.
