data_PCOD8242109
_publ_section_title
;
Structure prediction by ZEFSAII (Michael W. Deem and Ramdas Pophale) SiO2 
 PCOD8242109
Probable space group: P M M N
;
_chemical_formula_sum "Si O2"
_cell_formula_units_Z 48
_cell_length_a 7.570631
_cell_length_b 18.790068
_cell_length_c 16.769234
_cell_angle_alpha 90.000000
_cell_angle_beta 90.000000
_cell_angle_gamma 90.000000
_cell_volume 2385.468332
_symmetry_space_group_name_H-M "P M M N"
_symmetry_group_IT_number 59
_space_group.IT_coordinate_system_code '2'
_symmetry_cell_setting 'orthorhombic'
loop_
_space_group_symop_operation_xyz
x,y,z
1/2-x,1/2-y,z
1/2+x,-y,-z
-x,1/2+y,-z
-x,-y,-z
1/2+x,1/2+y,-z
1/2-x,y,z
x,1/2-y,z
loop_
_atom_site_type_symbol
_atom_site_label
_atom_site_fract_x
_atom_site_fract_y
_atom_site_fract_z
Si Si1 0.750000 0.167853 0.900417
Si Si2 0.545678 0.581400 0.186432
Si Si3 0.540652 0.670465 0.502585
Si Si4 0.541804 0.569786 0.366341
Si Si5 0.750000 0.332176 0.088399
Si Si6 0.952903 0.085857 0.345752
Si Si7 0.551072 0.918756 0.827427
O O1 0.750000 0.250000 0.874544
O O2 0.573018 0.131464 0.867963
O O3 0.750000 0.158527 0.994395
O O4 0.750000 0.601538 0.172375
O O5 0.487751 0.595286 0.278021
O O6 0.517017 0.499251 0.164349
O O7 0.750000 0.667580 0.500749
O O8 0.470844 0.750000 0.487735
O O9 0.456289 0.620813 0.433443
O O10 0.474901 0.646714 0.589149
O O11 0.750000 0.572787 0.375891
O O12 0.473072 0.489136 0.380392
O O13 0.750000 0.250000 0.114268
O O14 0.573049 0.367782 0.121684
O O15 0.750000 0.075696 0.320810
O O16 0.053641 0.106318 0.264869
O O17 0.750000 0.912632 0.861099
#
# Coordination Sequence:
#
# PCOD8242109 Si02
#       7
#     4   8   8   8   4   8   8
#     4  11  26  44  64  97 134 168 205 255 322 384
#     4  10  20  41  68  97 127 164 214 263 313 372
#     4  10  20  33  49  78 116 156 205 250 296 357
#     4   8  17  34  58  82 112 154 201 253 304 355
#     4  11  26  46  64  93 136 166 201 261 322 384
#     4  10  19  35  57  82 117 155 201 257 306 358
#     4  11  21  41  69  96 123 162 215 263 314 377
#
# _framework density 20.121835000000001
#
# number of rings (size 3 to 8) (size 9 to 14) (size 15 to 20)
#    0.000    2.000    2.500    2.000    0.000    3.667 
#    1.500    3.333    0.000    0.000    0.000    0.000 
#    0.000    0.000    0.000    0.000    0.000    0.000 
#
# Total GULP energy -595223.105984 kJ/mol
# GULP energy per Si atom -12400.481375 kJ/mol
# Density = 2.007604 g / cm^3
# Si number density = 20.121835 Si / 1000 Ang^3
#
#
#
# Elastic Constant Matrix: (Units=GPa)
#
#
# Indices 1 2 3 4 5 6 
#
# 1 100.8500 43.0304 32.8539 0.0000 0.0000 0.0000
# 2 43.0304 113.4346 63.0284 0.0000 0.0000 0.0000
# 3 32.8539 63.0284 90.8023 0.0000 0.0000 0.0000
# 4 0.0000 0.0000 0.0000 30.9855 0.0000 0.0000
# 5 0.0000 0.0000 0.0000 0.0000 22.1884 0.0000
# 6 0.0000 0.0000 0.0000 0.0000 0.0000 25.1356
#
#
#
# Elastic Compliance Matrix: (Units=1/GPa)
#
#
# Indices 1 2 3 4 5 6 
#
# 1 0.012035 -0.003493 -0.001930 0.000000 0.000000 0.000000
# 2 -0.003493 0.015364 -0.009401 0.000000 0.000000 0.000000
# 3 -0.001930 -0.009401 0.018237 0.000000 0.000000 0.000000
# 4 0.000000 0.000000 0.000000 0.032273 0.000000 0.000000
# 5 0.000000 0.000000 0.000000 0.000000 0.045069 0.000000
# 6 0.000000 0.000000 0.000000 0.000000 0.000000 0.039784
#
#
# Mechanical properties :
#
#
# Convention : Reuss Voigt Hill
#
# Bulk Modulus (GPa) = 62.54626 64.76803 63.65714
# Shear Modulus (GPa) = 25.28595 26.74017 26.01306
#
# Velocity S-wave (km/s) = 3.54876 3.64938 3.59942
# Velocity P-wave (km/s) = 6.92408 7.07214 6.99850
#
# Compressibility (1/GPa) = 0.01598817
#
# Stress axis : x y z
#
# Youngs Moduli (GPa) = 83.09250 65.08657 54.83489
#
# Poissons Ratio (x) = 0.22735 0.10582
# Poissons Ratio (y) = 0.29024 0.51549
# Poissons Ratio (z) = 0.16035 0.61187
#
# Static dielectric constant tensor:
#      x y z
#    x 3.655710 0.000000 0.000000 
#    y 0.000000 3.775990 0.000000 
#    z 0.000000 0.000000 3.647270 
# 
# 
# High freq. dielectric constant tensor:
#      x y z
#    x 1.786140 0.000000 0.000000 
#    y 0.000000 1.779600 0.000000 
#    z 0.000000 0.000000 1.782410 
# 
# From -- ./inp_files/20565.got.cif
#   From: 2010.03.12/outbox.cif.g09.slc.cpg/sg59_11_cif.got.tgz:20565.got - 2010.04.16 16:29:54.
