data_PCOD8242441
_publ_section_title
;
Structure prediction by ZEFSAII (Michael W. Deem and Ramdas Pophale) SiO2 
 PCOD8242441
Probable space group: P M M N
;
_chemical_formula_sum "Si O2"
_cell_formula_units_Z 48
_cell_length_a 19.814357
_cell_length_b 9.529567
_cell_length_c 15.080675
_cell_angle_alpha 90.000000
_cell_angle_beta 90.000000
_cell_angle_gamma 90.000000
_cell_volume 2847.566873
_symmetry_space_group_name_H-M "P M M N"
_symmetry_group_IT_number 59
_space_group.IT_coordinate_system_code '2'
_symmetry_cell_setting 'orthorhombic'
loop_
_space_group_symop_operation_xyz
x,y,z
1/2-x,1/2-y,z
1/2+x,-y,-z
-x,1/2+y,-z
-x,-y,-z
1/2+x,1/2+y,-z
1/2-x,y,z
x,1/2-y,z
loop_
_atom_site_type_symbol
_atom_site_label
_atom_site_fract_x
_atom_site_fract_y
_atom_site_fract_z
Si Si1 0.929545 0.086962 0.099321
Si Si2 0.830204 0.594949 0.410535
Si Si3 0.439777 0.912340 0.106807
Si Si4 0.669841 0.094906 0.566240
Si Si5 0.170884 0.087835 0.787879
Si Si6 0.175162 0.917038 0.238965
O O1 0.934697 0.250000 0.125915
O O2 0.865559 0.016205 0.144968
O O3 0.918892 0.068269 0.994753
O O4 0.996519 0.007502 0.131754
O O5 0.750000 0.598284 0.417595
O O6 0.859451 0.750000 0.426634
O O7 0.861902 0.496995 0.486854
O O8 0.850499 0.543729 0.312076
O O9 0.457072 0.750000 0.127802
O O10 0.377593 0.969096 0.165530
O O11 0.750000 0.102119 0.557229
O O12 0.638666 0.250000 0.556261
O O13 0.651887 0.030537 0.663102
O O14 0.250000 0.066632 0.802285
O O15 0.151026 0.250000 0.805892
O O16 0.250000 0.976145 0.215642
O O17 0.178674 0.750000 0.241456
#
# Coordination Sequence:
#
# PCOD8242441 Si02
#       6
#     8   8   8   8   8   8
#     4  10  20  32  48  70  93 119 155 197 234 270
#     4   8  14  25  41  62  89 120 150 178 215 268
#     4   9  18  33  51  67  89 125 159 186 225 279
#     4   8  13  22  39  64  91 116 143 179 221 262
#     4   9  18  32  49  69  94 124 155 187 227 275
#     4   8  14  26  46  71  94 117 150 188 224 268
#
# _framework density 16.856497000000001
#
# number of rings (size 3 to 8) (size 9 to 14) (size 15 to 20)
#    0.000    3.333    0.000    2.500    0.000    2.333 
#    0.000    4.167    0.000    2.500    0.000    0.000 
#    0.000    0.000    0.000    0.000    0.000    0.000 
#
# Total GULP energy -594916.443909 kJ/mol
# GULP energy per Si atom -12394.092581 kJ/mol
# Density = 1.681813 g / cm^3
# Si number density = 16.856497 Si / 1000 Ang^3
#
#
#
# Elastic Constant Matrix: (Units=GPa)
#
#
# Indices 1 2 3 4 5 6 
#
# 1 63.8669 44.5401 51.6132 0.0000 0.0000 0.0000
# 2 44.5401 81.0627 54.9058 0.0000 0.0000 0.0000
# 3 51.6132 54.9058 93.8142 0.0000 0.0000 0.0000
# 4 0.0000 0.0000 0.0000 26.6266 0.0000 0.0000
# 5 0.0000 0.0000 0.0000 0.0000 4.4677 0.0000
# 6 0.0000 0.0000 0.0000 0.0000 0.0000 22.0278
#
#
#
# Elastic Compliance Matrix: (Units=1/GPa)
#
#
# Indices 1 2 3 4 5 6 
#
# 1 0.031977 -0.009367 -0.012110 0.000000 0.000000 0.000000
# 2 -0.009367 0.023182 -0.008414 0.000000 0.000000 0.000000
# 3 -0.012110 -0.008414 0.022246 0.000000 0.000000 0.000000
# 4 0.000000 0.000000 0.000000 0.037556 0.000000 0.000000
# 5 0.000000 0.000000 0.000000 0.000000 0.223830 0.000000
# 6 0.000000 0.000000 0.000000 0.000000 0.000000 0.045397
#
#
# Mechanical properties :
#
#
# Convention : Reuss Voigt Hill
#
# Bulk Modulus (GPa) = 56.74626 60.09577 58.42102
# Shear Modulus (GPa) = 11.11492 16.47006 13.79249
#
# Velocity S-wave (km/s) = 2.57064 3.12921 2.86358
# Velocity P-wave (km/s) = 6.52291 6.98461 6.75770
#
# Compressibility (1/GPa) = 0.01762231
#
# Stress axis : x y z
#
# Youngs Moduli (GPa) = 31.27260 43.13698 44.95104
#
# Poissons Ratio (x) = 0.40407 0.54437
# Poissons Ratio (y) = 0.29294 0.37822
# Poissons Ratio (z) = 0.37872 0.36296
#
# Static dielectric constant tensor:
#      x y z
#    x 2.888860 0.000000 0.000000 
#    y 0.000000 3.205640 0.000000 
#    z 0.000000 0.000000 3.365410 
# 
# 
# High freq. dielectric constant tensor:
#      x y z
#    x 1.612410 0.000000 0.000000 
#    y 0.000000 1.634120 0.000000 
#    z 0.000000 0.000000 1.658260 
# 
# From -- ./inp_files/24101.got.cif
#   From: 2010.03.12/outbox.cif.g09.slc.cpg/sg59_13_cif.got.tgz:24101.got - 2010.04.16 16:29:54.
