data_PCOD8242001
_publ_section_title
;
Structure prediction by ZEFSAII (Michael W. Deem and Ramdas Pophale) SiO2 
 PCOD8242001
Probable space group: P M M N
;
_chemical_formula_sum "Si O2"
_cell_formula_units_Z 64
_cell_length_a 28.372215
_cell_length_b 9.360081
_cell_length_c 12.665614
_cell_angle_alpha 90.000000
_cell_angle_beta 90.000000
_cell_angle_gamma 90.000000
_cell_volume 3363.559368
_symmetry_space_group_name_H-M "P M M N"
_symmetry_group_IT_number 59
_space_group.IT_coordinate_system_code '2'
_symmetry_cell_setting 'orthorhombic'
loop_
_space_group_symop_operation_xyz
x,y,z
1/2-x,1/2-y,z
1/2+x,-y,-z
-x,1/2+y,-z
-x,-y,-z
1/2+x,1/2+y,-z
1/2-x,y,z
x,1/2-y,z
loop_
_atom_site_type_symbol
_atom_site_label
_atom_site_fract_x
_atom_site_fract_y
_atom_site_fract_z
Si Si1 0.364131 0.587608 0.401057
Si Si2 0.804238 0.582679 0.990680
Si Si3 0.694747 0.584800 0.433172
Si Si4 0.955147 0.087052 0.465549
Si Si5 0.160739 0.412725 0.789033
Si Si6 0.874322 0.081244 0.839632
Si Si7 0.442211 0.411925 0.735416
Si Si8 0.479570 0.582606 0.098902
O O1 0.346109 0.750000 0.408870
O O2 0.328823 0.491992 0.467981
O O3 0.417270 0.575372 0.442038
O O4 0.365163 0.534524 0.280649
O O5 0.750000 0.556171 0.961573
O O6 0.817436 0.750000 0.985840
O O7 0.814393 0.519396 0.108140
O O8 0.835688 0.498583 0.908144
O O9 0.750000 0.563078 0.443263
O O10 0.679651 0.750000 0.439026
O O11 0.677199 0.515739 0.321701
O O12 0.969427 0.250000 0.443499
O O13 0.934004 0.019340 0.360202
O O14 0.000000 0.000000 0.500000
O O15 0.178040 0.250000 0.781994
O O16 0.104568 0.425051 0.806871
O O17 0.868499 0.250000 0.854025
O O18 0.926544 0.033225 0.875575
O O19 0.447778 0.250000 0.692271
O O20 0.488060 0.456552 0.801013
O O21 0.482343 0.750000 0.074117
O O22 0.500000 0.500000 0.000000
#
# Coordination Sequence:
#
# PCOD8242001 Si02
#       8
#     8   8   8   8   8   8   8   8
#     4  10  22  40  58  79 112 153 194 234 283 343
#     4  10  21  38  61  87 112 144 192 245 293 345
#     4  10  20  35  58  87 116 148 189 236 288 345
#     4  11  22  36  56  82 112 148 190 236 285 339
#     4   9  17  33  58  86 116 147 181 232 294 347
#     4  10  22  40  58  79 115 157 192 233 287 346
#     4  10  19  34  57  83 114 151 190 233 285 344
#     4  10  21  37  58  85 117 154 196 240 287 342
#
# _framework density 19.027463000000001
#
# number of rings (size 3 to 8) (size 9 to 14) (size 15 to 20)
#    0.000    2.000    1.250    2.250    0.000    7.500 
#    0.000    5.000    0.000    1.500    0.000    0.000 
#    0.000    0.000    0.000    0.000    0.000    0.000 
#
# Total GULP energy -793681.569406 kJ/mol
# GULP energy per Si atom -12401.274522 kJ/mol
# Density = 1.898416 g / cm^3
# Si number density = 19.027463 Si / 1000 Ang^3
#
#
#
# Elastic Constant Matrix: (Units=GPa)
#
#
# Indices 1 2 3 4 5 6 
#
# 1 117.6798 43.8898 71.4752 0.0000 0.0000 0.0000
# 2 43.8898 63.9918 58.6334 0.0000 0.0000 0.0000
# 3 71.4752 58.6334 162.3766 0.0000 0.0000 0.0000
# 4 0.0000 0.0000 0.0000 33.7753 0.0000 0.0000
# 5 0.0000 0.0000 0.0000 0.0000 35.7713 0.0000
# 6 0.0000 0.0000 0.0000 0.0000 0.0000 31.4468
#
#
#
# Elastic Compliance Matrix: (Units=1/GPa)
#
#
# Indices 1 2 3 4 5 6 
#
# 1 0.012725 -0.005373 -0.003661 0.000000 0.000000 0.000000
# 2 -0.005373 0.025623 -0.006887 0.000000 0.000000 0.000000
# 3 -0.003661 -0.006887 0.010257 0.000000 0.000000 0.000000
# 4 0.000000 0.000000 0.000000 0.029607 0.000000 0.000000
# 5 0.000000 0.000000 0.000000 0.000000 0.027955 0.000000
# 6 0.000000 0.000000 0.000000 0.000000 0.000000 0.031800
#
#
# Mechanical properties :
#
#
# Convention : Reuss Voigt Hill
#
# Bulk Modulus (GPa) = 59.65853 76.89389 68.27621
# Shear Modulus (GPa) = 28.50662 31.53533 30.02098
#
# Velocity S-wave (km/s) = 3.87484 4.07548 3.97643
# Velocity P-wave (km/s) = 7.17225 7.91491 7.55271
#
# Compressibility (1/GPa) = 0.01676206
#
# Stress axis : x y z
#
# Youngs Moduli (GPa) = 78.58339 39.02793 97.49447
#
# Poissons Ratio (x) = 0.20971 0.35695
# Poissons Ratio (y) = 0.42225 0.67145
# Poissons Ratio (z) = 0.28771 0.26879
#
# Static dielectric constant tensor:
#      x y z
#    x 3.527820 0.000000 0.000000 
#    y 0.000000 3.331930 0.000000 
#    z 0.000000 0.000000 3.816080 
# 
# 
# High freq. dielectric constant tensor:
#      x y z
#    x 1.752290 0.000000 0.000000 
#    y 0.000000 1.717510 0.000000 
#    z 0.000000 0.000000 1.747760 
# 
# From -- ./inp_files/19271.got.cif
#   From: 2010.03.12/outbox.cif.g09.slc.cpg/sg59_10_cif.got.tgz:19271.got - 2010.04.16 16:29:54.
