data_PCOD8242588
_publ_section_title
;
Structure prediction by ZEFSAII (Michael W. Deem and Ramdas Pophale) SiO2 
 PCOD8242588
Probable space group: P M M N
;
_chemical_formula_sum "Si O2"
_cell_formula_units_Z 64
_cell_length_a 13.893724
_cell_length_b 9.079546
_cell_length_c 31.591781
_cell_angle_alpha 90.000000
_cell_angle_beta 90.000000
_cell_angle_gamma 90.000000
_cell_volume 3985.262299
_symmetry_space_group_name_H-M "P M M N"
_symmetry_group_IT_number 59
_space_group.IT_coordinate_system_code '2'
_symmetry_cell_setting 'orthorhombic'
loop_
_space_group_symop_operation_xyz
x,y,z
1/2-x,1/2-y,z
1/2+x,-y,-z
-x,1/2+y,-z
-x,-y,-z
1/2+x,1/2+y,-z
1/2-x,y,z
x,1/2-y,z
loop_
_atom_site_type_symbol
_atom_site_label
_atom_site_fract_x
_atom_site_fract_y
_atom_site_fract_z
Si Si1 0.636367 0.414642 0.469324
Si Si2 0.361694 0.576903 0.685018
Si Si3 0.543227 0.923074 0.393498
Si Si4 0.142336 0.421958 0.015556
Si Si5 0.864345 0.584080 0.231069
Si Si6 0.547436 0.077207 0.060964
Si Si7 0.644956 0.076139 0.562380
Si Si8 0.361420 0.577969 0.852256
O O1 0.750000 0.403794 0.466121
O O2 0.593138 0.250000 0.461149
O O3 0.601557 0.530876 0.434874
O O4 0.608632 0.477778 0.515992
O O5 0.250000 0.537586 0.677450
O O6 0.377759 0.750000 0.687976
O O7 0.423026 0.512846 0.646889
O O8 0.401319 0.505180 0.728201
O O9 0.558253 0.750000 0.385506
O O10 0.431406 0.965615 0.401389
O O11 0.250000 0.465425 0.031115
O O12 0.135380 0.250000 0.006007
O O13 0.063767 0.466921 0.051263
O O14 0.119786 0.502674 0.971849
O O15 0.750000 0.581015 0.230419
O O16 0.904338 0.750000 0.233401
O O17 0.902663 0.507871 0.188373
O O18 0.564350 0.250000 0.056633
O O19 0.574935 0.024501 0.107976
O O20 0.750000 0.008546 0.574103
O O21 0.654713 0.250000 0.558267
O O22 0.250000 0.539576 0.861290
O O23 0.374185 0.750000 0.843178
#
# Coordination Sequence:
#
# PCOD8242588 Si02
#       8
#     8   8   8   8   8   8   8   8
#     4   9  17  30  46  62  85 118 148 172 205 252
#     4  10  20  33  47  63  88 120 145 166 203 259
#     4  11  20  28  44  68  89 111 142 180 215 246
#     4   9  17  28  41  59  86 118 151 189 228 258
#     4   9  17  29  45  65  88 111 136 171 213 254
#     4   9  17  28  42  61  85 116 153 186 217 259
#     4   8  16  31  47  62  83 113 147 179 212 251
#     4   9  16  26  41  61  85 113 143 173 209 257
#
# _framework density 16.059168
#
# number of rings (size 3 to 8) (size 9 to 14) (size 15 to 20)
#    0.000    2.750    0.000    3.000    0.000    5.250 
#    0.000    1.875    0.000    3.000    0.000    0.875 
#    0.000    3.000    0.000    0.000    0.000    0.000 
#
# Total GULP energy -793377.985796 kJ/mol
# GULP energy per Si atom -12396.531028 kJ/mol
# Density = 1.602262 g / cm^3
# Si number density = 16.059168 Si / 1000 Ang^3
#
#
#
# Elastic Constant Matrix: (Units=GPa)
#
#
# Indices 1 2 3 4 5 6 
#
# 1 69.9477 29.5429 63.0763 0.0000 0.0000 0.0000
# 2 29.5429 56.7211 50.4184 0.0000 0.0000 0.0000
# 3 63.0763 50.4184 139.4959 0.0000 0.0000 0.0000
# 4 0.0000 0.0000 0.0000 27.1959 0.0000 0.0000
# 5 0.0000 0.0000 0.0000 0.0000 21.8758 0.0000
# 6 0.0000 0.0000 0.0000 0.0000 0.0000 15.3590
#
#
#
# Elastic Compliance Matrix: (Units=1/GPa)
#
#
# Indices 1 2 3 4 5 6 
#
# 1 0.024848 -0.004353 -0.009662 0.000000 0.000000 0.000000
# 2 -0.004353 0.026738 -0.007695 0.000000 0.000000 0.000000
# 3 -0.009662 -0.007695 0.014319 0.000000 0.000000 0.000000
# 4 0.000000 0.000000 0.000000 0.036770 0.000000 0.000000
# 5 0.000000 0.000000 0.000000 0.000000 0.045713 0.000000
# 6 0.000000 0.000000 0.000000 0.000000 0.000000 0.065108
#
#
# Mechanical properties :
#
#
# Convention : Reuss Voigt Hill
#
# Bulk Modulus (GPa) = 44.47822 61.35997 52.91909
# Shear Modulus (GPa) = 18.90984 21.09462 20.00223
#
# Velocity S-wave (km/s) = 3.43521 3.62823 3.53304
# Velocity P-wave (km/s) = 6.59476 7.47287 7.04750
#
# Compressibility (1/GPa) = 0.02248292
#
# Stress axis : x y z
#
# Youngs Moduli (GPa) = 40.24456 37.40005 69.83722
#
# Poissons Ratio (x) = 0.16282 0.67478
# Poissons Ratio (y) = 0.17520 0.53743
# Poissons Ratio (z) = 0.38885 0.28781
#
# Static dielectric constant tensor:
#      x y z
#    x 3.136140 0.000000 0.000000 
#    y 0.000000 3.085750 0.000000 
#    z 0.000000 0.000000 3.097730 
# 
# 
# High freq. dielectric constant tensor:
#      x y z
#    x 1.592470 0.000000 0.000000 
#    y 0.000000 1.614830 0.000000 
#    z 0.000000 0.000000 1.610280 
# 
# From -- ./inp_files/33322.got.cif
#   From: 2010.03.12/outbox.cif.g09.slc.cpg/sg59_17_cif.got.tgz:33322.got - 2010.04.16 16:29:54.
