data_PCOD8242236
_publ_section_title
;
Structure prediction by ZEFSAII (Michael W. Deem and Ramdas Pophale) SiO2 
 PCOD8242236
Probable space group: P M M N
;
_chemical_formula_sum "Si O2"
_cell_formula_units_Z 56
_cell_length_a 8.960828
_cell_length_b 16.552983
_cell_length_c 19.289324
_cell_angle_alpha 90.000000
_cell_angle_beta 90.000000
_cell_angle_gamma 90.000000
_cell_volume 2861.155213
_symmetry_space_group_name_H-M "P M M N"
_symmetry_group_IT_number 59
_space_group.IT_coordinate_system_code '2'
_symmetry_cell_setting 'orthorhombic'
loop_
_space_group_symop_operation_xyz
x,y,z
1/2-x,1/2-y,z
1/2+x,-y,-z
-x,1/2+y,-z
-x,-y,-z
1/2+x,1/2+y,-z
1/2-x,y,z
x,1/2-y,z
loop_
_atom_site_type_symbol
_atom_site_label
_atom_site_fract_x
_atom_site_fract_y
_atom_site_fract_z
Si Si1 0.919919 0.155811 0.033884
Si Si2 0.427132 0.900422 0.113190
Si Si3 0.426571 0.424359 0.159142
Si Si4 0.424508 0.656926 0.712245
Si Si5 0.072390 0.750000 0.200836
Si Si6 0.076976 0.089826 0.570110
Si Si7 0.424545 0.250000 0.651397
Si Si8 0.923742 0.573067 0.589286
O O1 0.750000 0.130196 0.051328
O O2 0.928209 0.250000 0.017231
O O3 0.023467 0.135978 0.098804
O O4 0.982483 0.109707 0.966032
O O5 0.250000 0.895448 0.113010
O O6 0.490958 0.829207 0.161745
O O7 0.484768 0.985727 0.141968
O O8 0.250000 0.421083 0.166269
O O9 0.497420 0.399191 0.231440
O O10 0.250000 0.638851 0.712954
O O11 0.458535 0.750000 0.729413
O O12 0.489503 0.636153 0.637138
O O13 0.250000 0.750000 0.201384
O O14 0.015716 0.750000 0.278511
O O15 0.250000 0.069112 0.581838
O O16 0.028960 0.171950 0.607305
O O17 0.041701 0.099910 0.488986
O O18 0.980718 0.017755 0.603019
O O19 0.250000 0.250000 0.668258
O O20 0.750000 0.576680 0.607270
#
# Coordination Sequence:
#
# PCOD8242236 Si02
#       8
#     8   8   8   8   4   8   4   8
#     4  10  19  36  61  84 111 152 194 233 284 347
#     4   9  19  37  60  84 112 150 194 237 287 345
#     4  11  23  37  57  87 119 149 191 243 293 345
#     4  11  25  43  61  84 116 156 198 241 293 355
#     4  10  20  38  60  84 113 150 197 244 285 340
#     4   9  20  39  61  87 123 160 195 237 293 355
#     4  10  22  38  58  88 123 158 193 236 293 348
#     4  10  21  38  64  90 117 154 198 246 295 348
#
# _framework density 19.572514000000002
#
# number of rings (size 3 to 8) (size 9 to 14) (size 15 to 20)
#    0.000    2.000    0.714    2.143    3.000    4.286 
#    0.000    2.143    0.000    0.000    0.000    0.000 
#    0.000    0.000    0.000    0.000    0.000    0.000 
#
# Total GULP energy -694651.933121 kJ/mol
# GULP energy per Si atom -12404.498806 kJ/mol
# Density = 1.952797 g / cm^3
# Si number density = 19.572514 Si / 1000 Ang^3
#
#
#
# Elastic Constant Matrix: (Units=GPa)
#
#
# Indices 1 2 3 4 5 6 
#
# 1 65.5372 36.8964 34.7542 0.0000 0.0000 0.0000
# 2 36.8964 82.7008 35.0995 0.0000 0.0000 0.0000
# 3 34.7542 35.0995 99.4543 0.0000 0.0000 0.0000
# 4 0.0000 0.0000 0.0000 37.4258 0.0000 0.0000
# 5 0.0000 0.0000 0.0000 0.0000 33.9582 0.0000
# 6 0.0000 0.0000 0.0000 0.0000 0.0000 29.3660
#
#
#
# Elastic Compliance Matrix: (Units=1/GPa)
#
#
# Indices 1 2 3 4 5 6 
#
# 1 0.022339 -0.007825 -0.005045 0.000000 0.000000 0.000000
# 2 -0.007825 0.016963 -0.003252 0.000000 0.000000 0.000000
# 3 -0.005045 -0.003252 0.012965 0.000000 0.000000 0.000000
# 4 0.000000 0.000000 0.000000 0.026720 0.000000 0.000000
# 5 0.000000 0.000000 0.000000 0.000000 0.029448 0.000000
# 6 0.000000 0.000000 0.000000 0.000000 0.000000 0.034053
#
#
# Mechanical properties :
#
#
# Convention : Reuss Voigt Hill
#
# Bulk Modulus (GPa) = 49.94117 51.24361 50.59239
# Shear Modulus (GPa) = 27.56225 29.54615 28.55420
#
# Velocity S-wave (km/s) = 3.75669 3.88954 3.82369
# Velocity P-wave (km/s) = 6.66245 6.81246 6.73787
#
# Compressibility (1/GPa) = 0.02002356
#
# Stress axis : x y z
#
# Youngs Moduli (GPa) = 44.76421 58.95081 77.12805
#
# Poissons Ratio (x) = 0.46132 0.38909
# Poissons Ratio (y) = 0.35030 0.25083
# Poissons Ratio (z) = 0.22582 0.19171
#
# Static dielectric constant tensor:
#      x y z
#    x 3.416780 0.000000 0.000000 
#    y 0.000000 3.717780 0.000000 
#    z 0.000000 0.000000 3.586340 
# 
# 
# High freq. dielectric constant tensor:
#      x y z
#    x 1.747850 0.000000 0.000000 
#    y 0.000000 1.772560 0.000000 
#    z 0.000000 0.000000 1.772930 
# 
# From -- ./inp_files/29209.got.cif
#   From: 2010.03.12/outbox.cif.g09.slc.cpg/sg59_15_cif.got.tgz:29209.got - 2010.04.16 16:29:54.
