data_PCOD8242377
_publ_section_title
;
Structure prediction by ZEFSAII (Michael W. Deem and Ramdas Pophale) SiO2 
 PCOD8242377
Probable space group: P M M N
;
_chemical_formula_sum "Si O2"
_cell_formula_units_Z 64
_cell_length_a 14.564301
_cell_length_b 12.838385
_cell_length_c 19.999193
_cell_angle_alpha 90.000000
_cell_angle_beta 90.000000
_cell_angle_gamma 90.000000
_cell_volume 3739.491175
_symmetry_space_group_name_H-M "P M M N"
_symmetry_group_IT_number 59
_space_group.IT_coordinate_system_code '2'
_symmetry_cell_setting 'orthorhombic'
loop_
_space_group_symop_operation_xyz
x,y,z
1/2-x,1/2-y,z
1/2+x,-y,-z
-x,1/2+y,-z
-x,-y,-z
1/2+x,1/2+y,-z
1/2-x,y,z
x,1/2-y,z
loop_
_atom_site_type_symbol
_atom_site_label
_atom_site_fract_x
_atom_site_fract_y
_atom_site_fract_z
Si Si1 0.002733 0.872194 0.647370
Si Si2 0.497593 0.518577 0.786229
Si Si3 0.856826 0.520217 0.020717
Si Si4 0.855844 0.131852 0.734368
Si Si5 0.145371 0.367569 0.841952
Si Si6 0.355745 0.977887 0.400992
Si Si7 0.144786 0.870972 0.536418
Si Si8 0.506163 0.626615 0.925367
O O1 0.990022 0.750000 0.651061
O O2 0.087566 0.906270 0.600875
O O3 0.022004 0.914246 0.720935
O O4 0.910049 0.917505 0.615943
O O5 0.588592 0.448077 0.780731
O O6 0.411739 0.442116 0.794066
O O7 0.507135 0.597806 0.847464
O O8 0.750000 0.492143 0.006082
O O9 0.902547 0.575246 0.956799
O O10 0.865988 0.601449 0.080966
O O11 0.913458 0.415474 0.038785
O O12 0.750000 0.116503 0.753533
O O13 0.887721 0.250000 0.748330
O O14 0.872849 0.108537 0.656126
O O15 0.250000 0.377809 0.818735
O O16 0.109414 0.250000 0.834110
O O17 0.250000 0.009926 0.404829
O O18 0.390375 0.932047 0.471216
O O19 0.250000 0.897323 0.552293
O O20 0.130773 0.750000 0.520843
O O21 0.508478 0.750000 0.934119
#
# Coordination Sequence:
#
# PCOD8242377 Si02
#       8
#     8   8   8   8   8   8   8   8
#     4  10  20  32  46  67  97 131 163 193 229 278
#     4  10  20  32  47  70 101 133 164 194 230 282
#     4   9  19  35  54  76  99 124 161 207 250 291
#     4   9  17  30  48  69  94 124 159 201 247 290
#     4   9  17  31  52  74  94 120 157 200 245 289
#     4   9  17  30  49  70  90 117 157 203 246 286
#     4   9  17  30  49  71  92 116 152 199 246 287
#     4  10  20  34  53  75 101 133 166 200 241 289
#
# _framework density 17.114628
#
# number of rings (size 3 to 8) (size 9 to 14) (size 15 to 20)
#    0.000    2.625    0.000    1.875    0.000    3.750 
#    0.000    0.625    0.000    5.250    0.000    0.000 
#    0.000    0.000    0.000    0.000    0.000    0.000 
#
# Total GULP energy -793639.568281 kJ/mol
# GULP energy per Si atom -12400.618254 kJ/mol
# Density = 1.707567 g / cm^3
# Si number density = 17.114628 Si / 1000 Ang^3
#
#
#
# Elastic Constant Matrix: (Units=GPa)
#
#
# Indices 1 2 3 4 5 6 
#
# 1 88.2872 40.2123 50.0580 0.0000 0.0000 0.0000
# 2 40.2123 89.4166 51.0765 0.0000 0.0000 0.0000
# 3 50.0580 51.0765 103.5380 0.0000 0.0000 0.0000
# 4 0.0000 0.0000 0.0000 20.6204 0.0000 0.0000
# 5 0.0000 0.0000 0.0000 0.0000 27.2523 0.0000
# 6 0.0000 0.0000 0.0000 0.0000 0.0000 25.1871
#
#
#
# Elastic Compliance Matrix: (Units=1/GPa)
#
#
# Indices 1 2 3 4 5 6 
#
# 1 0.016574 -0.004005 -0.006037 0.000000 0.000000 0.000000
# 2 -0.004005 0.016539 -0.006223 0.000000 0.000000 0.000000
# 3 -0.006037 -0.006223 0.015647 0.000000 0.000000 0.000000
# 4 0.000000 0.000000 0.000000 0.048496 0.000000 0.000000
# 5 0.000000 0.000000 0.000000 0.000000 0.036694 0.000000
# 6 0.000000 0.000000 0.000000 0.000000 0.000000 0.039703
#
#
# Mechanical properties :
#
#
# Convention : Reuss Voigt Hill
#
# Bulk Modulus (GPa) = 61.61413 62.65949 62.13681
# Shear Modulus (GPa) = 23.63029 23.93830 23.78429
#
# Velocity S-wave (km/s) = 3.71982 3.74398 3.73192
# Velocity P-wave (km/s) = 7.38434 7.44184 7.41314
#
# Compressibility (1/GPa) = 0.01623004
#
# Stress axis : x y z
#
# Youngs Moduli (GPa) = 60.33560 60.46226 63.91020
#
# Poissons Ratio (x) = 0.24215 0.38585
# Poissons Ratio (y) = 0.24164 0.39769
# Poissons Ratio (z) = 0.36427 0.37624
#
# Static dielectric constant tensor:
#      x y z
#    x 3.312140 0.000000 0.000000 
#    y 0.000000 3.132040 0.000000 
#    z 0.000000 0.000000 3.191170 
# 
# 
# High freq. dielectric constant tensor:
#      x y z
#    x 1.662260 0.000000 0.000000 
#    y 0.000000 1.658750 0.000000 
#    z 0.000000 0.000000 1.660420 
# 
# From -- ./inp_files/27674.got.cif
#   From: 2010.03.12/outbox.cif.g09.slc.cpg/sg59_14_cif.got.tgz:27674.got - 2010.04.16 16:29:54.
