data_PCOD8242203
_publ_section_title
;
Structure prediction by ZEFSAII (Michael W. Deem and Ramdas Pophale) SiO2 
 PCOD8242203
Probable space group: P M M N
;
_chemical_formula_sum "Si O2"
_cell_formula_units_Z 48
_cell_length_a 20.656935
_cell_length_b 8.745703
_cell_length_c 14.036646
_cell_angle_alpha 90.000000
_cell_angle_beta 90.000000
_cell_angle_gamma 90.000000
_cell_volume 2535.852303
_symmetry_space_group_name_H-M "P M M N"
_symmetry_group_IT_number 59
_space_group.IT_coordinate_system_code '2'
_symmetry_cell_setting 'orthorhombic'
loop_
_space_group_symop_operation_xyz
x,y,z
1/2-x,1/2-y,z
1/2+x,-y,-z
-x,1/2+y,-z
-x,-y,-z
1/2+x,1/2+y,-z
1/2-x,y,z
x,1/2-y,z
loop_
_atom_site_type_symbol
_atom_site_label
_atom_site_fract_x
_atom_site_fract_y
_atom_site_fract_z
Si Si1 0.250000 0.068660 0.110252
Si Si2 0.925686 0.070378 0.403640
Si Si3 0.999598 0.069995 0.896993
Si Si4 0.876036 0.931556 0.218584
Si Si5 0.750000 0.931290 0.105930
Si Si6 0.925420 0.570671 0.603105
Si Si7 0.127375 0.569465 0.213622
O O1 0.250000 0.250000 0.109542
O O2 0.312446 0.010806 0.165036
O O3 0.250000 0.003884 0.001902
O O4 0.918166 0.250000 0.419893
O O5 0.999679 0.026211 0.378126
O O6 0.878098 0.013007 0.320830
O O7 0.903884 0.983873 0.498901
O O8 0.001071 0.250000 0.906780
O O9 0.936156 0.013512 0.842147
O O10 0.062322 0.011407 0.840970
O O11 0.000000 0.000000 0.000000
O O12 0.875887 0.750000 0.233684
O O13 0.812993 0.989952 0.162221
O O14 0.750000 0.750000 0.101633
O O15 0.913775 0.750000 0.612985
O O16 0.879642 0.483496 0.677527
O O17 0.137082 0.750000 0.209875
#
# Coordination Sequence:
#
# PCOD8242203 Si02
#       7
#     4   8   8   8   4   8   8
#     4  11  23  41  62  83 114 157 199 238 288 351
#     4  10  20  34  56  87 118 149 187 237 293 347
#     4  10  21  34  54  81 113 148 189 242 292 341
#     4  10  19  36  57  82 113 151 194 236 286 343
#     4   9  20  37  60  83 112 155 199 238 278 337
#     4  10  20  35  58  86 116 151 190 235 289 351
#     4  11  22  38  58  85 117 151 192 242 294 343
#
# _framework density 18.928547999999999
#
# number of rings (size 3 to 8) (size 9 to 14) (size 15 to 20)
#    0.000    1.833    1.667    2.750    0.000    4.667 
#    0.000    2.917    0.000    1.000    0.000    0.000 
#    0.000    0.000    0.000    0.000    0.000    0.000 
#
# Total GULP energy -595409.769073 kJ/mol
# GULP energy per Si atom -12404.370189 kJ/mol
# Density = 1.888547 g / cm^3
# Si number density = 18.928548 Si / 1000 Ang^3
#
#
#
# Elastic Constant Matrix: (Units=GPa)
#
#
# Indices 1 2 3 4 5 6 
#
# 1 139.2091 32.3194 74.2256 0.0000 0.0000 0.0000
# 2 32.3194 48.2892 33.1887 0.0000 0.0000 0.0000
# 3 74.2256 33.1887 156.9866 0.0000 0.0000 0.0000
# 4 0.0000 0.0000 0.0000 37.7110 0.0000 0.0000
# 5 0.0000 0.0000 0.0000 0.0000 20.2927 0.0000
# 6 0.0000 0.0000 0.0000 0.0000 0.0000 15.4905
#
#
#
# Elastic Compliance Matrix: (Units=1/GPa)
#
#
# Indices 1 2 3 4 5 6 
#
# 1 0.010265 -0.004136 -0.003979 0.000000 0.000000 0.000000
# 2 -0.004136 0.025895 -0.003519 0.000000 0.000000 0.000000
# 3 -0.003979 -0.003519 0.008995 0.000000 0.000000 0.000000
# 4 0.000000 0.000000 0.000000 0.026517 0.000000 0.000000
# 5 0.000000 0.000000 0.000000 0.000000 0.049279 0.000000
# 6 0.000000 0.000000 0.000000 0.000000 0.000000 0.064556
#
#
# Mechanical properties :
#
#
# Convention : Reuss Voigt Hill
#
# Bulk Modulus (GPa) = 45.68739 69.32803 57.50771
# Shear Modulus (GPa) = 23.14044 28.34891 25.74468
#
# Velocity S-wave (km/s) = 3.50024 3.87419 3.69195
# Velocity P-wave (km/s) = 6.36591 7.53114 6.97291
#
# Compressibility (1/GPa) = 0.02188788
#
# Stress axis : x y z
#
# Youngs Moduli (GPa) = 97.41556 38.61727 111.16756
#
# Poissons Ratio (x) = 0.15970 0.44237
# Poissons Ratio (y) = 0.40287 0.39122
# Poissons Ratio (z) = 0.38764 0.13590
#
# Static dielectric constant tensor:
#      x y z
#    x 3.582650 0.000000 0.000000 
#    y 0.000000 3.457740 0.000000 
#    z 0.000000 0.000000 3.564340 
# 
# 
# High freq. dielectric constant tensor:
#      x y z
#    x 1.723280 0.000000 0.000000 
#    y 0.000000 1.730650 0.000000 
#    z 0.000000 0.000000 1.752050 
# 
# From -- ./inp_files/23713.got.cif
#   From: 2010.03.12/outbox.cif.g09.slc.cpg/sg59_12_cif.got.tgz:23713.got - 2010.04.16 16:29:54.
