data_PCOD8242100
_publ_section_title
;
Structure prediction by ZEFSAII (Michael W. Deem and Ramdas Pophale) SiO2 
 PCOD8242100
Probable space group: P M M N
;
_chemical_formula_sum "Si O2"
_cell_formula_units_Z 48
_cell_length_a 14.661338
_cell_length_b 9.010408
_cell_length_c 18.271449
_cell_angle_alpha 90.000000
_cell_angle_beta 90.000000
_cell_angle_gamma 90.000000
_cell_volume 2413.743141
_symmetry_space_group_name_H-M "P M M N"
_symmetry_group_IT_number 59
_space_group.IT_coordinate_system_code '2'
_symmetry_cell_setting 'orthorhombic'
loop_
_space_group_symop_operation_xyz
x,y,z
1/2-x,1/2-y,z
1/2+x,-y,-z
-x,1/2+y,-z
-x,-y,-z
1/2+x,1/2+y,-z
1/2-x,y,z
x,1/2-y,z
loop_
_atom_site_type_symbol
_atom_site_label
_atom_site_fract_x
_atom_site_fract_y
_atom_site_fract_z
Si Si1 0.906488 0.577491 0.815507
Si Si2 0.250000 0.425110 0.912487
Si Si3 0.750000 0.090372 0.742782
Si Si4 0.444500 0.576946 0.705862
Si Si5 0.591609 0.924907 0.978995
Si Si6 0.250000 0.927387 0.754637
Si Si7 0.442861 0.071276 0.435461
Si Si8 0.250000 0.915221 0.426044
O O1 0.885232 0.750000 0.811103
O O2 0.839314 0.499543 0.760691
O O3 0.886745 0.518222 0.897056
O O4 0.007779 0.542329 0.784487
O O5 0.250000 0.250000 0.897208
O O6 0.250000 0.510980 0.836806
O O7 0.334963 0.475270 0.961831
O O8 0.750000 0.250000 0.783318
O O9 0.750000 0.117735 0.658201
O O10 0.436452 0.750000 0.692361
O O11 0.340507 0.513738 0.711533
O O12 0.505817 0.514313 0.638956
O O13 0.579466 0.750000 0.977655
O O14 0.500000 0.000000 0.000000
O O15 0.250000 0.750000 0.760904
O O16 0.439747 0.250000 0.439826
O O17 0.500000 0.000000 0.500000
O O18 0.340452 0.009089 0.445048
O O19 0.250000 0.750000 0.464936
#
# Coordination Sequence:
#
# PCOD8242100 Si02
#       8
#     8   4   4   8   8   4   8   4
#     4  10  19  35  57  81 111 155 200 240 290 364
#     4  10  21  37  52  80 120 155 186 235 305 358
#     4  11  22  34  55  88 117 145 187 248 304 342
#     4   9  19  35  59  87 114 149 200 246 291 347
#     4  10  21  36  56  80 112 151 195 242 295 355
#     4  10  20  38  62  84 107 150 206 249 280 341
#     4  11  23  41  65  95 129 166 201 247 304 364
#     4  11  23  41  63  92 126 160 199 248 301 357
#
# _framework density 19.886126000000001
#
# number of rings (size 3 to 8) (size 9 to 14) (size 15 to 20)
#    0.000    1.833    1.667    2.500    0.000    5.333 
#    0.000    5.000    0.000    0.000    0.000    0.000 
#    0.000    0.000    0.000    0.000    0.000    0.000 
#
# Total GULP energy -594832.299852 kJ/mol
# GULP energy per Si atom -12392.339580 kJ/mol
# Density = 1.984086 g / cm^3
# Si number density = 19.886126 Si / 1000 Ang^3
#
#
#
# Elastic Constant Matrix: (Units=GPa)
#
#
# Indices 1 2 3 4 5 6 
#
# 1 174.0212 47.7266 54.5737 0.0000 0.0000 0.0000
# 2 47.7266 47.5010 32.8164 0.0000 0.0000 0.0000
# 3 54.5737 32.8164 101.6449 0.0000 0.0000 0.0000
# 4 0.0000 0.0000 0.0000 29.2230 0.0000 0.0000
# 5 0.0000 0.0000 0.0000 0.0000 40.2637 0.0000
# 6 0.0000 0.0000 0.0000 0.0000 0.0000 22.9546
#
#
#
# Elastic Compliance Matrix: (Units=1/GPa)
#
#
# Indices 1 2 3 4 5 6 
#
# 1 0.008322 -0.006789 -0.002276 0.000000 0.000000 0.000000
# 2 -0.006789 0.032634 -0.006891 0.000000 0.000000 0.000000
# 3 -0.002276 -0.006891 0.013285 0.000000 0.000000 0.000000
# 4 0.000000 0.000000 0.000000 0.034220 0.000000 0.000000
# 5 0.000000 0.000000 0.000000 0.000000 0.024836 0.000000
# 6 0.000000 0.000000 0.000000 0.000000 0.000000 0.043564
#
#
# Mechanical properties :
#
#
# Convention : Reuss Voigt Hill
#
# Bulk Modulus (GPa) = 44.78539 65.93339 55.35939
# Shear Modulus (GPa) = 25.48190 31.02494 28.25342
#
# Velocity S-wave (km/s) = 3.58354 3.95413 3.77339
# Velocity P-wave (km/s) = 6.30017 7.35353 6.84713
#
# Compressibility (1/GPa) = 0.02232871
#
# Stress axis : x y z
#
# Youngs Moduli (GPa) = 120.15940 30.64267 75.27205
#
# Poissons Ratio (x) = 0.20804 0.17135
# Poissons Ratio (y) = 0.81578 0.51870
# Poissons Ratio (z) = 0.27353 0.21116
#
# Static dielectric constant tensor:
#      x y z
#    x 7.056860 0.000000 0.000000 
#    y 0.000000 3.542770 0.000000 
#    z 0.000000 0.000000 1.591450 
# 
# 
# High freq. dielectric constant tensor:
#      x y z
#    x 1.792540 0.000000 0.000000 
#    y 0.000000 1.755650 0.000000 
#    z 0.000000 0.000000 1.777990 
# 
# From -- ./inp_files/27501.got.cif
#   From: 2010.03.12/outbox.cif.g09.slc.cpg/sg59_14_cif.got.tgz:27501.got - 2010.04.16 16:29:54.
