data_PCOD8242853
_publ_section_title
;
Structure prediction by ZEFSAII (Michael W. Deem and Ramdas Pophale) SiO2 
 PCOD8242853
Probable space group: P M M N
;
_chemical_formula_sum "Si O2"
_cell_formula_units_Z 64
_cell_length_a 18.112711
_cell_length_b 9.617372
_cell_length_c 21.191858
_cell_angle_alpha 90.000000
_cell_angle_beta 90.000000
_cell_angle_gamma 90.000000
_cell_volume 3691.551298
_symmetry_space_group_name_H-M "P M M N"
_symmetry_group_IT_number 59
_space_group.IT_coordinate_system_code '2'
_symmetry_cell_setting 'orthorhombic'
loop_
_space_group_symop_operation_xyz
x,y,z
1/2-x,1/2-y,z
1/2+x,-y,-z
-x,1/2+y,-z
-x,-y,-z
1/2+x,1/2+y,-z
1/2-x,y,z
x,1/2-y,z
loop_
_atom_site_type_symbol
_atom_site_label
_atom_site_fract_x
_atom_site_fract_y
_atom_site_fract_z
Si Si1 0.908542 0.911150 0.242671
Si Si2 0.557230 0.092702 0.685382
Si Si3 0.164884 0.087959 0.243149
Si Si4 0.425553 0.912104 0.876986
Si Si5 0.835857 0.409570 0.999381
Si Si6 0.332125 0.084715 0.631837
Si Si7 0.595360 0.587335 0.889329
Si Si8 0.472606 0.088195 0.558347
O O1 0.893648 0.750000 0.226857
O O2 0.854416 0.965771 0.298098
O O3 0.992300 0.934557 0.264708
O O4 0.892480 0.001942 0.181162
O O5 0.585614 0.250000 0.691206
O O6 0.529393 0.062847 0.615051
O O7 0.625155 0.991676 0.699861
O O8 0.250000 0.045716 0.243139
O O9 0.153024 0.250000 0.255214
O O10 0.129933 0.041707 0.177015
O O11 0.418703 0.750000 0.860206
O O12 0.378730 0.954054 0.937827
O O13 0.509780 0.954157 0.890477
O O14 0.750000 0.433704 0.012134
O O15 0.853200 0.250000 0.981953
O O16 0.861862 0.504899 0.942674
O O17 0.250000 0.029754 0.614816
O O18 0.335733 0.250000 0.632830
O O19 0.391247 0.033510 0.579670
O O20 0.607243 0.750000 0.901948
O O21 0.469627 0.250000 0.539464
O O22 0.500000 0.000000 0.500000
#
# Coordination Sequence:
#
# PCOD8242853 Si02
#       8
#     8   8   8   8   8   8   8   8
#     4   9  17  30  51  77 100 126 164 206 244 293
#     4   9  18  33  51  73 103 134 166 202 245 299
#     4  10  20  33  51  76 102 128 165 213 259 302
#     4  10  20  34  52  73  99 132 165 202 253 306
#     4  10  22  37  50  69  99 132 166 206 253 306
#     4   8  15  30  52  77 105 135 169 209 249 290
#     4  10  20  35  54  73  95 128 170 212 253 299
#     4   9  18  33  54  79 105 138 175 209 246 291
#
# _framework density 17.336886
#
# number of rings (size 3 to 8) (size 9 to 14) (size 15 to 20)
#    0.000    2.625    1.250    2.250    0.000    3.500 
#    0.000    2.500    0.000    3.375    0.000    0.000 
#    0.000    0.000    0.000    0.000    0.000    0.000 
#
# Total GULP energy -793630.791871 kJ/mol
# GULP energy per Si atom -12400.481123 kJ/mol
# Density = 1.729743 g / cm^3
# Si number density = 17.336886 Si / 1000 Ang^3
#
#
#
# Elastic Constant Matrix: (Units=GPa)
#
#
# Indices 1 2 3 4 5 6 
#
# 1 128.3096 44.5877 62.9892 0.0000 0.0000 0.0000
# 2 44.5877 52.5089 50.8519 0.0000 0.0000 0.0000
# 3 62.9892 50.8519 97.5650 0.0000 0.0000 0.0000
# 4 0.0000 0.0000 0.0000 37.6569 0.0000 0.0000
# 5 0.0000 0.0000 0.0000 0.0000 21.7218 0.0000
# 6 0.0000 0.0000 0.0000 0.0000 0.0000 21.7555
#
#
#
# Elastic Compliance Matrix: (Units=1/GPa)
#
#
# Indices 1 2 3 4 5 6 
#
# 1 0.012147 -0.005492 -0.004980 0.000000 0.000000 0.000000
# 2 -0.005492 0.040938 -0.017792 0.000000 0.000000 0.000000
# 3 -0.004980 -0.017792 0.022738 0.000000 0.000000 0.000000
# 4 0.000000 0.000000 0.000000 0.026556 0.000000 0.000000
# 5 0.000000 0.000000 0.000000 0.000000 0.046037 0.000000
# 6 0.000000 0.000000 0.000000 0.000000 0.000000 0.045965
#
#
# Mechanical properties :
#
#
# Convention : Reuss Voigt Hill
#
# Bulk Modulus (GPa) = 51.82410 66.13791 58.98100
# Shear Modulus (GPa) = 19.42965 24.22382 21.82673
#
# Velocity S-wave (km/s) = 3.35133 3.74202 3.55206
# Velocity P-wave (km/s) = 6.70317 7.54333 7.13563
#
# Compressibility (1/GPa) = 0.01929604
#
# Stress axis : x y z
#
# Youngs Moduli (GPa) = 82.32739 24.42715 43.97956
#
# Poissons Ratio (x) = 0.13415 0.21900
# Poissons Ratio (y) = 0.45212 0.78248
# Poissons Ratio (z) = 0.40996 0.43460
#
# Static dielectric constant tensor:
#      x y z
#    x 3.363930 0.000000 0.000000 
#    y 0.000000 3.064840 0.000000 
#    z 0.000000 0.000000 3.130270 
# 
# 
# High freq. dielectric constant tensor:
#      x y z
#    x 1.673790 0.000000 0.000000 
#    y 0.000000 1.654140 0.000000 
#    z 0.000000 0.000000 1.665230 
# 
# From -- ./inp_files/29516.got.cif
#   From: 2010.03.12/outbox.cif.g09.slc.cpg/sg59_15_cif.got.tgz:29516.got - 2010.04.16 16:29:54.
