data_PCOD8242821
_publ_section_title
;
Structure prediction by ZEFSAII (Michael W. Deem and Ramdas Pophale) SiO2 
 PCOD8242821
Probable space group: P M M N
;
_chemical_formula_sum "Si O2"
_cell_formula_units_Z 64
_cell_length_a 23.331475
_cell_length_b 9.660757
_cell_length_c 14.969118
_cell_angle_alpha 90.000000
_cell_angle_beta 90.000000
_cell_angle_gamma 90.000000
_cell_volume 3374.034863
_symmetry_space_group_name_H-M "P M M N"
_symmetry_group_IT_number 59
_space_group.IT_coordinate_system_code '2'
_symmetry_cell_setting 'orthorhombic'
loop_
_space_group_symop_operation_xyz
x,y,z
1/2-x,1/2-y,z
1/2+x,-y,-z
-x,1/2+y,-z
-x,-y,-z
1/2+x,1/2+y,-z
1/2-x,y,z
x,1/2-y,z
loop_
_atom_site_type_symbol
_atom_site_label
_atom_site_fract_x
_atom_site_fract_y
_atom_site_fract_z
Si Si1 0.023453 0.594568 0.078208
Si Si2 0.655015 0.404667 0.963037
Si Si3 0.373872 0.090200 0.688907
Si Si4 0.183168 0.589119 0.839478
Si Si5 0.606104 0.585398 0.655061
Si Si6 0.685161 0.585899 0.493026
Si Si7 0.812669 0.595683 0.812829
Si Si8 0.995493 0.410181 0.720514
O O1 0.999823 0.750000 0.063429
O O2 0.091239 0.591199 0.073447
O O3 0.004351 0.539708 0.175890
O O4 0.000000 0.500000 0.000000
O O5 0.680694 0.250000 0.958128
O O6 0.692151 0.501966 0.900146
O O7 0.659894 0.458019 0.064108
O O8 0.358809 0.250000 0.707944
O O9 0.342314 0.036453 0.600032
O O10 0.441875 0.070336 0.678283
O O11 0.351949 0.999993 0.770056
O O12 0.250000 0.555469 0.831109
O O13 0.170316 0.750000 0.821909
O O14 0.594729 0.750000 0.650172
O O15 0.643369 0.532088 0.571183
O O16 0.641321 0.540758 0.742514
O O17 0.546178 0.503982 0.659766
O O18 0.750000 0.525516 0.502413
O O19 0.687928 0.750000 0.497737
O O20 0.750000 0.595858 0.766397
O O21 0.829744 0.750000 0.843414
O O22 0.975560 0.250000 0.716028
#
# Coordination Sequence:
#
# PCOD8242821 Si02
#       8
#     8   8   8   8   8   8   8   8
#     4  10  20  33  51  74 105 145 186 227 269 317
#     4  10  20  35  53  75 106 147 185 217 271 338
#     4  10  21  37  59  83 109 146 188 230 277 329
#     4  10  21  36  54  79 111 144 182 231 280 329
#     4  10  20  35  57  82 109 144 184 224 271 329
#     4   9  18  35  59  85 111 142 184 230 277 332
#     4  10  20  33  51  78 108 137 175 225 272 316
#     4  10  21  37  54  80 116 146 181 231 280 326
#
# _framework density 18.968387
#
# number of rings (size 3 to 8) (size 9 to 14) (size 15 to 20)
#    0.000    2.125    1.250    1.875    0.000    5.500 
#    0.000    0.625    0.000    1.875    0.000    0.000 
#    0.000    0.000    0.000    0.000    0.000    0.000 
#
# Total GULP energy -793627.590451 kJ/mol
# GULP energy per Si atom -12400.431101 kJ/mol
# Density = 1.892521 g / cm^3
# Si number density = 18.968387 Si / 1000 Ang^3
#
#
#
# Elastic Constant Matrix: (Units=GPa)
#
#
# Indices 1 2 3 4 5 6 
#
# 1 96.3106 35.7981 49.5291 0.0000 0.0000 0.0000
# 2 35.7981 50.4843 39.3021 0.0000 0.0000 0.0000
# 3 49.5291 39.3021 109.9855 0.0000 0.0000 0.0000
# 4 0.0000 0.0000 0.0000 5.1618 0.0000 0.0000
# 5 0.0000 0.0000 0.0000 0.0000 37.1236 0.0000
# 6 0.0000 0.0000 0.0000 0.0000 0.0000 24.4381
#
#
#
# Elastic Compliance Matrix: (Units=1/GPa)
#
#
# Indices 1 2 3 4 5 6 
#
# 1 0.015381 -0.007639 -0.004196 0.000000 0.000000 0.000000
# 2 -0.007639 0.031237 -0.007722 0.000000 0.000000 0.000000
# 3 -0.004196 -0.007722 0.013741 0.000000 0.000000 0.000000
# 4 0.000000 0.000000 0.000000 0.193730 0.000000 0.000000
# 5 0.000000 0.000000 0.000000 0.000000 0.026937 0.000000
# 6 0.000000 0.000000 0.000000 0.000000 0.000000 0.040920
#
#
# Mechanical properties :
#
#
# Convention : Reuss Voigt Hill
#
# Bulk Modulus (GPa) = 47.07409 56.22657 51.65033
# Shear Modulus (GPa) = 13.58174 22.15478 17.86826
#
# Velocity S-wave (km/s) = 2.67876 3.42129 3.07253
# Velocity P-wave (km/s) = 5.86845 6.73153 6.31475
#
# Compressibility (1/GPa) = 0.02124311
#
# Stress axis : x y z
#
# Youngs Moduli (GPa) = 65.01672 32.01367 72.77390
#
# Poissons Ratio (x) = 0.24456 0.30539
# Poissons Ratio (y) = 0.49669 0.56195
# Poissons Ratio (z) = 0.27284 0.24721
#
# Static dielectric constant tensor:
#      x y z
#    x 3.577010 0.000000 0.000000 
#    y 0.000000 3.202510 0.000000 
#    z 0.000000 0.000000 3.475410 
# 
# 
# High freq. dielectric constant tensor:
#      x y z
#    x 1.748130 0.000000 0.000000 
#    y 0.000000 1.716290 0.000000 
#    z 0.000000 0.000000 1.738000 
# 
# From -- ./inp_files/24754.got.cif
#   From: 2010.03.12/outbox.cif.g09.slc.cpg/sg59_13_cif.got.tgz:24754.got - 2010.04.16 16:29:54.
