data_PCOD8242019
_publ_section_title
;
Structure prediction by ZEFSAII (Michael W. Deem and Ramdas Pophale) SiO2 
 PCOD8242019
Probable space group: P M M N
;
_chemical_formula_sum "Si O2"
_cell_formula_units_Z 48
_cell_length_a 8.758882
_cell_length_b 30.888065
_cell_length_c 8.995134
_cell_angle_alpha 90.000000
_cell_angle_beta 90.000000
_cell_angle_gamma 90.000000
_cell_volume 2433.587777
_symmetry_space_group_name_H-M "P M M N"
_symmetry_group_IT_number 59
_space_group.IT_coordinate_system_code '2'
_symmetry_cell_setting 'orthorhombic'
loop_
_space_group_symop_operation_xyz
x,y,z
1/2-x,1/2-y,z
1/2+x,-y,-z
-x,1/2+y,-z
-x,-y,-z
1/2+x,1/2+y,-z
1/2-x,y,z
x,1/2-y,z
loop_
_atom_site_type_symbol
_atom_site_label
_atom_site_fract_x
_atom_site_fract_y
_atom_site_fract_z
Si Si1 0.573150 0.081066 0.827964
Si Si2 0.928122 0.750000 0.160123
Si Si3 0.070146 0.497630 0.661356
Si Si4 0.068505 0.665618 0.668284
Si Si5 0.568647 0.250000 0.162449
Si Si6 0.568516 0.418641 0.165303
Si Si7 0.926965 0.328138 0.670155
O O1 0.750000 0.067232 0.820816
O O2 0.474211 0.046866 0.738536
O O3 0.547294 0.127517 0.756284
O O4 0.510997 0.082543 0.995984
O O5 0.750000 0.750000 0.126155
O O6 0.971100 0.792102 0.253242
O O7 0.017758 0.750000 0.006512
O O8 0.250000 0.500805 0.645956
O O9 0.006470 0.537768 0.758014
O O10 0.000000 0.500000 0.500000
O O11 0.250000 0.664691 0.675884
O O12 0.004156 0.707699 0.753458
O O13 0.001044 0.622802 0.747319
O O14 0.014172 0.666394 0.498074
O O15 0.750000 0.250000 0.166204
O O16 0.750000 0.416941 0.169141
O O17 0.750000 0.313811 0.674529
#
# Coordination Sequence:
#
# PCOD8242019 Si02
#       7
#     8   4   8   8   4   8   8
#     4  10  20  36  60  86 111 141 180 228 280 332
#     4  12  25  38  54  80 116 150 183 226 272 322
#     4  11  22  36  55  79 112 151 190 231 276 329
#     4   9  17  32  57  86 109 135 182 235 274 319
#     4  10  19  34  58  82 106 140 181 224 270 322
#     4   9  18  33  54  82 113 144 180 226 278 329
#     4  10  20  37  62  86 109 142 184 227 275 333
#
# _framework density 19.723966000000001
#
# number of rings (size 3 to 8) (size 9 to 14) (size 15 to 20)
#    0.000    2.000    0.000    4.250    0.000    7.333 
#    0.000    2.500    0.000    5.000    0.000    0.000 
#    0.000    0.000    0.000    0.000    0.000    0.000 
#
# Total GULP energy -595362.178538 kJ/mol
# GULP energy per Si atom -12403.378720 kJ/mol
# Density = 1.967907 g / cm^3
# Si number density = 19.723966 Si / 1000 Ang^3
#
#
#
# Elastic Constant Matrix: (Units=GPa)
#
#
# Indices 1 2 3 4 5 6 
#
# 1 27.8579 26.0096 17.2615 0.0000 0.0000 0.0000
# 2 26.0096 119.8845 60.5612 0.0000 0.0000 0.0000
# 3 17.2615 60.5612 174.6003 0.0000 0.0000 0.0000
# 4 0.0000 0.0000 0.0000 45.0501 0.0000 0.0000
# 5 0.0000 0.0000 0.0000 0.0000 18.9197 0.0000
# 6 0.0000 0.0000 0.0000 0.0000 0.0000 16.1799
#
#
#
# Elastic Compliance Matrix: (Units=1/GPa)
#
#
# Indices 1 2 3 4 5 6 
#
# 1 0.045255 -0.009164 -0.001295 0.000000 0.000000 0.000000
# 2 -0.009164 0.011969 -0.003246 0.000000 0.000000 0.000000
# 3 -0.001295 -0.003246 0.006981 0.000000 0.000000 0.000000
# 4 0.000000 0.000000 0.000000 0.022198 0.000000 0.000000
# 5 0.000000 0.000000 0.000000 0.000000 0.052855 0.000000
# 6 0.000000 0.000000 0.000000 0.000000 0.000000 0.061805
#
#
# Mechanical properties :
#
#
# Convention : Reuss Voigt Hill
#
# Bulk Modulus (GPa) = 27.17732 58.88969 43.03350
# Shear Modulus (GPa) = 20.76948 30.59730 25.68339
#
# Velocity S-wave (km/s) = 3.24853 3.94290 3.61243
# Velocity P-wave (km/s) = 5.28009 7.11690 6.26616
#
# Compressibility (1/GPa) = 0.03679539
#
# Stress axis : x y z
#
# Youngs Moduli (GPa) = 22.09699 83.54878 143.24203
#
# Poissons Ratio (x) = 0.76563 0.18557
# Poissons Ratio (y) = 0.20249 0.46490
# Poissons Ratio (z) = 0.02863 0.27116
#
# Static dielectric constant tensor:
#      x y z
#    x 3.175870 0.000000 0.000000 
#    y 0.000000 3.813110 0.000000 
#    z 0.000000 0.000000 4.596050 
# 
# 
# High freq. dielectric constant tensor:
#      x y z
#    x 1.722930 0.000000 0.000000 
#    y 0.000000 1.788050 0.000000 
#    z 0.000000 0.000000 1.791410 
# 
# From -- ./inp_files/6383.got.cif
#   From: 2010.03.12/outbox.cif.g09.slc.cpg/sg59_4_cif.got.tgz:6383.got - 2010.04.16 16:29:54.
