data_PCOD8242953
_publ_section_title
;
Structure prediction by ZEFSAII (Michael W. Deem and Ramdas Pophale) SiO2 
 PCOD8242953
Probable space group: P M M N
;
_chemical_formula_sum "Si O2"
_cell_formula_units_Z 40
_cell_length_a 17.347648
_cell_length_b 21.510883
_cell_length_c 5.213168
_cell_angle_alpha 90.000000
_cell_angle_beta 90.000000
_cell_angle_gamma 90.000000
_cell_volume 1945.362591
_symmetry_space_group_name_H-M "P M M N"
_symmetry_group_IT_number 59
_space_group.IT_coordinate_system_code '2'
_symmetry_cell_setting 'orthorhombic'
loop_
_space_group_symop_operation_xyz
x,y,z
1/2-x,1/2-y,z
1/2+x,-y,-z
-x,1/2+y,-z
-x,-y,-z
1/2+x,1/2+y,-z
1/2-x,y,z
x,1/2-y,z
loop_
_atom_site_type_symbol
_atom_site_label
_atom_site_fract_x
_atom_site_fract_y
_atom_site_fract_z
Si Si1 0.836294 0.137355 0.832585
Si Si2 0.160219 0.178456 0.876047
Si Si3 0.095775 0.382657 0.375814
Si Si4 0.663252 0.015464 0.570362
Si Si5 0.415075 0.875922 0.662538
O O1 0.750000 0.165509 0.836437
O O2 0.881695 0.157749 0.086054
O O3 0.883074 0.162555 0.583727
O O4 0.832595 0.061786 0.815344
O O5 0.250000 0.168822 0.823350
O O6 0.136084 0.250000 0.853727
O O7 0.114249 0.140153 0.662146
O O8 0.141874 0.155716 0.162571
O O9 0.117532 0.454473 0.348844
O O10 0.006216 0.374378 0.323773
O O11 0.750000 0.998935 0.475056
O O12 0.616543 0.052699 0.348067
#
# Coordination Sequence:
#
# PCOD8242953 Si02
#       5
#     8   8   8   8   8
#     4   9  18  32  50  73 117 160 185 211 252 318
#     4  11  25  44  61  79 107 144 191 242 284 328
#     4  12  23  36  60  86 110 146 191 232 284 327
#     4   9  20  33  52  80 119 158 187 215 259 334
#     4  10  20  33  51  82 119 148 185 228 266 322
#
# _framework density 20.561720000000001
#
# number of rings (size 3 to 8) (size 9 to 14) (size 15 to 20)
#    1.200    0.600    0.000    5.400    2.800    2.400 
#    0.000    0.000    0.000    0.000    0.000    0.000 
#    0.000   92.800    0.000    0.000    0.000    0.000 
#
# Total GULP energy -495764.554611 kJ/mol
# GULP energy per Si atom -12394.113865 kJ/mol
# Density = 2.051492 g / cm^3
# Si number density = 20.561720 Si / 1000 Ang^3
#
#
#
# Elastic Constant Matrix: (Units=GPa)
#
#
# Indices 1 2 3 4 5 6 
#
# 1 48.7358 0.8352 12.9171 0.0000 0.0000 0.0000
# 2 0.8352 21.4917 6.7978 0.0000 0.0000 0.0000
# 3 12.9171 6.7978 118.7910 0.0000 0.0000 0.0000
# 4 0.0000 0.0000 0.0000 5.8554 0.0000 0.0000
# 5 0.0000 0.0000 0.0000 0.0000 41.0091 0.0000
# 6 0.0000 0.0000 0.0000 0.0000 0.0000 13.0230
#
#
#
# Elastic Compliance Matrix: (Units=1/GPa)
#
#
# Indices 1 2 3 4 5 6 
#
# 1 0.021128 -0.000096 -0.002292 0.000000 0.000000 0.000000
# 2 -0.000096 0.047388 -0.002701 0.000000 0.000000 0.000000
# 3 -0.002292 -0.002701 0.008822 0.000000 0.000000 0.000000
# 4 0.000000 0.000000 0.000000 0.170782 0.000000 0.000000
# 5 0.000000 0.000000 0.000000 0.000000 0.024385 0.000000
# 6 0.000000 0.000000 0.000000 0.000000 0.000000 0.076787
#
#
# Mechanical properties :
#
#
# Convention : Reuss Voigt Hill
#
# Bulk Modulus (GPa) = 14.89002 25.56873 20.22938
# Shear Modulus (GPa) = 13.09392 23.20874 18.15133
#
# Velocity S-wave (km/s) = 2.52625 3.36331 2.97437
# Velocity P-wave (km/s) = 3.97072 5.24829 4.65356
#
# Compressibility (1/GPa) = 0.06715906
#
# Stress axis : x y z
#
# Youngs Moduli (GPa) = 47.33081 21.10246 113.35372
#
# Poissons Ratio (x) = 0.00203 0.25980
# Poissons Ratio (y) = 0.00455 0.30620
# Poissons Ratio (z) = 0.10848 0.05700
#
# Static dielectric constant tensor:
#      x y z
#    x 3.723550 0.000000 0.000000 
#    y 0.000000 3.310110 0.000000 
#    z 0.000000 0.000000 3.616400 
# 
# 
# High freq. dielectric constant tensor:
#      x y z
#    x 1.817640 0.000000 0.000000 
#    y 0.000000 1.768220 0.000000 
#    z 0.000000 0.000000 1.805570 
# 
# From -- ./inp_files/2013.got.cif
#   From: 2010.03.12/outbox.cif.g09.slc.cpg/sg59_2_cif.got.tgz:2013.got - 2010.04.16 16:29:54.
