data_PCOD8242558
_publ_section_title
;
Structure prediction by ZEFSAII (Michael W. Deem and Ramdas Pophale) SiO2 
 PCOD8242558
Probable space group: P M M N
;
_chemical_formula_sum "Si O2"
_cell_formula_units_Z 56
_cell_length_a 14.547446
_cell_length_b 9.177899
_cell_length_c 22.253345
_cell_angle_alpha 90.000000
_cell_angle_beta 90.000000
_cell_angle_gamma 90.000000
_cell_volume 2971.155137
_symmetry_space_group_name_H-M "P M M N"
_symmetry_group_IT_number 59
_space_group.IT_coordinate_system_code '2'
_symmetry_cell_setting 'orthorhombic'
loop_
_space_group_symop_operation_xyz
x,y,z
1/2-x,1/2-y,z
1/2+x,-y,-z
-x,1/2+y,-z
-x,-y,-z
1/2+x,1/2+y,-z
1/2-x,y,z
x,1/2-y,z
loop_
_atom_site_type_symbol
_atom_site_label
_atom_site_fract_x
_atom_site_fract_y
_atom_site_fract_z
Si Si1 0.385255 0.581819 0.866328
Si Si2 0.461238 0.577587 0.294147
Si Si3 0.083884 0.079996 0.175182
Si Si4 0.347589 0.085659 0.751683
Si Si5 0.642105 0.918856 0.471264
Si Si6 0.750000 0.921107 0.906956
Si Si7 0.750000 0.420038 0.032393
Si Si8 0.522713 0.580587 0.588174
O O1 0.364799 0.750000 0.856039
O O2 0.492965 0.545698 0.863388
O O3 0.334635 0.502353 0.812469
O O4 0.341173 0.534332 0.929899
O O5 0.443318 0.750000 0.298569
O O6 0.408872 0.513356 0.236286
O O7 0.568895 0.531869 0.289309
O O8 0.429755 0.498709 0.354947
O O9 0.091627 0.250000 0.192630
O O10 0.163194 0.027124 0.131249
O O11 0.250000 0.073799 0.715994
O O12 0.369386 0.250000 0.771160
O O13 0.750000 0.969091 0.470028
O O14 0.635203 0.750000 0.451999
O O15 0.599142 0.942590 0.537039
O O16 0.577477 0.011240 0.426403
O O17 0.750000 0.750000 0.917604
O O18 0.750000 0.993999 0.971150
O O19 0.750000 0.250000 0.017125
O O20 0.506380 0.750000 0.601788
#
# Coordination Sequence:
#
# PCOD8242558 Si02
#       8
#     8   8   8   8   8   4   4   8
#     4   9  17  31  51  74 100 130 164 206 260 318
#     4  10  20  34  53  78 108 142 179 218 266 320
#     4   9  19  37  56  73 100 137 177 222 267 311
#     4   9  17  29  47  72 101 133 169 210 258 313
#     4   9  19  37  59  81 110 148 184 223 271 317
#     4  10  22  38  54  74 100 136 179 222 267 312
#     4  10  20  32  50  78 106 132 165 210 265 326
#     4  10  20  35  56  83 113 144 183 226 268 319
#
# _framework density 18.847888999999999
#
# number of rings (size 3 to 8) (size 9 to 14) (size 15 to 20)
#    0.000    2.571    0.714    0.857    0.000    3.714 
#    1.286    1.429    0.000    0.000    0.000    0.000 
#    0.000    0.000    0.000    0.000    0.000    0.000 
#
# Total GULP energy -694078.429676 kJ/mol
# GULP energy per Si atom -12394.257673 kJ/mol
# Density = 1.880499 g / cm^3
# Si number density = 18.847889 Si / 1000 Ang^3
#
#
#
# Elastic Constant Matrix: (Units=GPa)
#
#
# Indices 1 2 3 4 5 6 
#
# 1 83.0950 22.4894 25.8277 0.0000 0.0000 0.0000
# 2 22.4894 69.5892 51.5546 0.0000 0.0000 0.0000
# 3 25.8277 51.5546 114.4269 0.0000 0.0000 0.0000
# 4 0.0000 0.0000 0.0000 37.1595 0.0000 0.0000
# 5 0.0000 0.0000 0.0000 0.0000 12.9490 0.0000
# 6 0.0000 0.0000 0.0000 0.0000 0.0000 19.3992
#
#
#
# Elastic Compliance Matrix: (Units=1/GPa)
#
#
# Indices 1 2 3 4 5 6 
#
# 1 0.013382 -0.003133 -0.001609 0.000000 0.000000 0.000000
# 2 -0.003133 0.022303 -0.009341 0.000000 0.000000 0.000000
# 3 -0.001609 -0.009341 0.013311 0.000000 0.000000 0.000000
# 4 0.000000 0.000000 0.000000 0.026911 0.000000 0.000000
# 5 0.000000 0.000000 0.000000 0.000000 0.077226 0.000000
# 6 0.000000 0.000000 0.000000 0.000000 0.000000 0.051548
#
#
# Mechanical properties :
#
#
# Convention : Reuss Voigt Hill
#
# Bulk Modulus (GPa) = 48.00776 51.87271 49.94023
# Shear Modulus (GPa) = 20.85139 25.05083 22.95111
#
# Velocity S-wave (km/s) = 3.32972 3.64965 3.49334
# Velocity P-wave (km/s) = 6.34895 6.73360 6.54410
#
# Compressibility (1/GPa) = 0.02082997
#
# Stress axis : x y z
#
# Youngs Moduli (GPa) = 74.72478 44.83710 75.12500
#
# Poissons Ratio (x) = 0.14046 0.12089
# Poissons Ratio (y) = 0.23409 0.70177
# Poissons Ratio (z) = 0.12024 0.41884
#
# Static dielectric constant tensor:
#      x y z
#    x 3.887930 0.000000 0.000000 
#    y 0.000000 3.427880 0.000000 
#    z 0.000000 0.000000 3.325860 
# 
# 
# High freq. dielectric constant tensor:
#      x y z
#    x 1.732630 0.000000 0.000000 
#    y 0.000000 1.729190 0.000000 
#    z 0.000000 0.000000 1.724010 
# 
# From -- ./inp_files/30511.got.cif
#   From: 2010.03.12/outbox.cif.g09.slc.cpg/sg59_16_cif.got.tgz:30511.got - 2010.04.16 16:29:54.
