data_PCOD8242302
_publ_section_title
;
Structure prediction by ZEFSAII (Michael W. Deem and Ramdas Pophale) SiO2 
 PCOD8242302
Probable space group: P M M N
;
_chemical_formula_sum "Si O2"
_cell_formula_units_Z 48
_cell_length_a 24.868797
_cell_length_b 9.352680
_cell_length_c 12.550641
_cell_angle_alpha 90.000000
_cell_angle_beta 90.000000
_cell_angle_gamma 90.000000
_cell_volume 2919.152339
_symmetry_space_group_name_H-M "P M M N"
_symmetry_group_IT_number 59
_space_group.IT_coordinate_system_code '2'
_symmetry_cell_setting 'orthorhombic'
loop_
_space_group_symop_operation_xyz
x,y,z
1/2-x,1/2-y,z
1/2+x,-y,-z
-x,1/2+y,-z
-x,-y,-z
1/2+x,1/2+y,-z
1/2-x,y,z
x,1/2-y,z
loop_
_atom_site_type_symbol
_atom_site_label
_atom_site_fract_x
_atom_site_fract_y
_atom_site_fract_z
Si Si1 0.686640 0.085591 0.240944
Si Si2 0.100203 0.417461 0.355009
Si Si3 0.882544 0.911565 0.398059
Si Si4 0.001591 0.584551 0.390931
Si Si5 0.190279 0.079989 0.193146
Si Si6 0.686158 0.908704 0.041001
O O1 0.750000 0.063240 0.253448
O O2 0.670503 0.250000 0.234494
O O3 0.659051 0.018008 0.344002
O O4 0.664234 0.012009 0.133371
O O5 0.088482 0.250000 0.337181
O O6 0.115019 0.450197 0.477072
O O7 0.149041 0.474621 0.282411
O O8 0.047104 0.506981 0.319278
O O9 0.861232 0.750000 0.383966
O O10 0.941436 0.926638 0.342496
O O11 0.017043 0.750000 0.410286
O O12 0.000000 0.500000 0.500000
O O13 0.250000 0.017517 0.217512
O O14 0.193623 0.250000 0.193692
O O15 0.169633 0.031133 0.075759
O O16 0.750000 0.900692 0.044885
O O17 0.662067 0.750000 0.060264
#
# Coordination Sequence:
#
# PCOD8242302 Si02
#       6
#     8   8   8   8   8   8
#     4  10  20  31  44  65  92 119 147 184 228 267
#     4   9  17  29  47  71  95 119 148 182 222 265
#     4   9  18  30  45  66  90 119 152 182 216 262
#     4   9  17  30  47  66  88 116 152 189 222 260
#     4   8  14  26  46  71  95 119 149 183 218 262
#     4   8  14  27  47  66  85 115 153 186 216 257
#
# _framework density 16.443128999999999
#
# number of rings (size 3 to 8) (size 9 to 14) (size 15 to 20)
#    0.000    3.167    0.000    3.000    0.000    5.000 
#    0.000    2.500    0.000    2.500    0.000    0.000 
#    0.000    0.000    0.000    0.000    0.000    0.000 
#
# Total GULP energy -594854.833493 kJ/mol
# GULP energy per Si atom -12392.809031 kJ/mol
# Density = 1.640570 g / cm^3
# Si number density = 16.443129 Si / 1000 Ang^3
#
#
#
# Elastic Constant Matrix: (Units=GPa)
#
#
# Indices 1 2 3 4 5 6 
#
# 1 54.3669 41.7308 38.6654 0.0000 0.0000 0.0000
# 2 41.7308 87.1570 43.6473 0.0000 0.0000 0.0000
# 3 38.6654 43.6473 82.0091 0.0000 0.0000 0.0000
# 4 0.0000 0.0000 0.0000 16.1262 0.0000 0.0000
# 5 0.0000 0.0000 0.0000 0.0000 4.7553 0.0000
# 6 0.0000 0.0000 0.0000 0.0000 0.0000 27.5362
#
#
#
# Elastic Compliance Matrix: (Units=1/GPa)
#
#
# Indices 1 2 3 4 5 6 
#
# 1 0.034319 -0.011356 -0.010137 0.000000 0.000000 0.000000
# 2 -0.011356 0.019400 -0.004971 0.000000 0.000000 0.000000
# 3 -0.010137 -0.004971 0.019619 0.000000 0.000000 0.000000
# 4 0.000000 0.000000 0.000000 0.062011 0.000000 0.000000
# 5 0.000000 0.000000 0.000000 0.000000 0.210293 0.000000
# 6 0.000000 0.000000 0.000000 0.000000 0.000000 0.036316
#
#
# Mechanical properties :
#
#
# Convention : Reuss Voigt Hill
#
# Bulk Modulus (GPa) = 48.99429 52.40222 50.69826
# Shear Modulus (GPa) = 11.32017 16.31616 13.81816
#
# Velocity S-wave (km/s) = 2.62667 3.15346 2.90204
# Velocity P-wave (km/s) = 6.24981 6.72287 6.49065
#
# Compressibility (1/GPa) = 0.02041054
#
# Stress axis : x y z
#
# Youngs Moduli (GPa) = 29.13825 51.54573 50.97095
#
# Poissons Ratio (x) = 0.58533 0.51669
# Poissons Ratio (y) = 0.33088 0.25340
# Poissons Ratio (z) = 0.29537 0.25626
#
# Static dielectric constant tensor:
#      x y z
#    x 3.376380 0.000000 0.000000 
#    y 0.000000 3.115500 0.000000 
#    z 0.000000 0.000000 3.118180 
# 
# 
# High freq. dielectric constant tensor:
#      x y z
#    x 1.617530 0.000000 0.000000 
#    y 0.000000 1.621970 0.000000 
#    z 0.000000 0.000000 1.615310 
# 
# From -- ./inp_files/14467.got.cif
#   From: 2010.03.12/outbox.cif.g09.slc.cpg/sg59_8_cif.got.tgz:14467.got - 2010.04.16 16:29:54.
