data_PCOD8242668
_publ_section_title
;
Structure prediction by ZEFSAII (Michael W. Deem and Ramdas Pophale) SiO2 
 PCOD8242668
Probable space group: P M M N
;
_chemical_formula_sum "Si O2"
_cell_formula_units_Z 56
_cell_length_a 10.211103
_cell_length_b 27.519128
_cell_length_c 11.430357
_cell_angle_alpha 90.000000
_cell_angle_beta 90.000000
_cell_angle_gamma 90.000000
_cell_volume 3211.937752
_symmetry_space_group_name_H-M "P M M N"
_symmetry_group_IT_number 59
_space_group.IT_coordinate_system_code '2'
_symmetry_cell_setting 'orthorhombic'
loop_
_space_group_symop_operation_xyz
x,y,z
1/2-x,1/2-y,z
1/2+x,-y,-z
-x,1/2+y,-z
-x,-y,-z
1/2+x,1/2+y,-z
1/2-x,y,z
x,1/2-y,z
loop_
_atom_site_type_symbol
_atom_site_label
_atom_site_fract_x
_atom_site_fract_y
_atom_site_fract_z
Si Si1 0.022049 0.391168 0.943902
Si Si2 0.603698 0.695346 0.904938
Si Si3 0.605156 0.957614 0.244703
Si Si4 0.100675 0.561863 0.831173
Si Si5 0.100888 0.613937 0.289731
Si Si6 0.901422 0.160370 0.284489
Si Si7 0.904785 0.303849 0.536456
O O1 0.972967 0.422022 0.053043
O O2 0.087600 0.341359 0.986689
O O3 0.907221 0.376882 0.850680
O O4 0.122411 0.426451 0.875395
O O5 0.750000 0.687805 0.851755
O O6 0.588268 0.750000 0.953812
O O7 0.493461 0.687722 0.807195
O O8 0.750000 0.960683 0.303788
O O9 0.497033 0.930485 0.326206
O O10 0.546276 0.010993 0.218207
O O11 0.250000 0.554052 0.867531
O O12 0.084513 0.602384 0.730493
O O13 0.250000 0.601009 0.325215
O O14 0.049324 0.661522 0.358118
O O15 0.750000 0.176397 0.262986
O O16 0.951595 0.174010 0.413143
O O17 0.750000 0.300070 0.536400
O O18 0.965986 0.250000 0.553685
#
# Coordination Sequence:
#
# PCOD8242668 Si02
#       7
#     8   8   8   8   8   8   8
#     4   9  18  30  49  69  99 128 163 196 238 290
#     4  10  20  33  49  71 101 131 159 198 249 298
#     4   9  18  31  48  70 100 133 163 196 243 295
#     4   9  16  29  49  76 100 127 161 200 247 292
#     4   9  19  32  49  71  98 127 166 208 238 281
#     4   9  18  33  54  76  98 124 163 208 248 294
#     4   9  17  32  53  74  96 127 166 207 250 291
#
# _framework density 17.434957000000001
#
# number of rings (size 3 to 8) (size 9 to 14) (size 15 to 20)
#    0.857    2.000    0.000    1.714    0.000    2.000 
#    0.000    4.286    0.000    1.286    0.000    0.000 
#    0.000    0.000    0.000    0.000    0.000    0.000 
#
# Total GULP energy -693787.421312 kJ/mol
# GULP energy per Si atom -12389.061095 kJ/mol
# Density = 1.739527 g / cm^3
# Si number density = 17.434957 Si / 1000 Ang^3
#
#
#
# Elastic Constant Matrix: (Units=GPa)
#
#
# Indices 1 2 3 4 5 6 
#
# 1 65.7941 34.7106 12.5856 0.0000 0.0000 0.0000
# 2 34.7106 132.7770 27.5962 0.0000 0.0000 0.0000
# 3 12.5856 27.5962 39.1782 0.0000 0.0000 0.0000
# 4 0.0000 0.0000 0.0000 25.0525 0.0000 0.0000
# 5 0.0000 0.0000 0.0000 0.0000 14.7976 0.0000
# 6 0.0000 0.0000 0.0000 0.0000 0.0000 25.5223
#
#
#
# Elastic Compliance Matrix: (Units=1/GPa)
#
#
# Indices 1 2 3 4 5 6 
#
# 1 0.017903 -0.004083 -0.002875 0.000000 0.000000 0.000000
# 2 -0.004083 0.009754 -0.005559 0.000000 0.000000 0.000000
# 3 -0.002875 -0.005559 0.030364 0.000000 0.000000 0.000000
# 4 0.000000 0.000000 0.000000 0.039916 0.000000 0.000000
# 5 0.000000 0.000000 0.000000 0.000000 0.067579 0.000000
# 6 0.000000 0.000000 0.000000 0.000000 0.000000 0.039181
#
#
# Mechanical properties :
#
#
# Convention : Reuss Voigt Hill
#
# Bulk Modulus (GPa) = 30.31542 43.05936 36.68739
# Shear Modulus (GPa) = 20.77046 23.93159 22.35103
#
# Velocity S-wave (km/s) = 3.45528 3.70891 3.58434
# Velocity P-wave (km/s) = 5.77444 6.56446 6.18208
#
# Compressibility (1/GPa) = 0.03298652
#
# Stress axis : x y z
#
# Youngs Moduli (GPa) = 55.85728 102.52139 32.93398
#
# Poissons Ratio (x) = 0.41854 0.09470
# Poissons Ratio (y) = 0.22804 0.18308
# Poissons Ratio (z) = 0.16062 0.56992
#
# Static dielectric constant tensor:
#      x y z
#    x 3.040520 0.000000 0.000000 
#    y 0.000000 3.494960 0.000000 
#    z 0.000000 0.000000 3.018810 
# 
# 
# High freq. dielectric constant tensor:
#      x y z
#    x 1.655680 0.000000 0.000000 
#    y 0.000000 1.686390 0.000000 
#    z 0.000000 0.000000 1.645800 
# 
# From -- ./inp_files/16290.got.cif
#   From: 2010.03.12/outbox.cif.g09.slc.cpg/sg59_9_cif.got.tgz:16290.got - 2010.04.16 16:29:54.
