data_PCOD8242485
_publ_section_title
;
Structure prediction by ZEFSAII (Michael W. Deem and Ramdas Pophale) SiO2 
 PCOD8242485
Probable space group: P M M N
;
_chemical_formula_sum "Si O2"
_cell_formula_units_Z 40
_cell_length_a 18.111337
_cell_length_b 8.959534
_cell_length_c 13.631441
_cell_angle_alpha 90.000000
_cell_angle_beta 90.000000
_cell_angle_gamma 90.000000
_cell_volume 2211.962203
_symmetry_space_group_name_H-M "P M M N"
_symmetry_group_IT_number 59
_space_group.IT_coordinate_system_code '2'
_symmetry_cell_setting 'orthorhombic'
loop_
_space_group_symop_operation_xyz
x,y,z
1/2-x,1/2-y,z
1/2+x,-y,-z
-x,1/2+y,-z
-x,-y,-z
1/2+x,1/2+y,-z
1/2-x,y,z
x,1/2-y,z
loop_
_atom_site_type_symbol
_atom_site_label
_atom_site_fract_x
_atom_site_fract_y
_atom_site_fract_z
Si Si1 0.472621 0.573655 0.098803
Si Si2 0.109659 0.080426 0.388278
Si Si3 0.667621 0.426450 0.421739
Si Si4 0.960151 0.423599 0.283035
Si Si5 0.666619 0.577730 0.821643
O O1 0.477088 0.750000 0.089720
O O2 0.525567 0.520286 0.186549
O O3 0.387941 0.525729 0.116298
O O4 0.500000 0.500000 0.000000
O O5 0.122044 0.250000 0.422382
O O6 0.159385 0.042869 0.293642
O O7 0.024297 0.050220 0.362840
O O8 0.134274 0.974279 0.475000
O O9 0.750000 0.492354 0.406495
O O10 0.669460 0.250000 0.422829
O O11 0.616016 0.480221 0.331918
O O12 0.957369 0.250000 0.252312
O O13 0.750000 0.543836 0.855569
O O14 0.644774 0.750000 0.840511
#
# Coordination Sequence:
#
# PCOD8242485 Si02
#       5
#     8   8   8   8   8
#     4  11  22  37  58  80 102 132 173 217 263 314
#     4   9  17  30  50  74 102 138 173 205 248 304
#     4  10  20  32  48  73 105 139 173 212 256 300
#     4   9  19  36  53  71 100 136 174 215 260 310
#     4   9  18  34  55  80 110 139 168 209 261 310
#
# _framework density 18.083490999999999
#
# number of rings (size 3 to 8) (size 9 to 14) (size 15 to 20)
#    0.000    2.400    0.000    4.200    0.000    5.600 
#    0.000    1.000    0.000    3.600    0.000    0.000 
#    0.000    0.000    0.000    0.000    0.000    0.000 
#
# Total GULP energy -496022.468056 kJ/mol
# GULP energy per Si atom -12400.561701 kJ/mol
# Density = 1.804233 g / cm^3
# Si number density = 18.083491 Si / 1000 Ang^3
#
#
#
# Elastic Constant Matrix: (Units=GPa)
#
#
# Indices 1 2 3 4 5 6 
#
# 1 122.0081 49.7190 74.8015 0.0000 0.0000 0.0000
# 2 49.7190 80.8772 55.8481 0.0000 0.0000 0.0000
# 3 74.8015 55.8481 111.9387 0.0000 0.0000 0.0000
# 4 0.0000 0.0000 0.0000 33.5197 0.0000 0.0000
# 5 0.0000 0.0000 0.0000 0.0000 16.5298 0.0000
# 6 0.0000 0.0000 0.0000 0.0000 0.0000 24.7217
#
#
#
# Elastic Compliance Matrix: (Units=1/GPa)
#
#
# Indices 1 2 3 4 5 6 
#
# 1 0.014467 -0.003384 -0.007979 0.000000 0.000000 0.000000
# 2 -0.003384 0.019654 -0.007545 0.000000 0.000000 0.000000
# 3 -0.007979 -0.007545 0.018030 0.000000 0.000000 0.000000
# 4 0.000000 0.000000 0.000000 0.029833 0.000000 0.000000
# 5 0.000000 0.000000 0.000000 0.000000 0.060497 0.000000
# 6 0.000000 0.000000 0.000000 0.000000 0.000000 0.040450
#
#
# Mechanical properties :
#
#
# Convention : Reuss Voigt Hill
#
# Bulk Modulus (GPa) = 69.75582 75.06236 72.40909
# Shear Modulus (GPa) = 22.17045 23.91793 23.04419
#
# Velocity S-wave (km/s) = 3.50523 3.64076 3.57364
# Velocity P-wave (km/s) = 7.41891 7.69885 7.56018
#
# Compressibility (1/GPa) = 0.01433572
#
# Stress axis : x y z
#
# Youngs Moduli (GPa) = 69.12296 50.87897 55.46404
#
# Poissons Ratio (x) = 0.17216 0.44256
# Poissons Ratio (y) = 0.23389 0.41847
# Poissons Ratio (z) = 0.55154 0.38387
#
# Static dielectric constant tensor:
#      x y z
#    x 52.474740 0.000000 0.000000 
#    y 0.000000 3.025770 0.000000 
#    z 0.000000 0.000000 3.188460 
# 
# 
# High freq. dielectric constant tensor:
#      x y z
#    x 1.708090 0.000000 0.000000 
#    y 0.000000 1.692160 0.000000 
#    z 0.000000 0.000000 1.686150 
# 
# From -- ./inp_files/14079.got.cif
#   From: 2010.03.12/outbox.cif.g09.slc.cpg/sg59_8_cif.got.tgz:14079.got - 2010.04.16 16:29:54.
