data_PCOD8242523
_publ_section_title
;
Structure prediction by ZEFSAII (Michael W. Deem and Ramdas Pophale) SiO2 
 PCOD8242523
Probable space group: P M M N
;
_chemical_formula_sum "Si O2"
_cell_formula_units_Z 64
_cell_length_a 9.214751
_cell_length_b 17.690554
_cell_length_c 22.518480
_cell_angle_alpha 90.000000
_cell_angle_beta 90.000000
_cell_angle_gamma 90.000000
_cell_volume 3670.828628
_symmetry_space_group_name_H-M "P M M N"
_symmetry_group_IT_number 59
_space_group.IT_coordinate_system_code '2'
_symmetry_cell_setting 'orthorhombic'
loop_
_space_group_symop_operation_xyz
x,y,z
1/2-x,1/2-y,z
1/2+x,-y,-z
-x,1/2+y,-z
-x,-y,-z
1/2+x,1/2+y,-z
1/2-x,y,z
x,1/2-y,z
loop_
_atom_site_type_symbol
_atom_site_label
_atom_site_fract_x
_atom_site_fract_y
_atom_site_fract_z
Si Si1 0.081782 0.454244 0.137905
Si Si2 0.914464 0.399254 0.935837
Si Si3 0.584710 0.334873 0.812572
Si Si4 0.415790 0.432722 0.469822
Si Si5 0.414904 0.528310 0.360665
Si Si6 0.420735 0.165429 0.045029
Si Si7 0.581465 0.336194 0.551896
Si Si8 0.078061 0.029227 0.758961
O O1 0.250000 0.458143 0.156840
O O2 0.047007 0.518267 0.089257
O O3 0.040649 0.374677 0.107520
O O4 0.986019 0.465919 0.196659
O O5 0.750000 0.395582 0.958983
O O6 0.941459 0.339027 0.883217
O O7 0.017089 0.381336 0.990392
O O8 0.750000 0.360819 0.798668
O O9 0.556981 0.250000 0.790676
O O10 0.474340 0.387563 0.777446
O O11 0.500000 0.500000 0.500000
O O12 0.250000 0.431014 0.491527
O O13 0.424253 0.451267 0.399737
O O14 0.492642 0.355044 0.491169
O O15 0.250000 0.539600 0.337741
O O16 0.462615 0.604560 0.396285
O O17 0.524016 0.513496 0.307163
O O18 0.250000 0.166752 0.035730
O O19 0.485644 0.250000 0.047023
O O20 0.750000 0.346138 0.536606
O O21 0.546239 0.250000 0.571748
O O22 0.250000 0.025239 0.761169
#
# Coordination Sequence:
#
# PCOD8242523 Si02
#       8
#     8   8   8   8   8   8   8   8
#     4   9  19  36  52  66  93 131 165 196 238 298
#     4   9  17  30  49  71  94 124 159 191 231 291
#     4   9  18  33  50  67  94 133 167 193 233 293
#     4   9  17  30  50  74  99 130 166 201 237 279
#     4   9  18  33  51  71  98 134 171 200 234 287
#     4  10  20  32  49  74  98 120 151 197 251 298
#     4   9  18  32  51  77 108 138 164 193 235 286
#     4  11  22  33  49  73  96 122 164 212 249 279
#
# _framework density 17.434756
#
# number of rings (size 3 to 8) (size 9 to 14) (size 15 to 20)
#    0.000    2.625    0.000    3.750    0.000    6.750 
#    0.000    1.250    0.000    0.750    0.000    1.750 
#    0.000    0.000    0.000    0.000    0.000    0.000 
#
# Total GULP energy -793355.956974 kJ/mol
# GULP energy per Si atom -12396.186828 kJ/mol
# Density = 1.739507 g / cm^3
# Si number density = 17.434756 Si / 1000 Ang^3
#
#
#
# Elastic Constant Matrix: (Units=GPa)
#
#
# Indices 1 2 3 4 5 6 
#
# 1 93.0722 33.1070 59.9930 0.0000 0.0000 0.0000
# 2 33.1070 56.1513 41.9412 0.0000 0.0000 0.0000
# 3 59.9930 41.9412 100.5309 0.0000 0.0000 0.0000
# 4 0.0000 0.0000 0.0000 13.9251 0.0000 0.0000
# 5 0.0000 0.0000 0.0000 0.0000 31.9643 0.0000
# 6 0.0000 0.0000 0.0000 0.0000 0.0000 21.7372
#
#
#
# Elastic Compliance Matrix: (Units=1/GPa)
#
#
# Indices 1 2 3 4 5 6 
#
# 1 0.017991 -0.003760 -0.009168 0.000000 0.000000 0.000000
# 2 -0.003760 0.026657 -0.008877 0.000000 0.000000 0.000000
# 3 -0.009168 -0.008877 0.019122 0.000000 0.000000 0.000000
# 4 0.000000 0.000000 0.000000 0.071813 0.000000 0.000000
# 5 0.000000 0.000000 0.000000 0.000000 0.031285 0.000000
# 6 0.000000 0.000000 0.000000 0.000000 0.000000 0.046004
#
#
# Mechanical properties :
#
#
# Convention : Reuss Voigt Hill
#
# Bulk Modulus (GPa) = 49.60439 57.75967 53.68203
# Shear Modulus (GPa) = 18.99686 21.17286 20.08486
#
# Velocity S-wave (km/s) = 3.30449 3.48861 3.39780
# Velocity P-wave (km/s) = 6.56298 7.03052 6.80077
#
# Compressibility (1/GPa) = 0.02015951
#
# Stress axis : x y z
#
# Youngs Moduli (GPa) = 55.58244 37.51420 52.29638
#
# Poissons Ratio (x) = 0.14105 0.47945
# Poissons Ratio (y) = 0.20899 0.46425
# Poissons Ratio (z) = 0.50957 0.33302
#
# Static dielectric constant tensor:
#      x y z
#    x 3.254490 0.000000 0.000000 
#    y 0.000000 3.600720 0.000000 
#    z 0.000000 0.000000 3.244830 
# 
# 
# High freq. dielectric constant tensor:
#      x y z
#    x 1.670600 0.000000 0.000000 
#    y 0.000000 1.660220 0.000000 
#    z 0.000000 0.000000 1.659690 
# 
# From -- ./inp_files/29434.got.cif
#   From: 2010.03.12/outbox.cif.g09.slc.cpg/sg59_15_cif.got.tgz:29434.got - 2010.04.16 16:29:54.
