data_PCOD8242922
_publ_section_title
;
Structure prediction by ZEFSAII (Michael W. Deem and Ramdas Pophale) SiO2 
 PCOD8242922
Probable space group: P M M N
;
_chemical_formula_sum "Si O2"
_cell_formula_units_Z 64
_cell_length_a 13.864547
_cell_length_b 9.223058
_cell_length_c 25.711182
_cell_angle_alpha 90.000000
_cell_angle_beta 90.000000
_cell_angle_gamma 90.000000
_cell_volume 3287.779375
_symmetry_space_group_name_H-M "P M M N"
_symmetry_group_IT_number 59
_space_group.IT_coordinate_system_code '2'
_symmetry_cell_setting 'orthorhombic'
loop_
_space_group_symop_operation_xyz
x,y,z
1/2-x,1/2-y,z
1/2+x,-y,-z
-x,1/2+y,-z
-x,-y,-z
1/2+x,1/2+y,-z
1/2-x,y,z
x,1/2-y,z
loop_
_atom_site_type_symbol
_atom_site_label
_atom_site_fract_x
_atom_site_fract_y
_atom_site_fract_z
Si Si1 0.138508 0.918635 0.910509
Si Si2 0.467638 0.578112 0.126937
Si Si3 0.864909 0.913779 0.482519
Si Si4 0.364258 0.912781 0.418959
Si Si5 0.358392 0.583745 0.618798
Si Si6 0.952523 0.583486 0.674335
Si Si7 0.862301 0.917668 0.782557
Si Si8 0.644093 0.078093 0.973390
O O1 0.250000 0.948120 0.897559
O O2 0.113724 0.750000 0.903878
O O3 0.113420 0.974137 0.969010
O O4 0.074673 0.010058 0.869537
O O5 0.472540 0.750000 0.132161
O O6 0.397612 0.518202 0.170961
O O7 0.427629 0.523757 0.071156
O O8 0.750000 0.917314 0.485322
O O9 0.904209 0.750000 0.484500
O O10 0.908705 0.001571 0.531535
O O11 0.897996 0.987177 0.428682
O O12 0.250000 0.911569 0.422922
O O13 0.405729 0.750000 0.419945
O O14 0.392774 0.988065 0.365576
O O15 0.250000 0.537798 0.636284
O O16 0.358357 0.750000 0.599847
O O17 0.432084 0.560929 0.666754
O O18 0.922803 0.750000 0.664757
O O19 0.923872 0.535927 0.732184
O O20 0.750000 0.947921 0.771724
O O21 0.880275 0.750000 0.796844
O O22 0.750000 0.015321 0.960273
O O23 0.649432 0.250000 0.974100
#
# Coordination Sequence:
#
# PCOD8242922 Si02
#       8
#     8   8   8   8   8   8   8   8
#     4   9  18  34  55  78 109 149 188 225 266 316
#     4  11  21  33  54  82 112 145 181 225 274 323
#     4   9  17  30  50  76 106 140 174 207 249 307
#     4  10  20  33  51  77 108 139 172 214 264 317
#     4   9  18  34  55  78 104 132 166 212 262 310
#     4  10  21  37  57  78 101 135 178 222 266 310
#     4  10  22  40  59  79 106 139 177 222 268 319
#     4   8  15  29  50  78 111 146 183 222 267 320
#
# _framework density 19.466025999999999
#
# number of rings (size 3 to 8) (size 9 to 14) (size 15 to 20)
#    0.000    2.500    0.000    3.000    0.000    5.250 
#    0.000    1.250    0.000    3.750    0.000    0.000 
#    0.000    0.000    0.000    0.000    0.000    0.000 
#
# Total GULP energy -793567.287630 kJ/mol
# GULP energy per Si atom -12399.488869 kJ/mol
# Density = 1.942172 g / cm^3
# Si number density = 19.466026 Si / 1000 Ang^3
#
#
#
# Elastic Constant Matrix: (Units=GPa)
#
#
# Indices 1 2 3 4 5 6 
#
# 1 79.1975 42.2485 49.2981 0.0000 0.0000 0.0000
# 2 42.2485 87.8214 43.3657 0.0000 0.0000 0.0000
# 3 49.2981 43.3657 76.1854 0.0000 0.0000 0.0000
# 4 0.0000 0.0000 0.0000 30.6323 0.0000 0.0000
# 5 0.0000 0.0000 0.0000 0.0000 33.1191 0.0000
# 6 0.0000 0.0000 0.0000 0.0000 0.0000 23.8235
#
#
#
# Elastic Compliance Matrix: (Units=1/GPa)
#
#
# Indices 1 2 3 4 5 6 
#
# 1 0.022671 -0.005094 -0.011770 0.000000 0.000000 0.000000
# 2 -0.005094 0.016983 -0.006371 0.000000 0.000000 0.000000
# 3 -0.011770 -0.006371 0.024368 0.000000 0.000000 0.000000
# 4 0.000000 0.000000 0.000000 0.032645 0.000000 0.000000
# 5 0.000000 0.000000 0.000000 0.000000 0.030194 0.000000
# 6 0.000000 0.000000 0.000000 0.000000 0.000000 0.041975
#
#
# Mechanical properties :
#
#
# Convention : Reuss Voigt Hill
#
# Bulk Modulus (GPa) = 56.97266 57.00321 56.98793
# Shear Modulus (GPa) = 22.60827 24.73445 23.67136
#
# Velocity S-wave (km/s) = 3.41166 3.56848 3.49095
# Velocity P-wave (km/s) = 6.69705 6.80630 6.75190
#
# Compressibility (1/GPa) = 0.01755228
#
# Stress axis : x y z
#
# Youngs Moduli (GPa) = 44.10967 58.88143 41.03681
#
# Poissons Ratio (x) = 0.29996 0.48301
# Poissons Ratio (y) = 0.22471 0.26143
# Poissons Ratio (z) = 0.51917 0.37512
#
# Static dielectric constant tensor:
#      x y z
#    x 3.635120 0.000000 0.000000 
#    y 0.000000 3.460820 0.000000 
#    z 0.000000 0.000000 3.430730 
# 
# 
# High freq. dielectric constant tensor:
#      x y z
#    x 1.768990 0.000000 0.000000 
#    y 0.000000 1.746950 0.000000 
#    z 0.000000 0.000000 1.738120 
# 
# From -- ./inp_files/32105.got.cif
#   From: 2010.03.12/outbox.cif.g09.slc.cpg/sg59_17_cif.got.tgz:32105.got - 2010.04.16 16:29:54.
