data_PCOD8242963
_publ_section_title
;
Structure prediction by ZEFSAII (Michael W. Deem and Ramdas Pophale) SiO2 
 PCOD8242963
Probable space group: P M M N
;
_chemical_formula_sum "Si O2"
_cell_formula_units_Z 48
_cell_length_a 31.001624
_cell_length_b 9.019714
_cell_length_c 9.302849
_cell_angle_alpha 90.000000
_cell_angle_beta 90.000000
_cell_angle_gamma 90.000000
_cell_volume 2601.316427
_symmetry_space_group_name_H-M "P M M N"
_symmetry_group_IT_number 59
_space_group.IT_coordinate_system_code '2'
_symmetry_cell_setting 'orthorhombic'
loop_
_space_group_symop_operation_xyz
x,y,z
1/2-x,1/2-y,z
1/2+x,-y,-z
-x,1/2+y,-z
-x,-y,-z
1/2+x,1/2+y,-z
1/2-x,y,z
x,1/2-y,z
loop_
_atom_site_type_symbol
_atom_site_label
_atom_site_fract_x
_atom_site_fract_y
_atom_site_fract_z
Si Si1 0.250000 0.918264 0.656527
Si Si2 0.334930 0.077911 0.321086
Si Si3 0.496651 0.421898 0.848712
Si Si4 0.250000 0.583671 0.314711
Si Si5 0.408061 0.916944 0.156849
Si Si6 0.586369 0.077851 0.182714
Si Si7 0.163806 0.424451 0.654301
O O1 0.250000 0.750000 0.714995
O O2 0.250000 0.921826 0.485602
O O3 0.292159 0.003206 0.714069
O O4 0.326428 0.250000 0.300536
O O5 0.342574 0.037398 0.487024
O O6 0.292952 0.996150 0.256955
O O7 0.376855 0.032463 0.232455
O O8 0.484482 0.250000 0.869330
O O9 0.543860 0.437782 0.775585
O O10 0.458553 0.504348 0.761048
O O11 0.500000 0.500000 0.000000
O O12 0.250000 0.750000 0.254699
O O13 0.391776 0.750000 0.187464
O O14 0.408633 0.947070 0.987014
O O15 0.586231 0.250000 0.224765
O O16 0.624851 0.995770 0.260716
O O17 0.165645 0.250000 0.682699
#
# Coordination Sequence:
#
# PCOD8242963 Si02
#       7
#     4   8   8   4   8   8   8
#     4   9  17  31  52  75  98 131 170 204 244 299
#     4  10  20  33  52  77 103 131 167 207 248 296
#     4   9  17  31  51  74 100 132 169 207 247 298
#     4   9  17  31  52  73  98 133 168 202 246 297
#     4   9  19  34  52  75 102 131 166 206 249 296
#     4  10  20  34  53  77 102 132 170 210 251 298
#     4  10  20  34  52  76 104 133 166 207 251 297
#
# _framework density 18.452197000000002
#
# number of rings (size 3 to 8) (size 9 to 14) (size 15 to 20)
#    0.000    2.500    0.000    3.500    0.000    8.000 
#    0.000    1.667    0.000    5.000    0.000    0.000 
#    0.000    0.000    0.000    0.000    0.000    0.000 
#
# Total GULP energy -595101.546263 kJ/mol
# GULP energy per Si atom -12397.948880 kJ/mol
# Density = 1.841020 g / cm^3
# Si number density = 18.452197 Si / 1000 Ang^3
#
#
#
# Elastic Constant Matrix: (Units=GPa)
#
#
# Indices 1 2 3 4 5 6 
#
# 1 157.3944 71.4442 34.6811 0.0000 0.0000 0.0000
# 2 71.4442 116.2085 28.8206 0.0000 0.0000 0.0000
# 3 34.6811 28.8206 28.2132 0.0000 0.0000 0.0000
# 4 0.0000 0.0000 0.0000 25.7157 0.0000 0.0000
# 5 0.0000 0.0000 0.0000 0.0000 28.3282 0.0000
# 6 0.0000 0.0000 0.0000 0.0000 0.0000 44.4829
#
#
#
# Elastic Compliance Matrix: (Units=1/GPa)
#
#
# Indices 1 2 3 4 5 6 
#
# 1 0.010019 -0.004159 -0.008067 0.000000 0.000000 0.000000
# 2 -0.004159 0.013251 -0.008425 0.000000 0.000000 0.000000
# 3 -0.008067 -0.008425 0.053967 0.000000 0.000000 0.000000
# 4 0.000000 0.000000 0.000000 0.038887 0.000000 0.000000
# 5 0.000000 0.000000 0.000000 0.000000 0.035301 0.000000
# 6 0.000000 0.000000 0.000000 0.000000 0.000000 0.022481
#
#
# Mechanical properties :
#
#
# Convention : Reuss Voigt Hill
#
# Bulk Modulus (GPa) = 27.82723 63.52312 45.67518
# Shear Modulus (GPa) = 22.00852 30.83005 26.41929
#
# Velocity S-wave (km/s) = 3.45734 4.09198 3.78798
# Velocity P-wave (km/s) = 5.57235 7.53832 6.62863
#
# Compressibility (1/GPa) = 0.03593602
#
# Stress axis : x y z
#
# Youngs Moduli (GPa) = 99.81250 75.46425 18.52982
#
# Poissons Ratio (x) = 0.31383 0.14949
# Poissons Ratio (y) = 0.41509 0.15610
# Poissons Ratio (z) = 0.80522 0.63575
#
# Static dielectric constant tensor:
#      x y z
#    x 3.787520 0.000000 0.000000 
#    y 0.000000 3.619130 0.000000 
#    z 0.000000 0.000000 2.942970 
# 
# 
# High freq. dielectric constant tensor:
#      x y z
#    x 1.736600 0.000000 0.000000 
#    y 0.000000 1.733750 0.000000 
#    z 0.000000 0.000000 1.664110 
# 
# From -- ./inp_files/13072.got.cif
#   From: 2010.03.12/outbox.cif.g09.slc.cpg/sg59_7_cif.got.tgz:13072.got - 2010.04.16 16:29:54.
