data_PCOD8242336
_publ_section_title
;
Structure prediction by ZEFSAII (Michael W. Deem and Ramdas Pophale) SiO2 
 PCOD8242336
Probable space group: P M M N
;
_chemical_formula_sum "Si O2"
_cell_formula_units_Z 64
_cell_length_a 27.602495
_cell_length_b 14.362130
_cell_length_c 9.157297
_cell_angle_alpha 90.000000
_cell_angle_beta 90.000000
_cell_angle_gamma 90.000000
_cell_volume 3630.232941
_symmetry_space_group_name_H-M "P M M N"
_symmetry_group_IT_number 59
_space_group.IT_coordinate_system_code '2'
_symmetry_cell_setting 'orthorhombic'
loop_
_space_group_symop_operation_xyz
x,y,z
1/2-x,1/2-y,z
1/2+x,-y,-z
-x,1/2+y,-z
-x,-y,-z
1/2+x,1/2+y,-z
1/2-x,y,z
x,1/2-y,z
loop_
_atom_site_type_symbol
_atom_site_label
_atom_site_fract_x
_atom_site_fract_y
_atom_site_fract_z
Si Si1 0.378151 0.957955 0.828353
Si Si2 0.041419 0.640818 0.658810
Si Si3 0.469605 0.073182 0.099575
Si Si4 0.194187 0.640853 0.325464
Si Si5 0.479536 0.644849 0.341136
Si Si6 0.071146 0.145180 0.828542
Si Si7 0.806434 0.353097 0.340369
Si Si8 0.604132 0.427552 0.841967
O O1 0.409934 0.908964 0.705585
O O2 0.324557 0.930437 0.775688
O O3 0.384949 0.070308 0.825287
O O4 0.390492 0.911588 0.984333
O O5 0.051101 0.750000 0.647670
O O6 0.029441 0.598738 0.498768
O O7 0.999310 0.620341 0.772895
O O8 0.423030 0.026284 0.178833
O O9 0.449726 0.153086 0.992624
O O10 0.500000 0.000000 0.000000
O O11 0.250000 0.613730 0.288767
O O12 0.185979 0.750000 0.291665
O O13 0.181825 0.618346 0.493121
O O14 0.157602 0.578447 0.228568
O O15 0.495141 0.750000 0.364776
O O16 0.527574 0.599537 0.268725
O O17 0.432410 0.644762 0.235643
O O18 0.088028 0.250000 0.782029
O O19 0.750000 0.348222 0.317292
O O20 0.828383 0.250000 0.308390
#
# Coordination Sequence:
#
# PCOD8242336 Si02
#       8
#     8   8   8   8   8   8   8   8
#     4  11  21  33  50  77 101 130 177 211 254 314
#     4  11  21  32  49  73 106 139 170 212 255 306
#     4  11  19  36  48  72 100 137 179 216 258 306
#     4   9  19  35  52  74 105 137 170 208 255 313
#     4  10  20  31  46  72 100 135 176 208 253 307
#     4  10  20  36  52  68 101 139 172 218 263 304
#     4   9  19  36  55  76 106 139 168 206 260 316
#     4  11  20  31  48  71  99 134 173 216 253 303
#
# _framework density 17.629722999999998
#
# number of rings (size 3 to 8) (size 9 to 14) (size 15 to 20)
#    0.000    1.750    3.750    2.625    0.000    8.500 
#    0.000    1.250    0.000    0.375    0.000    0.000 
#    0.000    6.500    0.000    0.000    0.000    0.000 
#
# Total GULP energy -793005.734268 kJ/mol
# GULP energy per Si atom -12390.714598 kJ/mol
# Density = 1.758960 g / cm^3
# Si number density = 17.629723 Si / 1000 Ang^3
#
#
#
# Elastic Constant Matrix: (Units=GPa)
#
#
# Indices 1 2 3 4 5 6 
#
# 1 61.2987 27.8584 28.6670 0.0000 0.0000 0.0000
# 2 27.8584 64.7212 33.6489 0.0000 0.0000 0.0000
# 3 28.6670 33.6489 90.4465 0.0000 0.0000 0.0000
# 4 0.0000 0.0000 0.0000 23.8852 0.0000 0.0000
# 5 0.0000 0.0000 0.0000 0.0000 35.1866 0.0000
# 6 0.0000 0.0000 0.0000 0.0000 0.0000 26.1661
#
#
#
# Elastic Compliance Matrix: (Units=1/GPa)
#
#
# Indices 1 2 3 4 5 6 
#
# 1 0.021482 -0.007075 -0.004177 0.000000 0.000000 0.000000
# 2 -0.007075 0.021486 -0.005751 0.000000 0.000000 0.000000
# 3 -0.004177 -0.005751 0.014520 0.000000 0.000000 0.000000
# 4 0.000000 0.000000 0.000000 0.041867 0.000000 0.000000
# 5 0.000000 0.000000 0.000000 0.000000 0.028420 0.000000
# 6 0.000000 0.000000 0.000000 0.000000 0.000000 0.038217
#
#
# Mechanical properties :
#
#
# Convention : Reuss Voigt Hill
#
# Bulk Modulus (GPa) = 42.58523 44.09055 43.33789
# Shear Modulus (GPa) = 24.05859 25.46704 24.76282
#
# Velocity S-wave (km/s) = 3.69814 3.80485 3.75187
# Velocity P-wave (km/s) = 6.51481 6.66078 6.58820
#
# Compressibility (1/GPa) = 0.02348232
#
# Stress axis : x y z
#
# Youngs Moduli (GPa) = 46.54991 46.54111 68.87248
#
# Poissons Ratio (x) = 0.32929 0.28765
# Poissons Ratio (y) = 0.32936 0.39609
# Poissons Ratio (z) = 0.19442 0.26766
#
# Static dielectric constant tensor:
#      x y z
#    x 3.229930 0.000000 0.000000 
#    y 0.000000 3.090390 0.000000 
#    z 0.000000 0.000000 3.536810 
# 
# 
# High freq. dielectric constant tensor:
#      x y z
#    x 1.663740 0.000000 0.000000 
#    y 0.000000 1.658060 0.000000 
#    z 0.000000 0.000000 1.693180 
# 
# From -- ./inp_files/13251.got.cif
#   From: 2010.03.12/outbox.cif.g09.slc.cpg/sg59_7_cif.got.tgz:13251.got - 2010.04.16 16:29:54.
