data_PCOD8242966
_publ_section_title
;
Structure prediction by ZEFSAII (Michael W. Deem and Ramdas Pophale) SiO2 
 PCOD8242966
Probable space group: P M M N
;
_chemical_formula_sum "Si O2"
_cell_formula_units_Z 48
_cell_length_a 9.093789
_cell_length_b 31.022003
_cell_length_c 9.113079
_cell_angle_alpha 90.000000
_cell_angle_beta 90.000000
_cell_angle_gamma 90.000000
_cell_volume 2570.868386
_symmetry_space_group_name_H-M "P M M N"
_symmetry_group_IT_number 59
_space_group.IT_coordinate_system_code '2'
_symmetry_cell_setting 'orthorhombic'
loop_
_space_group_symop_operation_xyz
x,y,z
1/2-x,1/2-y,z
1/2+x,-y,-z
-x,1/2+y,-z
-x,-y,-z
1/2+x,1/2+y,-z
1/2-x,y,z
x,1/2-y,z
loop_
_atom_site_type_symbol
_atom_site_label
_atom_site_fract_x
_atom_site_fract_y
_atom_site_fract_z
Si Si1 0.925642 0.250000 0.842675
Si Si2 0.579796 0.003834 0.153166
Si Si3 0.082754 0.408442 0.839675
Si Si4 0.924274 0.250000 0.173656
Si Si5 0.576687 0.913620 0.819123
Si Si6 0.577250 0.333773 0.676664
Si Si7 0.423683 0.664732 0.661652
O O1 0.750000 0.250000 0.839325
O O2 0.988022 0.207712 0.761094
O O3 0.986630 0.250000 0.008470
O O4 0.750000 0.015878 0.129840
O O5 0.499090 0.042260 0.241738
O O6 0.564946 0.956715 0.228173
O O7 0.500000 0.000000 0.000000
O O8 0.250000 0.392788 0.825333
O O9 0.982285 0.377531 0.744940
O O10 0.035234 0.406835 0.010306
O O11 0.750000 0.250000 0.172836
O O12 0.980501 0.292420 0.256906
O O13 0.750000 0.917481 0.795259
O O14 0.512991 0.874876 0.725688
O O15 0.750000 0.334875 0.696717
O O16 0.533160 0.330188 0.507525
O O17 0.250000 0.657276 0.684048
#
# Coordination Sequence:
#
# PCOD8242966 Si02
#       7
#     4   8   8   4   8   8   8
#     4   9  17  31  52  79 104 131 170 214 256 303
#     4   9  17  31  52  78 106 136 172 218 265 310
#     4   9  19  34  52  76 105 134 170 214 259 305
#     4   9  17  31  54  79 104 135 172 214 262 311
#     4  10  20  34  53  78 105 137 177 220 262 309
#     4  10  20  33  52  77 106 138 173 211 256 310
#     4  10  20  34  52  77 107 139 173 213 260 312
#
# _framework density 18.670733999999999
#
# number of rings (size 3 to 8) (size 9 to 14) (size 15 to 20)
#    0.000    2.500    0.000    3.500    0.000    8.000 
#    0.000    1.667    0.000    5.000    0.000    0.000 
#    0.000    0.000    0.000    0.000    0.000    0.000 
#
# Total GULP energy -595089.847840 kJ/mol
# GULP energy per Si atom -12397.705163 kJ/mol
# Density = 1.862824 g / cm^3
# Si number density = 18.670734 Si / 1000 Ang^3
#
#
#
# Elastic Constant Matrix: (Units=GPa)
#
#
# Indices 1 2 3 4 5 6 
#
# 1 53.5149 55.1876 45.9373 0.0000 0.0000 0.0000
# 2 55.1876 170.7683 79.2706 0.0000 0.0000 0.0000
# 3 45.9373 79.2706 115.9794 0.0000 0.0000 0.0000
# 4 0.0000 0.0000 0.0000 2.8917 0.0000 0.0000
# 5 0.0000 0.0000 0.0000 0.0000 22.4636 0.0000
# 6 0.0000 0.0000 0.0000 0.0000 0.0000 30.8945
#
#
#
# Elastic Compliance Matrix: (Units=1/GPa)
#
#
# Indices 1 2 3 4 5 6 
#
# 1 0.032824 -0.006698 -0.008423 0.000000 0.000000 0.000000
# 2 -0.006698 0.009944 -0.004144 0.000000 0.000000 0.000000
# 3 -0.008423 -0.004144 0.014791 0.000000 0.000000 0.000000
# 4 0.000000 0.000000 0.000000 0.345822 0.000000 0.000000
# 5 0.000000 0.000000 0.000000 0.000000 0.044516 0.000000
# 6 0.000000 0.000000 0.000000 0.000000 0.000000 0.032368
#
#
# Mechanical properties :
#
#
# Convention : Reuss Voigt Hill
#
# Bulk Modulus (GPa) = 52.55044 77.89485 65.22264
# Shear Modulus (GPa) = 9.52133 21.90776 15.71454
#
# Velocity S-wave (km/s) = 2.26068 3.42917 2.90430
# Velocity P-wave (km/s) = 5.91787 7.58220 6.80114
#
# Compressibility (1/GPa) = 0.01902934
#
# Stress axis : x y z
#
# Youngs Moduli (GPa) = 30.46553 100.56389 67.61048
#
# Poissons Ratio (x) = 0.67356 0.56949
# Poissons Ratio (y) = 0.20405 0.28016
# Poissons Ratio (z) = 0.25661 0.41670
#
# Static dielectric constant tensor:
#      x y z
#    x 3.292620 0.000000 0.000000 
#    y 0.000000 3.744410 0.000000 
#    z 0.000000 0.000000 3.310290 
# 
# 
# High freq. dielectric constant tensor:
#      x y z
#    x 1.706920 0.000000 0.000000 
#    y 0.000000 1.746070 0.000000 
#    z 0.000000 0.000000 1.704490 
# 
# From -- ./inp_files/6374.got.cif
#   From: 2010.03.12/outbox.cif.g09.slc.cpg/sg59_4_cif.got.tgz:6374.got - 2010.04.16 16:29:54.
