data_PCOD8242991
_publ_section_title
;
Structure prediction by ZEFSAII (Michael W. Deem and Ramdas Pophale) SiO2 
 PCOD8242991
Probable space group: P M M N
;
_chemical_formula_sum "Si O2"
_cell_formula_units_Z 40
_cell_length_a 9.134102
_cell_length_b 18.647787
_cell_length_c 12.791759
_cell_angle_alpha 90.000000
_cell_angle_beta 90.000000
_cell_angle_gamma 90.000000
_cell_volume 2178.830397
_symmetry_space_group_name_H-M "P M M N"
_symmetry_group_IT_number 59
_space_group.IT_coordinate_system_code '2'
_symmetry_cell_setting 'orthorhombic'
loop_
_space_group_symop_operation_xyz
x,y,z
1/2-x,1/2-y,z
1/2+x,-y,-z
-x,1/2+y,-z
-x,-y,-z
1/2+x,1/2+y,-z
1/2-x,y,z
x,1/2-y,z
loop_
_atom_site_type_symbol
_atom_site_label
_atom_site_fract_x
_atom_site_fract_y
_atom_site_fract_z
Si Si1 0.084783 0.164760 0.281953
Si Si2 0.088163 0.664915 0.519738
Si Si3 0.579488 0.166660 0.714110
Si Si4 0.579318 0.920316 0.110244
Si Si5 0.079181 0.586399 0.900212
O O1 0.250000 0.136334 0.268834
O O2 0.078596 0.250000 0.277426
O O3 0.024840 0.136099 0.393516
O O4 0.984056 0.135098 0.190830
O O5 0.250000 0.633929 0.544722
O O6 0.096159 0.750000 0.522487
O O7 0.038750 0.641574 0.403596
O O8 0.750000 0.151838 0.736974
O O9 0.542866 0.250000 0.730818
O O10 0.478553 0.120651 0.789202
O O11 0.750000 0.904985 0.095622
O O12 0.546080 0.004003 0.126557
O O13 0.497363 0.890857 0.008074
O O14 0.250000 0.602116 0.911794
#
# Coordination Sequence:
#
# PCOD8242991 Si02
#       5
#     8   8   8   8   8
#     4  10  20  33  52  79 106 131 165 210 255 297
#     4   8  15  30  51  74 102 135 168 202 244 296
#     4   9  18  33  54  79 105 135 170 205 246 300
#     4  10  21  36  54  76 101 131 169 212 256 299
#     4  10  21  37  55  73  98 135 173 207 251 306
#
# _framework density 18.358471999999999
#
# number of rings (size 3 to 8) (size 9 to 14) (size 15 to 20)
#    0.000    2.600    0.000    3.000    0.000    5.600 
#    0.000    3.000    0.000    0.000    0.000    0.000 
#    0.000    0.000    0.000    0.000    0.000    0.000 
#
# Total GULP energy -496008.153539 kJ/mol
# GULP energy per Si atom -12400.203838 kJ/mol
# Density = 1.831669 g / cm^3
# Si number density = 18.358472 Si / 1000 Ang^3
#
#
#
# Elastic Constant Matrix: (Units=GPa)
#
#
# Indices 1 2 3 4 5 6 
#
# 1 109.9456 31.1726 71.3138 0.0000 0.0000 0.0000
# 2 31.1726 25.8309 33.1768 0.0000 0.0000 0.0000
# 3 71.3138 33.1768 140.8666 0.0000 0.0000 0.0000
# 4 0.0000 0.0000 0.0000 -243.9921 0.0000 0.0000
# 5 0.0000 0.0000 0.0000 0.0000 40.1691 0.0000
# 6 0.0000 0.0000 0.0000 0.0000 0.0000 27.3149
#
#
#
# Elastic Compliance Matrix: (Units=1/GPa)
#
#
# Indices 1 2 3 4 5 6 
#
# 1 0.016033 -0.012794 -0.005104 0.000000 0.000000 0.000000
# 2 -0.012794 0.065711 -0.009000 0.000000 0.000000 0.000000
# 3 -0.005104 -0.009000 0.011802 0.000000 0.000000 0.000000
# 4 0.000000 0.000000 0.000000 -0.004098 0.000000 0.000000
# 5 0.000000 0.000000 0.000000 0.000000 0.024895 0.000000
# 6 0.000000 0.000000 0.000000 0.000000 0.000000 0.036610
#
#
# Mechanical properties :
#
#
# Convention : Reuss Voigt Hill
#
# Bulk Modulus (GPa) = 25.15525 60.88551 43.02038
# Shear Modulus (GPa) = 22.93604 -25.90296 -1.48346
#
# Velocity S-wave (km/s) = 3.53844 -3.76034 -0.89989
# Velocity P-wave (km/s) = 5.51598 3.79252 4.73336
#
# Compressibility (1/GPa) = 0.03975313
#
# Stress axis : x y z
#
# Youngs Moduli (GPa) = 62.37092 15.21807 84.73006
#
# Poissons Ratio (x) = 0.19469 0.43243
# Poissons Ratio (y) = 0.79795 0.76253
# Poissons Ratio (z) = 0.31832 0.13696
#
# Static dielectric constant tensor:
#      x y z
#    x 3.694460 0.000000 0.000000 
#    y 0.000000 3.070380 0.000000 
#    z 0.000000 0.000000 3.590130 
# 
# 
# High freq. dielectric constant tensor:
#      x y z
#    x 1.720880 0.000000 0.000000 
#    y 0.000000 1.679950 0.000000 
#    z 0.000000 0.000000 1.725960 
# 
# From -- ./inp_files/13861.got.cif
#   From: 2010.03.12/outbox.cif.g09.slc.cpg/sg59_7_cif.got.tgz:13861.got - 2010.04.16 16:29:54.
