data_PCOD8242569
_publ_section_title
;
Structure prediction by ZEFSAII (Michael W. Deem and Ramdas Pophale) SiO2 
 PCOD8242569
Probable space group: P M M N
;
_chemical_formula_sum "Si O2"
_cell_formula_units_Z 64
_cell_length_a 9.085815
_cell_length_b 15.100849
_cell_length_c 23.632609
_cell_angle_alpha 90.000000
_cell_angle_beta 90.000000
_cell_angle_gamma 90.000000
_cell_volume 3242.477150
_symmetry_space_group_name_H-M "P M M N"
_symmetry_group_IT_number 59
_space_group.IT_coordinate_system_code '2'
_symmetry_cell_setting 'orthorhombic'
loop_
_space_group_symop_operation_xyz
x,y,z
1/2-x,1/2-y,z
1/2+x,-y,-z
-x,1/2+y,-z
-x,-y,-z
1/2+x,1/2+y,-z
1/2-x,y,z
x,1/2-y,z
loop_
_atom_site_type_symbol
_atom_site_label
_atom_site_fract_x
_atom_site_fract_y
_atom_site_fract_z
Si Si1 0.075006 0.847982 0.047314
Si Si2 0.575706 0.150084 0.646823
Si Si3 0.420321 0.991961 0.133759
Si Si4 0.589935 0.652028 0.576135
Si Si5 0.422691 0.853369 0.684356
Si Si6 0.579212 0.491666 0.737997
Si Si7 0.075235 0.911352 0.477342
Si Si8 0.077442 0.649115 0.920015
O O1 0.250000 0.845528 0.050789
O O2 0.013765 0.750000 0.062128
O O3 0.009642 0.917970 0.092162
O O4 0.026030 0.874497 0.983887
O O5 0.750000 0.155948 0.649356
O O6 0.510956 0.250000 0.654019
O O7 0.517416 0.085852 0.696765
O O8 0.526303 0.109653 0.586532
O O9 0.250000 0.005347 0.119773
O O10 0.497501 0.085885 0.124320
O O11 0.443602 0.958979 0.197866
O O12 0.750000 0.602092 0.568756
O O13 0.625079 0.750000 0.596413
O O14 0.494993 0.608582 0.626326
O O15 0.495556 0.660939 0.518800
O O16 0.250000 0.868339 0.679762
O O17 0.457943 0.750000 0.697084
O O18 0.490123 0.916204 0.732533
O O19 0.750000 0.511035 0.724604
O O20 0.250000 0.912740 0.484138
O O21 0.000000 0.000000 0.500000
O O22 0.250000 0.634952 0.913449
O O23 0.034503 0.750000 0.905391
#
# Coordination Sequence:
#
# PCOD8242569 Si02
#       8
#     8   8   8   8   8   8   8   8
#     4   8  15  30  52  78 107 138 175 219 266 317
#     4   9  19  36  56  77 104 141 183 223 262 309
#     4  10  20  32  51  80 108 136 174 222 272 317
#     4  10  20  34  53  77 104 131 161 205 264 325
#     4  10  21  37  57  79 104 139 182 224 268 324
#     4  10  21  36  54  78 107 139 178 224 272 319
#     4  11  21  33  53  79 106 137 175 220 270 323
#     4   9  18  33  53  76 105 143 180 214 261 322
#
# _framework density 19.737995000000002
#
# number of rings (size 3 to 8) (size 9 to 14) (size 15 to 20)
#    0.000    2.375    0.000    3.375    0.000    4.750 
#    0.000    5.625    0.000    3.000    0.000    1.750 
#    0.000    0.000    0.000    0.000    0.000    0.000 
#
# Total GULP energy -793248.037112 kJ/mol
# GULP energy per Si atom -12394.500580 kJ/mol
# Density = 1.969307 g / cm^3
# Si number density = 19.737995 Si / 1000 Ang^3
#
#
#
# Elastic Constant Matrix: (Units=GPa)
#
#
# Indices 1 2 3 4 5 6 
#
# 1 62.6301 33.1027 29.2772 0.0000 0.0000 0.0000
# 2 33.1027 113.5666 52.6859 0.0000 0.0000 0.0000
# 3 29.2772 52.6859 100.7597 0.0000 0.0000 0.0000
# 4 0.0000 0.0000 0.0000 28.3430 0.0000 0.0000
# 5 0.0000 0.0000 0.0000 0.0000 24.2471 0.0000
# 6 0.0000 0.0000 0.0000 0.0000 0.0000 24.7157
#
#
#
# Elastic Compliance Matrix: (Units=1/GPa)
#
#
# Indices 1 2 3 4 5 6 
#
# 1 0.019825 -0.004101 -0.003616 0.000000 0.000000 0.000000
# 2 -0.004101 0.012474 -0.005331 0.000000 0.000000 0.000000
# 3 -0.003616 -0.005331 0.013763 0.000000 0.000000 0.000000
# 4 0.000000 0.000000 0.000000 0.035282 0.000000 0.000000
# 5 0.000000 0.000000 0.000000 0.000000 0.041242 0.000000
# 6 0.000000 0.000000 0.000000 0.000000 0.000000 0.040460
#
#
# Mechanical properties :
#
#
# Convention : Reuss Voigt Hill
#
# Bulk Modulus (GPa) = 50.08611 56.34309 53.21460
# Shear Modulus (GPa) = 25.53676 26.25388 25.89532
#
# Velocity S-wave (km/s) = 3.60083 3.65104 3.62602
# Velocity P-wave (km/s) = 6.53594 6.81035 6.67456
#
# Compressibility (1/GPa) = 0.01996562
#
# Stress axis : x y z
#
# Youngs Moduli (GPa) = 50.44220 80.16772 72.66026
#
# Poissons Ratio (x) = 0.32877 0.26274
# Poissons Ratio (y) = 0.20686 0.38734
# Poissons Ratio (z) = 0.18240 0.42736
#
# Static dielectric constant tensor:
#      x y z
#    x 3.490330 0.000000 0.000000 
#    y 0.000000 3.098620 0.000000 
#    z 0.000000 0.000000 3.790370 
# 
# 
# High freq. dielectric constant tensor:
#      x y z
#    x 1.740790 0.000000 0.000000 
#    y 0.000000 1.774900 0.000000 
#    z 0.000000 0.000000 1.767640 
# 
# From -- ./inp_files/31668.got.cif
#   From: 2010.03.12/outbox.cif.g09.slc.cpg/sg59_16_cif.got.tgz:31668.got - 2010.04.16 16:29:54.
