data_PCOD8242814
_publ_section_title
;
Structure prediction by ZEFSAII (Michael W. Deem and Ramdas Pophale) SiO2 
 PCOD8242814
Probable space group: P M M N
;
_chemical_formula_sum "Si O2"
_cell_formula_units_Z 48
_cell_length_a 11.282493
_cell_length_b 20.733189
_cell_length_c 10.465529
_cell_angle_alpha 90.000000
_cell_angle_beta 90.000000
_cell_angle_gamma 90.000000
_cell_volume 2448.118100
_symmetry_space_group_name_H-M "P M M N"
_symmetry_group_IT_number 59
_space_group.IT_coordinate_system_code '2'
_symmetry_cell_setting 'orthorhombic'
loop_
_space_group_symop_operation_xyz
x,y,z
1/2-x,1/2-y,z
1/2+x,-y,-z
-x,1/2+y,-z
-x,-y,-z
1/2+x,1/2+y,-z
1/2-x,y,z
x,1/2-y,z
loop_
_atom_site_type_symbol
_atom_site_label
_atom_site_fract_x
_atom_site_fract_y
_atom_site_fract_z
Si Si1 0.379786 0.176185 0.018127
Si Si2 0.880116 0.437842 0.822415
Si Si3 0.530410 0.675340 0.259096
Si Si4 0.454364 0.533248 0.679432
Si Si5 0.620019 0.110195 0.093169
Si Si6 0.119635 0.086252 0.524976
O O1 0.250000 0.145452 0.058683
O O2 0.376232 0.250000 0.056714
O O3 0.386839 0.167621 0.865197
O O4 0.497743 0.150862 0.090363
O O5 0.750000 0.451369 0.770906
O O6 0.914030 0.367250 0.767759
O O7 0.956135 0.495877 0.770327
O O8 0.888015 0.439848 0.975909
O O9 0.495646 0.750000 0.282754
O O10 0.595718 0.647057 0.383095
O O11 0.370080 0.573965 0.771775
O O12 0.378986 0.481725 0.600133
O O13 0.522354 0.583175 0.586540
O O14 0.750000 0.147132 0.079925
O O15 0.250000 0.095894 0.465511
#
# Coordination Sequence:
#
# PCOD8242814 Si02
#       6
#     8   8   8   8   8   8
#     4   9  18  33  54  80 108 137 171 216 268 317
#     4   9  18  32  52  79 107 137 174 216 265 318
#     4   9  18  33  53  78 105 133 171 218 264 312
#     4  10  20  34  50  73 106 139 174 216 261 312
#     4  10  20  34  54  79 106 139 177 218 267 321
#     4  10  20  33  51  73  99 137 178 216 261 310
#
# _framework density 19.606898000000001
#
# number of rings (size 3 to 8) (size 9 to 14) (size 15 to 20)
#    0.000    2.500    0.000    2.000    0.000    3.000 
#    0.000    9.167    0.000    0.000    0.000    0.000 
#    0.000    0.000    0.000    0.000    0.000    0.000 
#
# Total GULP energy -594637.407226 kJ/mol
# GULP energy per Si atom -12388.279317 kJ/mol
# Density = 1.956227 g / cm^3
# Si number density = 19.606898 Si / 1000 Ang^3
#
#
#
# Elastic Constant Matrix: (Units=GPa)
#
#
# Indices 1 2 3 4 5 6 
#
# 1 135.3837 21.6263 23.1857 0.0000 0.0000 0.0000
# 2 21.6263 56.4830 27.8240 0.0000 0.0000 0.0000
# 3 23.1857 27.8240 72.8420 0.0000 0.0000 0.0000
# 4 0.0000 0.0000 0.0000 23.1067 0.0000 0.0000
# 5 0.0000 0.0000 0.0000 0.0000 -2.9643 0.0000
# 6 0.0000 0.0000 0.0000 0.0000 0.0000 15.2062
#
#
#
# Elastic Compliance Matrix: (Units=1/GPa)
#
#
# Indices 1 2 3 4 5 6 
#
# 1 0.008036 -0.002238 -0.001703 0.000000 0.000000 0.000000
# 2 -0.002238 0.022431 -0.007856 0.000000 0.000000 0.000000
# 3 -0.001703 -0.007856 0.017271 0.000000 0.000000 0.000000
# 4 0.000000 0.000000 0.000000 0.043277 0.000000 0.000000
# 5 0.000000 0.000000 0.000000 0.000000 -0.337344 0.000000
# 6 0.000000 0.000000 0.000000 0.000000 0.000000 0.065763
#
#
# Mechanical properties :
#
#
# Convention : Reuss Voigt Hill
#
# Bulk Modulus (GPa) = 41.41713 45.55341 43.48527
# Shear Modulus (GPa) = -33.57403 19.87456 -6.84974
#
# Velocity S-wave (km/s) = -4.14255 3.18724 -1.87113
# Velocity P-wave (km/s) = 1.30820 6.06865 4.19029
#
# Compressibility (1/GPa) = 0.02414460
#
# Stress axis : x y z
#
# Youngs Moduli (GPa) = 124.44744 44.58086 57.89997
#
# Poissons Ratio (x) = 0.09976 0.09860
# Poissons Ratio (y) = 0.27849 0.45486
# Poissons Ratio (z) = 0.21193 0.35022
#
# Static dielectric constant tensor:
#      x y z
#    x 3.800280 0.000000 0.000000 
#    y 0.000000 3.369470 0.000000 
#    z 0.000000 0.000000 3.529030 
# 
# 
# High freq. dielectric constant tensor:
#      x y z
#    x 1.776760 0.000000 0.000000 
#    y 0.000000 1.733370 0.000000 
#    z 0.000000 0.000000 1.753320 
# 
# From -- ./inp_files/15898.got.cif
#   From: 2010.03.12/outbox.cif.g09.slc.cpg/sg59_8_cif.got.tgz:15898.got - 2010.04.16 16:29:54.
