data_PCOD8242461
_publ_section_title
;
Structure prediction by ZEFSAII (Michael W. Deem and Ramdas Pophale) SiO2 
 PCOD8242461
Probable space group: P M M N
;
_chemical_formula_sum "Si O2"
_cell_formula_units_Z 64
_cell_length_a 8.865906
_cell_length_b 23.721473
_cell_length_c 16.156680
_cell_angle_alpha 90.000000
_cell_angle_beta 90.000000
_cell_angle_gamma 90.000000
_cell_volume 3397.949336
_symmetry_space_group_name_H-M "P M M N"
_symmetry_group_IT_number 59
_space_group.IT_coordinate_system_code '2'
_symmetry_cell_setting 'orthorhombic'
loop_
_space_group_symop_operation_xyz
x,y,z
1/2-x,1/2-y,z
1/2+x,-y,-z
-x,1/2+y,-z
-x,-y,-z
1/2+x,1/2+y,-z
1/2-x,y,z
x,1/2-y,z
loop_
_atom_site_type_symbol
_atom_site_label
_atom_site_fract_x
_atom_site_fract_y
_atom_site_fract_z
Si Si1 0.422865 0.184288 0.822589
Si Si2 0.571690 0.185088 0.650214
Si Si3 0.573085 0.036192 0.390264
Si Si4 0.921221 0.689047 0.859409
Si Si5 0.427915 0.424054 0.223408
Si Si6 0.083845 0.656485 0.014966
Si Si7 0.917690 0.463666 0.066798
Si Si8 0.072748 0.085746 0.548128
O O1 0.250000 0.166784 0.809267
O O2 0.441320 0.250000 0.841697
O O3 0.512261 0.167007 0.740297
O O4 0.488263 0.151174 0.901042
O O5 0.750000 0.179176 0.649588
O O6 0.523186 0.250000 0.629911
O O7 0.504140 0.142080 0.583434
O O8 0.750000 0.045408 0.403462
O O9 0.522901 0.056873 0.301338
O O10 0.485771 0.074981 0.455734
O O11 0.531374 0.969909 0.398427
O O12 0.750000 0.674128 0.883039
O O13 0.934987 0.750000 0.814174
O O14 0.978606 0.640302 0.797572
O O15 0.007374 0.695800 0.946321
O O16 0.250000 0.430262 0.240031
O O17 0.478300 0.464081 0.148245
O O18 0.250000 0.680239 0.036855
O O19 0.096804 0.596977 0.972169
O O20 0.750000 0.487029 0.087917
O O21 0.000000 0.500000 0.000000
O O22 0.250000 0.096683 0.545712
#
# Coordination Sequence:
#
# PCOD8242461 Si02
#       8
#     8   8   8   8   8   8   8   8
#     4  10  20  33  50  73 102 137 176 215 255 305
#     4  10  21  37  57  82 113 146 179 220 271 324
#     4  10  21  38  60  85 112 141 178 224 269 317
#     4   9  18  33  52  74 102 137 177 219 263 314
#     4  10  20  35  56  80 107 141 179 221 271 323
#     4  10  20  32  48  72 100 132 173 219 264 310
#     4  10  21  36  52  72 101 137 176 218 265 316
#     4  10  21  38  61  86 110 141 179 219 267 321
#
# _framework density 18.834889
#
# number of rings (size 3 to 8) (size 9 to 14) (size 15 to 20)
#    0.000    2.125    0.000    3.000    0.000    7.750 
#    0.000    0.625    0.000    2.250    0.000    0.000 
#    0.000    0.000    0.000    0.000    0.000    0.000 
#
# Total GULP energy -793504.451915 kJ/mol
# GULP energy per Si atom -12398.507061 kJ/mol
# Density = 1.879202 g / cm^3
# Si number density = 18.834889 Si / 1000 Ang^3
#
#
#
# Elastic Constant Matrix: (Units=GPa)
#
#
# Indices 1 2 3 4 5 6 
#
# 1 83.6348 32.6734 31.5491 0.0000 0.0000 0.0000
# 2 32.6734 69.7743 52.4261 0.0000 0.0000 0.0000
# 3 31.5491 52.4261 109.9701 0.0000 0.0000 0.0000
# 4 0.0000 0.0000 0.0000 19.0685 0.0000 0.0000
# 5 0.0000 0.0000 0.0000 0.0000 39.4693 0.0000
# 6 0.0000 0.0000 0.0000 0.0000 0.0000 26.6295
#
#
#
# Elastic Compliance Matrix: (Units=1/GPa)
#
#
# Indices 1 2 3 4 5 6 
#
# 1 0.014784 -0.005821 -0.001466 0.000000 0.000000 0.000000
# 2 -0.005821 0.024623 -0.010068 0.000000 0.000000 0.000000
# 3 -0.001466 -0.010068 0.014314 0.000000 0.000000 0.000000
# 4 0.000000 0.000000 0.000000 0.052443 0.000000 0.000000
# 5 0.000000 0.000000 0.000000 0.000000 0.025336 0.000000
# 6 0.000000 0.000000 0.000000 0.000000 0.000000 0.037552
#
#
# Mechanical properties :
#
#
# Convention : Reuss Voigt Hill
#
# Bulk Modulus (GPa) = 52.60647 55.18626 53.89636
# Shear Modulus (GPa) = 23.79815 26.81549 25.30682
#
# Velocity S-wave (km/s) = 3.55845 3.77731 3.66951
# Velocity P-wave (km/s) = 6.69883 6.95613 6.82869
#
# Compressibility (1/GPa) = 0.01900907
#
# Stress axis : x y z
#
# Youngs Moduli (GPa) = 67.64056 40.61240 69.86200
#
# Poissons Ratio (x) = 0.23642 0.10243
# Poissons Ratio (y) = 0.39376 0.70340
# Poissons Ratio (z) = 0.09917 0.40890
#
# Static dielectric constant tensor:
#      x y z
#    x 3.772570 0.000000 0.000000 
#    y 0.000000 3.419340 0.000000 
#    z 0.000000 0.000000 3.304190 
# 
# 
# High freq. dielectric constant tensor:
#      x y z
#    x 1.747780 0.000000 0.000000 
#    y 0.000000 1.727740 0.000000 
#    z 0.000000 0.000000 1.721640 
# 
# From -- ./inp_files/21511.got.cif
#   From: 2010.03.12/outbox.cif.g09.slc.cpg/sg59_11_cif.got.tgz:21511.got - 2010.04.16 16:29:54.
