data_PCOD8242272
_publ_section_title
;
Structure prediction by ZEFSAII (Michael W. Deem and Ramdas Pophale) SiO2 
 PCOD8242272
Probable space group: P M M N
;
_chemical_formula_sum "Si O2"
_cell_formula_units_Z 48
_cell_length_a 30.857569
_cell_length_b 8.235586
_cell_length_c 8.872839
_cell_angle_alpha 90.000000
_cell_angle_beta 90.000000
_cell_angle_gamma 90.000000
_cell_volume 2254.856024
_symmetry_space_group_name_H-M "P M M N"
_symmetry_group_IT_number 59
_space_group.IT_coordinate_system_code '2'
_symmetry_cell_setting 'orthorhombic'
loop_
_space_group_symop_operation_xyz
x,y,z
1/2-x,1/2-y,z
1/2+x,-y,-z
-x,1/2+y,-z
-x,-y,-z
1/2+x,1/2+y,-z
1/2-x,y,z
x,1/2-y,z
loop_
_atom_site_type_symbol
_atom_site_label
_atom_site_fract_x
_atom_site_fract_y
_atom_site_fract_z
Si Si1 0.250000 0.443850 0.660362
Si Si2 0.836506 0.560003 0.822667
Si Si3 0.421569 0.436930 0.678480
Si Si4 0.250000 0.560358 0.325568
Si Si5 0.165456 0.057700 0.836323
Si Si6 0.582925 0.065842 0.645090
Si Si7 0.995077 0.936796 0.832341
O O1 0.250000 0.250000 0.635580
O O2 0.250000 0.536246 0.503431
O O3 0.291906 0.505950 0.751598
O O4 0.847610 0.750000 0.818536
O O5 0.791132 0.528502 0.743952
O O6 0.873279 0.463316 0.735604
O O7 0.834934 0.492507 0.993085
O O8 0.429144 0.250000 0.724103
O O9 0.377070 0.505229 0.749350
O O10 0.419536 0.448477 0.498402
O O11 0.460363 0.544378 0.742295
O O12 0.250000 0.750000 0.285371
O O13 0.166665 0.250000 0.836787
O O14 0.582204 0.250000 0.586848
O O15 0.542247 0.038800 0.752846
O O16 0.981025 0.750000 0.834237
O O17 0.000000 0.000000 0.000000
#
# Coordination Sequence:
#
# PCOD8242272 Si02
#       7
#     4   8   8   4   8   8   8
#     4  10  19  38  64  90 118 158 205 252 304 366
#     4  11  22  41  66  92 121 161 207 256 310 371
#     4  11  22  40  64  93 126 165 209 258 312 372
#     4  12  25  40  58  90 128 164 205 254 308 370
#     4   9  20  37  63  92 119 153 203 255 305 364
#     4  12  25  42  63  93 128 164 205 256 312 373
#     4  12  25  43  65  92 124 164 210 260 313 372
#
# _framework density 21.287389000000001
#
# number of rings (size 3 to 8) (size 9 to 14) (size 15 to 20)
#    0.000    1.000    0.000    7.750    0.000    4.000 
#    0.000    5.833    0.000    0.000    0.000    0.000 
#    0.000    0.000    0.000    0.000    0.000    0.000 
#
# Total GULP energy -595576.411488 kJ/mol
# GULP energy per Si atom -12407.841906 kJ/mol
# Density = 2.123894 g / cm^3
# Si number density = 21.287389 Si / 1000 Ang^3
#
#
#
# Elastic Constant Matrix: (Units=GPa)
#
#
# Indices 1 2 3 4 5 6 
#
# 1 164.4722 5.4698 59.5882 0.0000 0.0000 0.0000
# 2 5.4698 68.3030 1.9893 0.0000 0.0000 0.0000
# 3 59.5882 1.9893 155.5491 0.0000 0.0000 0.0000
# 4 0.0000 0.0000 0.0000 26.6616 0.0000 0.0000
# 5 0.0000 0.0000 0.0000 0.0000 47.5796 0.0000
# 6 0.0000 0.0000 0.0000 0.0000 0.0000 39.3713
#
#
#
# Elastic Compliance Matrix: (Units=1/GPa)
#
#
# Indices 1 2 3 4 5 6 
#
# 1 0.007076 -0.000488 -0.002705 0.000000 0.000000 0.000000
# 2 -0.000488 0.014680 -0.000001 0.000000 0.000000 0.000000
# 3 -0.002705 -0.000001 0.007465 0.000000 0.000000 0.000000
# 4 0.000000 0.000000 0.000000 0.037507 0.000000 0.000000
# 5 0.000000 0.000000 0.000000 0.000000 0.021017 0.000000
# 6 0.000000 0.000000 0.000000 0.000000 0.000000 0.025399
#
#
# Mechanical properties :
#
#
# Convention : Reuss Voigt Hill
#
# Bulk Modulus (GPa) = 43.79378 58.04655 50.92016
# Shear Modulus (GPa) = 39.32599 44.14097 41.73348
#
# Velocity S-wave (km/s) = 4.30278 4.55859 4.43253
# Velocity P-wave (km/s) = 6.73072 7.41855 7.08299
#
# Compressibility (1/GPa) = 0.02283429
#
# Stress axis : x y z
#
# Youngs Moduli (GPa) = 141.32033 68.12111 133.96031
#
# Poissons Ratio (x) = 0.03324 0.36230
# Poissons Ratio (y) = 0.06895 0.00011
# Poissons Ratio (z) = 0.38220 0.00006
#
# Static dielectric constant tensor:
#      x y z
#    x 4.061690 0.000000 0.000000 
#    y 0.000000 3.565550 0.000000 
#    z 0.000000 0.000000 3.887960 
# 
# 
# High freq. dielectric constant tensor:
#      x y z
#    x 1.853310 0.000000 0.000000 
#    y 0.000000 1.823900 0.000000 
#    z 0.000000 0.000000 1.851490 
# 
# From -- ./inp_files/13025.got.cif
#   From: 2010.03.12/outbox.cif.g09.slc.cpg/sg59_7_cif.got.tgz:13025.got - 2010.04.16 16:29:54.
