data_PCOD8242622
_publ_section_title
;
Structure prediction by ZEFSAII (Michael W. Deem and Ramdas Pophale) SiO2 
 PCOD8242622
Probable space group: P M M N
;
_chemical_formula_sum "Si O2"
_cell_formula_units_Z 56
_cell_length_a 9.241796
_cell_length_b 18.743408
_cell_length_c 18.246594
_cell_angle_alpha 90.000000
_cell_angle_beta 90.000000
_cell_angle_gamma 90.000000
_cell_volume 3160.725247
_symmetry_space_group_name_H-M "P M M N"
_symmetry_group_IT_number 59
_space_group.IT_coordinate_system_code '2'
_symmetry_cell_setting 'orthorhombic'
loop_
_space_group_symop_operation_xyz
x,y,z
1/2-x,1/2-y,z
1/2+x,-y,-z
-x,1/2+y,-z
-x,-y,-z
1/2+x,1/2+y,-z
1/2-x,y,z
x,1/2-y,z
loop_
_atom_site_type_symbol
_atom_site_label
_atom_site_fract_x
_atom_site_fract_y
_atom_site_fract_z
Si Si1 0.581860 0.166677 0.850870
Si Si2 0.086921 0.085216 0.730177
Si Si3 0.418564 0.666874 0.864700
Si Si4 0.085605 0.433760 0.571676
Si Si5 0.913505 0.834844 0.007077
Si Si6 0.415361 0.424106 0.414455
Si Si7 0.083126 0.582861 0.723654
O O1 0.750000 0.150873 0.862911
O O2 0.551444 0.250000 0.839615
O O3 0.527746 0.126352 0.779068
O O4 0.496811 0.136420 0.921394
O O5 0.250000 0.100688 0.758347
O O6 0.068590 0.112971 0.645931
O O7 0.053945 0.000944 0.733297
O O8 0.250000 0.651986 0.879349
O O9 0.448658 0.750000 0.851166
O O10 0.505759 0.637212 0.934623
O O11 0.477532 0.624093 0.794437
O O12 0.250000 0.466602 0.571927
O O13 0.064364 0.388255 0.495940
O O14 0.965691 0.494807 0.575062
O O15 0.750000 0.864399 0.007957
O O16 0.916474 0.750000 0.007480
O O17 0.250000 0.422527 0.389232
O O18 0.505548 0.386590 0.349589
O O19 0.250000 0.600986 0.713730
#
# Coordination Sequence:
#
# PCOD8242622 Si02
#       7
#     8   8   8   8   8   8   8
#     4  10  20  33  49  69  92 117 149 189 229 271
#     4   9  17  30  47  67  93 122 152 187 227 271
#     4   9  17  31  51  71  92 121 155 188 224 267
#     4   8  15  27  42  63  91 120 151 189 229 267
#     4   9  17  30  49  71  92 116 150 189 226 267
#     4   9  15  24  42  66  90 119 155 190 224 265
#     4   9  18  31  46  68  98 126 151 185 229 271
#
# _framework density 17.717452999999999
#
# number of rings (size 3 to 8) (size 9 to 14) (size 15 to 20)
#    0.000    3.000    0.000    2.143    0.000    6.000 
#    0.000    0.714    0.000    0.857    0.000    4.000 
#    0.000    0.000    0.000    0.000    0.000    0.000 
#
# Total GULP energy -693986.739711 kJ/mol
# GULP energy per Si atom -12392.620352 kJ/mol
# Density = 1.767713 g / cm^3
# Si number density = 17.717453 Si / 1000 Ang^3
#
#
#
# Elastic Constant Matrix: (Units=GPa)
#
#
# Indices 1 2 3 4 5 6 
#
# 1 89.9273 23.9851 76.7529 0.0000 0.0000 0.0000
# 2 23.9851 23.8333 36.8460 0.0000 0.0000 0.0000
# 3 76.7529 36.8460 186.7510 0.0000 0.0000 0.0000
# 4 0.0000 0.0000 0.0000 4.8650 0.0000 0.0000
# 5 0.0000 0.0000 0.0000 0.0000 38.0943 0.0000
# 6 0.0000 0.0000 0.0000 0.0000 0.0000 16.8287
#
#
#
# Elastic Compliance Matrix: (Units=1/GPa)
#
#
# Indices 1 2 3 4 5 6 
#
# 1 0.018635 -0.009947 -0.005696 0.000000 0.000000 0.000000
# 2 -0.009947 0.065683 -0.008871 0.000000 0.000000 0.000000
# 3 -0.005696 -0.008871 0.009446 0.000000 0.000000 0.000000
# 4 0.000000 0.000000 0.000000 0.205551 0.000000 0.000000
# 5 0.000000 0.000000 0.000000 0.000000 0.026251 0.000000
# 6 0.000000 0.000000 0.000000 0.000000 0.000000 0.059422
#
#
# Mechanical properties :
#
#
# Convention : Reuss Voigt Hill
#
# Bulk Modulus (GPa) = 22.35382 63.96437 43.15910
# Shear Modulus (GPa) = 11.13761 22.81944 16.97853
#
# Velocity S-wave (km/s) = 2.50996 3.59271 3.09899
# Velocity P-wave (km/s) = 4.58738 7.30691 6.10062
#
# Compressibility (1/GPa) = 0.04473508
#
# Stress axis : x y z
#
# Youngs Moduli (GPa) = 53.66283 15.22458 105.86453
#
# Poissons Ratio (x) = 0.15144 0.60302
# Poissons Ratio (y) = 0.53381 0.93913
# Poissons Ratio (z) = 0.30567 0.13506
#
# Static dielectric constant tensor:
#      x y z
#    x 3.348770 0.000000 0.000000 
#    y 0.000000 2.741210 0.000000 
#    z 0.000000 0.000000 3.776330 
# 
# 
# High freq. dielectric constant tensor:
#      x y z
#    x 1.690980 0.000000 0.000000 
#    y 0.000000 1.615330 0.000000 
#    z 0.000000 0.000000 1.711520 
# 
# From -- ./inp_files/26138.got.cif
#   From: 2010.03.12/outbox.cif.g09.slc.cpg/sg59_14_cif.got.tgz:26138.got - 2010.04.16 16:29:54.
