data_PCOD8242611
_publ_section_title
;
Structure prediction by ZEFSAII (Michael W. Deem and Ramdas Pophale) SiO2 
 PCOD8242611
Probable space group: P M M N
;
_chemical_formula_sum "Si O2"
_cell_formula_units_Z 56
_cell_length_a 18.652490
_cell_length_b 9.229627
_cell_length_c 18.236305
_cell_angle_alpha 90.000000
_cell_angle_beta 90.000000
_cell_angle_gamma 90.000000
_cell_volume 3139.480667
_symmetry_space_group_name_H-M "P M M N"
_symmetry_group_IT_number 59
_space_group.IT_coordinate_system_code '2'
_symmetry_cell_setting 'orthorhombic'
loop_
_space_group_symop_operation_xyz
x,y,z
1/2-x,1/2-y,z
1/2+x,-y,-z
-x,1/2+y,-z
-x,-y,-z
1/2+x,1/2+y,-z
1/2-x,y,z
x,1/2-y,z
loop_
_atom_site_type_symbol
_atom_site_label
_atom_site_fract_x
_atom_site_fract_y
_atom_site_fract_z
Si Si1 0.936358 0.585070 0.574171
Si Si2 0.330204 0.921650 0.152503
Si Si3 0.335177 0.588987 0.990778
Si Si4 0.922925 0.587452 0.733045
Si Si5 0.164791 0.414121 0.852256
Si Si6 0.908145 0.417829 0.278287
Si Si7 0.420724 0.084198 0.582775
O O1 0.969528 0.750000 0.574714
O O2 0.891876 0.566203 0.650044
O O3 0.887738 0.566444 0.500205
O O4 0.996944 0.462703 0.574198
O O5 0.250000 0.982802 0.167083
O O6 0.328799 0.750000 0.156584
O O7 0.384496 0.978416 0.212895
O O8 0.357830 0.968791 0.071465
O O9 0.250000 0.597604 0.988457
O O10 0.366744 0.750000 0.976214
O O11 0.364531 0.480866 0.928589
O O12 0.908337 0.750000 0.761035
O O13 0.007577 0.554498 0.732135
O O14 0.250000 0.420942 0.849310
O O15 0.136719 0.250000 0.847044
O O16 0.134656 0.506097 0.785870
O O17 0.887913 0.250000 0.278299
O O18 0.881887 0.485812 0.356063
O O19 0.416205 0.250000 0.609381
#
# Coordination Sequence:
#
# PCOD8242611 Si02
#       7
#     8   8   8   8   8   8   8
#     4   8  15  27  42  64  94 124 156 194 235 280
#     4   9  18  32  50  72  96 123 157 195 234 278
#     4   8  15  30  50  69  91 121 155 190 231 278
#     4   9  18  31  47  70  98 126 157 193 232 276
#     4  10  20  33  51  75  97 118 153 197 235 277
#     4  10  20  33  48  69  99 129 157 191 235 286
#     4   9  15  25  44  67  91 121 158 198 236 273
#
# _framework density 17.837344999999999
#
# number of rings (size 3 to 8) (size 9 to 14) (size 15 to 20)
#    0.000    3.000    0.000    3.000    0.000    5.143 
#    0.000    2.143    0.000    0.857    0.000    2.000 
#    0.000    0.000    0.000    0.000    0.000    0.000 
#
# Total GULP energy -693873.751693 kJ/mol
# GULP energy per Si atom -12390.602709 kJ/mol
# Density = 1.779675 g / cm^3
# Si number density = 17.837345 Si / 1000 Ang^3
#
#
#
# Elastic Constant Matrix: (Units=GPa)
#
#
# Indices 1 2 3 4 5 6 
#
# 1 15.1992 17.8291 22.8738 0.0000 0.0000 0.0000
# 2 17.8291 98.7511 68.6654 0.0000 0.0000 0.0000
# 3 22.8738 68.6654 161.5828 0.0000 0.0000 0.0000
# 4 0.0000 0.0000 0.0000 36.2387 0.0000 0.0000
# 5 0.0000 0.0000 0.0000 0.0000 41.5496 0.0000
# 6 0.0000 0.0000 0.0000 0.0000 0.0000 21.8956
#
#
#
# Elastic Compliance Matrix: (Units=1/GPa)
#
#
# Indices 1 2 3 4 5 6 
#
# 1 0.090777 -0.010580 -0.008354 0.000000 0.000000 0.000000
# 2 -0.010580 0.015607 -0.005134 0.000000 0.000000 0.000000
# 3 -0.008354 -0.005134 0.009553 0.000000 0.000000 0.000000
# 4 0.000000 0.000000 0.000000 0.027595 0.000000 0.000000
# 5 0.000000 0.000000 0.000000 0.000000 0.024068 0.000000
# 6 0.000000 0.000000 0.000000 0.000000 0.000000 0.045671
#
#
# Mechanical properties :
#
#
# Convention : Reuss Voigt Hill
#
# Bulk Modulus (GPa) = 14.74954 54.91885 34.83419
# Shear Modulus (GPa) = 17.60512 31.01443 24.30977
#
# Velocity S-wave (km/s) = 3.14503 4.17434 3.69570
# Velocity P-wave (km/s) = 4.63413 7.35452 6.14671
#
# Compressibility (1/GPa) = 0.06779874
#
# Stress axis : x y z
#
# Youngs Moduli (GPa) = 11.01606 64.07420 104.67546
#
# Poissons Ratio (x) = 0.67792 0.87449
# Poissons Ratio (y) = 0.11655 0.53745
# Poissons Ratio (z) = 0.09203 0.32899
#
# Static dielectric constant tensor:
#      x y z
#    x 2.741270 0.000000 0.000000 
#    y 0.000000 3.445160 0.000000 
#    z 0.000000 0.000000 3.842340 
# 
# 
# High freq. dielectric constant tensor:
#      x y z
#    x 1.620220 0.000000 0.000000 
#    y 0.000000 1.697760 0.000000 
#    z 0.000000 0.000000 1.717000 
# 
# From -- ./inp_files/28055.got.cif
#   From: 2010.03.12/outbox.cif.g09.slc.cpg/sg59_15_cif.got.tgz:28055.got - 2010.04.16 16:29:54.
