data_PCOD8242680
_publ_section_title
;
Structure prediction by ZEFSAII (Michael W. Deem and Ramdas Pophale) SiO2 
 PCOD8242680
Probable space group: P M M N
;
_chemical_formula_sum "Si O2"
_cell_formula_units_Z 64
_cell_length_a 13.769879
_cell_length_b 8.925018
_cell_length_c 27.793904
_cell_angle_alpha 90.000000
_cell_angle_beta 90.000000
_cell_angle_gamma 90.000000
_cell_volume 3415.771242
_symmetry_space_group_name_H-M "P M M N"
_symmetry_group_IT_number 59
_space_group.IT_coordinate_system_code '2'
_symmetry_cell_setting 'orthorhombic'
loop_
_space_group_symop_operation_xyz
x,y,z
1/2-x,1/2-y,z
1/2+x,-y,-z
-x,1/2+y,-z
-x,-y,-z
1/2+x,1/2+y,-z
1/2-x,y,z
x,1/2-y,z
loop_
_atom_site_type_symbol
_atom_site_label
_atom_site_fract_x
_atom_site_fract_y
_atom_site_fract_z
Si Si1 0.864584 0.920649 0.523307
Si Si2 0.509507 0.418828 0.797164
Si Si3 0.538056 0.427429 0.613563
Si Si4 0.359512 0.916898 0.111723
Si Si5 0.860809 0.427602 0.137086
Si Si6 0.495414 0.923804 0.948825
Si Si7 0.360831 0.572888 0.576104
Si Si8 0.139982 0.572027 0.288612
O O1 0.750000 0.923174 0.528456
O O2 0.904075 0.750000 0.523201
O O3 0.896104 0.002244 0.474265
O O4 0.907373 0.013009 0.567057
O O5 0.473654 0.250000 0.786406
O O6 0.592042 0.421087 0.836824
O O7 0.415972 0.511017 0.815625
O O8 0.562096 0.491130 0.750377
O O9 0.526295 0.250000 0.611067
O O10 0.430930 0.502811 0.616860
O O11 0.601008 0.477537 0.659401
O O12 0.250000 0.963568 0.120088
O O13 0.369951 0.750000 0.089028
O O14 0.402758 0.040367 0.076171
O O15 0.750000 0.485121 0.137713
O O16 0.866794 0.250000 0.139326
O O17 0.910340 0.484921 0.087064
O O18 0.481771 0.750000 0.957528
O O19 0.500000 0.000000 0.000000
O O20 0.250000 0.528007 0.588251
O O21 0.373237 0.750000 0.573461
O O22 0.250000 0.508206 0.281436
O O23 0.143601 0.750000 0.283351
#
# Coordination Sequence:
#
# PCOD8242680 Si02
#       8
#     8   8   8   8   8   8   8   8
#     4  10  20  34  53  77 105 136 171 212 256 305
#     4   9  17  32  55  80 102 127 166 213 253 294
#     4  11  21  33  52  77 106 138 171 209 254 308
#     4   9  17  30  50  74  99 129 164 203 249 299
#     4   9  19  36  55  74 101 139 177 213 257 307
#     4  10  20  33  49  72 103 137 173 212 254 301
#     4  10  21  37  55  73  97 133 176 218 258 303
#     4   9  18  33  54  80 108 136 165 201 251 309
#
# _framework density 18.736616999999999
#
# number of rings (size 3 to 8) (size 9 to 14) (size 15 to 20)
#    0.000    2.375    0.000    2.625    0.000    5.000 
#    0.000    3.125    0.000    6.375    0.000    0.000 
#    0.000    0.000    0.000    0.000    0.000    0.000 
#
# Total GULP energy -793411.811467 kJ/mol
# GULP energy per Si atom -12397.059554 kJ/mol
# Density = 1.869397 g / cm^3
# Si number density = 18.736617 Si / 1000 Ang^3
#
#
#
# Elastic Constant Matrix: (Units=GPa)
#
#
# Indices 1 2 3 4 5 6 
#
# 1 116.3774 30.7817 63.6656 0.0000 0.0000 0.0000
# 2 30.7817 51.8845 31.4184 0.0000 0.0000 0.0000
# 3 63.6656 31.4184 84.9810 0.0000 0.0000 0.0000
# 4 0.0000 0.0000 0.0000 24.0829 0.0000 0.0000
# 5 0.0000 0.0000 0.0000 0.0000 21.1304 0.0000
# 6 0.0000 0.0000 0.0000 0.0000 0.0000 30.0317
#
#
#
# Elastic Compliance Matrix: (Units=1/GPa)
#
#
# Indices 1 2 3 4 5 6 
#
# 1 0.014842 -0.002670 -0.010132 0.000000 0.000000 0.000000
# 2 -0.002670 0.025313 -0.007358 0.000000 0.000000 0.000000
# 3 -0.010132 -0.007358 0.022078 0.000000 0.000000 0.000000
# 4 0.000000 0.000000 0.000000 0.041523 0.000000 0.000000
# 5 0.000000 0.000000 0.000000 0.000000 0.047325 0.000000
# 6 0.000000 0.000000 0.000000 0.000000 0.000000 0.033298
#
#
# Mechanical properties :
#
#
# Convention : Reuss Voigt Hill
#
# Bulk Modulus (GPa) = 45.63493 56.10825 50.87159
# Shear Modulus (GPa) = 21.55126 23.54082 22.54604
#
# Velocity S-wave (km/s) = 3.39517 3.54843 3.47265
# Velocity P-wave (km/s) = 6.30702 6.84100 6.57943
#
# Compressibility (1/GPa) = 0.02191304
#
# Stress axis : x y z
#
# Youngs Moduli (GPa) = 67.37771 39.50473 45.29307
#
# Poissons Ratio (x) = 0.10547 0.45891
# Poissons Ratio (y) = 0.17989 0.33329
# Poissons Ratio (z) = 0.68267 0.29069
#
# Static dielectric constant tensor:
#      x y z
#    x 3.734940 0.000000 0.000000 
#    y 0.000000 2.853140 0.000000 
#    z 0.000000 0.000000 3.498590 
# 
# 
# High freq. dielectric constant tensor:
#      x y z
#    x 1.737960 0.000000 0.000000 
#    y 0.000000 1.714800 0.000000 
#    z 0.000000 0.000000 1.716960 
# 
# From -- ./inp_files/32252.got.cif
#   From: 2010.03.12/outbox.cif.g09.slc.cpg/sg59_17_cif.got.tgz:32252.got - 2010.04.16 16:29:54.
