data_PCOD8242317
_publ_section_title
;
Structure prediction by ZEFSAII (Michael W. Deem and Ramdas Pophale) SiO2 
 PCOD8242317
Probable space group: P M M N
;
_chemical_formula_sum "Si O2"
_cell_formula_units_Z 64
_cell_length_a 14.048085
_cell_length_b 8.948478
_cell_length_c 25.343652
_cell_angle_alpha 90.000000
_cell_angle_beta 90.000000
_cell_angle_gamma 90.000000
_cell_volume 3185.924631
_symmetry_space_group_name_H-M "P M M N"
_symmetry_group_IT_number 59
_space_group.IT_coordinate_system_code '2'
_symmetry_cell_setting 'orthorhombic'
loop_
_space_group_symop_operation_xyz
x,y,z
1/2-x,1/2-y,z
1/2+x,-y,-z
-x,1/2+y,-z
-x,-y,-z
1/2+x,1/2+y,-z
1/2-x,y,z
x,1/2-y,z
loop_
_atom_site_type_symbol
_atom_site_label
_atom_site_fract_x
_atom_site_fract_y
_atom_site_fract_z
Si Si1 0.548100 0.573140 0.275394
Si Si2 0.965653 0.923218 0.079203
Si Si3 0.396962 0.409385 0.413638
Si Si4 0.143948 0.917351 0.511969
Si Si5 0.603898 0.087328 0.375496
Si Si6 0.639180 0.074969 0.174693
Si Si7 0.139747 0.077117 0.029601
Si Si8 0.853100 0.927112 0.696418
O O1 0.543423 0.750000 0.275521
O O2 0.612739 0.520730 0.325259
O O3 0.602901 0.515863 0.224674
O O4 0.439411 0.512630 0.275039
O O5 0.970038 0.750000 0.095947
O O6 0.921849 0.022566 0.125100
O O7 0.896341 0.947464 0.029722
O O8 0.073428 0.978576 0.067963
O O9 0.352324 0.250000 0.431383
O O10 0.416844 0.503622 0.466526
O O11 0.494947 0.381592 0.384694
O O12 0.338113 0.480933 0.365144
O O13 0.250000 0.918886 0.488623
O O14 0.102851 0.750000 0.518472
O O15 0.144710 0.989911 0.570678
O O16 0.653752 0.250000 0.364650
O O17 0.750000 0.038881 0.164908
O O18 0.622199 0.250000 0.184188
O O19 0.250000 0.024860 0.034028
O O20 0.129720 0.250000 0.045919
O O21 0.750000 0.962088 0.723809
O O22 0.874481 0.750000 0.698389
#
# Coordination Sequence:
#
# PCOD8242317 Si02
#       8
#     8   8   8   8   8   8   8   8
#     4  11  23  38  58  84 111 138 177 232 285 332
#     4  10  20  35  58  90 126 160 200 251 295 333
#     4   9  17  30  49  71  96 128 165 206 255 316
#     4  10  20  31  45  68  96 125 160 207 262 319
#     4   9  19  36  52  67  95 134 173 211 259 325
#     4  11  24  42  64  86 111 149 194 237 284 340
#     4   9  18  34  57  87 127 172 209 241 285 340
#     4   9  18  35  58  81 108 143 179 216 266 332
#
# _framework density 20.088359000000001
#
# number of rings (size 3 to 8) (size 9 to 14) (size 15 to 20)
#    0.000    2.250    0.000    3.750    0.000    6.250 
#    0.000    1.875    0.000    3.750    0.000    0.000 
#    0.000    0.000    0.000    0.000    0.000    0.000 
#
# Total GULP energy -792894.889764 kJ/mol
# GULP energy per Si atom -12388.982653 kJ/mol
# Density = 2.004264 g / cm^3
# Si number density = 20.088359 Si / 1000 Ang^3
#
#
#
# Elastic Constant Matrix: (Units=GPa)
#
#
# Indices 1 2 3 4 5 6 
#
# 1 98.3518 33.5404 32.7893 0.0000 0.0000 0.0000
# 2 33.5404 93.7360 41.0750 0.0000 0.0000 0.0000
# 3 32.7893 41.0750 88.2896 0.0000 0.0000 0.0000
# 4 0.0000 0.0000 0.0000 34.6015 0.0000 0.0000
# 5 0.0000 0.0000 0.0000 0.0000 28.1264 0.0000
# 6 0.0000 0.0000 0.0000 0.0000 0.0000 11.5488
#
#
#
# Elastic Compliance Matrix: (Units=1/GPa)
#
#
# Indices 1 2 3 4 5 6 
#
# 1 0.012241 -0.002999 -0.003151 0.000000 0.000000 0.000000
# 2 -0.002999 0.014135 -0.005462 0.000000 0.000000 0.000000
# 3 -0.003151 -0.005462 0.015038 0.000000 0.000000 0.000000
# 4 0.000000 0.000000 0.000000 0.028900 0.000000 0.000000
# 5 0.000000 0.000000 0.000000 0.000000 0.035554 0.000000
# 6 0.000000 0.000000 0.000000 0.000000 0.000000 0.086589
#
#
# Mechanical properties :
#
#
# Convention : Reuss Voigt Hill
#
# Bulk Modulus (GPa) = 54.97778 55.02074 54.99926
# Shear Modulus (GPa) = 22.54848 26.38684 24.46766
#
# Velocity S-wave (km/s) = 3.35396 3.62821 3.49377
# Velocity P-wave (km/s) = 6.51353 6.70826 6.61161
#
# Compressibility (1/GPa) = 0.01818917
#
# Stress axis : x y z
#
# Youngs Moduli (GPa) = 81.69380 70.74655 66.50001
#
# Poissons Ratio (x) = 0.21220 0.20952
# Poissons Ratio (y) = 0.24503 0.36323
# Poissons Ratio (z) = 0.25739 0.38642
#
# Static dielectric constant tensor:
#      x y z
#    x 3.832970 0.000000 0.000000 
#    y 0.000000 3.645570 0.000000 
#    z 0.000000 0.000000 3.556760 
# 
# 
# High freq. dielectric constant tensor:
#      x y z
#    x 1.794420 0.000000 0.000000 
#    y 0.000000 1.769890 0.000000 
#    z 0.000000 0.000000 1.770080 
# 
# From -- ./inp_files/32137.got.cif
#   From: 2010.03.12/outbox.cif.g09.slc.cpg/sg59_17_cif.got.tgz:32137.got - 2010.04.16 16:29:54.
