data_PCOD8242962
_publ_section_title
;
Structure prediction by ZEFSAII (Michael W. Deem and Ramdas Pophale) SiO2 
 PCOD8242962
Probable space group: P M M N
;
_chemical_formula_sum "Si O2"
_cell_formula_units_Z 64
_cell_length_a 14.618674
_cell_length_b 9.544526
_cell_length_c 24.161681
_cell_angle_alpha 90.000000
_cell_angle_beta 90.000000
_cell_angle_gamma 90.000000
_cell_volume 3371.238615
_symmetry_space_group_name_H-M "P M M N"
_symmetry_group_IT_number 59
_space_group.IT_coordinate_system_code '2'
_symmetry_cell_setting 'orthorhombic'
loop_
_space_group_symop_operation_xyz
x,y,z
1/2-x,1/2-y,z
1/2+x,-y,-z
-x,1/2+y,-z
-x,-y,-z
1/2+x,1/2+y,-z
1/2-x,y,z
x,1/2-y,z
loop_
_atom_site_type_symbol
_atom_site_label
_atom_site_fract_x
_atom_site_fract_y
_atom_site_fract_z
Si Si1 0.857181 0.408916 0.926551
Si Si2 0.357732 0.586863 0.325082
Si Si3 0.649161 0.083439 0.050139
Si Si4 0.997199 0.912907 0.866439
Si Si5 0.641475 0.592183 0.450209
Si Si6 0.141363 0.093404 0.427748
Si Si7 0.645559 0.412669 0.349156
Si Si8 0.995910 0.588367 0.739679
O O1 0.750000 0.418552 0.915701
O O2 0.891541 0.250000 0.918656
O O3 0.904793 0.506523 0.881391
O O4 0.881052 0.463328 0.988485
O O5 0.250000 0.563738 0.315962
O O6 0.383122 0.750000 0.326325
O O7 0.392968 0.517632 0.382425
O O8 0.410296 0.510131 0.275368
O O9 0.750000 0.022650 0.063848
O O10 0.653920 0.250000 0.051842
O O11 0.578806 0.025353 0.095640
O O12 0.981038 0.750000 0.878588
O O13 0.023102 0.939829 0.802934
O O14 0.750000 0.580513 0.450212
O O15 0.610204 0.750000 0.436681
O O16 0.604992 0.548040 0.511325
O O17 0.602547 0.490642 0.402655
O O18 0.250000 0.096049 0.429000
O O19 0.105526 0.250000 0.412634
O O20 0.750000 0.459927 0.336714
O O21 0.641349 0.250000 0.363215
O O22 0.585081 0.451543 0.295995
O O23 0.967178 0.750000 0.730311
#
# Coordination Sequence:
#
# PCOD8242962 Si02
#       8
#     8   8   8   8   8   8   8   8
#     4   9  18  33  53  77 106 138 167 199 248 305
#     4  10  21  36  54  75  98 128 169 214 255 297
#     4   8  15  30  53  80 107 134 165 202 248 301
#     4  10  20  33  52  77 102 132 172 214 249 286
#     4   8  14  26  47  75 102 128 160 198 247 307
#     4   8  14  27  49  75 101 128 158 198 253 310
#     4   9  18  33  52  73  99 131 166 207 252 295
#     4  10  22  37  51  72 102 135 172 210 250 297
#
# _framework density 18.984120999999998
#
# number of rings (size 3 to 8) (size 9 to 14) (size 15 to 20)
#    0.000    3.000    0.000    2.250    0.000    3.500 
#    0.000    8.125    0.000    1.125    0.000    1.750 
#    0.000    0.000    0.000    0.000    0.000    0.000 
#
# Total GULP energy -793446.246907 kJ/mol
# GULP energy per Si atom -12397.597608 kJ/mol
# Density = 1.894091 g / cm^3
# Si number density = 18.984121 Si / 1000 Ang^3
#
#
#
# Elastic Constant Matrix: (Units=GPa)
#
#
# Indices 1 2 3 4 5 6 
#
# 1 52.5378 31.8983 34.5799 0.0000 0.0000 0.0000
# 2 31.8983 67.5931 42.7873 0.0000 0.0000 0.0000
# 3 34.5799 42.7873 103.0435 0.0000 0.0000 0.0000
# 4 0.0000 0.0000 0.0000 25.2532 0.0000 0.0000
# 5 0.0000 0.0000 0.0000 0.0000 25.5064 0.0000
# 6 0.0000 0.0000 0.0000 0.0000 0.0000 21.2790
#
#
#
# Elastic Compliance Matrix: (Units=1/GPa)
#
#
# Indices 1 2 3 4 5 6 
#
# 1 0.028769 -0.010127 -0.005449 0.000000 0.000000 0.000000
# 2 -0.010127 0.023635 -0.006415 0.000000 0.000000 0.000000
# 3 -0.005449 -0.006415 0.014197 0.000000 0.000000 0.000000
# 4 0.000000 0.000000 0.000000 0.039599 0.000000 0.000000
# 5 0.000000 0.000000 0.000000 0.000000 0.039206 0.000000
# 6 0.000000 0.000000 0.000000 0.000000 0.000000 0.046995
#
#
# Mechanical properties :
#
#
# Convention : Reuss Voigt Hill
#
# Bulk Modulus (GPa) = 44.21400 49.07839 46.64620
# Shear Modulus (GPa) = 20.49820 22.00164 21.24992
#
# Velocity S-wave (km/s) = 3.28953 3.40803 3.34930
# Velocity P-wave (km/s) = 6.14561 6.43387 6.29139
#
# Compressibility (1/GPa) = 0.02261727
#
# Stress axis : x y z
#
# Youngs Moduli (GPa) = 34.75916 42.31081 70.43599
#
# Poissons Ratio (x) = 0.42849 0.38384
# Poissons Ratio (y) = 0.35201 0.45187
# Poissons Ratio (z) = 0.18942 0.27144
#
# Static dielectric constant tensor:
#      x y z
#    x 3.382830 0.000000 0.000000 
#    y 0.000000 3.345920 0.000000 
#    z 0.000000 0.000000 3.633490 
# 
# 
# High freq. dielectric constant tensor:
#      x y z
#    x 1.727820 0.000000 0.000000 
#    y 0.000000 1.718550 0.000000 
#    z 0.000000 0.000000 1.738210 
# 
# From -- ./inp_files/32174.got.cif
#   From: 2010.03.12/outbox.cif.g09.slc.cpg/sg59_17_cif.got.tgz:32174.got - 2010.04.16 16:29:54.
