data_PCOD8242160
_publ_section_title
;
Structure prediction by ZEFSAII (Michael W. Deem and Ramdas Pophale) SiO2 
 PCOD8242160
Probable space group: P M M N
;
_chemical_formula_sum "Si O2"
_cell_formula_units_Z 48
_cell_length_a 30.940592
_cell_length_b 8.477974
_cell_length_c 8.990804
_cell_angle_alpha 90.000000
_cell_angle_beta 90.000000
_cell_angle_gamma 90.000000
_cell_volume 2358.409575
_symmetry_space_group_name_H-M "P M M N"
_symmetry_group_IT_number 59
_space_group.IT_coordinate_system_code '2'
_symmetry_cell_setting 'orthorhombic'
loop_
_space_group_symop_operation_xyz
x,y,z
1/2-x,1/2-y,z
1/2+x,-y,-z
-x,1/2+y,-z
-x,-y,-z
1/2+x,1/2+y,-z
1/2-x,y,z
x,1/2-y,z
loop_
_atom_site_type_symbol
_atom_site_label
_atom_site_fract_x
_atom_site_fract_y
_atom_site_fract_z
Si Si1 0.250000 0.925742 0.325655
Si Si2 0.995204 0.565607 0.336022
Si Si3 0.161265 0.435192 0.339307
Si Si4 0.660289 0.935565 0.321963
Si Si5 0.750000 0.429486 0.320992
Si Si6 0.081537 0.567442 0.852219
Si Si7 0.576069 0.934053 0.827866
O O1 0.250000 0.750000 0.264035
O O2 0.250000 0.935620 0.502197
O O3 0.293923 0.005652 0.266272
O O4 0.984058 0.750000 0.339867
O O5 0.956155 0.471938 0.262260
O O6 0.000000 0.500000 0.500000
O O7 0.038771 0.537722 0.244936
O O8 0.163915 0.250000 0.341122
O O9 0.154785 0.495559 0.508142
O O10 0.121460 0.494633 0.239585
O O11 0.651655 0.750000 0.306361
O O12 0.707962 0.978292 0.261766
O O13 0.627198 0.031888 0.222292
O O14 0.750000 0.250000 0.262474
O O15 0.079081 0.750000 0.897844
O O16 0.075790 0.459454 0.996525
O O17 0.568298 0.750000 0.792421
#
# Coordination Sequence:
#
# PCOD8242160 Si02
#       7
#     4   8   8   8   4   8   8
#     4   9  17  29  52  83 116 149 188 236 286 337
#     4  12  25  43  66  92 119 151 192 240 290 347
#     4   9  19  35  58  84 114 150 192 238 288 343
#     4  10  19  35  59  87 116 152 197 246 295 349
#     4   9  17  31  52  83 118 153 192 240 294 349
#     4  12  25  41  60  86 120 158 196 241 294 351
#     4  11  23  41  62  87 119 157 197 241 292 350
#
# _framework density 20.352699000000001
#
# number of rings (size 3 to 8) (size 9 to 14) (size 15 to 20)
#    0.000    1.500    0.000    6.000    0.000    5.333 
#    0.000    0.833    0.000    3.000    0.000    0.000 
#    0.000    0.000    0.000    0.000    0.000    0.000 
#
# Total GULP energy -595410.703349 kJ/mol
# GULP energy per Si atom -12404.389653 kJ/mol
# Density = 2.030638 g / cm^3
# Si number density = 20.352699 Si / 1000 Ang^3
#
#
#
# Elastic Constant Matrix: (Units=GPa)
#
#
# Indices 1 2 3 4 5 6 
#
# 1 146.3086 20.4493 45.4362 0.0000 0.0000 0.0000
# 2 20.4493 69.5444 7.5194 0.0000 0.0000 0.0000
# 3 45.4362 7.5194 87.6423 0.0000 0.0000 0.0000
# 4 0.0000 0.0000 0.0000 27.2316 0.0000 0.0000
# 5 0.0000 0.0000 0.0000 0.0000 -30.1055 0.0000
# 6 0.0000 0.0000 0.0000 0.0000 0.0000 38.1438
#
#
#
# Elastic Compliance Matrix: (Units=1/GPa)
#
#
# Indices 1 2 3 4 5 6 
#
# 1 0.008419 -0.002022 -0.004191 0.000000 0.000000 0.000000
# 2 -0.002022 0.015000 -0.000238 0.000000 0.000000 0.000000
# 3 -0.004191 -0.000238 0.013603 0.000000 0.000000 0.000000
# 4 0.000000 0.000000 0.000000 0.036722 0.000000 0.000000
# 5 0.000000 0.000000 0.000000 0.000000 -0.033217 0.000000
# 6 0.000000 0.000000 0.000000 0.000000 0.000000 0.026217
#
#
# Mechanical properties :
#
#
# Convention : Reuss Voigt Hill
#
# Bulk Modulus (GPa) = 41.46272 50.03389 45.74830
# Shear Modulus (GPa) = 57.02059 22.39337 39.70698
#
# Velocity S-wave (km/s) = 5.29878 3.32062 4.42174
# Velocity P-wave (km/s) = 7.60608 6.27207 6.97106
#
# Compressibility (1/GPa) = 0.02411805
#
# Stress axis : x y z
#
# Youngs Moduli (GPa) = 118.77734 66.66769 73.51162
#
# Poissons Ratio (x) = 0.13483 0.30810
# Poissons Ratio (y) = 0.24022 0.01753
# Poissons Ratio (z) = 0.49782 0.01590
#
# Static dielectric constant tensor:
#      x y z
#    x 4.043680 0.000000 0.000000 
#    y 0.000000 3.747360 0.000000 
#    z 0.000000 0.000000 3.520210 
# 
# 
# High freq. dielectric constant tensor:
#      x y z
#    x 1.815990 0.000000 0.000000 
#    y 0.000000 1.801180 0.000000 
#    z 0.000000 0.000000 1.774900 
# 
# From -- ./inp_files/13057.got.cif
#   From: 2010.03.12/outbox.cif.g09.slc.cpg/sg59_7_cif.got.tgz:13057.got - 2010.04.16 16:29:54.
