data_PCOD8242542
_publ_section_title
;
Structure prediction by ZEFSAII (Michael W. Deem and Ramdas Pophale) SiO2 
 PCOD8242542
Probable space group: P M M N
;
_chemical_formula_sum "Si O2"
_cell_formula_units_Z 64
_cell_length_a 8.831537
_cell_length_b 19.644280
_cell_length_c 20.011237
_cell_angle_alpha 90.000000
_cell_angle_beta 90.000000
_cell_angle_gamma 90.000000
_cell_volume 3471.733211
_symmetry_space_group_name_H-M "P M M N"
_symmetry_group_IT_number 59
_space_group.IT_coordinate_system_code '2'
_symmetry_cell_setting 'orthorhombic'
loop_
_space_group_symop_operation_xyz
x,y,z
1/2-x,1/2-y,z
1/2+x,-y,-z
-x,1/2+y,-z
-x,-y,-z
1/2+x,1/2+y,-z
1/2-x,y,z
x,1/2-y,z
loop_
_atom_site_type_symbol
_atom_site_label
_atom_site_fract_x
_atom_site_fract_y
_atom_site_fract_z
Si Si1 0.927792 0.934645 0.304137
Si Si2 0.425987 0.910528 0.675088
Si Si3 0.574684 0.611064 0.810848
Si Si4 0.071537 0.067258 0.969461
Si Si5 0.925652 0.453337 0.832894
Si Si6 0.424582 0.329070 0.440104
Si Si7 0.577482 0.171189 0.065627
Si Si8 0.429914 0.174712 0.590570
O O1 0.750000 0.924848 0.292391
O O2 0.993635 0.881032 0.357868
O O3 0.011681 0.919999 0.234690
O O4 0.965708 0.009740 0.331256
O O5 0.250000 0.899562 0.689722
O O6 0.518906 0.876793 0.735530
O O7 0.470906 0.874552 0.606731
O O8 0.750000 0.630520 0.815113
O O9 0.544465 0.533860 0.833373
O O10 0.480728 0.659921 0.859189
O O11 0.250000 0.058466 0.969896
O O12 0.013825 0.079971 0.894536
O O13 0.027350 0.131810 0.013605
O O14 0.000000 0.000000 0.000000
O O15 0.750000 0.435870 0.839737
O O16 0.250000 0.350580 0.430938
O O17 0.445920 0.250000 0.422141
O O18 0.481545 0.343542 0.515454
O O19 0.750000 0.145053 0.060241
O O20 0.565857 0.250000 0.047612
O O21 0.250000 0.175152 0.591842
O O22 0.490371 0.250000 0.610474
#
# Coordination Sequence:
#
# PCOD8242542 Si02
#       8
#     8   8   8   8   8   8   8   8
#     4   9  18  33  53  79 108 138 175 223 274 325
#     4  10  20  32  49  76 110 141 173 219 273 326
#     4  10  20  35  56  78 104 142 184 224 267 324
#     4  12  23  37  61  87 112 147 188 230 274 328
#     4  10  20  35  56  83 110 140 181 226 270 322
#     4   9  18  33  52  73  99 136 182 225 265 320
#     4  11  24  40  58  83 116 149 183 229 281 330
#     4   8  15  31  55  78 101 135 180 225 269 322
#
# _framework density 18.434595000000002
#
# number of rings (size 3 to 8) (size 9 to 14) (size 15 to 20)
#    0.000    2.125    1.250    3.375    0.000    3.750 
#    0.000    1.250    0.000    3.375    0.000    0.000 
#    0.000    0.000    0.000    0.000    0.000    0.000 
#
# Total GULP energy -793804.100785 kJ/mol
# GULP energy per Si atom -12403.189075 kJ/mol
# Density = 1.839264 g / cm^3
# Si number density = 18.434595 Si / 1000 Ang^3
#
#
#
# Elastic Constant Matrix: (Units=GPa)
#
#
# Indices 1 2 3 4 5 6 
#
# 1 86.3145 36.4343 50.0363 0.0000 0.0000 0.0000
# 2 36.4343 74.6997 62.1273 0.0000 0.0000 0.0000
# 3 50.0363 62.1273 137.0465 0.0000 0.0000 0.0000
# 4 0.0000 0.0000 0.0000 31.3923 0.0000 0.0000
# 5 0.0000 0.0000 0.0000 0.0000 33.5238 0.0000
# 6 0.0000 0.0000 0.0000 0.0000 0.0000 22.6034
#
#
#
# Elastic Compliance Matrix: (Units=1/GPa)
#
#
# Indices 1 2 3 4 5 6 
#
# 1 0.015629 -0.004618 -0.003613 0.000000 0.000000 0.000000
# 2 -0.004618 0.022854 -0.008674 0.000000 0.000000 0.000000
# 3 -0.003613 -0.008674 0.012548 0.000000 0.000000 0.000000
# 4 0.000000 0.000000 0.000000 0.031855 0.000000 0.000000
# 5 0.000000 0.000000 0.000000 0.000000 0.029830 0.000000
# 6 0.000000 0.000000 0.000000 0.000000 0.000000 0.044241
#
#
# Mechanical properties :
#
#
# Convention : Reuss Voigt Hill
#
# Bulk Modulus (GPa) = 58.06971 66.13960 62.10465
# Shear Modulus (GPa) = 25.44436 27.46808 26.45622
#
# Velocity S-wave (km/s) = 3.71920 3.86428 3.79243
# Velocity P-wave (km/s) = 7.07192 7.47436 7.27592
#
# Compressibility (1/GPa) = 0.01722068
#
# Stress axis : x y z
#
# Youngs Moduli (GPa) = 63.98251 43.75652 79.69398
#
# Poissons Ratio (x) = 0.20209 0.28790
# Poissons Ratio (y) = 0.29550 0.69127
# Poissons Ratio (z) = 0.23114 0.37955
#
# Static dielectric constant tensor:
#      x y z
#    x 3.332770 0.000000 0.000000 
#    y 0.000000 3.370050 0.000000 
#    z 0.000000 0.000000 3.537060 
# 
# 
# High freq. dielectric constant tensor:
#      x y z
#    x 1.711460 0.000000 0.000000 
#    y 0.000000 1.698960 0.000000 
#    z 0.000000 0.000000 1.724370 
# 
# From -- ./inp_files/29446.got.cif
#   From: 2010.03.12/outbox.cif.g09.slc.cpg/sg59_15_cif.got.tgz:29446.got - 2010.04.16 16:29:54.
