data_PCOD8242751
_publ_section_title
;
Structure prediction by ZEFSAII (Michael W. Deem and Ramdas Pophale) SiO2 
 PCOD8242751
Probable space group: P M M N
;
_chemical_formula_sum "Si O2"
_cell_formula_units_Z 56
_cell_length_a 9.392493
_cell_length_b 18.973003
_cell_length_c 18.007634
_cell_angle_alpha 90.000000
_cell_angle_beta 90.000000
_cell_angle_gamma 90.000000
_cell_volume 3209.028769
_symmetry_space_group_name_H-M "P M M N"
_symmetry_group_IT_number 59
_space_group.IT_coordinate_system_code '2'
_symmetry_cell_setting 'orthorhombic'
loop_
_space_group_symop_operation_xyz
x,y,z
1/2-x,1/2-y,z
1/2+x,-y,-z
-x,1/2+y,-z
-x,-y,-z
1/2+x,1/2+y,-z
1/2-x,y,z
x,1/2-y,z
loop_
_atom_site_type_symbol
_atom_site_label
_atom_site_fract_x
_atom_site_fract_y
_atom_site_fract_z
Si Si1 0.409543 0.579404 0.155322
Si Si2 0.084399 0.571749 0.991396
Si Si3 0.092978 0.166248 0.568183
Si Si4 0.406704 0.666470 0.564348
Si Si5 0.919269 0.670638 0.268212
Si Si6 0.414957 0.832498 0.730631
Si Si7 0.416317 0.086606 0.146367
O O1 0.250000 0.593891 0.184276
O O2 0.519952 0.617654 0.208051
O O3 0.441390 0.496376 0.156410
O O4 0.425684 0.610338 0.071414
O O5 0.250000 0.558193 0.970607
O O6 0.004995 0.614706 0.925712
O O7 0.000000 0.500000 0.000000
O O8 0.250000 0.133659 0.560566
O O9 0.100753 0.250000 0.561161
O O10 0.028430 0.147325 0.649300
O O11 0.002403 0.132945 0.500850
O O12 0.250000 0.634463 0.553745
O O13 0.400838 0.750000 0.555901
O O14 0.462405 0.647695 0.646683
O O15 0.750000 0.667444 0.265536
O O16 0.971899 0.750000 0.250673
O O17 0.250000 0.853763 0.744236
O O18 0.434775 0.750000 0.745698
O O19 0.522068 0.874652 0.782340
O O20 0.250000 0.104726 0.135949
#
# Coordination Sequence:
#
# PCOD8242751 Si02
#       7
#     8   8   8   8   8   8   8
#     4   9  19  33  49  71  95 120 154 194 233 276
#     4   9  17  31  50  71  94 121 157 198 236 277
#     4   8  14  25  41  63  91 120 151 188 228 270
#     4   8  14  25  42  65  91 119 153 190 227 272
#     4   9  18  31  47  70  98 125 155 192 233 278
#     4   9  18  32  49  71  99 127 156 193 237 283
#     4  10  20  33  50  73  97 122 158 198 235 281
#
# _framework density 17.450762999999998
#
# number of rings (size 3 to 8) (size 9 to 14) (size 15 to 20)
#    0.000    3.143    0.000    3.429    0.000    5.143 
#    0.000    3.571    0.000    1.714    0.000    0.000 
#    0.000    0.000    0.000    0.000    0.000    0.000 
#
# Total GULP energy -693931.316857 kJ/mol
# GULP energy per Si atom -12391.630658 kJ/mol
# Density = 1.741104 g / cm^3
# Si number density = 17.450763 Si / 1000 Ang^3
#
#
#
# Elastic Constant Matrix: (Units=GPa)
#
#
# Indices 1 2 3 4 5 6 
#
# 1 98.3897 27.9754 75.9217 0.0000 0.0000 0.0000
# 2 27.9754 29.1778 36.6516 0.0000 0.0000 0.0000
# 3 75.9217 36.6516 148.2635 0.0000 0.0000 0.0000
# 4 0.0000 0.0000 0.0000 52.7313 0.0000 0.0000
# 5 0.0000 0.0000 0.0000 0.0000 39.4764 0.0000
# 6 0.0000 0.0000 0.0000 0.0000 0.0000 23.3701
#
#
#
# Elastic Compliance Matrix: (Units=1/GPa)
#
#
# Indices 1 2 3 4 5 6 
#
# 1 0.018084 -0.008276 -0.007214 0.000000 0.000000 0.000000
# 2 -0.008276 0.053496 -0.008986 0.000000 0.000000 0.000000
# 3 -0.007214 -0.008986 0.012660 0.000000 0.000000 0.000000
# 4 0.000000 0.000000 0.000000 0.018964 0.000000 0.000000
# 5 0.000000 0.000000 0.000000 0.000000 0.025332 0.000000
# 6 0.000000 0.000000 0.000000 0.000000 0.000000 0.042790
#
#
# Mechanical properties :
#
#
# Convention : Reuss Voigt Hill
#
# Bulk Modulus (GPa) = 28.33964 61.88093 45.11029
# Shear Modulus (GPa) = 21.54784 32.13439 26.84111
#
# Velocity S-wave (km/s) = 3.51775 4.29585 3.92612
# Velocity P-wave (km/s) = 5.72490 7.75519 6.81607
#
# Compressibility (1/GPa) = 0.03528626
#
# Stress axis : x y z
#
# Youngs Moduli (GPa) = 55.29841 18.69294 78.98606
#
# Poissons Ratio (x) = 0.15471 0.56982
# Poissons Ratio (y) = 0.45767 0.70981
# Poissons Ratio (z) = 0.39893 0.16798
#
# Static dielectric constant tensor:
#      x y z
#    x 3.447410 0.000000 0.000000 
#    y 0.000000 2.741760 0.000000 
#    z 0.000000 0.000000 3.720650 
# 
# 
# High freq. dielectric constant tensor:
#      x y z
#    x 1.678090 0.000000 0.000000 
#    y 0.000000 1.616440 0.000000 
#    z 0.000000 0.000000 1.692210 
# 
# From -- ./inp_files/26100.got.cif
#   From: 2010.03.12/outbox.cif.g09.slc.cpg/sg59_14_cif.got.tgz:26100.got - 2010.04.16 16:29:54.
