data_PCOD8242718
_publ_section_title
;
Structure prediction by ZEFSAII (Michael W. Deem and Ramdas Pophale) SiO2 
 PCOD8242718
Probable space group: P M M N
;
_chemical_formula_sum "Si O2"
_cell_formula_units_Z 48
_cell_length_a 9.129165
_cell_length_b 8.972535
_cell_length_c 31.169026
_cell_angle_alpha 90.000000
_cell_angle_beta 90.000000
_cell_angle_gamma 90.000000
_cell_volume 2553.109543
_symmetry_space_group_name_H-M "P M M N"
_symmetry_group_IT_number 59
_space_group.IT_coordinate_system_code '2'
_symmetry_cell_setting 'orthorhombic'
loop_
_space_group_symop_operation_xyz
x,y,z
1/2-x,1/2-y,z
1/2+x,-y,-z
-x,1/2+y,-z
-x,-y,-z
1/2+x,1/2+y,-z
1/2-x,y,z
x,1/2-y,z
loop_
_atom_site_type_symbol
_atom_site_label
_atom_site_fract_x
_atom_site_fract_y
_atom_site_fract_z
Si Si1 0.918142 0.073750 0.960707
Si Si2 0.076081 0.584404 0.298419
Si Si3 0.085652 0.072481 0.876654
Si Si4 0.422158 0.077830 0.382879
Si Si5 0.080561 0.425521 0.539545
Si Si6 0.413468 0.927587 0.204811
O O1 0.750000 0.022680 0.960720
O O2 0.933458 0.250000 0.964818
O O3 0.991075 0.015367 0.916814
O O4 0.000000 0.000000 0.000000
O O5 0.250000 0.593795 0.296317
O O6 0.012976 0.750000 0.308183
O O7 0.025164 0.471595 0.335519
O O8 0.022206 0.525664 0.251674
O O9 0.250000 0.010026 0.881151
O O10 0.085545 0.250000 0.875307
O O11 0.016589 0.008081 0.832693
O O12 0.250000 0.048207 0.389343
O O13 0.461167 0.250000 0.389432
O O14 0.510248 0.980218 0.416501
O O15 0.250000 0.471873 0.538447
O O16 0.060161 0.250000 0.535856
O O17 0.000000 0.500000 0.500000
O O18 0.250000 0.992321 0.197895
O O19 0.407062 0.750000 0.202827
#
# Coordination Sequence:
#
# PCOD8242718 Si02
#       6
#     8   8   8   8   8   8
#     4  10  20  33  50  72  98 129 165 206 252 302
#     4   8  14  26  46  71  98 129 164 203 248 296
#     4   9  16  26  42  66  95 125 159 203 253 301
#     4  10  20  34  54  80 108 139 175 212 251 298
#     4  11  24  40  58  81 107 136 172 212 255 304
#     4   8  13  23  41  64  89 120 161 205 247 293
#
# _framework density 18.800602999999999
#
# number of rings (size 3 to 8) (size 9 to 14) (size 15 to 20)
#    0.000    2.667    0.000    3.500    0.000    7.333 
#    0.000    0.833    0.000    4.000    0.000    2.333 
#    0.000    0.000    0.000    0.000    0.000    0.000 
#
# Total GULP energy -595084.182935 kJ/mol
# GULP energy per Si atom -12397.587144 kJ/mol
# Density = 1.875781 g / cm^3
# Si number density = 18.800603 Si / 1000 Ang^3
#
#
#
# Elastic Constant Matrix: (Units=GPa)
#
#
# Indices 1 2 3 4 5 6 
#
# 1 118.1923 32.6948 80.0205 0.0000 0.0000 0.0000
# 2 32.6948 36.9753 33.7489 0.0000 0.0000 0.0000
# 3 80.0205 33.7489 179.4778 0.0000 0.0000 0.0000
# 4 0.0000 0.0000 0.0000 27.3104 0.0000 0.0000
# 5 0.0000 0.0000 0.0000 0.0000 32.4024 0.0000
# 6 0.0000 0.0000 0.0000 0.0000 0.0000 19.1456
#
#
#
# Elastic Compliance Matrix: (Units=1/GPa)
#
#
# Indices 1 2 3 4 5 6 
#
# 1 0.013822 -0.007964 -0.004665 0.000000 0.000000 0.000000
# 2 -0.007964 0.037237 -0.003451 0.000000 0.000000 0.000000
# 3 -0.004665 -0.003451 0.008301 0.000000 0.000000 0.000000
# 4 0.000000 0.000000 0.000000 0.036616 0.000000 0.000000
# 5 0.000000 0.000000 0.000000 0.000000 0.030862 0.000000
# 6 0.000000 0.000000 0.000000 0.000000 0.000000 0.052231
#
#
# Mechanical properties :
#
#
# Convention : Reuss Voigt Hill
#
# Bulk Modulus (GPa) = 36.76569 69.73044 53.24807
# Shear Modulus (GPa) = 22.69662 28.31709 25.50686
#
# Velocity S-wave (km/s) = 3.47829 3.88516 3.68734
# Velocity P-wave (km/s) = 5.97740 7.56941 6.82002
#
# Compressibility (1/GPa) = 0.02719927
#
# Stress axis : x y z
#
# Youngs Moduli (GPa) = 72.34671 26.85476 120.47240
#
# Poissons Ratio (x) = 0.21387 0.56202
# Poissons Ratio (y) = 0.57618 0.41578
# Poissons Ratio (z) = 0.33751 0.09268
#
# Static dielectric constant tensor:
#      x y z
#    x 3.416980 0.000000 0.000000 
#    y 0.000000 3.090050 0.000000 
#    z 0.000000 0.000000 3.929440 
# 
# 
# High freq. dielectric constant tensor:
#      x y z
#    x 1.715870 0.000000 0.000000 
#    y 0.000000 1.689810 0.000000 
#    z 0.000000 0.000000 1.752920 
# 
# From -- ./inp_files/32849.got.cif
#   From: 2010.03.12/outbox.cif.g09.slc.cpg/sg59_17_cif.got.tgz:32849.got - 2010.04.16 16:29:54.
