data_PCOD8242775
_publ_section_title
;
Structure prediction by ZEFSAII (Michael W. Deem and Ramdas Pophale) SiO2 
 PCOD8242775
Probable space group: P M M N
;
_chemical_formula_sum "Si O2"
_cell_formula_units_Z 48
_cell_length_a 18.660525
_cell_length_b 9.101442
_cell_length_c 15.370092
_cell_angle_alpha 90.000000
_cell_angle_beta 90.000000
_cell_angle_gamma 90.000000
_cell_volume 2610.420859
_symmetry_space_group_name_H-M "P M M N"
_symmetry_group_IT_number 59
_space_group.IT_coordinate_system_code '2'
_symmetry_cell_setting 'orthorhombic'
loop_
_space_group_symop_operation_xyz
x,y,z
1/2-x,1/2-y,z
1/2+x,-y,-z
-x,1/2+y,-z
-x,-y,-z
1/2+x,1/2+y,-z
1/2-x,y,z
x,1/2-y,z
loop_
_atom_site_type_symbol
_atom_site_label
_atom_site_fract_x
_atom_site_fract_y
_atom_site_fract_z
Si Si1 0.170993 0.423453 0.839594
Si Si2 0.076367 0.576059 0.500154
Si Si3 0.424207 0.424303 0.996479
Si Si4 0.668017 0.578192 0.838594
Si Si5 0.334084 0.080895 0.643683
Si Si6 0.831694 0.077427 0.664764
O O1 0.250000 0.491764 0.856096
O O2 0.177242 0.250000 0.850427
O O3 0.115717 0.485656 0.910500
O O4 0.144644 0.461482 0.742418
O O5 0.066402 0.750000 0.502787
O O6 0.121200 0.527091 0.583547
O O7 0.119038 0.524529 0.414514
O O8 0.000000 0.500000 0.500000
O O9 0.433755 0.250000 0.993164
O O10 0.500000 0.500000 0.000000
O O11 0.378953 0.474104 0.080159
O O12 0.750000 0.534084 0.858222
O O13 0.660293 0.750000 0.822303
O O14 0.639389 0.497885 0.752368
O O15 0.250000 0.055283 0.628214
O O16 0.354351 0.250000 0.623933
O O17 0.750000 0.028458 0.645060
O O18 0.836934 0.250000 0.678401
#
# Coordination Sequence:
#
# PCOD8242775 Si02
#       6
#     8   8   8   8   8   8
#     4   8  15  31  55  77  97 129 172 210 245 295
#     4  11  23  37  53  75 106 141 175 212 258 310
#     4  10  20  33  50  74 105 137 168 204 249 300
#     4   9  18  33  54  78 101 129 169 214 253 291
#     4   9  18  34  57  82 104 130 170 216 259 307
#     4   9  19  36  56  76  99 131 170 210 255 308
#
# _framework density 18.387839
#
# number of rings (size 3 to 8) (size 9 to 14) (size 15 to 20)
#    0.000    2.667    0.000    2.500    0.000    6.333 
#    0.000    7.500    0.000    2.500    0.000    0.000 
#    0.000    0.000    0.000    0.000    0.000    0.000 
#
# Total GULP energy -595210.728127 kJ/mol
# GULP energy per Si atom -12400.223503 kJ/mol
# Density = 1.834599 g / cm^3
# Si number density = 18.387839 Si / 1000 Ang^3
#
#
#
# Elastic Constant Matrix: (Units=GPa)
#
#
# Indices 1 2 3 4 5 6 
#
# 1 117.1480 41.5231 94.7885 0.0000 0.0000 0.0000
# 2 41.5231 39.4429 49.4417 0.0000 0.0000 0.0000
# 3 94.7885 49.4417 172.1476 0.0000 0.0000 0.0000
# 4 0.0000 0.0000 0.0000 28.5794 0.0000 0.0000
# 5 0.0000 0.0000 0.0000 0.0000 12.2207 0.0000
# 6 0.0000 0.0000 0.0000 0.0000 0.0000 32.1315
#
#
#
# Elastic Compliance Matrix: (Units=1/GPa)
#
#
# Indices 1 2 3 4 5 6 
#
# 1 0.017589 -0.009963 -0.006823 0.000000 0.000000 0.000000
# 2 -0.009963 0.045259 -0.007512 0.000000 0.000000 0.000000
# 3 -0.006823 -0.007512 0.011724 0.000000 0.000000 0.000000
# 4 0.000000 0.000000 0.000000 0.034990 0.000000 0.000000
# 5 0.000000 0.000000 0.000000 0.000000 0.081829 0.000000
# 6 0.000000 0.000000 0.000000 0.000000 0.000000 0.031122
#
#
# Mechanical properties :
#
#
# Convention : Reuss Voigt Hill
#
# Bulk Modulus (GPa) = 38.50162 77.80501 58.15332
# Shear Modulus (GPa) = 17.87197 24.11866 20.99532
#
# Velocity S-wave (km/s) = 3.12099 3.62562 3.38273
# Velocity P-wave (km/s) = 5.82851 7.74157 6.85213
#
# Compressibility (1/GPa) = 0.02597294
#
# Stress axis : x y z
#
# Youngs Moduli (GPa) = 56.85506 22.09515 85.29813
#
# Poissons Ratio (x) = 0.22014 0.58200
# Poissons Ratio (y) = 0.56647 0.64080
# Poissons Ratio (z) = 0.38793 0.16599
#
# Static dielectric constant tensor:
#      x y z
#    x 3.306950 0.000000 0.000000 
#    y 0.000000 3.131780 0.000000 
#    z 0.000000 0.000000 3.650010 
# 
# 
# High freq. dielectric constant tensor:
#      x y z
#    x 1.712130 0.000000 0.000000 
#    y 0.000000 1.688750 0.000000 
#    z 0.000000 0.000000 1.728050 
# 
# From -- ./inp_files/20408.got.cif
#   From: 2010.03.12/outbox.cif.g09.slc.cpg/sg59_11_cif.got.tgz:20408.got - 2010.04.16 16:29:54.
