data_PCOD8242571
_publ_section_title
;
Structure prediction by ZEFSAII (Michael W. Deem and Ramdas Pophale) SiO2 
 PCOD8242571
Probable space group: P M M N
;
_chemical_formula_sum "Si O2"
_cell_formula_units_Z 64
_cell_length_a 8.752328
_cell_length_b 14.659366
_cell_length_c 24.616655
_cell_angle_alpha 90.000000
_cell_angle_beta 90.000000
_cell_angle_gamma 90.000000
_cell_volume 3158.404952
_symmetry_space_group_name_H-M "P M M N"
_symmetry_group_IT_number 59
_space_group.IT_coordinate_system_code '2'
_symmetry_cell_setting 'orthorhombic'
loop_
_space_group_symop_operation_xyz
x,y,z
1/2-x,1/2-y,z
1/2+x,-y,-z
-x,1/2+y,-z
-x,-y,-z
1/2+x,1/2+y,-z
1/2-x,y,z
x,1/2-y,z
loop_
_atom_site_type_symbol
_atom_site_label
_atom_site_fract_x
_atom_site_fract_y
_atom_site_fract_z
Si Si1 0.922922 0.850453 0.389825
Si Si2 0.069720 0.647611 0.084795
Si Si3 0.068780 0.855056 0.647108
Si Si4 0.426485 0.527355 0.750760
Si Si5 0.068464 0.851127 0.963525
Si Si6 0.573468 0.022051 0.129853
Si Si7 0.075770 0.848711 0.277857
Si Si8 0.927221 0.985492 0.558363
O O1 0.750000 0.887621 0.398720
O O2 0.939744 0.750000 0.416697
O O3 0.956178 0.844570 0.326676
O O4 0.048696 0.917707 0.413432
O O5 0.250000 0.646607 0.090764
O O6 0.008826 0.750000 0.096371
O O7 0.000667 0.578239 0.128479
O O8 0.020291 0.616271 0.023855
O O9 0.250000 0.858286 0.642966
O O10 0.011411 0.750000 0.648875
O O11 0.001899 0.904409 0.593779
O O12 0.013358 0.905981 0.702621
O O13 0.250000 0.503752 0.739472
O O14 0.447942 0.570473 0.810940
O O15 0.524825 0.435029 0.757039
O O16 0.250000 0.849088 0.958633
O O17 0.003330 0.750000 0.953354
O O18 0.996772 0.915475 0.916832
O O19 0.750000 0.008221 0.117078
O O20 0.250000 0.863012 0.298007
O O21 0.064180 0.750000 0.246856
O O22 0.750000 0.962531 0.552215
O O23 0.000000 0.000000 0.500000
#
# Coordination Sequence:
#
# PCOD8242571 Si02
#       8
#     8   8   8   8   8   8   8   8
#     4  10  20  36  60  88 118 149 182 227 282 336
#     4   9  18  33  52  74 104 146 188 229 286 350
#     4  10  22  42  65  87 116 156 199 241 287 342
#     4  10  21  36  55  81 115 151 188 233 287 342
#     4   8  15  30  52  76 104 139 183 234 287 344
#     4  10  20  32  51  81 110 141 185 237 287 335
#     4  10  20  34  55  82 109 143 186 227 274 335
#     4  12  25  41  64  92 123 157 194 238 286 338
#
# _framework density 20.263394000000002
#
# number of rings (size 3 to 8) (size 9 to 14) (size 15 to 20)
#    0.000    2.125    1.250    3.000    0.000    4.000 
#    0.000    5.000    0.000    1.125    0.000    1.750 
#    0.000    0.000    0.000    0.000    0.000    0.000 
#
# Total GULP energy -793076.081488 kJ/mol
# GULP energy per Si atom -12391.813773 kJ/mol
# Density = 2.021727 g / cm^3
# Si number density = 20.263394 Si / 1000 Ang^3
#
#
#
# Elastic Constant Matrix: (Units=GPa)
#
#
# Indices 1 2 3 4 5 6 
#
# 1 46.4449 28.1849 22.4524 0.0000 0.0000 0.0000
# 2 28.1849 117.9720 54.0338 0.0000 0.0000 0.0000
# 3 22.4524 54.0338 111.4082 0.0000 0.0000 0.0000
# 4 0.0000 0.0000 0.0000 17.3224 0.0000 0.0000
# 5 0.0000 0.0000 0.0000 0.0000 22.5722 0.0000
# 6 0.0000 0.0000 0.0000 0.0000 0.0000 26.2499
#
#
#
# Elastic Compliance Matrix: (Units=1/GPa)
#
#
# Indices 1 2 3 4 5 6 
#
# 1 0.025866 -0.004875 -0.002848 0.000000 0.000000 0.000000
# 2 -0.004875 0.011816 -0.004748 0.000000 0.000000 0.000000
# 3 -0.002848 -0.004748 0.011853 0.000000 0.000000 0.000000
# 4 0.000000 0.000000 0.000000 0.057729 0.000000 0.000000
# 5 0.000000 0.000000 0.000000 0.000000 0.044302 0.000000
# 6 0.000000 0.000000 0.000000 0.000000 0.000000 0.038095
#
#
# Mechanical properties :
#
#
# Convention : Reuss Voigt Hill
#
# Bulk Modulus (GPa) = 40.66428 53.90747 47.28588
# Shear Modulus (GPa) = 22.44134 24.63918 23.54026
#
# Velocity S-wave (km/s) = 3.33150 3.49082 3.41209
# Velocity P-wave (km/s) = 5.90846 6.55049 6.23774
#
# Compressibility (1/GPa) = 0.02459161
#
# Stress axis : x y z
#
# Youngs Moduli (GPa) = 38.66027 84.62948 84.36625
#
# Poissons Ratio (x) = 0.41258 0.24031
# Poissons Ratio (y) = 0.18847 0.40061
# Poissons Ratio (z) = 0.11012 0.40186
#
# Static dielectric constant tensor:
#      x y z
#    x 3.390820 0.000000 0.000000 
#    y 0.000000 10.190360 0.000000 
#    z 0.000000 0.000000 4.226530 
# 
# 
# High freq. dielectric constant tensor:
#      x y z
#    x 1.769370 0.000000 0.000000 
#    y 0.000000 1.794070 0.000000 
#    z 0.000000 0.000000 1.788270 
# 
# From -- ./inp_files/31607.got.cif
#   From: 2010.03.12/outbox.cif.g09.slc.cpg/sg59_16_cif.got.tgz:31607.got - 2010.04.16 16:29:54.
