data_PCOD8242741
_publ_section_title
;
Structure prediction by ZEFSAII (Michael W. Deem and Ramdas Pophale) SiO2 
 PCOD8242741
Probable space group: P M M N
;
_chemical_formula_sum "Si O2"
_cell_formula_units_Z 40
_cell_length_a 9.098382
_cell_length_b 9.121370
_cell_length_c 25.921957
_cell_angle_alpha 90.000000
_cell_angle_beta 90.000000
_cell_angle_gamma 90.000000
_cell_volume 2151.255658
_symmetry_space_group_name_H-M "P M M N"
_symmetry_group_IT_number 59
_space_group.IT_coordinate_system_code '2'
_symmetry_cell_setting 'orthorhombic'
loop_
_space_group_symop_operation_xyz
x,y,z
1/2-x,1/2-y,z
1/2+x,-y,-z
-x,1/2+y,-z
-x,-y,-z
1/2+x,1/2+y,-z
1/2-x,y,z
x,1/2-y,z
loop_
_atom_site_type_symbol
_atom_site_label
_atom_site_fract_x
_atom_site_fract_y
_atom_site_fract_z
Si Si1 0.921073 0.580178 0.649280
Si Si2 0.080220 0.923032 0.953175
Si Si3 0.915865 0.575504 0.850928
Si Si4 0.415837 0.575357 0.751063
Si Si5 0.422909 0.581450 0.453568
O O1 0.750000 0.555220 0.660633
O O2 0.955907 0.750000 0.638528
O O3 0.975650 0.489416 0.600011
O O4 0.009014 0.519635 0.698562
O O5 0.250000 0.969711 0.952185
O O6 0.061691 0.750000 0.959406
O O7 0.005633 0.979475 0.900560
O O8 0.000000 0.000000 0.000000
O O9 0.750000 0.513886 0.853601
O O10 0.914458 0.750000 0.849012
O O11 0.994552 0.512347 0.799851
O O12 0.250000 0.515192 0.753546
O O13 0.418031 0.750000 0.752578
O O14 0.500000 0.500000 0.500000
O O15 0.250000 0.561830 0.460376
O O16 0.471097 0.750000 0.453789
#
# Coordination Sequence:
#
# PCOD8242741 Si02
#       5
#     8   8   8   8   8
#     4   9  17  30  48  70  97 128 160 196 242 295
#     4  10  20  33  50  73 101 133 170 212 257 304
#     4   9  16  27  45  69  97 129 164 203 249 299
#     4   9  16  26  43  69  98 125 157 200 246 292
#     4  10  21  36  54  76 102 133 169 208 250 296
#
# _framework density 18.593791
#
# number of rings (size 3 to 8) (size 9 to 14) (size 15 to 20)
#    0.000    2.600    0.000    2.400    0.000    8.000 
#    0.000    2.000    0.000    1.200    0.000    2.800 
#    0.000    0.000    0.000    0.000    0.000    0.000 
#
# Total GULP energy -496053.196956 kJ/mol
# GULP energy per Si atom -12401.329924 kJ/mol
# Density = 1.855147 g / cm^3
# Si number density = 18.593791 Si / 1000 Ang^3
#
#
#
# Elastic Constant Matrix: (Units=GPa)
#
#
# Indices 1 2 3 4 5 6 
#
# 1 139.6376 36.1824 103.8164 0.0000 0.0000 0.0000
# 2 36.1824 46.4463 54.8470 0.0000 0.0000 0.0000
# 3 103.8164 54.8470 213.2164 0.0000 0.0000 0.0000
# 4 0.0000 0.0000 0.0000 26.7962 0.0000 0.0000
# 5 0.0000 0.0000 0.0000 0.0000 44.5902 0.0000
# 6 0.0000 0.0000 0.0000 0.0000 0.0000 18.2680
#
#
#
# Elastic Compliance Matrix: (Units=1/GPa)
#
#
# Indices 1 2 3 4 5 6 
#
# 1 0.011586 -0.003395 -0.004768 0.000000 0.000000 0.000000
# 2 -0.003395 0.031919 -0.006557 0.000000 0.000000 0.000000
# 3 -0.004768 -0.006557 0.008698 0.000000 0.000000 0.000000
# 4 0.000000 0.000000 0.000000 0.037319 0.000000 0.000000
# 5 0.000000 0.000000 0.000000 0.000000 0.022426 0.000000
# 6 0.000000 0.000000 0.000000 0.000000 0.000000 0.054740
#
#
# Mechanical properties :
#
#
# Convention : Reuss Voigt Hill
#
# Bulk Modulus (GPa) = 43.93335 87.66577 65.79956
# Shear Modulus (GPa) = 24.54380 31.56118 28.05249
#
# Velocity S-wave (km/s) = 3.63712 4.12443 3.88842
# Velocity P-wave (km/s) = 6.42787 8.36250 7.45818
#
# Compressibility (1/GPa) = 0.02276175
#
# Stress axis : x y z
#
# Youngs Moduli (GPa) = 86.31137 31.32946 114.96396
#
# Poissons Ratio (x) = 0.10638 0.54813
# Poissons Ratio (y) = 0.29306 0.75387
# Poissons Ratio (z) = 0.41152 0.20544
#
# Static dielectric constant tensor:
#      x y z
#    x 3.649950 0.000000 0.000000 
#    y 0.000000 2.957520 0.000000 
#    z 0.000000 0.000000 3.645720 
# 
# 
# High freq. dielectric constant tensor:
#      x y z
#    x 1.730120 0.000000 0.000000 
#    y 0.000000 1.670720 0.000000 
#    z 0.000000 0.000000 1.740740 
# 
# From -- ./inp_files/31146.got.cif
#   From: 2010.03.12/outbox.cif.g09.slc.cpg/sg59_16_cif.got.tgz:31146.got - 2010.04.16 16:29:54.
