data_PCOD8242249
_publ_section_title
;
Structure prediction by ZEFSAII (Michael W. Deem and Ramdas Pophale) SiO2 
 PCOD8242249
Probable space group: P M M N
;
_chemical_formula_sum "Si O2"
_cell_formula_units_Z 48
_cell_length_a 15.031992
_cell_length_b 8.821595
_cell_length_c 18.946833
_cell_angle_alpha 90.000000
_cell_angle_beta 90.000000
_cell_angle_gamma 90.000000
_cell_volume 2512.466493
_symmetry_space_group_name_H-M "P M M N"
_symmetry_group_IT_number 59
_space_group.IT_coordinate_system_code '2'
_symmetry_cell_setting 'orthorhombic'
loop_
_space_group_symop_operation_xyz
x,y,z
1/2-x,1/2-y,z
1/2+x,-y,-z
-x,1/2+y,-z
-x,-y,-z
1/2+x,1/2+y,-z
1/2-x,y,z
x,1/2-y,z
loop_
_atom_site_type_symbol
_atom_site_label
_atom_site_fract_x
_atom_site_fract_y
_atom_site_fract_z
Si Si1 0.750000 0.072294 0.081414
Si Si2 0.410995 0.073035 0.170533
Si Si3 0.595631 0.928591 0.170053
Si Si4 0.348596 0.430120 0.322817
Si Si5 0.146471 0.426365 0.673253
Si Si6 0.750000 0.924161 0.933172
Si Si7 0.495927 0.929353 0.576489
O O1 0.750000 0.250000 0.092892
O O2 0.662301 0.004469 0.115880
O O3 0.750000 0.035279 0.998975
O O4 0.435222 0.250000 0.175178
O O5 0.376734 0.011190 0.245738
O O6 0.336639 0.040579 0.112743
O O7 0.497351 0.979124 0.148167
O O8 0.606816 0.750000 0.163252
O O9 0.617686 0.982950 0.249339
O O10 0.250000 0.492602 0.341421
O O11 0.347093 0.250000 0.322067
O O12 0.418776 0.491086 0.380115
O O13 0.250000 0.459166 0.661886
O O14 0.124070 0.250000 0.663411
O O15 0.094222 0.521536 0.614984
O O16 0.750000 0.750000 0.958640
O O17 0.498008 0.750000 0.570148
O O18 0.500000 0.000000 0.500000
#
# Coordination Sequence:
#
# PCOD8242249 Si02
#       7
#     4   8   8   8   8   4   8
#     4  12  26  42  62  88 123 160 203 250 297 363
#     4  10  19  36  63  93 118 152 202 250 299 360
#     4  11  22  39  63  91 123 158 199 249 306 362
#     4   9  17  33  59  88 115 150 198 246 294 352
#     4  10  21  39  62  87 117 156 200 247 302 361
#     4  10  22  40  64  90 125 160 195 252 309 357
#     4  11  23  38  59  88 124 160 200 249 301 358
#
# _framework density 19.104731999999998
#
# number of rings (size 3 to 8) (size 9 to 14) (size 15 to 20)
#    0.000    1.667    3.333    1.750    0.000    3.000 
#    0.000    1.667    0.000    3.500    0.000    0.000 
#    0.000    0.000    0.000    0.000    0.000    0.000 
#
# Total GULP energy -595403.031958 kJ/mol
# GULP energy per Si atom -12404.229832 kJ/mol
# Density = 1.906125 g / cm^3
# Si number density = 19.104732 Si / 1000 Ang^3
#
#
#
# Elastic Constant Matrix: (Units=GPa)
#
#
# Indices 1 2 3 4 5 6 
#
# 1 153.8540 44.2174 67.6561 0.0000 0.0000 0.0000
# 2 44.2174 66.7143 48.3731 0.0000 0.0000 0.0000
# 3 67.6561 48.3731 140.7728 0.0000 0.0000 0.0000
# 4 0.0000 0.0000 0.0000 29.2897 0.0000 0.0000
# 5 0.0000 0.0000 0.0000 0.0000 30.4469 0.0000
# 6 0.0000 0.0000 0.0000 0.0000 0.0000 27.3844
#
#
#
# Elastic Compliance Matrix: (Units=1/GPa)
#
#
# Indices 1 2 3 4 5 6 
#
# 1 0.008884 -0.003719 -0.002992 0.000000 0.000000 0.000000
# 2 -0.003719 0.021520 -0.005607 0.000000 0.000000 0.000000
# 3 -0.002992 -0.005607 0.010468 0.000000 0.000000 0.000000
# 4 0.000000 0.000000 0.000000 0.034142 0.000000 0.000000
# 5 0.000000 0.000000 0.000000 0.000000 0.032844 0.000000
# 6 0.000000 0.000000 0.000000 0.000000 0.000000 0.036517
#
#
# Mechanical properties :
#
#
# Convention : Reuss Voigt Hill
#
# Bulk Modulus (GPa) = 61.59149 75.75940 68.67544
# Shear Modulus (GPa) = 28.66579 30.83052 29.74816
#
# Velocity S-wave (km/s) = 3.87777 4.02153 3.95030
# Velocity P-wave (km/s) = 7.23591 7.82971 7.53866
#
# Compressibility (1/GPa) = 0.01623601
#
# Stress axis : x y z
#
# Youngs Moduli (GPa) = 112.56026 46.46831 95.52560
#
# Poissons Ratio (x) = 0.17282 0.28580
# Poissons Ratio (y) = 0.41861 0.53566
# Poissons Ratio (z) = 0.33676 0.26057
#
# Static dielectric constant tensor:
#      x y z
#    x 3.322880 0.000000 0.000000 
#    y 0.000000 3.305730 0.000000 
#    z 0.000000 0.000000 3.527210 
# 
# 
# High freq. dielectric constant tensor:
#      x y z
#    x 1.760580 0.000000 0.000000 
#    y 0.000000 1.725700 0.000000 
#    z 0.000000 0.000000 1.744660 
# 
# From -- ./inp_files/27439.got.cif
#   From: 2010.03.12/outbox.cif.g09.slc.cpg/sg59_14_cif.got.tgz:27439.got - 2010.04.16 16:29:54.
