data_PCOD8242344
_publ_section_title
;
Structure prediction by ZEFSAII (Michael W. Deem and Ramdas Pophale) SiO2 
 PCOD8242344
Probable space group: P M M N
;
_chemical_formula_sum "Si O2"
_cell_formula_units_Z 64
_cell_length_a 9.443304
_cell_length_b 14.640146
_cell_length_c 24.274854
_cell_angle_alpha 90.000000
_cell_angle_beta 90.000000
_cell_angle_gamma 90.000000
_cell_volume 3356.031319
_symmetry_space_group_name_H-M "P M M N"
_symmetry_group_IT_number 59
_space_group.IT_coordinate_system_code '2'
_symmetry_cell_setting 'orthorhombic'
loop_
_space_group_symop_operation_xyz
x,y,z
1/2-x,1/2-y,z
1/2+x,-y,-z
-x,1/2+y,-z
-x,-y,-z
1/2+x,1/2+y,-z
1/2-x,y,z
x,1/2-y,z
loop_
_atom_site_type_symbol
_atom_site_label
_atom_site_fract_x
_atom_site_fract_y
_atom_site_fract_z
Si Si1 0.593346 0.350225 0.234683
Si Si2 0.918164 0.149210 0.537865
Si Si3 0.417590 0.853002 0.148842
Si Si4 0.594846 0.350753 0.105088
Si Si5 0.416957 0.504074 0.056764
Si Si6 0.585006 0.144622 0.414066
Si Si7 0.912347 0.475059 0.751344
Si Si8 0.413539 0.986589 0.370351
O O1 0.750000 0.374016 0.258185
O O2 0.546266 0.250000 0.257290
O O3 0.602156 0.344989 0.169725
O O4 0.483290 0.426491 0.251620
O O5 0.750000 0.152844 0.541820
O O6 0.979519 0.250000 0.550507
O O7 0.963133 0.119343 0.476377
O O8 0.979698 0.080024 0.583336
O O9 0.250000 0.847009 0.154467
O O10 0.481407 0.750000 0.146624
O O11 0.479164 0.906279 0.202921
O O12 0.459096 0.906566 0.092801
O O13 0.750000 0.385185 0.082967
O O14 0.565154 0.250000 0.080178
O O15 0.464773 0.415195 0.089827
O O16 0.250000 0.500561 0.046083
O O17 0.500000 0.500000 0.000000
O O18 0.750000 0.124950 0.405902
O O19 0.550441 0.250000 0.401304
O O20 0.498470 0.081895 0.371656
O O21 0.750000 0.491355 0.767562
O O22 0.928812 0.436388 0.689175
O O23 0.250000 0.008733 0.382511
#
# Coordination Sequence:
#
# PCOD8242344 Si02
#       8
#     8   8   8   8   8   8   8   8
#     4   9  18  33  54  77 101 134 173 211 257 314
#     4   8  15  30  51  74 100 132 173 219 265 313
#     4   9  19  37  58  78 104 141 180 215 257 309
#     4   9  18  34  56  80 106 136 171 214 264 315
#     4  11  22  36  57  84 113 144 179 221 266 314
#     4   9  18  33  52  72  99 139 180 214 256 317
#     4  10  20  34  52  78 107 136 174 219 263 311
#     4  10  20  31  49  78 107 132 167 220 272 311
#
# _framework density 19.070143000000002
#
# number of rings (size 3 to 8) (size 9 to 14) (size 15 to 20)
#    0.000    2.625    1.250    2.250    0.000    2.750 
#    0.000    7.500    0.000    4.125    0.000    1.750 
#    0.000    0.000    0.000    0.000    0.000    0.000 
#
# Total GULP energy -793150.411668 kJ/mol
# GULP energy per Si atom -12392.975182 kJ/mol
# Density = 1.902674 g / cm^3
# Si number density = 19.070143 Si / 1000 Ang^3
#
#
#
# Elastic Constant Matrix: (Units=GPa)
#
#
# Indices 1 2 3 4 5 6 
#
# 1 50.5495 37.9204 29.9047 0.0000 0.0000 0.0000
# 2 37.9204 115.0730 50.2551 0.0000 0.0000 0.0000
# 3 29.9047 50.2551 97.3729 0.0000 0.0000 0.0000
# 4 0.0000 0.0000 0.0000 15.3914 0.0000 0.0000
# 5 0.0000 0.0000 0.0000 0.0000 23.1177 0.0000
# 6 0.0000 0.0000 0.0000 0.0000 0.0000 26.0642
#
#
#
# Elastic Compliance Matrix: (Units=1/GPa)
#
#
# Indices 1 2 3 4 5 6 
#
# 1 0.028017 -0.007068 -0.004957 0.000000 0.000000 0.000000
# 2 -0.007068 0.013002 -0.004540 0.000000 0.000000 0.000000
# 3 -0.004957 -0.004540 0.014135 0.000000 0.000000 0.000000
# 4 0.000000 0.000000 0.000000 0.064971 0.000000 0.000000
# 5 0.000000 0.000000 0.000000 0.000000 0.043257 0.000000
# 6 0.000000 0.000000 0.000000 0.000000 0.000000 0.038367
#
#
# Mechanical properties :
#
#
# Convention : Reuss Voigt Hill
#
# Bulk Modulus (GPa) = 45.40212 55.46176 50.43194
# Shear Modulus (GPa) = 20.64248 22.57568 21.60908
#
# Velocity S-wave (km/s) = 3.29363 3.44441 3.36986
# Velocity P-wave (km/s) = 6.19061 6.70558 6.45323
#
# Compressibility (1/GPa) = 0.02202540
#
# Stress axis : x y z
#
# Youngs Moduli (GPa) = 35.69265 76.91225 70.74608
#
# Poissons Ratio (x) = 0.54360 0.35066
# Poissons Ratio (y) = 0.25227 0.32117
# Poissons Ratio (z) = 0.17692 0.34916
#
# Static dielectric constant tensor:
#      x y z
#    x 2.482470 0.000000 0.000000 
#    y 0.000000 1.032190 0.000000 
#    z 0.000000 0.000000 3.762920 
# 
# 
# High freq. dielectric constant tensor:
#      x y z
#    x 1.707780 0.000000 0.000000 
#    y 0.000000 1.739140 0.000000 
#    z 0.000000 0.000000 1.748240 
# 
# From -- ./inp_files/31491.got.cif
#   From: 2010.03.12/outbox.cif.g09.slc.cpg/sg59_16_cif.got.tgz:31491.got - 2010.04.16 16:29:54.
