data_PCOD8242843
_publ_section_title
;
Structure prediction by ZEFSAII (Michael W. Deem and Ramdas Pophale) SiO2 
 PCOD8242843
Probable space group: P M M N
;
_chemical_formula_sum "Si O2"
_cell_formula_units_Z 64
_cell_length_a 18.864000
_cell_length_b 19.853816
_cell_length_c 8.798020
_cell_angle_alpha 90.000000
_cell_angle_beta 90.000000
_cell_angle_gamma 90.000000
_cell_volume 3295.055434
_symmetry_space_group_name_H-M "P M M N"
_symmetry_group_IT_number 59
_space_group.IT_coordinate_system_code '2'
_symmetry_cell_setting 'orthorhombic'
loop_
_space_group_symop_operation_xyz
x,y,z
1/2-x,1/2-y,z
1/2+x,-y,-z
-x,1/2+y,-z
-x,-y,-z
1/2+x,1/2+y,-z
1/2-x,y,z
x,1/2-y,z
loop_
_atom_site_type_symbol
_atom_site_label
_atom_site_fract_x
_atom_site_fract_y
_atom_site_fract_z
Si Si1 0.170080 0.540604 0.499044
Si Si2 0.671426 0.878903 0.959440
Si Si3 0.050145 0.173810 0.557589
Si Si4 0.400185 0.675090 0.583513
Si Si5 0.542196 0.825014 0.101501
Si Si6 0.407824 0.066491 0.316718
Si Si7 0.044929 0.900400 0.861262
Si Si8 0.171583 0.506881 0.839066
O O1 0.250000 0.532928 0.436054
O O2 0.154973 0.619997 0.521360
O O3 0.113800 0.506088 0.385226
O O4 0.161029 0.502496 0.658600
O O5 0.750000 0.847307 0.951158
O O6 0.653717 0.912747 0.798978
O O7 0.614129 0.822033 0.000969
O O8 0.666022 0.932966 0.093825
O O9 0.080460 0.250000 0.536115
O O10 0.059552 0.148050 0.730217
O O11 0.091547 0.123547 0.446728
O O12 0.966949 0.173304 0.526550
O O13 0.365680 0.750000 0.582643
O O14 0.424716 0.659190 0.755838
O O15 0.510665 0.750000 0.111035
O O16 0.485250 0.872215 0.018723
O O17 0.483939 0.059631 0.233215
O O18 0.108844 0.948866 0.911767
O O19 0.250000 0.537806 0.875820
#
# Coordination Sequence:
#
# PCOD8242843 Si02
#       8
#     8   8   8   8   8   8   8   8
#     4  10  20  33  51  75 105 142 179 219 264 310
#     4  10  21  35  52  75 104 137 171 213 262 310
#     4   9  19  35  54  77 104 134 171 216 264 312
#     4   9  18  33  52  75 104 135 170 215 263 312
#     4  10  20  34  54  77 101 133 173 215 257 306
#     4  10  20  33  53  78 107 138 177 221 262 311
#     4   9  19  33  55  80 103 134 172 217 264 310
#     4   9  19  35  52  75 106 136 169 210 260 313
#
# _framework density 19.423043
#
# number of rings (size 3 to 8) (size 9 to 14) (size 15 to 20)
#    0.000    2.500    0.000    1.500    0.000   12.000 
#    0.000    0.625    0.000    3.750    0.000    1.750 
#    0.000    3.000    0.000    0.000    0.000    0.000 
#
# Total GULP energy -793445.190447 kJ/mol
# GULP energy per Si atom -12397.581101 kJ/mol
# Density = 1.937883 g / cm^3
# Si number density = 19.423043 Si / 1000 Ang^3
#
#
#
# Elastic Constant Matrix: (Units=GPa)
#
#
# Indices 1 2 3 4 5 6 
#
# 1 76.4184 19.6035 7.9199 0.0000 0.0000 0.0000
# 2 19.6035 75.7502 22.5321 0.0000 0.0000 0.0000
# 3 7.9199 22.5321 63.2260 0.0000 0.0000 0.0000
# 4 0.0000 0.0000 0.0000 23.3122 0.0000 0.0000
# 5 0.0000 0.0000 0.0000 0.0000 20.6172 0.0000
# 6 0.0000 0.0000 0.0000 0.0000 0.0000 18.9250
#
#
#
# Elastic Compliance Matrix: (Units=1/GPa)
#
#
# Indices 1 2 3 4 5 6 
#
# 1 0.014032 -0.003477 -0.000519 0.000000 0.000000 0.000000
# 2 -0.003477 0.015628 -0.005134 0.000000 0.000000 0.000000
# 3 -0.000519 -0.005134 0.017711 0.000000 0.000000 0.000000
# 4 0.000000 0.000000 0.000000 0.042896 0.000000 0.000000
# 5 0.000000 0.000000 0.000000 0.000000 0.048503 0.000000
# 6 0.000000 0.000000 0.000000 0.000000 0.000000 0.052840
#
#
# Mechanical properties :
#
#
# Convention : Reuss Voigt Hill
#
# Bulk Modulus (GPa) = 34.35054 35.05619 34.70336
# Shear Modulus (GPa) = 22.77151 23.59349 23.18250
#
# Velocity S-wave (km/s) = 3.42774 3.48906 3.45854
# Velocity P-wave (km/s) = 5.77839 5.85827 5.81846
#
# Compressibility (1/GPa) = 0.02911163
#
# Stress axis : x y z
#
# Youngs Moduli (GPa) = 71.26797 63.98687 56.46264
#
# Poissons Ratio (x) = 0.22248 0.02928
# Poissons Ratio (y) = 0.24780 0.28988
# Poissons Ratio (z) = 0.03695 0.32850
#
# Static dielectric constant tensor:
#      x y z
#    x 3.563830 0.000000 0.000000 
#    y 0.000000 3.411120 0.000000 
#    z 0.000000 0.000000 3.535490 
# 
# 
# High freq. dielectric constant tensor:
#      x y z
#    x 1.747980 0.000000 0.000000 
#    y 0.000000 1.743780 0.000000 
#    z 0.000000 0.000000 1.757830 
# 
# From -- ./inp_files/10714.got.cif
#   From: 2010.03.12/outbox.cif.g09.slc.cpg/sg59_6_cif.got.tgz:10714.got - 2010.04.16 16:29:54.
