data_PCOD8242422
_publ_section_title
;
Structure prediction by ZEFSAII (Michael W. Deem and Ramdas Pophale) SiO2 
 PCOD8242422
Probable space group: P M M N
;
_chemical_formula_sum "Si O2"
_cell_formula_units_Z 64
_cell_length_a 9.250295
_cell_length_b 19.401409
_cell_length_c 18.824126
_cell_angle_alpha 90.000000
_cell_angle_beta 90.000000
_cell_angle_gamma 90.000000
_cell_volume 3378.342489
_symmetry_space_group_name_H-M "P M M N"
_symmetry_group_IT_number 59
_space_group.IT_coordinate_system_code '2'
_symmetry_cell_setting 'orthorhombic'
loop_
_space_group_symop_operation_xyz
x,y,z
1/2-x,1/2-y,z
1/2+x,-y,-z
-x,1/2+y,-z
-x,-y,-z
1/2+x,1/2+y,-z
1/2-x,y,z
x,1/2-y,z
loop_
_atom_site_type_symbol
_atom_site_label
_atom_site_fract_x
_atom_site_fract_y
_atom_site_fract_z
Si Si1 0.921751 0.976619 0.220313
Si Si2 0.086336 0.327904 0.025022
Si Si3 0.912368 0.577699 0.582579
Si Si4 0.906692 0.327448 0.153979
Si Si5 0.413530 0.111447 0.261800
Si Si6 0.918239 0.433310 0.647307
Si Si7 0.082100 0.671102 0.472784
Si Si8 0.415563 0.457198 0.940432
O O1 0.750000 0.970000 0.227846
O O2 0.975292 0.962986 0.139905
O O3 0.994504 0.925778 0.278813
O O4 0.978039 0.051666 0.238639
O O5 0.250000 0.328894 0.053882
O O6 0.040792 0.250000 0.004194
O O7 0.987826 0.362008 0.087127
O O8 0.069417 0.375785 0.956380
O O9 0.750000 0.573260 0.551523
O O10 0.914853 0.622918 0.654214
O O11 0.970022 0.499989 0.600103
O O12 0.009677 0.619344 0.528077
O O13 0.750000 0.364043 0.167145
O O14 0.877646 0.250000 0.131702
O O15 0.011848 0.324439 0.222658
O O16 0.250000 0.098252 0.235234
O O17 0.750000 0.446274 0.665793
O O18 0.942929 0.362235 0.604837
O O19 0.250000 0.672797 0.491928
O O20 0.020317 0.750000 0.474181
O O21 0.250000 0.482123 0.943695
O O22 0.500000 0.500000 0.000000
#
# Coordination Sequence:
#
# PCOD8242422 Si02
#       8
#     8   8   8   8   8   8   8   8
#     4  10  20  34  53  79 106 131 168 217 264 308
#     4   9  18  34  53  70  94 133 175 211 254 312
#     4   9  19  34  53  77 103 134 173 215 256 304
#     4  10  20  32  47  70 100 133 171 215 259 305
#     4  10  20  34  51  73 102 136 173 210 254 311
#     4   9  19  37  57  77 104 139 177 213 255 311
#     4  10  21  36  55  80 109 139 172 214 262 310
#     4  10  21  34  51  78 107 134 167 211 261 309
#
# _framework density 18.944202000000001
#
# number of rings (size 3 to 8) (size 9 to 14) (size 15 to 20)
#    0.000    2.375    0.000    3.000    0.000    8.000 
#    0.000    3.125    0.000    0.750    0.000    0.000 
#    0.000    0.000    0.000    0.000    0.000    0.000 
#
# Total GULP energy -793018.699697 kJ/mol
# GULP energy per Si atom -12390.917183 kJ/mol
# Density = 1.890108 g / cm^3
# Si number density = 18.944202 Si / 1000 Ang^3
#
#
#
# Elastic Constant Matrix: (Units=GPa)
#
#
# Indices 1 2 3 4 5 6 
#
# 1 80.4359 29.7400 56.0081 0.0000 0.0000 0.0000
# 2 29.7400 70.9084 44.8419 0.0000 0.0000 0.0000
# 3 56.0081 44.8419 113.9438 0.0000 0.0000 0.0000
# 4 0.0000 0.0000 0.0000 25.6359 0.0000 0.0000
# 5 0.0000 0.0000 0.0000 0.0000 31.2336 0.0000
# 6 0.0000 0.0000 0.0000 0.0000 0.0000 21.3907
#
#
#
# Elastic Compliance Matrix: (Units=1/GPa)
#
#
# Indices 1 2 3 4 5 6 
#
# 1 0.019308 -0.002791 -0.008392 0.000000 0.000000 0.000000
# 2 -0.002791 0.019179 -0.006176 0.000000 0.000000 0.000000
# 3 -0.008392 -0.006176 0.015332 0.000000 0.000000 0.000000
# 4 0.000000 0.000000 0.000000 0.039008 0.000000 0.000000
# 5 0.000000 0.000000 0.000000 0.000000 0.032017 0.000000
# 6 0.000000 0.000000 0.000000 0.000000 0.000000 0.046749
#
#
# Mechanical properties :
#
#
# Convention : Reuss Voigt Hill
#
# Bulk Modulus (GPa) = 52.35455 58.49644 55.42549
# Shear Modulus (GPa) = 23.50987 24.63194 24.07090
#
# Velocity S-wave (km/s) = 3.52661 3.60979 3.56844
# Velocity P-wave (km/s) = 6.65424 6.95122 6.80435
#
# Compressibility (1/GPa) = 0.01910054
#
# Stress axis : x y z
#
# Youngs Moduli (GPa) = 51.79293 52.14096 65.22360
#
# Poissons Ratio (x) = 0.14551 0.54737
# Poissons Ratio (y) = 0.14454 0.40282
# Poissons Ratio (z) = 0.43466 0.32202
#
# Static dielectric constant tensor:
#      x y z
#    x 3.721430 0.000000 0.000000 
#    y 0.000000 3.521020 0.000000 
#    z 0.000000 0.000000 3.584270 
# 
# 
# High freq. dielectric constant tensor:
#      x y z
#    x 1.739570 0.000000 0.000000 
#    y 0.000000 1.722450 0.000000 
#    z 0.000000 0.000000 1.731060 
# 
# From -- ./inp_files/26203.got.cif
#   From: 2010.03.12/outbox.cif.g09.slc.cpg/sg59_14_cif.got.tgz:26203.got - 2010.04.16 16:29:54.
