data_PCOD8242048
_publ_section_title
;
Structure prediction by ZEFSAII (Michael W. Deem and Ramdas Pophale) SiO2 
 PCOD8242048
Probable space group: P M M N
;
_chemical_formula_sum "Si O2"
_cell_formula_units_Z 48
_cell_length_a 27.896341
_cell_length_b 8.557569
_cell_length_c 10.083376
_cell_angle_alpha 90.000000
_cell_angle_beta 90.000000
_cell_angle_gamma 90.000000
_cell_volume 2407.152554
_symmetry_space_group_name_H-M "P M M N"
_symmetry_group_IT_number 59
_space_group.IT_coordinate_system_code '2'
_symmetry_cell_setting 'orthorhombic'
loop_
_space_group_symop_operation_xyz
x,y,z
1/2-x,1/2-y,z
1/2+x,-y,-z
-x,1/2+y,-z
-x,-y,-z
1/2+x,1/2+y,-z
1/2-x,y,z
x,1/2-y,z
loop_
_atom_site_type_symbol
_atom_site_label
_atom_site_fract_x
_atom_site_fract_y
_atom_site_fract_z
Si Si1 0.641917 0.429941 0.740381
Si Si2 0.945134 0.069091 0.122100
Si Si3 0.305324 0.428741 0.015353
Si Si4 0.448274 0.069279 0.159091
Si Si5 0.194746 0.069077 0.501603
Si Si6 0.846923 0.071353 0.242154
O O1 0.650368 0.250000 0.774960
O O2 0.667315 0.537067 0.848972
O O3 0.585156 0.469353 0.742013
O O4 0.663062 0.465315 0.596289
O O5 0.945815 0.250000 0.076729
O O6 0.903964 0.038331 0.230747
O O7 0.996346 0.021956 0.185252
O O8 0.934148 0.965458 0.993181
O O9 0.250000 0.461323 0.043682
O O10 0.314730 0.250000 0.973598
O O11 0.322798 0.541866 0.899469
O O12 0.439309 0.250000 0.188778
O O13 0.250000 0.017060 0.491430
O O14 0.188896 0.250000 0.465076
O O15 0.176124 0.042321 0.650198
O O16 0.837250 0.250000 0.283440
#
# Coordination Sequence:
#
# PCOD8242048 Si02
#       6
#     8   8   8   8   8   8
#     4  12  24  39  60  88 119 153 199 249 301 356
#     4   9  19  35  57  89 123 156 195 242 293 351
#     4  11  23  38  58  86 118 153 197 246 296 353
#     4  10  19  34  59  88 121 158 196 240 296 354
#     4  11  25  44  63  84 116 159 203 246 298 361
#     4  11  22  38  61  90 122 155 196 244 295 351
#
# _framework density 19.940573000000001
#
# number of rings (size 3 to 8) (size 9 to 14) (size 15 to 20)
#    0.000    1.333    1.667    4.500    0.000    8.000 
#    0.000    0.833    0.000    0.000    0.000    0.000 
#    0.000    0.000    0.000    0.000    0.000    0.000 
#
# Total GULP energy -595472.796236 kJ/mol
# GULP energy per Si atom -12405.683255 kJ/mol
# Density = 1.989519 g / cm^3
# Si number density = 19.940573 Si / 1000 Ang^3
#
#
#
# Elastic Constant Matrix: (Units=GPa)
#
#
# Indices 1 2 3 4 5 6 
#
# 1 99.4418 42.2217 19.3227 0.0000 0.0000 0.0000
# 2 42.2217 63.5098 11.3778 0.0000 0.0000 0.0000
# 3 19.3227 11.3778 62.1041 0.0000 0.0000 0.0000
# 4 0.0000 0.0000 0.0000 33.2337 0.0000 0.0000
# 5 0.0000 0.0000 0.0000 0.0000 32.9300 0.0000
# 6 0.0000 0.0000 0.0000 0.0000 0.0000 25.9647
#
#
#
# Elastic Compliance Matrix: (Units=1/GPa)
#
#
# Indices 1 2 3 4 5 6 
#
# 1 0.014478 -0.009117 -0.002834 0.000000 0.000000 0.000000
# 2 -0.009117 0.022021 -0.001198 0.000000 0.000000 0.000000
# 3 -0.002834 -0.001198 0.017203 0.000000 0.000000 0.000000
# 4 0.000000 0.000000 0.000000 0.030090 0.000000 0.000000
# 5 0.000000 0.000000 0.000000 0.000000 0.030367 0.000000
# 6 0.000000 0.000000 0.000000 0.000000 0.000000 0.038514
#
#
# Mechanical properties :
#
#
# Convention : Reuss Voigt Hill
#
# Bulk Modulus (GPa) = 36.49095 41.21113 38.85104
# Shear Modulus (GPa) = 26.58062 28.56791 27.57427
#
# Velocity S-wave (km/s) = 3.65498 3.78915 3.72267
# Velocity P-wave (km/s) = 6.01260 6.31311 6.16469
#
# Compressibility (1/GPa) = 0.02740406
#
# Stress axis : x y z
#
# Youngs Moduli (GPa) = 69.07066 45.41042 58.12856
#
# Poissons Ratio (x) = 0.41402 0.16475
# Poissons Ratio (y) = 0.62973 0.06962
# Poissons Ratio (z) = 0.19576 0.05439
#
# Static dielectric constant tensor:
#      x y z
#    x 4.015690 0.000000 0.000000 
#    y 0.000000 3.606080 0.000000 
#    z 0.000000 0.000000 3.300720 
# 
# 
# High freq. dielectric constant tensor:
#      x y z
#    x 1.797550 0.000000 0.000000 
#    y 0.000000 1.784730 0.000000 
#    z 0.000000 0.000000 1.749820 
# 
# From -- ./inp_files/12938.got.cif
#   From: 2010.03.12/outbox.cif.g09.slc.cpg/sg59_7_cif.got.tgz:12938.got - 2010.04.16 16:29:54.
