data_PCOD8242565
_publ_section_title
;
Structure prediction by ZEFSAII (Michael W. Deem and Ramdas Pophale) SiO2 
 PCOD8242565
Probable space group: P M M N
;
_chemical_formula_sum "Si O2"
_cell_formula_units_Z 56
_cell_length_a 23.073679
_cell_length_b 17.478583
_cell_length_c 7.754342
_cell_angle_alpha 90.000000
_cell_angle_beta 90.000000
_cell_angle_gamma 90.000000
_cell_volume 3127.289013
_symmetry_space_group_name_H-M "P M M N"
_symmetry_group_IT_number 59
_space_group.IT_coordinate_system_code '2'
_symmetry_cell_setting 'orthorhombic'
loop_
_space_group_symop_operation_xyz
x,y,z
1/2-x,1/2-y,z
1/2+x,-y,-z
-x,1/2+y,-z
-x,-y,-z
1/2+x,1/2+y,-z
1/2-x,y,z
x,1/2-y,z
loop_
_atom_site_type_symbol
_atom_site_label
_atom_site_fract_x
_atom_site_fract_y
_atom_site_fract_z
Si Si1 0.685347 0.951148 0.402004
Si Si2 0.371598 0.013273 0.251991
Si Si3 0.028560 0.925986 0.419301
Si Si4 0.071334 0.334603 0.135237
Si Si5 0.441804 0.838232 0.752179
Si Si6 0.919303 0.608671 0.226297
Si Si7 0.633071 0.036703 0.113014
O O1 0.750000 0.916000 0.401816
O O2 0.637476 0.885796 0.352457
O O3 0.672768 0.987946 0.588929
O O4 0.681949 0.018961 0.257950
O O5 0.424336 0.954816 0.282917
O O6 0.391843 0.101413 0.233788
O O7 0.341296 0.981296 0.077735
O O8 0.059664 0.874285 0.561755
O O9 0.978430 0.875310 0.329839
O O10 0.000000 0.000000 0.500000
O O11 0.087068 0.250000 0.208571
O O12 0.003636 0.351628 0.159686
O O13 0.085668 0.332485 0.931132
O O14 0.424951 0.750000 0.738948
O O15 0.392214 0.878075 0.869017
O O16 0.920879 0.522278 0.146917
#
# Coordination Sequence:
#
# PCOD8242565 Si02
#       7
#     8   8   8   8   8   8   8
#     4  10  20  35  57  84 102 131 192 238 265 313
#     4  11  19  34  59  79 105 145 179 231 270 325
#     4  12  16  30  55  78 109 143 185 210 278 328
#     4  10  20  32  50  82 116 146 180 220 271 327
#     4  11  20  31  50  83 121 145 173 224 271 329
#     4   9  18  32  53  74 107 144 177 225 261 327
#     4   9  19  35  53  78 104 145 176 216 274 326
#
# _framework density 17.906884999999999
#
# number of rings (size 3 to 8) (size 9 to 14) (size 15 to 20)
#    0.857    0.857    5.714    0.857    0.000    3.429 
#    0.000    1.429    0.000    3.000    0.000    0.000 
#    0.000    0.000    0.000    0.000    0.000    0.000 
#
# Total GULP energy -693959.545956 kJ/mol
# GULP energy per Si atom -12392.134749 kJ/mol
# Density = 1.786613 g / cm^3
# Si number density = 17.906885 Si / 1000 Ang^3
#
#
#
# Elastic Constant Matrix: (Units=GPa)
#
#
# Indices 1 2 3 4 5 6 
#
# 1 71.5010 14.7414 33.4523 0.0000 0.0000 0.0000
# 2 14.7414 77.3478 25.2103 0.0000 0.0000 0.0000
# 3 33.4523 25.2103 126.8363 0.0000 0.0000 0.0000
# 4 0.0000 0.0000 0.0000 22.6072 0.0000 0.0000
# 5 0.0000 0.0000 0.0000 0.0000 9.4130 0.0000
# 6 0.0000 0.0000 0.0000 0.0000 0.0000 9.5558
#
#
#
# Elastic Compliance Matrix: (Units=1/GPa)
#
#
# Indices 1 2 3 4 5 6 
#
# 1 0.016188 -0.001811 -0.003910 0.000000 0.000000 0.000000
# 2 -0.001811 0.014027 -0.002310 0.000000 0.000000 0.000000
# 3 -0.003910 -0.002310 0.009375 0.000000 0.000000 0.000000
# 4 0.000000 0.000000 0.000000 0.044234 0.000000 0.000000
# 5 0.000000 0.000000 0.000000 0.000000 0.106236 0.000000
# 6 0.000000 0.000000 0.000000 0.000000 0.000000 0.104649
#
#
# Mechanical properties :
#
#
# Convention : Reuss Voigt Hill
#
# Bulk Modulus (GPa) = 42.50307 46.94369 44.72338
# Shear Modulus (GPa) = 15.69304 21.80060 18.74682
#
# Velocity S-wave (km/s) = 2.96356 3.49297 3.23910
# Velocity P-wave (km/s) = 5.95797 6.52228 6.24650
#
# Compressibility (1/GPa) = 0.02352771
#
# Stress axis : x y z
#
# Youngs Moduli (GPa) = 61.77286 71.29211 106.67194
#
# Poissons Ratio (x) = 0.12911 0.41705
# Poissons Ratio (y) = 0.11187 0.24645
# Poissons Ratio (z) = 0.24151 0.16471
#
# Static dielectric constant tensor:
#      x y z
#    x 3.086410 0.000000 0.000000 
#    y 0.000000 3.103660 0.000000 
#    z 0.000000 0.000000 3.638310 
# 
# 
# High freq. dielectric constant tensor:
#      x y z
#    x 1.650340 0.000000 0.000000 
#    y 0.000000 1.660500 0.000000 
#    z 0.000000 0.000000 1.710070 
# 
# From -- ./inp_files/11553.got.cif
#   From: 2010.03.12/outbox.cif.g09.slc.cpg/sg59_6_cif.got.tgz:11553.got - 2010.04.16 16:29:54.
