data_PCOD8242186
_publ_section_title
;
Structure prediction by ZEFSAII (Michael W. Deem and Ramdas Pophale) SiO2 
 PCOD8242186
Probable space group: P M M N
;
_chemical_formula_sum "Si O2"
_cell_formula_units_Z 64
_cell_length_a 24.427007
_cell_length_b 13.788454
_cell_length_c 9.676649
_cell_angle_alpha 90.000000
_cell_angle_beta 90.000000
_cell_angle_gamma 90.000000
_cell_volume 3259.198559
_symmetry_space_group_name_H-M "P M M N"
_symmetry_group_IT_number 59
_space_group.IT_coordinate_system_code '2'
_symmetry_cell_setting 'orthorhombic'
loop_
_space_group_symop_operation_xyz
x,y,z
1/2-x,1/2-y,z
1/2+x,-y,-z
-x,1/2+y,-z
-x,-y,-z
1/2+x,1/2+y,-z
1/2-x,y,z
x,1/2-y,z
loop_
_atom_site_type_symbol
_atom_site_label
_atom_site_fract_x
_atom_site_fract_y
_atom_site_fract_z
Si Si1 0.812877 0.860492 0.968618
Si Si2 0.517124 0.912352 0.399708
Si Si3 0.401806 0.644394 0.420989
Si Si4 0.504889 0.037215 0.155402
Si Si5 0.364929 0.357198 0.524069
Si Si6 0.606077 0.138608 0.258002
Si Si7 0.883070 0.543626 0.747216
Si Si8 0.812561 0.524852 0.238807
O O1 0.750000 0.867384 0.922005
O O2 0.834687 0.750000 0.950511
O O3 0.847089 0.939871 0.882961
O O4 0.819777 0.889622 0.127991
O O5 0.466130 0.839787 0.391987
O O6 0.570283 0.857137 0.449680
O O7 0.500000 0.000000 0.500000
O O8 0.530164 0.950067 0.245557
O O9 0.373507 0.750000 0.397350
O O10 0.396681 0.609916 0.579796
O O11 0.376965 0.565426 0.314879
O O12 0.548298 0.124739 0.176531
O O13 0.446015 0.067917 0.216309
O O14 0.500000 0.000000 0.000000
O O15 0.341378 0.250000 0.550705
O O16 0.358040 0.382362 0.363473
O O17 0.331723 0.433467 0.614666
O O18 0.623558 0.250000 0.239029
O O19 0.652392 0.069218 0.193272
O O20 0.750000 0.490606 0.251288
#
# Coordination Sequence:
#
# PCOD8242186 Si02
#       8
#     8   8   8   8   8   8   8   8
#     4  10  23  43  64  85 118 165 202 241 310 380
#     4  11  17  36  55  81 120 156 199 237 290 353
#     4  10  19  35  61  88 121 162 200 242 300 358
#     4  11  21  36  58  87 127 162 198 243 300 365
#     4  12  22  35  59  89 117 152 201 256 308 359
#     4  11  21  39  64  90 121 162 204 250 309 364
#     4  11  21  38  60  92 126 156 204 255 302 365
#     4  11  23  43  63  86 119 156 206 262 309 367
#
# _framework density 19.63673
#
# number of rings (size 3 to 8) (size 9 to 14) (size 15 to 20)
#    0.000    1.125    6.250    1.875    0.000    3.500 
#    0.000    6.250    0.000    1.125    0.000    0.000 
#    0.000    0.000    0.000    0.000    0.000    0.000 
#
# Total GULP energy -793415.259785 kJ/mol
# GULP energy per Si atom -12397.113434 kJ/mol
# Density = 1.959204 g / cm^3
# Si number density = 19.636730 Si / 1000 Ang^3
#
#
#
# Elastic Constant Matrix: (Units=GPa)
#
#
# Indices 1 2 3 4 5 6 
#
# 1 79.3305 42.0383 26.3595 0.0000 0.0000 0.0000
# 2 42.0383 113.4126 34.7557 0.0000 0.0000 0.0000
# 3 26.3595 34.7557 98.1996 0.0000 0.0000 0.0000
# 4 0.0000 0.0000 0.0000 27.9067 0.0000 0.0000
# 5 0.0000 0.0000 0.0000 0.0000 29.5645 0.0000
# 6 0.0000 0.0000 0.0000 0.0000 0.0000 22.2946
#
#
#
# Elastic Compliance Matrix: (Units=1/GPa)
#
#
# Indices 1 2 3 4 5 6 
#
# 1 0.016214 -0.005245 -0.002496 0.000000 0.000000 0.000000
# 2 -0.005245 0.011587 -0.002693 0.000000 0.000000 0.000000
# 3 -0.002496 -0.002693 0.011806 0.000000 0.000000 0.000000
# 4 0.000000 0.000000 0.000000 0.035834 0.000000 0.000000
# 5 0.000000 0.000000 0.000000 0.000000 0.033824 0.000000
# 6 0.000000 0.000000 0.000000 0.000000 0.000000 0.044854
#
#
# Mechanical properties :
#
#
# Convention : Reuss Voigt Hill
#
# Bulk Modulus (GPa) = 53.36356 55.24997 54.30677
# Shear Modulus (GPa) = 27.58861 28.47246 28.03054
#
# Velocity S-wave (km/s) = 3.75233 3.81196 3.78227
# Velocity P-wave (km/s) = 6.78290 6.89724 6.84031
#
# Compressibility (1/GPa) = 0.01873938
#
# Stress axis : x y z
#
# Youngs Moduli (GPa) = 61.67379 86.30464 84.69963
#
# Poissons Ratio (x) = 0.45269 0.21140
# Poissons Ratio (y) = 0.32349 0.22809
# Poissons Ratio (z) = 0.15393 0.23241
#
# Static dielectric constant tensor:
#      x y z
#    x 3.630360 0.000000 0.000000 
#    y 0.000000 3.628720 0.000000 
#    z 0.000000 0.000000 3.628220 
# 
# 
# High freq. dielectric constant tensor:
#      x y z
#    x 1.750660 0.000000 0.000000 
#    y 0.000000 1.760520 0.000000 
#    z 0.000000 0.000000 1.763430 
# 
# From -- ./inp_files/9576.got.cif
#   From: 2010.03.12/outbox.cif.g09.slc.cpg/sg59_5_cif.got.tgz:9576.got - 2010.04.16 16:29:54.
