data_PCOD8242997
_publ_section_title
;
Structure prediction by ZEFSAII (Michael W. Deem and Ramdas Pophale) SiO2 
 PCOD8242997
Probable space group: P M M N
;
_chemical_formula_sum "Si O2"
_cell_formula_units_Z 64
_cell_length_a 28.775092
_cell_length_b 9.581282
_cell_length_c 12.438486
_cell_angle_alpha 90.000000
_cell_angle_beta 90.000000
_cell_angle_gamma 90.000000
_cell_volume 3429.318838
_symmetry_space_group_name_H-M "P M M N"
_symmetry_group_IT_number 59
_space_group.IT_coordinate_system_code '2'
_symmetry_cell_setting 'orthorhombic'
loop_
_space_group_symop_operation_xyz
x,y,z
1/2-x,1/2-y,z
1/2+x,-y,-z
-x,1/2+y,-z
-x,-y,-z
1/2+x,1/2+y,-z
1/2-x,y,z
x,1/2-y,z
loop_
_atom_site_type_symbol
_atom_site_label
_atom_site_fract_x
_atom_site_fract_y
_atom_site_fract_z
Si Si1 0.633642 0.587314 0.880914
Si Si2 0.803568 0.589494 0.082993
Si Si3 0.696590 0.403511 0.273534
Si Si4 0.434117 0.588430 0.486722
Si Si5 0.830426 0.414946 0.500512
Si Si6 0.994723 0.910128 0.666929
Si Si7 0.974219 0.913246 0.907392
Si Si8 0.801824 0.085905 0.730641
O O1 0.637163 0.750000 0.850440
O O2 0.580118 0.543625 0.899459
O O3 0.656813 0.498300 0.786303
O O4 0.663634 0.550029 0.984773
O O5 0.750000 0.552198 0.054514
O O6 0.808003 0.750000 0.114732
O O7 0.824628 0.503399 0.182837
O O8 0.750000 0.385743 0.246542
O O9 0.672351 0.250000 0.267864
O O10 0.691476 0.475095 0.390753
O O11 0.436216 0.750000 0.454373
O O12 0.382619 0.529074 0.493484
O O13 0.457045 0.563408 0.604041
O O14 0.456708 0.505588 0.389123
O O15 0.829198 0.250000 0.490750
O O16 0.801870 0.460208 0.605513
O O17 0.978447 0.750000 0.655501
O O18 0.998981 0.948080 0.793149
O O19 0.978767 0.750000 0.935948
O O20 0.000000 0.000000 0.000000
O O21 0.750000 0.050783 0.775658
O O22 0.812592 0.250000 0.743515
#
# Coordination Sequence:
#
# PCOD8242997 Si02
#       8
#     8   8   8   8   8   8   8   8
#     4  10  21  37  55  75 102 138 176 213 261 318
#     4   9  18  33  51  70  96 130 167 209 254 300
#     4   9  17  30  49  71  96 128 163 199 242 293
#     4   9  17  30  51  74  95 127 166 200 243 301
#     4   9  17  30  48  72 102 132 162 199 246 298
#     4   9  18  33  50  71  99 126 159 207 255 297
#     4  10  22  38  55  76 104 137 173 217 267 316
#     4  10  20  33  52  79 108 137 171 212 255 302
#
# _framework density 18.662600000000001
#
# number of rings (size 3 to 8) (size 9 to 14) (size 15 to 20)
#    0.000    2.625    0.000    1.500    0.000    4.750 
#    0.000    3.750    0.000    1.500    0.000    0.000 
#    0.000    0.000    0.000    0.000    0.000    0.000 
#
# Total GULP energy -793269.760458 kJ/mol
# GULP energy per Si atom -12394.840007 kJ/mol
# Density = 1.862012 g / cm^3
# Si number density = 18.662600 Si / 1000 Ang^3
#
#
#
# Elastic Constant Matrix: (Units=GPa)
#
#
# Indices 1 2 3 4 5 6 
#
# 1 84.4733 29.8433 38.3397 0.0000 0.0000 0.0000
# 2 29.8433 50.5960 49.0503 0.0000 0.0000 0.0000
# 3 38.3397 49.0503 122.2266 0.0000 0.0000 0.0000
# 4 0.0000 0.0000 0.0000 22.3910 0.0000 0.0000
# 5 0.0000 0.0000 0.0000 0.0000 23.2475 0.0000
# 6 0.0000 0.0000 0.0000 0.0000 0.0000 22.8592
#
#
#
# Elastic Compliance Matrix: (Units=1/GPa)
#
#
# Indices 1 2 3 4 5 6 
#
# 1 0.015224 -0.007120 -0.001918 0.000000 0.000000 0.000000
# 2 -0.007120 0.035680 -0.012085 0.000000 0.000000 0.000000
# 3 -0.001918 -0.012085 0.013633 0.000000 0.000000 0.000000
# 4 0.000000 0.000000 0.000000 0.044661 0.000000 0.000000
# 5 0.000000 0.000000 0.000000 0.000000 0.043015 0.000000
# 6 0.000000 0.000000 0.000000 0.000000 0.000000 0.043746
#
#
# Mechanical properties :
#
#
# Convention : Reuss Voigt Hill
#
# Bulk Modulus (GPa) = 44.86256 54.64025 49.75141
# Shear Modulus (GPa) = 20.35527 23.03706 21.69617
#
# Velocity S-wave (km/s) = 3.30616 3.51721 3.41331
# Velocity P-wave (km/s) = 6.21813 6.77022 6.50004
#
# Compressibility (1/GPa) = 0.02229030
#
# Stress axis : x y z
#
# Youngs Moduli (GPa) = 65.68545 28.02677 73.35122
#
# Poissons Ratio (x) = 0.19956 0.14069
# Poissons Ratio (y) = 0.46770 0.88647
# Poissons Ratio (z) = 0.12599 0.33871
#
# Static dielectric constant tensor:
#      x y z
#    x 3.478890 0.000000 0.000000 
#    y 0.000000 3.326200 0.000000 
#    z 0.000000 0.000000 3.565770 
# 
# 
# High freq. dielectric constant tensor:
#      x y z
#    x 1.720810 0.000000 0.000000 
#    y 0.000000 1.703630 0.000000 
#    z 0.000000 0.000000 1.732830 
# 
# From -- ./inp_files/19339.got.cif
#   From: 2010.03.12/outbox.cif.g09.slc.cpg/sg59_10_cif.got.tgz:19339.got - 2010.04.16 16:29:54.
