data_PCOD8242271
_publ_section_title
;
Structure prediction by ZEFSAII (Michael W. Deem and Ramdas Pophale) SiO2 
 PCOD8242271
Probable space group: P M M N
;
_chemical_formula_sum "Si O2"
_cell_formula_units_Z 64
_cell_length_a 22.387708
_cell_length_b 14.035829
_cell_length_c 9.932817
_cell_angle_alpha 90.000000
_cell_angle_beta 90.000000
_cell_angle_gamma 90.000000
_cell_volume 3121.189495
_symmetry_space_group_name_H-M "P M M N"
_symmetry_group_IT_number 59
_space_group.IT_coordinate_system_code '2'
_symmetry_cell_setting 'orthorhombic'
loop_
_space_group_symop_operation_xyz
x,y,z
1/2-x,1/2-y,z
1/2+x,-y,-z
-x,1/2+y,-z
-x,-y,-z
1/2+x,1/2+y,-z
1/2-x,y,z
x,1/2-y,z
loop_
_atom_site_type_symbol
_atom_site_label
_atom_site_fract_x
_atom_site_fract_y
_atom_site_fract_z
Si Si1 0.505649 0.638348 0.634177
Si Si2 0.895080 0.638426 0.839038
Si Si3 0.400814 0.862485 0.037548
Si Si4 0.879208 0.362718 0.266976
Si Si5 0.578744 0.862349 0.380172
Si Si6 0.681398 0.474227 0.762649
Si Si7 0.318024 0.500543 0.544242
Si Si8 0.532465 0.862718 0.096309
O O1 0.501386 0.750000 0.661097
O O2 0.554905 0.599021 0.736883
O O3 0.440410 0.596411 0.666058
O O4 0.525100 0.612873 0.482957
O O5 0.881777 0.750000 0.822190
O O6 0.834343 0.582186 0.807303
O O7 0.917584 0.610183 0.987170
O O8 0.402359 0.750000 0.050793
O O9 0.467558 0.905369 0.057837
O O10 0.357866 0.900334 0.153450
O O11 0.377474 0.891893 0.889785
O O12 0.871671 0.250000 0.285751
O O13 0.826506 0.414984 0.347263
O O14 0.591607 0.750000 0.377629
O O15 0.640401 0.910690 0.423122
O O16 0.556024 0.902924 0.237914
O O17 0.750000 0.455086 0.797742
O O18 0.668373 0.458953 0.604598
O O19 0.250000 0.464250 0.552856
O O20 0.525335 0.750000 0.103818
#
# Coordination Sequence:
#
# PCOD8242271 Si02
#       8
#     8   8   8   8   8   8   8   8
#     4   9  17  34  61  91 120 149 189 237 292 358
#     4  10  19  38  63  88 123 156 187 238 296 352
#     4  10  22  42  65  89 119 153 192 245 305 358
#     4  10  22  41  65  90 117 153 195 244 302 358
#     4  10  21  38  61  92 125 158 193 236 295 357
#     4  11  26  42  58  86 118 157 209 248 285 344
#     4  11  26  43  58  84 120 160 207 248 285 340
#     4   9  19  36  61  94 124 150 188 240 302 362
#
# _framework density 20.505002000000001
#
# number of rings (size 3 to 8) (size 9 to 14) (size 15 to 20)
#    0.000    2.000    2.500    0.000    3.500    4.000 
#    0.000    3.750    0.000    2.250    0.000    0.000 
#    0.000    0.000    0.000    0.000    0.000    0.000 
#
# Total GULP energy -793722.254525 kJ/mol
# GULP energy per Si atom -12401.910227 kJ/mol
# Density = 2.045833 g / cm^3
# Si number density = 20.505002 Si / 1000 Ang^3
#
#
#
# Elastic Constant Matrix: (Units=GPa)
#
#
# Indices 1 2 3 4 5 6 
#
# 1 94.2264 24.5893 53.7962 0.0000 0.0000 0.0000
# 2 24.5893 39.5917 33.3191 0.0000 0.0000 0.0000
# 3 53.7962 33.3191 157.0870 0.0000 0.0000 0.0000
# 4 0.0000 0.0000 0.0000 27.9532 0.0000 0.0000
# 5 0.0000 0.0000 0.0000 0.0000 29.2416 0.0000
# 6 0.0000 0.0000 0.0000 0.0000 0.0000 29.9864
#
#
#
# Elastic Compliance Matrix: (Units=1/GPa)
#
#
# Indices 1 2 3 4 5 6 
#
# 1 0.014192 -0.005750 -0.003640 0.000000 0.000000 0.000000
# 2 -0.005750 0.033076 -0.005046 0.000000 0.000000 0.000000
# 3 -0.003640 -0.005046 0.008683 0.000000 0.000000 0.000000
# 4 0.000000 0.000000 0.000000 0.035774 0.000000 0.000000
# 5 0.000000 0.000000 0.000000 0.000000 0.034198 0.000000
# 6 0.000000 0.000000 0.000000 0.000000 0.000000 0.033348
#
#
# Mechanical properties :
#
#
# Convention : Reuss Voigt Hill
#
# Bulk Modulus (GPa) = 36.93252 57.14603 47.03927
# Shear Modulus (GPa) = 25.35868 29.38294 27.37081
#
# Velocity S-wave (km/s) = 3.52050 3.78956 3.65750
# Velocity P-wave (km/s) = 5.88012 6.86130 6.38957
#
# Compressibility (1/GPa) = 0.02707641
#
# Stress axis : x y z
#
# Youngs Moduli (GPa) = 70.46330 30.23331 115.16807
#
# Poissons Ratio (x) = 0.17386 0.41926
# Poissons Ratio (y) = 0.40520 0.58118
# Poissons Ratio (z) = 0.25652 0.15257
#
# Static dielectric constant tensor:
#      x y z
#    x 3.604450 0.000000 0.000000 
#    y 0.000000 3.510390 0.000000 
#    z 0.000000 0.000000 3.959500 
# 
# 
# High freq. dielectric constant tensor:
#      x y z
#    x 1.784980 0.000000 0.000000 
#    y 0.000000 1.799840 0.000000 
#    z 0.000000 0.000000 1.817830 
# 
# From -- ./inp_files/12192.got.cif
#   From: 2010.03.12/outbox.cif.g09.slc.cpg/sg59_7_cif.got.tgz:12192.got - 2010.04.16 16:29:54.
