data_PCOD8242296
_publ_section_title
;
Structure prediction by ZEFSAII (Michael W. Deem and Ramdas Pophale) SiO2 
 PCOD8242296
Probable space group: P M M N
;
_chemical_formula_sum "Si O2"
_cell_formula_units_Z 64
_cell_length_a 14.767327
_cell_length_b 13.535540
_cell_length_c 18.183783
_cell_angle_alpha 90.000000
_cell_angle_beta 90.000000
_cell_angle_gamma 90.000000
_cell_volume 3634.642650
_symmetry_space_group_name_H-M "P M M N"
_symmetry_group_IT_number 59
_space_group.IT_coordinate_system_code '2'
_symmetry_cell_setting 'orthorhombic'
loop_
_space_group_symop_operation_xyz
x,y,z
1/2-x,1/2-y,z
1/2+x,-y,-z
-x,1/2+y,-z
-x,-y,-z
1/2+x,1/2+y,-z
1/2-x,y,z
x,1/2-y,z
loop_
_atom_site_type_symbol
_atom_site_label
_atom_site_fract_x
_atom_site_fract_y
_atom_site_fract_z
Si Si1 0.645965 0.450564 0.145089
Si Si2 0.533899 0.439519 0.708023
Si Si3 0.349321 0.634755 0.161157
Si Si4 0.357781 0.639462 0.002795
Si Si5 0.353386 0.364127 0.762460
Si Si6 0.151339 0.866463 0.587710
Si Si7 0.855576 0.135038 0.575154
Si Si8 0.535592 0.362631 0.272456
O O1 0.750000 0.419908 0.147512
O O2 0.632078 0.565965 0.165935
O O3 0.599934 0.375608 0.202586
O O4 0.606574 0.431094 0.063273
O O5 0.582301 0.380751 0.772699
O O6 0.429140 0.400187 0.703390
O O7 0.582140 0.425755 0.630504
O O8 0.543464 0.555557 0.730668
O O9 0.250000 0.588563 0.179794
O O10 0.336691 0.750000 0.148772
O O11 0.388286 0.594668 0.082527
O O12 0.250000 0.642560 0.003835
O O13 0.396590 0.750000 0.989483
O O14 0.250000 0.377953 0.731681
O O15 0.369261 0.250000 0.784884
O O16 0.250000 0.913707 0.603815
O O17 0.162550 0.750000 0.584679
O O18 0.117005 0.900634 0.507015
O O19 0.084912 0.896583 0.652487
O O20 0.750000 0.113074 0.590342
O O21 0.876134 0.250000 0.587298
O O22 0.499248 0.250000 0.275951
#
# Coordination Sequence:
#
# PCOD8242296 Si02
#       8
#     8   8   8   8   8   8   8   8
#     4   9  16  27  47  70  88 117 159 195 232 277
#     4  11  20  30  49  70  92 124 160 191 228 276
#     4   9  17  30  50  75  98 117 143 190 249 292
#     4   8  14  25  43  69  97 118 141 184 239 286
#     4   9  18  31  44  63  95 129 159 190 224 270
#     4   8  15  29  48  70  96 121 145 185 240 282
#     4   9  17  30  51  78  99 113 141 190 241 284
#     4  10  20  31  43  63  93 126 159 194 228 268
#
# _framework density 17.608333999999999
#
# number of rings (size 3 to 8) (size 9 to 14) (size 15 to 20)
#    0.000    2.875    0.000    3.750    0.000    3.250 
#    0.000    2.500    0.000    3.750    0.000    1.750 
#    0.000    5.000    0.000    0.000    0.000    0.000 
#
# Total GULP energy -792867.948039 kJ/mol
# GULP energy per Si atom -12388.561688 kJ/mol
# Density = 1.756826 g / cm^3
# Si number density = 17.608334 Si / 1000 Ang^3
#
#
#
# Elastic Constant Matrix: (Units=GPa)
#
#
# Indices 1 2 3 4 5 6 
#
# 1 46.1812 9.5026 20.8273 0.0000 0.0000 0.0000
# 2 9.5026 63.1856 4.5615 0.0000 0.0000 0.0000
# 3 20.8273 4.5615 97.3652 0.0000 0.0000 0.0000
# 4 0.0000 0.0000 0.0000 17.0894 0.0000 0.0000
# 5 0.0000 0.0000 0.0000 0.0000 0.6197 0.0000
# 6 0.0000 0.0000 0.0000 0.0000 0.0000 15.4505
#
#
#
# Elastic Compliance Matrix: (Units=1/GPa)
#
#
# Indices 1 2 3 4 5 6 
#
# 1 0.024648 -0.003338 -0.005116 0.000000 0.000000 0.000000
# 2 -0.003338 0.016332 -0.000051 0.000000 0.000000 0.000000
# 3 -0.005116 -0.000051 0.011367 0.000000 0.000000 0.000000
# 4 0.000000 0.000000 0.000000 0.058516 0.000000 0.000000
# 5 0.000000 0.000000 0.000000 0.000000 1.613665 0.000000
# 6 0.000000 0.000000 0.000000 0.000000 0.000000 0.064723
#
#
# Mechanical properties :
#
#
# Convention : Reuss Voigt Hill
#
# Bulk Modulus (GPa) = 28.29836 30.72387 29.51111
# Shear Modulus (GPa) = 2.75021 18.08794 10.41908
#
# Velocity S-wave (km/s) = 1.25111 3.20853 2.43515
# Velocity P-wave (km/s) = 4.26532 5.58682 4.97019
#
# Compressibility (1/GPa) = 0.03533774
#
# Stress axis : x y z
#
# Youngs Moduli (GPa) = 40.57139 61.22936 87.97094
#
# Poissons Ratio (x) = 0.20435 0.45006
# Poissons Ratio (y) = 0.13541 0.00451
# Poissons Ratio (z) = 0.20757 0.00314
#
# Static dielectric constant tensor:
#      x y z
#    x 3.265470 0.000000 0.000000 
#    y 0.000000 3.113360 0.000000 
#    z 0.000000 0.000000 3.585660 
# 
# 
# High freq. dielectric constant tensor:
#      x y z
#    x 1.653540 0.000000 0.000000 
#    y 0.000000 1.659710 0.000000 
#    z 0.000000 0.000000 1.685850 
# 
# From -- ./inp_files/27742.got.cif
#   From: 2010.03.12/outbox.cif.g09.slc.cpg/sg59_14_cif.got.tgz:27742.got - 2010.04.16 16:29:54.
