data_PCOD8242681
_publ_section_title
;
Structure prediction by ZEFSAII (Michael W. Deem and Ramdas Pophale) SiO2 
 PCOD8242681
Probable space group: P M M N
;
_chemical_formula_sum "Si O2"
_cell_formula_units_Z 64
_cell_length_a 22.707337
_cell_length_b 9.555161
_cell_length_c 15.840290
_cell_angle_alpha 90.000000
_cell_angle_beta 90.000000
_cell_angle_gamma 90.000000
_cell_volume 3436.903535
_symmetry_space_group_name_H-M "P M M N"
_symmetry_group_IT_number 59
_space_group.IT_coordinate_system_code '2'
_symmetry_cell_setting 'orthorhombic'
loop_
_space_group_symop_operation_xyz
x,y,z
1/2-x,1/2-y,z
1/2+x,-y,-z
-x,1/2+y,-z
-x,-y,-z
1/2+x,1/2+y,-z
1/2-x,y,z
x,1/2-y,z
loop_
_atom_site_type_symbol
_atom_site_label
_atom_site_fract_x
_atom_site_fract_y
_atom_site_fract_z
Si Si1 0.315703 0.909311 0.147518
Si Si2 0.427350 0.906776 0.237689
Si Si3 0.007457 0.409563 0.915978
Si Si4 0.681540 0.597114 0.001333
Si Si5 0.627610 0.585944 0.172452
Si Si6 0.038832 0.411770 0.389600
Si Si7 0.412153 0.590073 0.533872
Si Si8 0.181215 0.586340 0.674261
O O1 0.250000 0.959803 0.172545
O O2 0.314870 0.750000 0.116528
O O3 0.356765 0.927512 0.229920
O O4 0.343905 0.994955 0.069638
O O5 0.442813 0.750000 0.271130
O O6 0.450697 0.926651 0.142707
O O7 0.454114 0.023304 0.297570
O O8 0.016683 0.250000 0.945539
O O9 0.062242 0.456981 0.857204
O O10 0.000000 0.500000 0.000000
O O11 0.750000 0.608631 0.986915
O O12 0.651385 0.750000 0.990694
O O13 0.669978 0.542236 0.095441
O O14 0.631867 0.750000 0.195720
O O15 0.649010 0.499151 0.252652
O O16 0.056682 0.250000 0.388440
O O17 0.083684 0.489342 0.453111
O O18 0.970628 0.434153 0.411119
O O19 0.409133 0.750000 0.501806
O O20 0.353911 0.552384 0.587655
O O21 0.250000 0.542830 0.664106
O O22 0.175617 0.750000 0.695850
#
# Coordination Sequence:
#
# PCOD8242681 Si02
#       8
#     8   8   8   8   8   8   8   8
#     4   9  18  32  49  68  91 124 166 207 247 292
#     4  10  20  34  51  73 102 132 164 206 255 303
#     4  10  21  34  50  75 106 142 181 221 269 319
#     4   9  17  29  45  65  91 126 166 205 245 288
#     4  10  20  33  49  72 104 140 176 214 261 316
#     4  10  20  34  57  84 103 128 168 208 250 304
#     4   9  19  37  57  78 106 134 162 204 255 303
#     4  10  21  36  55  80 108 140 178 216 259 316
#
# _framework density 18.621413
#
# number of rings (size 3 to 8) (size 9 to 14) (size 15 to 20)
#    0.000    2.375    0.000    2.250    0.000    3.750 
#    0.000    1.875    0.000    3.750    0.000    0.000 
#    0.000    0.000    0.000    0.000    0.000    0.000 
#
# Total GULP energy -793386.063816 kJ/mol
# GULP energy per Si atom -12396.657247 kJ/mol
# Density = 1.857903 g / cm^3
# Si number density = 18.621413 Si / 1000 Ang^3
#
#
#
# Elastic Constant Matrix: (Units=GPa)
#
#
# Indices 1 2 3 4 5 6 
#
# 1 90.8371 41.1057 40.5854 0.0000 0.0000 0.0000
# 2 41.1057 83.7173 52.7940 0.0000 0.0000 0.0000
# 3 40.5854 52.7940 81.6792 0.0000 0.0000 0.0000
# 4 0.0000 0.0000 0.0000 41.2056 0.0000 0.0000
# 5 0.0000 0.0000 0.0000 0.0000 30.3168 0.0000
# 6 0.0000 0.0000 0.0000 0.0000 0.0000 21.8102
#
#
#
# Elastic Compliance Matrix: (Units=1/GPa)
#
#
# Indices 1 2 3 4 5 6 
#
# 1 0.015103 -0.004529 -0.004577 0.000000 0.000000 0.000000
# 2 -0.004529 0.021522 -0.011660 0.000000 0.000000 0.000000
# 3 -0.004577 -0.011660 0.022054 0.000000 0.000000 0.000000
# 4 0.000000 0.000000 0.000000 0.024269 0.000000 0.000000
# 5 0.000000 0.000000 0.000000 0.000000 0.032985 0.000000
# 6 0.000000 0.000000 0.000000 0.000000 0.000000 0.045850
#
#
# Mechanical properties :
#
#
# Convention : Reuss Voigt Hill
#
# Bulk Modulus (GPa) = 58.32308 58.35598 58.33953
# Shear Modulus (GPa) = 23.91970 26.78309 25.35139
#
# Velocity S-wave (km/s) = 3.58792 3.79660 3.69373
# Velocity P-wave (km/s) = 6.96797 7.11513 7.04193
#
# Compressibility (1/GPa) = 0.01714587
#
# Stress axis : x y z
#
# Youngs Moduli (GPa) = 66.21028 46.46345 45.34301
#
# Poissons Ratio (x) = 0.21046 0.20754
# Poissons Ratio (y) = 0.29990 0.52872
# Poissons Ratio (z) = 0.30305 0.54178
#
# Static dielectric constant tensor:
#      x y z
#    x 3.599850 0.000000 0.000000 
#    y 0.000000 3.610350 0.000000 
#    z 0.000000 0.000000 3.207010 
# 
# 
# High freq. dielectric constant tensor:
#      x y z
#    x 1.728960 0.000000 0.000000 
#    y 0.000000 1.720440 0.000000 
#    z 0.000000 0.000000 1.708310 
# 
# From -- ./inp_files/24781.got.cif
#   From: 2010.03.12/outbox.cif.g09.slc.cpg/sg59_13_cif.got.tgz:24781.got - 2010.04.16 16:29:54.
