data_PCOD8242672
_publ_section_title
;
Structure prediction by ZEFSAII (Michael W. Deem and Ramdas Pophale) SiO2 
 PCOD8242672
Probable space group: P M M N
;
_chemical_formula_sum "Si O2"
_cell_formula_units_Z 40
_cell_length_a 9.326334
_cell_length_b 14.319600
_cell_length_c 16.256731
_cell_angle_alpha 90.000000
_cell_angle_beta 90.000000
_cell_angle_gamma 90.000000
_cell_volume 2171.076221
_symmetry_space_group_name_H-M "P M M N"
_symmetry_group_IT_number 59
_space_group.IT_coordinate_system_code '2'
_symmetry_cell_setting 'orthorhombic'
loop_
_space_group_symop_operation_xyz
x,y,z
1/2-x,1/2-y,z
1/2+x,-y,-z
-x,1/2+y,-z
-x,-y,-z
1/2+x,1/2+y,-z
1/2-x,y,z
x,1/2-y,z
loop_
_atom_site_type_symbol
_atom_site_label
_atom_site_fract_x
_atom_site_fract_y
_atom_site_fract_z
Si Si1 0.416094 0.141757 0.975665
Si Si2 0.084769 0.354712 0.597553
Si Si3 0.915786 0.358200 0.440347
Si Si4 0.917174 0.505608 0.875879
Si Si5 0.916101 0.019165 0.287647
O O1 0.250000 0.133328 0.950238
O O2 0.463191 0.250000 0.982343
O O3 0.444919 0.091488 0.062423
O O4 0.508949 0.090050 0.906258
O O5 0.250000 0.358515 0.571924
O O6 0.033433 0.250000 0.618284
O O7 0.057093 0.414570 0.679286
O O8 0.999312 0.396388 0.519962
O O9 0.750000 0.379143 0.456602
O O10 0.949239 0.250000 0.426771
O O11 0.967206 0.410027 0.358364
O O12 0.750000 0.485040 0.864372
O O13 0.985702 0.537857 0.790602
O O14 0.750000 0.035245 0.263889
#
# Coordination Sequence:
#
# PCOD8242672 Si02
#       5
#     8   8   8   8   8
#     4   9  19  38  60  77 100 136 169 201 251 310
#     4   9  18  32  49  69  94 128 170 209 246 294
#     4   9  18  32  49  70  97 130 169 211 253 296
#     4  10  21  35  53  81 108 129 166 214 252 296
#     4  10  20  33  49  71 102 136 166 201 250 304
#
# _framework density 18.424042
#
# number of rings (size 3 to 8) (size 9 to 14) (size 15 to 20)
#    0.000    2.600    0.000    1.200    0.000    4.400 
#    0.000    2.000    0.000    0.000    0.000    0.000 
#    0.000    0.000    0.000    0.000    0.000    0.000 
#
# Total GULP energy -496063.038200 kJ/mol
# GULP energy per Si atom -12401.575955 kJ/mol
# Density = 1.838211 g / cm^3
# Si number density = 18.424042 Si / 1000 Ang^3
#
#
#
# Elastic Constant Matrix: (Units=GPa)
#
#
# Indices 1 2 3 4 5 6 
#
# 1 58.4395 13.4679 32.3496 0.0000 0.0000 0.0000
# 2 13.4679 61.0611 -1.4429 0.0000 0.0000 0.0000
# 3 32.3496 -1.4429 68.6696 0.0000 0.0000 0.0000
# 4 0.0000 0.0000 0.0000 18.5787 0.0000 0.0000
# 5 0.0000 0.0000 0.0000 0.0000 40.5642 0.0000
# 6 0.0000 0.0000 0.0000 0.0000 0.0000 23.0665
#
#
#
# Elastic Compliance Matrix: (Units=1/GPa)
#
#
# Indices 1 2 3 4 5 6 
#
# 1 0.025050 -0.005807 -0.011923 0.000000 0.000000 0.000000
# 2 -0.005807 0.017731 0.003108 0.000000 0.000000 0.000000
# 3 -0.011923 0.003108 0.020245 0.000000 0.000000 0.000000
# 4 0.000000 0.000000 0.000000 0.053825 0.000000 0.000000
# 5 0.000000 0.000000 0.000000 0.000000 0.024652 0.000000
# 6 0.000000 0.000000 0.000000 0.000000 0.000000 0.043353
#
#
# Mechanical properties :
#
#
# Convention : Reuss Voigt Hill
#
# Bulk Modulus (GPa) = 29.60100 30.76883 30.18492
# Shear Modulus (GPa) = 22.18674 26.02826 24.10750
#
# Velocity S-wave (km/s) = 3.47396 3.76271 3.62122
# Velocity P-wave (km/s) = 5.67385 5.96774 5.82265
#
# Compressibility (1/GPa) = 0.03378264
#
# Stress axis : x y z
#
# Youngs Moduli (GPa) = 39.92035 56.39760 49.39611
#
# Poissons Ratio (x) = 0.32749 0.58894
# Poissons Ratio (y) = 0.23181 -0.15353
# Poissons Ratio (z) = 0.47596 -0.17529
#
# Static dielectric constant tensor:
#      x y z
#    x 3.365200 0.000000 0.000000 
#    y 0.000000 3.563880 0.000000 
#    z 0.000000 0.000000 3.298840 
# 
# 
# High freq. dielectric constant tensor:
#      x y z
#    x 1.710130 0.000000 0.000000 
#    y 0.000000 1.721560 0.000000 
#    z 0.000000 0.000000 1.708790 
# 
# From -- ./inp_files/16619.got.cif
#   From: 2010.03.12/outbox.cif.g09.slc.cpg/sg59_9_cif.got.tgz:16619.got - 2010.04.16 16:29:54.
