data_PCOD8242536
_publ_section_title
;
Structure prediction by ZEFSAII (Michael W. Deem and Ramdas Pophale) SiO2 
 PCOD8242536
Probable space group: P M M N
;
_chemical_formula_sum "Si O2"
_cell_formula_units_Z 56
_cell_length_a 18.713896
_cell_length_b 9.194345
_cell_length_c 17.878454
_cell_angle_alpha 90.000000
_cell_angle_beta 90.000000
_cell_angle_gamma 90.000000
_cell_volume 3076.202840
_symmetry_space_group_name_H-M "P M M N"
_symmetry_group_IT_number 59
_space_group.IT_coordinate_system_code '2'
_symmetry_cell_setting 'orthorhombic'
loop_
_space_group_symop_operation_xyz
x,y,z
1/2-x,1/2-y,z
1/2+x,-y,-z
-x,1/2+y,-z
-x,-y,-z
1/2+x,1/2+y,-z
1/2-x,y,z
x,1/2-y,z
loop_
_atom_site_type_symbol
_atom_site_label
_atom_site_fract_x
_atom_site_fract_y
_atom_site_fract_z
Si Si1 0.588567 0.921128 0.859996
Si Si2 0.578790 0.080473 0.710139
Si Si3 0.333129 0.918501 0.010351
Si Si4 0.075507 0.580295 0.867989
Si Si5 0.334686 0.586540 0.592860
Si Si6 0.329211 0.577224 0.427643
Si Si7 0.086121 0.081584 0.719335
O O1 0.600425 0.750000 0.854824
O O2 0.507210 0.960626 0.882799
O O3 0.608219 0.991411 0.780567
O O4 0.642800 0.985874 0.919931
O O5 0.595158 0.250000 0.724093
O O6 0.617824 0.019093 0.636296
O O7 0.495540 0.051148 0.697979
O O8 0.250000 0.946085 0.993822
O O9 0.348546 0.750000 0.028365
O O10 0.378292 0.970092 0.938733
O O11 0.084617 0.750000 0.851864
O O12 0.106446 0.497152 0.796398
O O13 0.250000 0.586472 0.599336
O O14 0.363922 0.750000 0.607204
O O15 0.356992 0.530220 0.509933
O O16 0.365919 0.476876 0.652740
O O17 0.250000 0.513545 0.412373
O O18 0.325715 0.750000 0.426122
O O19 0.102451 0.250000 0.730471
#
# Coordination Sequence:
#
# PCOD8242536 Si02
#       7
#     8   8   8   8   8   8   8
#     4  10  20  34  53  76 103 134 166 204 251 300
#     4   9  18  33  52  75 103 133 168 208 247 294
#     4  10  21  36  54  76 100 128 166 209 250 296
#     4   9  19  36  55  74  99 134 173 207 243 294
#     4   9  18  33  52  72  96 130 171 211 250 296
#     4   8  15  30  52  74  95 127 172 212 245 289
#     4  10  20  32  49  76 106 133 163 204 254 302
#
# _framework density 18.204260999999999
#
# number of rings (size 3 to 8) (size 9 to 14) (size 15 to 20)
#    0.000    2.714    0.000    2.143    0.000    4.000 
#    0.000    3.571    0.000    0.857    0.000    0.000 
#    0.000    0.000    0.000    0.000    0.000    0.000 
#
# Total GULP energy -694457.966328 kJ/mol
# GULP energy per Si atom -12401.035113 kJ/mol
# Density = 1.816283 g / cm^3
# Si number density = 18.204261 Si / 1000 Ang^3
#
#
#
# Elastic Constant Matrix: (Units=GPa)
#
#
# Indices 1 2 3 4 5 6 
#
# 1 46.2407 22.3089 43.6773 0.0000 0.0000 0.0000
# 2 22.3089 52.5504 45.5072 0.0000 0.0000 0.0000
# 3 43.6773 45.5072 131.8913 0.0000 0.0000 0.0000
# 4 0.0000 0.0000 0.0000 17.9491 0.0000 0.0000
# 5 0.0000 0.0000 0.0000 0.0000 24.6787 0.0000
# 6 0.0000 0.0000 0.0000 0.0000 0.0000 24.4733
#
#
#
# Elastic Compliance Matrix: (Units=1/GPa)
#
#
# Indices 1 2 3 4 5 6 
#
# 1 0.032944 -0.006472 -0.008677 0.000000 0.000000 0.000000
# 2 -0.006472 0.028409 -0.007659 0.000000 0.000000 0.000000
# 3 -0.008677 -0.007659 0.013098 0.000000 0.000000 0.000000
# 4 0.000000 0.000000 0.000000 0.055713 0.000000 0.000000
# 5 0.000000 0.000000 0.000000 0.000000 0.040521 0.000000
# 6 0.000000 0.000000 0.000000 0.000000 0.000000 0.040861
#
#
# Mechanical properties :
#
#
# Convention : Reuss Voigt Hill
#
# Bulk Modulus (GPa) = 34.67848 50.40769 42.54309
# Shear Modulus (GPa) = 18.74249 21.36614 20.05432
#
# Velocity S-wave (km/s) = 3.21217 3.42963 3.32268
# Velocity P-wave (km/s) = 5.73135 6.59040 6.17583
#
# Compressibility (1/GPa) = 0.02883632
#
# Stress axis : x y z
#
# Youngs Moduli (GPa) = 30.35442 35.19981 76.34696
#
# Poissons Ratio (x) = 0.22780 0.66245
# Poissons Ratio (y) = 0.19644 0.58475
# Poissons Ratio (z) = 0.26338 0.26960
#
# Static dielectric constant tensor:
#      x y z
#    x 3.335300 0.000000 0.000000 
#    y 0.000000 3.206090 0.000000 
#    z 0.000000 0.000000 3.555210 
# 
# 
# High freq. dielectric constant tensor:
#      x y z
#    x 1.697890 0.000000 0.000000 
#    y 0.000000 1.689830 0.000000 
#    z 0.000000 0.000000 1.716570 
# 
# From -- ./inp_files/24181.got.cif
#   From: 2010.03.12/outbox.cif.g09.slc.cpg/sg59_13_cif.got.tgz:24181.got - 2010.04.16 16:29:54.
