data_PCOD8242433
_publ_section_title
;
Structure prediction by ZEFSAII (Michael W. Deem and Ramdas Pophale) SiO2 
 PCOD8242433
Probable space group: P M M N
;
_chemical_formula_sum "Si O2"
_cell_formula_units_Z 64
_cell_length_a 9.293574
_cell_length_b 19.197757
_cell_length_c 20.063407
_cell_angle_alpha 90.000000
_cell_angle_beta 90.000000
_cell_angle_gamma 90.000000
_cell_volume 3579.628315
_symmetry_space_group_name_H-M "P M M N"
_symmetry_group_IT_number 59
_space_group.IT_coordinate_system_code '2'
_symmetry_cell_setting 'orthorhombic'
loop_
_space_group_symop_operation_xyz
x,y,z
1/2-x,1/2-y,z
1/2+x,-y,-z
-x,1/2+y,-z
-x,-y,-z
1/2+x,1/2+y,-z
1/2-x,y,z
x,1/2-y,z
loop_
_atom_site_type_symbol
_atom_site_label
_atom_site_fract_x
_atom_site_fract_y
_atom_site_fract_z
Si Si1 0.583959 0.172997 0.666483
Si Si2 0.582292 0.426132 0.258241
Si Si3 0.082326 0.330670 0.899438
Si Si4 0.912391 0.167348 0.029066
Si Si5 0.586788 0.085320 0.546153
Si Si6 0.582758 0.832087 0.841770
Si Si7 0.083573 0.415695 0.770353
Si Si8 0.916988 0.045234 0.405141
O O1 0.750000 0.169981 0.687519
O O2 0.520582 0.250000 0.679075
O O3 0.565920 0.156373 0.587587
O O4 0.501191 0.116180 0.708891
O O5 0.750000 0.405864 0.251082
O O6 0.485099 0.369614 0.221730
O O7 0.553107 0.502068 0.226438
O O8 0.529353 0.422982 0.335261
O O9 0.250000 0.340166 0.916356
O O10 0.048068 0.250000 0.882368
O O11 0.032603 0.378745 0.838238
O O12 0.991686 0.358022 0.962306
O O13 0.750000 0.137181 0.031153
O O14 0.909956 0.250000 0.030109
O O15 0.000709 0.139879 0.092648
O O16 0.750000 0.057948 0.551622
O O17 0.549608 0.097050 0.467610
O O18 0.488713 0.028086 0.580367
O O19 0.750000 0.851347 0.848690
O O20 0.560725 0.750000 0.832284
O O21 0.250000 0.400001 0.757571
O O22 0.750000 0.028818 0.396536
#
# Coordination Sequence:
#
# PCOD8242433 Si02
#       8
#     8   8   8   8   8   8   8   8
#     4  10  20  32  47  71 105 141 177 218 261 307
#     4  10  20  34  53  78 106 134 170 215 259 308
#     4   9  17  30  49  73 102 137 174 210 250 297
#     4   9  17  31  53  78 102 130 167 211 256 303
#     4   9  17  30  49  72  98 131 172 214 257 303
#     4  10  21  37  57  79 102 130 166 209 259 316
#     4  10  20  34  51  74 105 140 177 215 255 305
#     4   9  17  31  51  74  99 129 169 214 257 303
#
# _framework density 17.878951000000001
#
# number of rings (size 3 to 8) (size 9 to 14) (size 15 to 20)
#    0.000    2.500    1.250    1.125    0.000    4.500 
#    0.000    2.500    0.000    2.250    0.000    0.000 
#    0.000    0.000    0.000    0.000    0.000    0.000 
#
# Total GULP energy -793445.181414 kJ/mol
# GULP energy per Si atom -12397.580960 kJ/mol
# Density = 1.783826 g / cm^3
# Si number density = 17.878951 Si / 1000 Ang^3
#
#
#
# Elastic Constant Matrix: (Units=GPa)
#
#
# Indices 1 2 3 4 5 6 
#
# 1 72.7721 30.6739 59.9294 0.0000 0.0000 0.0000
# 2 30.6739 48.3362 41.9773 0.0000 0.0000 0.0000
# 3 59.9294 41.9773 152.0575 0.0000 0.0000 0.0000
# 4 0.0000 0.0000 0.0000 28.8329 0.0000 0.0000
# 5 0.0000 0.0000 0.0000 0.0000 29.6870 0.0000
# 6 0.0000 0.0000 0.0000 0.0000 0.0000 21.2765
#
#
#
# Elastic Compliance Matrix: (Units=1/GPa)
#
#
# Indices 1 2 3 4 5 6 
#
# 1 0.022873 -0.008795 -0.006587 0.000000 0.000000 0.000000
# 2 -0.008795 0.030594 -0.004980 0.000000 0.000000 0.000000
# 3 -0.006587 -0.004980 0.010547 0.000000 0.000000 0.000000
# 4 0.000000 0.000000 0.000000 0.034683 0.000000 0.000000
# 5 0.000000 0.000000 0.000000 0.000000 0.033685 0.000000
# 6 0.000000 0.000000 0.000000 0.000000 0.000000 0.047000
#
#
# Mechanical properties :
#
#
# Convention : Reuss Voigt Hill
#
# Bulk Modulus (GPa) = 42.93368 59.81411 51.37389
# Shear Modulus (GPa) = 21.94249 25.33163 23.63706
#
# Velocity S-wave (km/s) = 3.50706 3.76818 3.63996
# Velocity P-wave (km/s) = 6.36120 7.24292 6.81633
#
# Compressibility (1/GPa) = 0.02329174
#
# Stress axis : x y z
#
# Youngs Moduli (GPa) = 43.71964 32.68604 94.81188
#
# Poissons Ratio (x) = 0.28746 0.62452
# Poissons Ratio (y) = 0.38450 0.47213
# Poissons Ratio (z) = 0.28798 0.16277
#
# Static dielectric constant tensor:
#      x y z
#    x 3.342470 0.000000 0.000000 
#    y 0.000000 3.052610 0.000000 
#    z 0.000000 0.000000 3.568220 
# 
# 
# High freq. dielectric constant tensor:
#      x y z
#    x 1.692420 0.000000 0.000000 
#    y 0.000000 1.659830 0.000000 
#    z 0.000000 0.000000 1.705850 
# 
# From -- ./inp_files/29570.got.cif
#   From: 2010.03.12/outbox.cif.g09.slc.cpg/sg59_15_cif.got.tgz:29570.got - 2010.04.16 16:29:54.
