data_PCOD8242273
_publ_section_title
;
Structure prediction by ZEFSAII (Michael W. Deem and Ramdas Pophale) SiO2 
 PCOD8242273
Probable space group: P M M N
;
_chemical_formula_sum "Si O2"
_cell_formula_units_Z 56
_cell_length_a 19.663772
_cell_length_b 15.073188
_cell_length_c 8.405968
_cell_angle_alpha 90.000000
_cell_angle_beta 90.000000
_cell_angle_gamma 90.000000
_cell_volume 2491.493040
_symmetry_space_group_name_H-M "P M M N"
_symmetry_group_IT_number 59
_space_group.IT_coordinate_system_code '2'
_symmetry_cell_setting 'orthorhombic'
loop_
_space_group_symop_operation_xyz
x,y,z
1/2-x,1/2-y,z
1/2+x,-y,-z
-x,1/2+y,-z
-x,-y,-z
1/2+x,1/2+y,-z
1/2-x,y,z
x,1/2-y,z
loop_
_atom_site_type_symbol
_atom_site_label
_atom_site_fract_x
_atom_site_fract_y
_atom_site_fract_z
Si Si1 0.044352 0.942713 0.620851
Si Si2 0.944780 0.653939 0.819795
Si Si3 0.170828 0.152718 0.742029
Si Si4 0.174131 0.112392 0.392468
Si Si5 0.671438 0.349617 0.919311
Si Si6 0.174189 0.911750 0.420401
Si Si7 0.597287 0.517410 0.066580
O O1 0.115027 0.902842 0.551673
O O2 0.056487 0.005535 0.771433
O O3 0.000122 0.859716 0.680780
O O4 0.000000 0.000000 0.500000
O O5 0.958599 0.750000 0.901629
O O6 0.871000 0.661082 0.738135
O O7 0.950259 0.571039 0.942172
O O8 0.250000 0.158727 0.718822
O O9 0.140420 0.250000 0.783844
O O10 0.142002 0.121143 0.569965
O O11 0.157537 0.085210 0.886486
O O12 0.250000 0.152779 0.382942
O O13 0.173920 0.009519 0.345680
O O14 0.750000 0.371495 0.958725
O O15 0.652606 0.250000 0.980207
O O16 0.659835 0.348120 0.728920
O O17 0.623967 0.422779 0.003285
O O18 0.250000 0.892348 0.495189
#
# Coordination Sequence:
#
# PCOD8242273 Si02
#       7
#     8   8   8   8   8   8   8
#     4  12  24  44  67  95 126 175 227 277 331 392
#     4  12  26  42  62  97 137 177 219 271 336 413
#     4  10  20  34  58  95 134 173 217 267 323 392
#     4  10  19  38  66  97 132 173 219 267 321 393
#     4  10  22  41  67  99 133 172 223 285 349 406
#     4  10  20  40  70  98 127 167 222 277 340 401
#     4  12  23  41  64  90 132 180 223 272 338 404
#
# _framework density 22.476483000000002
#
# number of rings (size 3 to 8) (size 9 to 14) (size 15 to 20)
#    0.000    1.143    4.286    1.714    0.000    3.143 
#    0.000    0.714    0.000    1.714    0.000    0.000 
#    0.000    0.000    0.000    0.000    0.000    0.000 
#
# Total GULP energy -694114.975209 kJ/mol
# GULP energy per Si atom -12394.910272 kJ/mol
# Density = 2.242533 g / cm^3
# Si number density = 22.476483 Si / 1000 Ang^3
#
#
#
# Elastic Constant Matrix: (Units=GPa)
#
#
# Indices 1 2 3 4 5 6 
#
# 1 105.2804 31.9460 53.7096 0.0000 0.0000 0.0000
# 2 31.9460 148.1393 46.6875 0.0000 0.0000 0.0000
# 3 53.7096 46.6875 106.5775 0.0000 0.0000 0.0000
# 4 0.0000 0.0000 0.0000 23.1614 0.0000 0.0000
# 5 0.0000 0.0000 0.0000 0.0000 36.2006 0.0000
# 6 0.0000 0.0000 0.0000 0.0000 0.0000 16.8428
#
#
#
# Elastic Compliance Matrix: (Units=1/GPa)
#
#
# Indices 1 2 3 4 5 6 
#
# 1 0.012877 -0.000849 -0.006117 0.000000 0.000000 0.000000
# 2 -0.000849 0.007888 -0.003027 0.000000 0.000000 0.000000
# 3 -0.006117 -0.003027 0.013792 0.000000 0.000000 0.000000
# 4 0.000000 0.000000 0.000000 0.043175 0.000000 0.000000
# 5 0.000000 0.000000 0.000000 0.000000 0.027624 0.000000
# 6 0.000000 0.000000 0.000000 0.000000 0.000000 0.059373
#
#
# Mechanical properties :
#
#
# Convention : Reuss Voigt Hill
#
# Bulk Modulus (GPa) = 68.63960 69.40927 69.02443
# Shear Modulus (GPa) = 26.37524 30.41791 28.39657
#
# Velocity S-wave (km/s) = 3.42930 3.68274 3.55828
# Velocity P-wave (km/s) = 6.80329 7.00224 6.90348
#
# Compressibility (1/GPa) = 0.01456885
#
# Stress axis : x y z
#
# Youngs Moduli (GPa) = 77.65856 126.78125 72.50632
#
# Poissons Ratio (x) = 0.10763 0.44355
# Poissons Ratio (y) = 0.06593 0.21951
# Poissons Ratio (z) = 0.47507 0.38382
#
# Static dielectric constant tensor:
#      x y z
#    x 4.099250 0.000000 0.000000 
#    y 0.000000 4.164550 0.000000 
#    z 0.000000 0.000000 4.001480 
# 
# 
# High freq. dielectric constant tensor:
#      x y z
#    x 1.881660 0.000000 0.000000 
#    y 0.000000 1.884790 0.000000 
#    z 0.000000 0.000000 1.877080 
# 
# From -- ./inp_files/11458.got.cif
#   From: 2010.03.12/outbox.cif.g09.slc.cpg/sg59_6_cif.got.tgz:11458.got - 2010.04.16 16:29:54.
