data_PCOD8242976
_publ_section_title
;
Structure prediction by ZEFSAII (Michael W. Deem and Ramdas Pophale) SiO2 
 PCOD8242976
Probable space group: P M M N
;
_chemical_formula_sum "Si O2"
_cell_formula_units_Z 64
_cell_length_a 14.276475
_cell_length_b 8.971020
_cell_length_c 26.476113
_cell_angle_alpha 90.000000
_cell_angle_beta 90.000000
_cell_angle_gamma 90.000000
_cell_volume 3390.916066
_symmetry_space_group_name_H-M "P M M N"
_symmetry_group_IT_number 59
_space_group.IT_coordinate_system_code '2'
_symmetry_cell_setting 'orthorhombic'
loop_
_space_group_symop_operation_xyz
x,y,z
1/2-x,1/2-y,z
1/2+x,-y,-z
-x,1/2+y,-z
-x,-y,-z
1/2+x,1/2+y,-z
1/2-x,y,z
x,1/2-y,z
loop_
_atom_site_type_symbol
_atom_site_label
_atom_site_fract_x
_atom_site_fract_y
_atom_site_fract_z
Si Si1 0.011732 0.925553 0.177018
Si Si2 0.638535 0.082430 0.998820
Si Si3 0.999758 0.076318 0.711089
Si Si4 0.002165 0.927644 0.554465
Si Si5 0.639218 0.919510 0.899415
Si Si6 0.143996 0.076543 0.901372
Si Si7 0.141669 0.426230 0.628080
Si Si8 0.358077 0.924339 0.373626
O O1 0.030498 0.750000 0.178370
O O2 0.003648 0.996473 0.233267
O O3 0.916291 0.964877 0.147654
O O4 0.099720 0.999905 0.149886
O O5 0.750000 0.075508 0.998777
O O6 0.600608 0.250000 0.996022
O O7 0.599126 0.995886 0.950150
O O8 0.601247 0.007587 0.050147
O O9 0.011807 0.250000 0.719640
O O10 0.089821 0.019944 0.679328
O O11 0.904571 0.039529 0.680621
O O12 0.004251 0.750000 0.550689
O O13 0.096195 0.985886 0.581537
O O14 0.000000 0.000000 0.500000
O O15 0.908843 0.979177 0.583653
O O16 0.750000 0.933798 0.896701
O O17 0.605409 0.750000 0.900023
O O18 0.250000 0.025347 0.889706
O O19 0.139703 0.250000 0.914255
O O20 0.250000 0.469532 0.632306
O O21 0.126804 0.250000 0.619255
O O22 0.250000 0.971478 0.371176
O O23 0.370614 0.750000 0.386779
#
# Coordination Sequence:
#
# PCOD8242976 Si02
#       8
#     8   8   8   8   8   8   8   8
#     4  10  20  33  52  78 105 134 170 210 253 305
#     4   9  17  31  52  74  95 124 164 207 251 305
#     4   8  16  32  53  79 107 134 171 218 262 303
#     4  11  22  36  55  81 116 150 181 221 264 310
#     4  10  21  36  52  71  98 131 166 208 259 311
#     4   9  18  32  49  72 103 134 163 200 249 304
#     4   9  18  35  59  83 108 142 183 223 264 311
#     4   9  18  35  58  81 107 142 183 224 267 313
#
# _framework density 18.873954999999999
#
# number of rings (size 3 to 8) (size 9 to 14) (size 15 to 20)
#    0.000    2.625    0.000    2.625    0.000    5.250 
#    0.000    6.250    0.000    0.000    0.000    3.500 
#    0.000    0.000    0.000    0.000    0.000    0.000 
#
# Total GULP energy -793578.705853 kJ/mol
# GULP energy per Si atom -12399.667279 kJ/mol
# Density = 1.883100 g / cm^3
# Si number density = 18.873955 Si / 1000 Ang^3
#
#
#
# Elastic Constant Matrix: (Units=GPa)
#
#
# Indices 1 2 3 4 5 6 
#
# 1 106.3765 44.8190 55.5266 0.0000 0.0000 0.0000
# 2 44.8190 83.3034 65.8223 0.0000 0.0000 0.0000
# 3 55.5266 65.8223 177.0252 0.0000 0.0000 0.0000
# 4 0.0000 0.0000 0.0000 25.8540 0.0000 0.0000
# 5 0.0000 0.0000 0.0000 0.0000 18.6696 0.0000
# 6 0.0000 0.0000 0.0000 0.0000 0.0000 23.2742
#
#
#
# Elastic Compliance Matrix: (Units=1/GPa)
#
#
# Indices 1 2 3 4 5 6 
#
# 1 0.012654 -0.005199 -0.002036 0.000000 0.000000 0.000000
# 2 -0.005199 0.019135 -0.005484 0.000000 0.000000 0.000000
# 3 -0.002036 -0.005484 0.008327 0.000000 0.000000 0.000000
# 4 0.000000 0.000000 0.000000 0.038679 0.000000 0.000000
# 5 0.000000 0.000000 0.000000 0.000000 0.053563 0.000000
# 6 0.000000 0.000000 0.000000 0.000000 0.000000 0.042966
#
#
# Mechanical properties :
#
#
# Convention : Reuss Voigt Hill
#
# Bulk Modulus (GPa) = 68.13426 77.67121 72.90274
# Shear Modulus (GPa) = 24.31272 26.92872 25.62072
#
# Velocity S-wave (km/s) = 3.59299 3.78135 3.68838
# Velocity P-wave (km/s) = 7.30690 7.76574 7.53981
#
# Compressibility (1/GPa) = 0.01467690
#
# Stress axis : x y z
#
# Youngs Moduli (GPa) = 79.02718 52.26067 120.09818
#
# Poissons Ratio (x) = 0.27173 0.24449
# Poissons Ratio (y) = 0.41090 0.65861
# Poissons Ratio (z) = 0.16088 0.28659
#
# Static dielectric constant tensor:
#      x y z
#    x 3.508270 0.000000 0.000000 
#    y 0.000000 3.386370 0.000000 
#    z 0.000000 0.000000 3.691130 
# 
# 
# High freq. dielectric constant tensor:
#      x y z
#    x 1.735150 0.000000 0.000000 
#    y 0.000000 1.715740 0.000000 
#    z 0.000000 0.000000 1.735280 
# 
# From -- ./inp_files/32144.got.cif
#   From: 2010.03.12/outbox.cif.g09.slc.cpg/sg59_17_cif.got.tgz:32144.got - 2010.04.16 16:29:54.
