data_PCOD8242620
_publ_section_title
;
Structure prediction by ZEFSAII (Michael W. Deem and Ramdas Pophale) SiO2 
 PCOD8242620
Probable space group: P M M N
;
_chemical_formula_sum "Si O2"
_cell_formula_units_Z 64
_cell_length_a 9.305064
_cell_length_b 19.538773
_cell_length_c 20.464248
_cell_angle_alpha 90.000000
_cell_angle_beta 90.000000
_cell_angle_gamma 90.000000
_cell_volume 3720.595377
_symmetry_space_group_name_H-M "P M M N"
_symmetry_group_IT_number 59
_space_group.IT_coordinate_system_code '2'
_symmetry_cell_setting 'orthorhombic'
loop_
_space_group_symop_operation_xyz
x,y,z
1/2-x,1/2-y,z
1/2+x,-y,-z
-x,1/2+y,-z
-x,-y,-z
1/2+x,1/2+y,-z
1/2-x,y,z
x,1/2-y,z
loop_
_atom_site_type_symbol
_atom_site_label
_atom_site_fract_x
_atom_site_fract_y
_atom_site_fract_z
Si Si1 0.912033 0.331534 0.708250
Si Si2 0.083070 0.575697 0.071195
Si Si3 0.578752 0.326004 0.180529
Si Si4 0.084544 0.330981 0.834644
Si Si5 0.416432 0.939602 0.920084
Si Si6 0.411907 0.331352 0.586357
Si Si7 0.908697 0.168650 0.323612
Si Si8 0.589456 0.831355 0.557425
O O1 0.750000 0.360185 0.714680
O O2 0.910252 0.250000 0.706623
O O3 0.007446 0.357476 0.768844
O O4 0.982457 0.361241 0.641753
O O5 0.250000 0.577049 0.091384
O O6 0.998698 0.638131 0.103736
O O7 0.013511 0.505031 0.095505
O O8 0.063216 0.585164 0.993998
O O9 0.750000 0.323021 0.182705
O O10 0.519217 0.250000 0.163425
O O11 0.525113 0.378982 0.126054
O O12 0.523557 0.349702 0.252539
O O13 0.250000 0.355265 0.833528
O O14 0.073768 0.250000 0.841083
O O15 0.250000 0.957632 0.905867
O O16 0.250000 0.359069 0.597816
O O17 0.408525 0.250000 0.591130
O O18 0.469285 0.353532 0.514322
O O19 0.750000 0.137058 0.329622
O O20 0.901883 0.250000 0.329830
O O21 0.998412 0.136083 0.383383
O O22 0.750000 0.859329 0.565460
O O23 0.587512 0.750000 0.562611
#
# Coordination Sequence:
#
# PCOD8242620 Si02
#       8
#     8   8   8   8   8   8   8   8
#     4   9  16  25  38  58  84 112 144 184 226 265
#     4  10  20  33  50  71  94 119 150 191 233 273
#     4   8  14  26  45  68  91 117 152 190 226 268
#     4  10  20  33  49  68  92 123 155 187 227 277
#     4   9  18  33  52  70  91 122 155 187 227 276
#     4   8  13  21  32  47  72 109 148 180 213 258
#     4   8  13  21  34  53  78 107 140 180 221 258
#     4   8  13  20  30  46  72 108 146 179 213 258
#
# _framework density 17.201547000000001
#
# number of rings (size 3 to 8) (size 9 to 14) (size 15 to 20)
#    0.000    3.250    0.000    2.625    0.000    3.750 
#    0.000    4.375    0.000    1.125    0.000    0.000 
#    0.000    1.000    0.000    3.000    0.000    7.125 
#
# Total GULP energy -793181.670136 kJ/mol
# GULP energy per Si atom -12393.463596 kJ/mol
# Density = 1.716240 g / cm^3
# Si number density = 17.201547 Si / 1000 Ang^3
#
#
#
# Elastic Constant Matrix: (Units=GPa)
#
#
# Indices 1 2 3 4 5 6 
#
# 1 101.9405 28.0292 62.4106 0.0000 0.0000 0.0000
# 2 28.0292 29.2143 36.2268 0.0000 0.0000 0.0000
# 3 62.4106 36.2268 118.1883 0.0000 0.0000 0.0000
# 4 0.0000 0.0000 0.0000 2.7754 0.0000 0.0000
# 5 0.0000 0.0000 0.0000 0.0000 30.3610 0.0000
# 6 0.0000 0.0000 0.0000 0.0000 0.0000 16.7258
#
#
#
# Elastic Compliance Matrix: (Units=1/GPa)
#
#
# Indices 1 2 3 4 5 6 
#
# 1 0.015477 -0.007605 -0.005842 0.000000 0.000000 0.000000
# 2 -0.007605 0.058955 -0.014055 0.000000 0.000000 0.000000
# 3 -0.005842 -0.014055 0.015854 0.000000 0.000000 0.000000
# 4 0.000000 0.000000 0.000000 0.360315 0.000000 0.000000
# 5 0.000000 0.000000 0.000000 0.000000 0.032937 0.000000
# 6 0.000000 0.000000 0.000000 0.000000 0.000000 0.059788
#
#
# Mechanical properties :
#
#
# Convention : Reuss Voigt Hill
#
# Bulk Modulus (GPa) = 28.34269 55.85292 42.09780
# Shear Modulus (GPa) = 8.19552 18.15088 13.17320
#
# Velocity S-wave (km/s) = 2.18512 3.25189 2.77034
# Velocity P-wave (km/s) = 4.78319 6.82934 5.89571
#
# Compressibility (1/GPa) = 0.03528247
#
# Stress axis : x y z
#
# Youngs Moduli (GPa) = 64.61087 16.96214 63.07624
#
# Poissons Ratio (x) = 0.12900 0.36847
# Poissons Ratio (y) = 0.49140 0.88651
# Poissons Ratio (z) = 0.37744 0.23839
#
# Static dielectric constant tensor:
#      x y z
#    x 3.311180 0.000000 0.000000 
#    y 0.000000 2.698170 0.000000 
#    z 0.000000 0.000000 3.535340 
# 
# 
# High freq. dielectric constant tensor:
#      x y z
#    x 1.656630 0.000000 0.000000 
#    y 0.000000 1.598020 0.000000 
#    z 0.000000 0.000000 1.680020 
# 
# From -- ./inp_files/29752.got.cif
#   From: 2010.03.12/outbox.cif.g09.slc.cpg/sg59_15_cif.got.tgz:29752.got - 2010.04.16 16:29:54.
