data_PCOD8242083
_publ_section_title
;
Structure prediction by ZEFSAII (Michael W. Deem and Ramdas Pophale) SiO2 
 PCOD8242083
Probable space group: P M M N
;
_chemical_formula_sum "Si O2"
_cell_formula_units_Z 48
_cell_length_a 28.125361
_cell_length_b 8.819138
_cell_length_c 10.363984
_cell_angle_alpha 90.000000
_cell_angle_beta 90.000000
_cell_angle_gamma 90.000000
_cell_volume 2570.697515
_symmetry_space_group_name_H-M "P M M N"
_symmetry_group_IT_number 59
_space_group.IT_coordinate_system_code '2'
_symmetry_cell_setting 'orthorhombic'
loop_
_space_group_symop_operation_xyz
x,y,z
1/2-x,1/2-y,z
1/2+x,-y,-z
-x,1/2+y,-z
-x,-y,-z
1/2+x,1/2+y,-z
1/2-x,y,z
x,1/2-y,z
loop_
_atom_site_type_symbol
_atom_site_label
_atom_site_fract_x
_atom_site_fract_y
_atom_site_fract_z
Si Si1 0.055863 0.429739 0.236401
Si Si2 0.696268 0.073443 0.106186
Si Si3 0.894031 0.570691 0.019998
Si Si4 0.802820 0.923312 0.375406
Si Si5 0.448220 0.570493 0.741190
Si Si6 0.899015 0.573088 0.500055
O O1 0.056751 0.250000 0.232336
O O2 0.086027 0.487264 0.359230
O O3 0.002081 0.489603 0.245546
O O4 0.079558 0.494806 0.106267
O O5 0.750000 0.031592 0.065580
O O6 0.685825 0.250000 0.090051
O O7 0.660960 0.980462 0.013676
O O8 0.687107 0.031218 0.254827
O O9 0.897350 0.750000 0.026719
O O10 0.917231 0.502697 0.147173
O O11 0.750000 0.954146 0.433259
O O12 0.807014 0.750000 0.326418
O O13 0.842430 0.956607 0.484039
O O14 0.445309 0.750000 0.753719
O O15 0.428865 0.520571 0.603232
O O16 0.911417 0.750000 0.482715
#
# Coordination Sequence:
#
# PCOD8242083 Si02
#       6
#     8   8   8   8   8   8
#     4   9  21  37  53  77 111 145 180 224 272 319
#     4  10  20  34  54  80 109 138 173 220 269 317
#     4  11  21  36  56  79 108 144 183 224 266 315
#     4   9  17  30  52  80 106 134 171 215 264 319
#     4  11  21  35  55  79 107 142 185 228 269 319
#     4  10  19  35  56  79 108 141 178 223 269 322
#
# _framework density 18.671976000000001
#
# number of rings (size 3 to 8) (size 9 to 14) (size 15 to 20)
#    0.000    2.000    1.667    2.500    0.000    1.000 
#    0.000    5.833    0.000    3.000    0.000    2.333 
#    0.000    0.000    0.000    0.000    0.000    0.000 
#
# Total GULP energy -595244.580019 kJ/mol
# GULP energy per Si atom -12400.928750 kJ/mol
# Density = 1.862948 g / cm^3
# Si number density = 18.671976 Si / 1000 Ang^3
#
#
#
# Elastic Constant Matrix: (Units=GPa)
#
#
# Indices 1 2 3 4 5 6 
#
# 1 136.8138 31.1818 43.7010 0.0000 0.0000 0.0000
# 2 31.1818 53.5620 21.9134 0.0000 0.0000 0.0000
# 3 43.7010 21.9134 84.9186 0.0000 0.0000 0.0000
# 4 0.0000 0.0000 0.0000 10.7248 0.0000 0.0000
# 5 0.0000 0.0000 0.0000 0.0000 16.4934 0.0000
# 6 0.0000 0.0000 0.0000 0.0000 0.0000 25.7713
#
#
#
# Elastic Compliance Matrix: (Units=1/GPa)
#
#
# Indices 1 2 3 4 5 6 
#
# 1 0.009429 -0.003918 -0.003841 0.000000 0.000000 0.000000
# 2 -0.003918 0.022501 -0.003790 0.000000 0.000000 0.000000
# 3 -0.003841 -0.003790 0.014731 0.000000 0.000000 0.000000
# 4 0.000000 0.000000 0.000000 0.093242 0.000000 0.000000
# 5 0.000000 0.000000 0.000000 0.000000 0.060630 0.000000
# 6 0.000000 0.000000 0.000000 0.000000 0.000000 0.038803
#
#
# Mechanical properties :
#
#
# Convention : Reuss Voigt Hill
#
# Bulk Modulus (GPa) = 42.44040 52.09854 47.26947
# Shear Modulus (GPa) = 18.49864 22.49777 20.49821
#
# Velocity S-wave (km/s) = 3.15098 3.47493 3.31691
# Velocity P-wave (km/s) = 6.00142 6.63798 6.32771
#
# Compressibility (1/GPa) = 0.02356246
#
# Stress axis : x y z
#
# Youngs Moduli (GPa) = 106.05425 44.44164 67.88393
#
# Poissons Ratio (x) = 0.17411 0.26078
# Poissons Ratio (y) = 0.41548 0.25731
# Poissons Ratio (z) = 0.40741 0.16845
#
# Static dielectric constant tensor:
#      x y z
#    x 3.861880 0.000000 0.000000 
#    y 0.000000 3.292740 0.000000 
#    z 0.000000 0.000000 3.406740 
# 
# 
# High freq. dielectric constant tensor:
#      x y z
#    x 1.745740 0.000000 0.000000 
#    y 0.000000 1.713120 0.000000 
#    z 0.000000 0.000000 1.704410 
# 
# From -- ./inp_files/6252.got.cif
#   From: 2010.03.12/outbox.cif.g09.slc.cpg/sg59_4_cif.got.tgz:6252.got - 2010.04.16 16:29:54.
