data_PCOD8242099
_publ_section_title
;
Structure prediction by ZEFSAII (Michael W. Deem and Ramdas Pophale) SiO2 
 PCOD8242099
Probable space group: P M M N
;
_chemical_formula_sum "Si O2"
_cell_formula_units_Z 64
_cell_length_a 17.563691
_cell_length_b 29.178085
_cell_length_c 6.184070
_cell_angle_alpha 90.000000
_cell_angle_beta 90.000000
_cell_angle_gamma 90.000000
_cell_volume 3169.180463
_symmetry_space_group_name_H-M "P M M N"
_symmetry_group_IT_number 59
_space_group.IT_coordinate_system_code '2'
_symmetry_cell_setting 'orthorhombic'
loop_
_space_group_symop_operation_xyz
x,y,z
1/2-x,1/2-y,z
1/2+x,-y,-z
-x,1/2+y,-z
-x,-y,-z
1/2+x,1/2+y,-z
1/2-x,y,z
x,1/2-y,z
loop_
_atom_site_type_symbol
_atom_site_label
_atom_site_fract_x
_atom_site_fract_y
_atom_site_fract_z
Si Si1 0.164812 0.941084 0.592712
Si Si2 0.054269 0.960067 0.206971
Si Si3 0.381731 0.299627 0.081396
Si Si4 0.931270 0.118901 0.123554
Si Si5 0.334224 0.121172 0.788225
Si Si6 0.539328 0.199644 0.838633
Si Si7 0.043708 0.343113 0.461213
Si Si8 0.389492 0.476856 0.854538
O O1 0.250000 0.932546 0.504709
O O2 0.105013 0.940831 0.399024
O O3 0.143451 0.898928 0.751765
O O4 0.164081 0.989123 0.719114
O O5 0.969204 0.974272 0.280319
O O6 0.038776 0.919314 0.039194
O O7 0.096061 0.002864 0.093914
O O8 0.339285 0.250000 0.066563
O O9 0.402279 0.307559 0.333364
O O10 0.333086 0.340887 0.979399
O O11 0.457798 0.296176 0.944974
O O12 0.001979 0.124970 0.286662
O O13 0.910574 0.164809 0.985682
O O14 0.250000 0.122735 0.681009
O O15 0.400640 0.127725 0.613360
O O16 0.347475 0.071196 0.890427
O O17 0.579041 0.250000 0.830400
O O18 0.524022 0.181661 0.595293
#
# Coordination Sequence:
#
# PCOD8242099 Si02
#       8
#     8   8   8   8   8   8   8   8
#     4  11  23  37  57  84 114 149 186 227 282 347
#     4  10  21  38  61  82 108 147 189 234 280 332
#     4   9  19  35  54  77 108 146 189 234 276 323
#     4  10  20  36  58  85 114 146 186 233 281 333
#     4  11  23  36  52  78 114 152 189 234 286 337
#     4   9  17  31  56  87 112 137 177 231 281 324
#     4  10  19  35  57  81 111 148 193 238 281 329
#     4  10  21  38  57  81 108 142 189 237 282 329
#
# _framework density 20.194496000000001
#
# number of rings (size 3 to 8) (size 9 to 14) (size 15 to 20)
#    0.000    2.000    0.000    4.875    0.000    7.250 
#    0.000    0.000    0.000    0.375    0.000    0.000 
#    0.000    0.000    0.000    0.000    0.000    0.000 
#
# Total GULP energy -793318.932095 kJ/mol
# GULP energy per Si atom -12395.608314 kJ/mol
# Density = 2.014853 g / cm^3
# Si number density = 20.194496 Si / 1000 Ang^3
#
#
#
# Elastic Constant Matrix: (Units=GPa)
#
#
# Indices 1 2 3 4 5 6 
#
# 1 69.4044 29.7002 23.6338 0.0000 0.0000 0.0000
# 2 29.7002 156.7885 46.2106 0.0000 0.0000 0.0000
# 3 23.6338 46.2106 86.6222 0.0000 0.0000 0.0000
# 4 0.0000 0.0000 0.0000 13.9202 0.0000 0.0000
# 5 0.0000 0.0000 0.0000 0.0000 11.4716 0.0000
# 6 0.0000 0.0000 0.0000 0.0000 0.0000 10.2614
#
#
#
# Elastic Compliance Matrix: (Units=1/GPa)
#
#
# Indices 1 2 3 4 5 6 
#
# 1 0.016462 -0.002129 -0.003356 0.000000 0.000000 0.000000
# 2 -0.002129 0.007843 -0.003603 0.000000 0.000000 0.000000
# 3 -0.003356 -0.003603 0.014382 0.000000 0.000000 0.000000
# 4 0.000000 0.000000 0.000000 0.071838 0.000000 0.000000
# 5 0.000000 0.000000 0.000000 0.000000 0.087172 0.000000
# 6 0.000000 0.000000 0.000000 0.000000 0.000000 0.097453
#
#
# Mechanical properties :
#
#
# Convention : Reuss Voigt Hill
#
# Bulk Modulus (GPa) = 48.75357 56.87826 52.81591
# Shear Modulus (GPa) = 15.61701 21.34867 18.48284
#
# Velocity S-wave (km/s) = 2.78390 3.25492 3.02858
# Velocity P-wave (km/s) = 5.87604 6.50787 6.20001
#
# Compressibility (1/GPa) = 0.02051132
#
# Stress axis : x y z
#
# Youngs Moduli (GPa) = 60.74526 127.49601 69.53075
#
# Poissons Ratio (x) = 0.27149 0.23331
# Poissons Ratio (y) = 0.12935 0.25054
# Poissons Ratio (z) = 0.20383 0.45940
#
# Static dielectric constant tensor:
#      x y z
#    x 3.291970 0.000000 0.000000 
#    y 0.000000 4.150110 0.000000 
#    z 0.000000 0.000000 3.818950 
# 
# 
# High freq. dielectric constant tensor:
#      x y z
#    x 1.747720 0.000000 0.000000 
#    y 0.000000 1.800520 0.000000 
#    z 0.000000 0.000000 1.787180 
# 
# From -- ./inp_files/3038.got.cif
#   From: 2010.03.12/outbox.cif.g09.slc.cpg/sg59_2_cif.got.tgz:3038.got - 2010.04.16 16:29:54.
