data_PCOD8242732
_publ_section_title
;
Structure prediction by ZEFSAII (Michael W. Deem and Ramdas Pophale) SiO2 
 PCOD8242732
Probable space group: P M M N
;
_chemical_formula_sum "Si O2"
_cell_formula_units_Z 48
_cell_length_a 9.459140
_cell_length_b 9.074177
_cell_length_c 30.969178
_cell_angle_alpha 90.000000
_cell_angle_beta 90.000000
_cell_angle_gamma 90.000000
_cell_volume 2658.205657
_symmetry_space_group_name_H-M "P M M N"
_symmetry_group_IT_number 59
_space_group.IT_coordinate_system_code '2'
_symmetry_cell_setting 'orthorhombic'
loop_
_space_group_symop_operation_xyz
x,y,z
1/2-x,1/2-y,z
1/2+x,-y,-z
-x,1/2+y,-z
-x,-y,-z
1/2+x,1/2+y,-z
1/2-x,y,z
x,1/2-y,z
loop_
_atom_site_type_symbol
_atom_site_label
_atom_site_fract_x
_atom_site_fract_y
_atom_site_fract_z
Si Si1 0.086310 0.079537 0.624214
Si Si2 0.584288 0.921954 0.962267
Si Si3 0.086135 0.921454 0.292982
Si Si4 0.081549 0.083752 0.207666
Si Si5 0.085236 0.578505 0.537342
Si Si6 0.918035 0.084021 0.875976
O O1 0.250000 0.052418 0.634516
O O2 0.054277 0.250000 0.614299
O O3 0.998535 0.023223 0.665265
O O4 0.035787 0.986402 0.583127
O O5 0.750000 0.949903 0.969460
O O6 0.547731 0.750000 0.961524
O O7 0.531657 0.991982 0.917396
O O8 0.500000 0.000000 0.000000
O O9 0.250000 0.955362 0.301317
O O10 0.059410 0.750000 0.283992
O O11 0.027369 0.009004 0.251658
O O12 0.250000 0.081148 0.206400
O O13 0.023728 0.250000 0.205477
O O14 0.020403 0.993916 0.166850
O O15 0.250000 0.546764 0.529795
O O16 0.049530 0.750000 0.536747
O O17 0.000000 0.500000 0.500000
O O18 0.750000 0.086982 0.873677
O O19 0.978361 0.250000 0.878882
#
# Coordination Sequence:
#
# PCOD8242732 Si02
#       6
#     8   8   8   8   8   8
#     4   9  18  33  51  70  96 130 163 195 236 287
#     4  10  20  33  50  73 100 130 165 204 247 296
#     4   9  17  29  46  69  95 122 154 193 236 281
#     4   9  16  26  42  66  95 123 153 194 241 285
#     4  10  21  36  54  76 101 130 165 204 246 292
#     4   9  16  27  45  68  94 125 160 198 242 291
#
# _framework density 18.057293000000001
#
# number of rings (size 3 to 8) (size 9 to 14) (size 15 to 20)
#    0.000    2.667    0.000    2.000    0.000    7.333 
#    0.000    1.667    0.000    1.000    0.000    2.333 
#    0.000    0.000    0.000    0.000    0.000    0.000 
#
# Total GULP energy -595272.617538 kJ/mol
# GULP energy per Si atom -12401.512865 kJ/mol
# Density = 1.801619 g / cm^3
# Si number density = 18.057293 Si / 1000 Ang^3
#
#
#
# Elastic Constant Matrix: (Units=GPa)
#
#
# Indices 1 2 3 4 5 6 
#
# 1 33.1347 38.9582 55.9800 0.0000 0.0000 0.0000
# 2 38.9582 139.8795 106.4417 0.0000 0.0000 0.0000
# 3 55.9800 106.4417 205.1870 0.0000 0.0000 0.0000
# 4 0.0000 0.0000 0.0000 42.1034 0.0000 0.0000
# 5 0.0000 0.0000 0.0000 0.0000 27.8369 0.0000
# 6 0.0000 0.0000 0.0000 0.0000 0.0000 18.8579
#
#
#
# Elastic Compliance Matrix: (Units=1/GPa)
#
#
# Indices 1 2 3 4 5 6 
#
# 1 0.059880 -0.007015 -0.012698 0.000000 0.000000 0.000000
# 2 -0.007015 0.012633 -0.004640 0.000000 0.000000 0.000000
# 3 -0.012698 -0.004640 0.010745 0.000000 0.000000 0.000000
# 4 0.000000 0.000000 0.000000 0.023751 0.000000 0.000000
# 5 0.000000 0.000000 0.000000 0.000000 0.035924 0.000000
# 6 0.000000 0.000000 0.000000 0.000000 0.000000 0.053028
#
#
# Mechanical properties :
#
#
# Convention : Reuss Voigt Hill
#
# Bulk Modulus (GPa) = 28.94086 86.77344 57.85715
# Shear Modulus (GPa) = 19.51726 29.54773 24.53250
#
# Velocity S-wave (km/s) = 3.29120 4.04955 3.68991
# Velocity P-wave (km/s) = 5.52310 8.36803 7.08973
#
# Compressibility (1/GPa) = 0.03455322
#
# Stress axis : x y z
#
# Youngs Moduli (GPa) = 16.70009 79.15495 93.06892
#
# Poissons Ratio (x) = 0.55528 1.18175
# Poissons Ratio (y) = 0.11715 0.43182
# Poissons Ratio (z) = 0.21205 0.36726
#
# Static dielectric constant tensor:
#      x y z
#    x 2.934760 0.000000 0.000000 
#    y 0.000000 3.489530 0.000000 
#    z 0.000000 0.000000 3.553750 
# 
# 
# High freq. dielectric constant tensor:
#      x y z
#    x 1.652250 0.000000 0.000000 
#    y 0.000000 1.710150 0.000000 
#    z 0.000000 0.000000 1.715560 
# 
# From -- ./inp_files/31242.got.cif
#   From: 2010.03.12/outbox.cif.g09.slc.cpg/sg59_16_cif.got.tgz:31242.got - 2010.04.16 16:29:54.
