data_PCOD8242503
_publ_section_title
;
Structure prediction by ZEFSAII (Michael W. Deem and Ramdas Pophale) SiO2 
 PCOD8242503
Probable space group: P M M N
;
_chemical_formula_sum "Si O2"
_cell_formula_units_Z 48
_cell_length_a 20.310619
_cell_length_b 8.793148
_cell_length_c 15.370362
_cell_angle_alpha 90.000000
_cell_angle_beta 90.000000
_cell_angle_gamma 90.000000
_cell_volume 2745.058717
_symmetry_space_group_name_H-M "P M M N"
_symmetry_group_IT_number 59
_space_group.IT_coordinate_system_code '2'
_symmetry_cell_setting 'orthorhombic'
loop_
_space_group_symop_operation_xyz
x,y,z
1/2-x,1/2-y,z
1/2+x,-y,-z
-x,1/2+y,-z
-x,-y,-z
1/2+x,1/2+y,-z
1/2-x,y,z
x,1/2-y,z
loop_
_atom_site_type_symbol
_atom_site_label
_atom_site_fract_x
_atom_site_fract_y
_atom_site_fract_z
Si Si1 0.823276 0.073470 0.120376
Si Si2 0.994632 0.918999 0.261766
Si Si3 0.447509 0.930304 0.434060
Si Si4 0.677311 0.574941 0.489317
Si Si5 0.957054 0.931658 0.076458
Si Si6 0.154065 0.080222 0.703097
O O1 0.750000 0.037287 0.081933
O O2 0.839809 0.250000 0.109830
O O3 0.880337 0.981080 0.069503
O O4 0.821948 0.033003 0.222288
O O5 0.021020 0.750000 0.243712
O O6 0.988863 0.998157 0.166611
O O7 0.923911 0.917455 0.306660
O O8 0.041226 0.995936 0.335191
O O9 0.457745 0.750000 0.434428
O O10 0.500000 0.000000 0.500000
O O11 0.373184 0.970569 0.458600
O O12 0.750000 0.553832 0.530613
O O13 0.653893 0.750000 0.494602
O O14 0.681953 0.523481 0.388806
O O15 0.958547 0.750000 0.074467
O O16 0.000000 0.000000 0.000000
O O17 0.179879 0.250000 0.725716
#
# Coordination Sequence:
#
# PCOD8242503 Si02
#       6
#     8   8   8   8   8   8
#     4  10  20  32  48  75 109 138 168 209 256 310
#     4   8  16  31  51  73  99 131 168 207 252 307
#     4  11  20  33  52  74 102 136 178 217 252 301
#     4  10  20  33  48  69 102 141 178 218 265 310
#     4  10  20  36  57  79 104 134 171 215 264 318
#     4   9  16  30  49  69  98 137 174 205 251 312
#
# _framework density 17.485963999999999
#
# number of rings (size 3 to 8) (size 9 to 14) (size 15 to 20)
#    0.000    2.333    1.667    3.000    0.000    3.000 
#    0.000    2.500    0.000    1.000    0.000    2.333 
#    0.000    0.000    0.000    0.000    0.000    0.000 
#
# Total GULP energy -594775.115973 kJ/mol
# GULP energy per Si atom -12391.148249 kJ/mol
# Density = 1.744617 g / cm^3
# Si number density = 17.485964 Si / 1000 Ang^3
#
#
#
# Elastic Constant Matrix: (Units=GPa)
#
#
# Indices 1 2 3 4 5 6 
#
# 1 113.3272 37.8476 65.2492 0.0000 0.0000 0.0000
# 2 37.8476 60.9134 34.8407 0.0000 0.0000 0.0000
# 3 65.2492 34.8407 99.8270 0.0000 0.0000 0.0000
# 4 0.0000 0.0000 0.0000 24.0139 0.0000 0.0000
# 5 0.0000 0.0000 0.0000 0.0000 14.7432 0.0000
# 6 0.0000 0.0000 0.0000 0.0000 0.0000 25.6065
#
#
#
# Elastic Compliance Matrix: (Units=1/GPa)
#
#
# Indices 1 2 3 4 5 6 
#
# 1 0.015147 -0.004684 -0.008266 0.000000 0.000000 0.000000
# 2 -0.004684 0.021960 -0.004603 0.000000 0.000000 0.000000
# 3 -0.008266 -0.004603 0.017027 0.000000 0.000000 0.000000
# 4 0.000000 0.000000 0.000000 0.041642 0.000000 0.000000
# 5 0.000000 0.000000 0.000000 0.000000 0.067828 0.000000
# 6 0.000000 0.000000 0.000000 0.000000 0.000000 0.039053
#
#
# Mechanical properties :
#
#
# Convention : Reuss Voigt Hill
#
# Bulk Modulus (GPa) = 52.55242 61.10472 56.82857
# Shear Modulus (GPa) = 20.48302 21.94807 21.21555
#
# Velocity S-wave (km/s) = 3.42628 3.54670 3.48701
# Velocity P-wave (km/s) = 6.76549 7.19673 6.98444
#
# Compressibility (1/GPa) = 0.01902862
#
# Stress axis : x y z
#
# Youngs Moduli (GPa) = 66.01762 45.53833 58.73155
#
# Poissons Ratio (x) = 0.21329 0.48548
# Poissons Ratio (y) = 0.30921 0.27033
# Poissons Ratio (z) = 0.54571 0.20960
#
# Static dielectric constant tensor:
#      x y z
#    x 3.318170 0.000000 0.000000 
#    y 0.000000 3.129620 0.000000 
#    z 0.000000 0.000000 3.233690 
# 
# 
# High freq. dielectric constant tensor:
#      x y z
#    x 1.675300 0.000000 0.000000 
#    y 0.000000 1.661520 0.000000 
#    z 0.000000 0.000000 1.651990 
# 
# From -- ./inp_files/20698.got.cif
#   From: 2010.03.12/outbox.cif.g09.slc.cpg/sg59_11_cif.got.tgz:20698.got - 2010.04.16 16:29:54.
