data_PCOD8242385
_publ_section_title
;
Structure prediction by ZEFSAII (Michael W. Deem and Ramdas Pophale) SiO2 
 PCOD8242385
Probable space group: P M M N
;
_chemical_formula_sum "Si O2"
_cell_formula_units_Z 48
_cell_length_a 9.473931
_cell_length_b 9.341636
_cell_length_c 31.025673
_cell_angle_alpha 90.000000
_cell_angle_beta 90.000000
_cell_angle_gamma 90.000000
_cell_volume 2745.834574
_symmetry_space_group_name_H-M "P M M N"
_symmetry_group_IT_number 59
_space_group.IT_coordinate_system_code '2'
_symmetry_cell_setting 'orthorhombic'
loop_
_space_group_symop_operation_xyz
x,y,z
1/2-x,1/2-y,z
1/2+x,-y,-z
-x,1/2+y,-z
-x,-y,-z
1/2+x,1/2+y,-z
1/2-x,y,z
x,1/2-y,z
loop_
_atom_site_type_symbol
_atom_site_label
_atom_site_fract_x
_atom_site_fract_y
_atom_site_fract_z
Si Si1 0.913889 0.419437 0.536509
Si Si2 0.908668 0.421080 0.790751
Si Si3 0.092309 0.419796 0.616899
Si Si4 0.092917 0.420523 0.869269
Si Si5 0.091459 0.079860 0.712285
Si Si6 0.085040 0.414176 0.964959
O O1 0.750000 0.463824 0.534869
O O2 0.932932 0.250000 0.530315
O O3 0.000000 0.500000 0.500000
O O4 0.978335 0.472746 0.582047
O O5 0.750000 0.480288 0.790760
O O6 0.911370 0.250000 0.790623
O O7 0.985810 0.480983 0.833459
O O8 0.985991 0.482919 0.748207
O O9 0.250000 0.476754 0.605211
O O10 0.096435 0.250000 0.617586
O O11 0.047292 0.475311 0.664516
O O12 0.250000 0.477733 0.858542
O O13 0.095678 0.250000 0.868680
O O14 0.046138 0.471544 0.916987
O O15 0.250000 0.028179 0.723031
O O16 0.085526 0.250000 0.713352
O O17 0.250000 0.434554 0.973510
O O18 0.040291 0.250000 0.969265
O O19 0.000000 0.500000 0.000000
#
# Coordination Sequence:
#
# PCOD8242385 Si02
#       6
#     8   8   8   8   8   8
#     4  10  20  32  47  67  90 118 151 186 225 266
#     4   9  15  20  29  49  75 102 134 171 208 247
#     4   8  14  25  40  57  79 109 143 177 214 257
#     4   8  14  25  38  51  73 106 139 170 207 253
#     4   8  13  21  33  49  72 105 139 167 203 253
#     4   9  18  31  46  65  88 115 148 184 222 264
#
# _framework density 17.481024999999999
#
# number of rings (size 3 to 8) (size 9 to 14) (size 15 to 20)
#    0.000    3.333    0.000    3.000    0.000    4.667 
#    0.000    5.000    0.000    0.000    0.000    0.000 
#    0.000    1.333    0.000    7.333    0.000   12.167 
#
# Total GULP energy -594846.138441 kJ/mol
# GULP energy per Si atom -12392.627884 kJ/mol
# Density = 1.744124 g / cm^3
# Si number density = 17.481025 Si / 1000 Ang^3
#
#
#
# Elastic Constant Matrix: (Units=GPa)
#
#
# Indices 1 2 3 4 5 6 
#
# 1 145.0709 22.1678 113.7337 0.0000 0.0000 0.0000
# 2 22.1678 13.8998 24.5623 0.0000 0.0000 0.0000
# 3 113.7337 24.5623 182.3867 0.0000 0.0000 0.0000
# 4 0.0000 0.0000 0.0000 16.4492 0.0000 0.0000
# 5 0.0000 0.0000 0.0000 0.0000 40.3435 0.0000
# 6 0.0000 0.0000 0.0000 0.0000 0.0000 14.7420
#
#
#
# Elastic Compliance Matrix: (Units=1/GPa)
#
#
# Indices 1 2 3 4 5 6 
#
# 1 0.014344 -0.009278 -0.007695 0.000000 0.000000 0.000000
# 2 -0.009278 0.100412 -0.007737 0.000000 0.000000 0.000000
# 3 -0.007695 -0.007737 0.011323 0.000000 0.000000 0.000000
# 4 0.000000 0.000000 0.000000 0.060793 0.000000 0.000000
# 5 0.000000 0.000000 0.000000 0.000000 0.024787 0.000000
# 6 0.000000 0.000000 0.000000 0.000000 0.000000 0.067833
#
#
# Mechanical properties :
#
#
# Convention : Reuss Voigt Hill
#
# Bulk Modulus (GPa) = 13.04477 73.58723 43.31600
# Shear Modulus (GPa) = 14.10572 26.36652 20.23612
#
# Velocity S-wave (km/s) = 2.84371 3.88789 3.40605
# Velocity P-wave (km/s) = 4.27325 7.89564 6.34830
#
# Compressibility (1/GPa) = 0.07665910
#
# Stress axis : x y z
#
# Youngs Moduli (GPa) = 69.71675 9.95896 88.31280
#
# Poissons Ratio (x) = 0.09240 0.67958
# Poissons Ratio (y) = 0.64682 0.68329
# Poissons Ratio (z) = 0.53648 0.07705
#
# Static dielectric constant tensor:
#      x y z
#    x 3.513610 0.000000 0.000000 
#    y 0.000000 2.529840 0.000000 
#    z 0.000000 0.000000 3.687730 
# 
# 
# High freq. dielectric constant tensor:
#      x y z
#    x 1.678830 0.000000 0.000000 
#    y 0.000000 1.591400 0.000000 
#    z 0.000000 0.000000 1.695680 
# 
# From -- ./inp_files/33133.got.cif
#   From: 2010.03.12/outbox.cif.g09.slc.cpg/sg59_17_cif.got.tgz:33133.got - 2010.04.16 16:29:54.
