data_PCOD8242910
_publ_section_title
;
Structure prediction by ZEFSAII (Michael W. Deem and Ramdas Pophale) SiO2 
 PCOD8242910
Probable space group: P M M N
;
_chemical_formula_sum "Si O2"
_cell_formula_units_Z 48
_cell_length_a 9.263740
_cell_length_b 9.305816
_cell_length_c 30.650255
_cell_angle_alpha 90.000000
_cell_angle_beta 90.000000
_cell_angle_gamma 90.000000
_cell_volume 2642.256109
_symmetry_space_group_name_H-M "P M M N"
_symmetry_group_IT_number 59
_space_group.IT_coordinate_system_code '2'
_symmetry_cell_setting 'orthorhombic'
loop_
_space_group_symop_operation_xyz
x,y,z
1/2-x,1/2-y,z
1/2+x,-y,-z
-x,1/2+y,-z
-x,-y,-z
1/2+x,1/2+y,-z
1/2-x,y,z
x,1/2-y,z
loop_
_atom_site_type_symbol
_atom_site_label
_atom_site_fract_x
_atom_site_fract_y
_atom_site_fract_z
Si Si1 0.416713 0.581611 0.462397
Si Si2 0.082408 0.083805 0.134302
Si Si3 0.416946 0.083333 0.624504
Si Si4 0.582593 0.912098 0.964178
Si Si5 0.421598 0.912374 0.708818
Si Si6 0.079045 0.084936 0.792450
O O1 0.500000 0.500000 0.500000
O O2 0.250000 0.534490 0.462045
O O3 0.434119 0.750000 0.470948
O O4 0.487366 0.537646 0.416584
O O5 0.250000 0.064061 0.145837
O O6 0.037496 0.250000 0.140791
O O7 0.051590 0.032790 0.084817
O O8 0.987745 0.982154 0.164369
O O9 0.250000 0.049297 0.613769
O O10 0.437113 0.250000 0.636550
O O11 0.475225 0.990663 0.665031
O O12 0.750000 0.923750 0.974845
O O13 0.527961 0.750000 0.967813
O O14 0.500000 0.000000 0.000000
O O15 0.250000 0.912846 0.709683
O O16 0.482402 0.750000 0.709959
O O17 0.481077 0.998737 0.750550
O O18 0.250000 0.071185 0.795946
O O19 0.030785 0.250000 0.787926
#
# Coordination Sequence:
#
# PCOD8242910 Si02
#       6
#     8   8   8   8   8   8
#     4  10  21  36  54  77 105 137 173 212 254 302
#     4   9  19  36  54  72  99 135 171 208 253 303
#     4   9  17  31  51  73  99 132 168 208 256 305
#     4   9  19  35  53  74 101 132 167 208 253 302
#     4   9  17  30  50  75 101 131 169 211 253 298
#     4  10  20  33  51  77 106 135 170 211 252 297
#
# _framework density 18.166294000000001
#
# number of rings (size 3 to 8) (size 9 to 14) (size 15 to 20)
#    0.000    2.667    0.000    2.500    0.000    6.667 
#    0.000    7.500    0.000    3.000    0.000    0.000 
#    0.000    0.000    0.000    0.000    0.000    0.000 
#
# Total GULP energy -595224.129396 kJ/mol
# GULP energy per Si atom -12400.502696 kJ/mol
# Density = 1.812495 g / cm^3
# Si number density = 18.166294 Si / 1000 Ang^3
#
#
#
# Elastic Constant Matrix: (Units=GPa)
#
#
# Indices 1 2 3 4 5 6 
#
# 1 54.4353 39.7957 53.4285 0.0000 0.0000 0.0000
# 2 39.7957 108.2081 81.2494 0.0000 0.0000 0.0000
# 3 53.4285 81.2494 148.9962 0.0000 0.0000 0.0000
# 4 0.0000 0.0000 0.0000 42.9714 0.0000 0.0000
# 5 0.0000 0.0000 0.0000 0.0000 32.3541 0.0000
# 6 0.0000 0.0000 0.0000 0.0000 0.0000 26.7366
#
#
#
# Elastic Compliance Matrix: (Units=1/GPa)
#
#
# Indices 1 2 3 4 5 6 
#
# 1 0.029853 -0.004980 -0.007989 0.000000 0.000000 0.000000
# 2 -0.004980 0.016480 -0.007201 0.000000 0.000000 0.000000
# 3 -0.007989 -0.007201 0.013503 0.000000 0.000000 0.000000
# 4 0.000000 0.000000 0.000000 0.023271 0.000000 0.000000
# 5 0.000000 0.000000 0.000000 0.000000 0.030908 0.000000
# 6 0.000000 0.000000 0.000000 0.000000 0.000000 0.037402
#
#
# Mechanical properties :
#
#
# Convention : Reuss Voigt Hill
#
# Bulk Modulus (GPa) = 51.29427 73.39854 62.34641
# Shear Modulus (GPa) = 25.22002 29.55683 27.38842
#
# Velocity S-wave (km/s) = 3.73001 4.03800 3.88706
# Velocity P-wave (km/s) = 6.84455 7.88873 7.38512
#
# Compressibility (1/GPa) = 0.01949535
#
# Stress axis : x y z
#
# Youngs Moduli (GPa) = 33.49794 60.68030 74.05722
#
# Poissons Ratio (x) = 0.30220 0.59165
# Poissons Ratio (y) = 0.16683 0.53327
# Poissons Ratio (z) = 0.26762 0.43695
#
# Static dielectric constant tensor:
#      x y z
#    x 3.125000 0.000000 0.000000 
#    y 0.000000 3.362260 0.000000 
#    z 0.000000 0.000000 3.456540 
# 
# 
# High freq. dielectric constant tensor:
#      x y z
#    x 1.681230 0.000000 0.000000 
#    y 0.000000 1.705480 0.000000 
#    z 0.000000 0.000000 1.717110 
# 
# From -- ./inp_files/32840.got.cif
#   From: 2010.03.12/outbox.cif.g09.slc.cpg/sg59_17_cif.got.tgz:32840.got - 2010.04.16 16:29:54.
