data_PCOD8242374
_publ_section_title
;
Structure prediction by ZEFSAII (Michael W. Deem and Ramdas Pophale) SiO2 
 PCOD8242374
Probable space group: P M M N
;
_chemical_formula_sum "Si O2"
_cell_formula_units_Z 64
_cell_length_a 9.056847
_cell_length_b 14.040330
_cell_length_c 25.446752
_cell_angle_alpha 90.000000
_cell_angle_beta 90.000000
_cell_angle_gamma 90.000000
_cell_volume 3235.837501
_symmetry_space_group_name_H-M "P M M N"
_symmetry_group_IT_number 59
_space_group.IT_coordinate_system_code '2'
_symmetry_cell_setting 'orthorhombic'
loop_
_space_group_symop_operation_xyz
x,y,z
1/2-x,1/2-y,z
1/2+x,-y,-z
-x,1/2+y,-z
-x,-y,-z
1/2+x,1/2+y,-z
1/2-x,y,z
x,1/2-y,z
loop_
_atom_site_type_symbol
_atom_site_label
_atom_site_fract_x
_atom_site_fract_y
_atom_site_fract_z
Si Si1 0.580470 0.147606 0.185628
Si Si2 0.587759 0.104390 0.875035
Si Si3 0.911818 0.604795 0.911764
Si Si4 0.578582 0.533843 0.421591
Si Si5 0.587967 0.856513 0.023026
Si Si6 0.075504 0.860779 0.326764
Si Si7 0.579277 0.860515 0.530012
Si Si8 0.074626 0.444911 0.775528
O O1 0.750000 0.127242 0.174697
O O2 0.555781 0.250000 0.215626
O O3 0.511585 0.164272 0.127901
O O4 0.522650 0.056323 0.218655
O O5 0.750000 0.150681 0.865214
O O6 0.517479 0.147720 0.927118
O O7 0.482522 0.119060 0.824544
O O8 0.606159 0.994252 0.883416
O O9 0.750000 0.652418 0.917968
O O10 0.979511 0.590763 0.970904
O O11 0.750000 0.526096 0.405748
O O12 0.485423 0.580417 0.375538
O O13 0.518901 0.426780 0.431971
O O14 0.555503 0.603115 0.470951
O O15 0.750000 0.899233 0.038500
O O16 0.606324 0.750000 0.002514
O O17 0.250000 0.874955 0.322930
O O18 0.033160 0.750000 0.333018
O O19 0.000573 0.903236 0.275509
O O20 0.750000 0.870720 0.546469
O O21 0.528100 0.750000 0.534209
O O22 0.250000 0.434467 0.771190
#
# Coordination Sequence:
#
# PCOD8242374 Si02
#       8
#     8   8   8   8   8   8   8   8
#     4   9  18  33  54  80 107 133 164 207 261 321
#     4  10  20  34  52  72  96 127 164 209 259 313
#     4   9  18  32  50  72  97 127 163 202 249 309
#     4  10  20  35  58  89 123 159 201 245 287 336
#     4  10  20  32  46  67  96 128 162 201 249 310
#     4  11  24  41  61  84 111 145 188 239 288 332
#     4   9  18  34  57  87 126 168 205 242 285 333
#     4  10  21  38  59  80 104 137 177 222 272 327
#
# _framework density 19.778497000000002
#
# number of rings (size 3 to 8) (size 9 to 14) (size 15 to 20)
#    0.000    2.250    0.000    2.625    0.000    5.250 
#    0.000    0.625    0.000    2.250    0.000    0.000 
#    0.000    0.000    0.000    0.000    0.000    0.000 
#
# Total GULP energy -792983.969071 kJ/mol
# GULP energy per Si atom -12390.374517 kJ/mol
# Density = 1.973348 g / cm^3
# Si number density = 19.778497 Si / 1000 Ang^3
#
#
#
# Elastic Constant Matrix: (Units=GPa)
#
#
# Indices 1 2 3 4 5 6 
#
# 1 98.2973 47.0543 56.2515 0.0000 0.0000 0.0000
# 2 47.0543 104.7569 47.5128 0.0000 0.0000 0.0000
# 3 56.2515 47.5128 112.2571 0.0000 0.0000 0.0000
# 4 0.0000 0.0000 0.0000 20.7321 0.0000 0.0000
# 5 0.0000 0.0000 0.0000 0.0000 36.9526 0.0000
# 6 0.0000 0.0000 0.0000 0.0000 0.0000 30.5373
#
#
#
# Elastic Compliance Matrix: (Units=1/GPa)
#
#
# Indices 1 2 3 4 5 6 
#
# 1 0.015692 -0.004309 -0.006039 0.000000 0.000000 0.000000
# 2 -0.004309 0.012997 -0.003342 0.000000 0.000000 0.000000
# 3 -0.006039 -0.003342 0.013349 0.000000 0.000000 0.000000
# 4 0.000000 0.000000 0.000000 0.048234 0.000000 0.000000
# 5 0.000000 0.000000 0.000000 0.000000 0.027062 0.000000
# 6 0.000000 0.000000 0.000000 0.000000 0.000000 0.032747
#
#
# Mechanical properties :
#
#
# Convention : Reuss Voigt Hill
#
# Bulk Modulus (GPa) = 68.22496 68.54983 68.38740
# Shear Modulus (GPa) = 27.42016 28.61056 28.01536
#
# Velocity S-wave (km/s) = 3.72743 3.80748 3.76767
# Velocity P-wave (km/s) = 7.28659 7.35277 7.31975
#
# Compressibility (1/GPa) = 0.01465739
#
# Stress axis : x y z
#
# Youngs Moduli (GPa) = 63.72609 76.93962 74.91331
#
# Poissons Ratio (x) = 0.33156 0.45243
# Poissons Ratio (y) = 0.27462 0.25033
# Poissons Ratio (z) = 0.38486 0.25711
#
# Static dielectric constant tensor:
#      x y z
#    x 3.935490 0.000000 0.000000 
#    y 0.000000 3.803490 0.000000 
#    z 0.000000 0.000000 3.450680 
# 
# 
# High freq. dielectric constant tensor:
#      x y z
#    x 1.773530 0.000000 0.000000 
#    y 0.000000 1.780430 0.000000 
#    z 0.000000 0.000000 1.753830 
# 
# From -- ./inp_files/31654.got.cif
#   From: 2010.03.12/outbox.cif.g09.slc.cpg/sg59_16_cif.got.tgz:31654.got - 2010.04.16 16:29:54.
