data_PCOD8242173
_publ_section_title
;
Structure prediction by ZEFSAII (Michael W. Deem and Ramdas Pophale) SiO2 
 PCOD8242173
Probable space group: P M M N
;
_chemical_formula_sum "Si O2"
_cell_formula_units_Z 48
_cell_length_a 20.050786
_cell_length_b 8.899177
_cell_length_c 14.392726
_cell_angle_alpha 90.000000
_cell_angle_beta 90.000000
_cell_angle_gamma 90.000000
_cell_volume 2568.173168
_symmetry_space_group_name_H-M "P M M N"
_symmetry_group_IT_number 59
_space_group.IT_coordinate_system_code '2'
_symmetry_cell_setting 'orthorhombic'
loop_
_space_group_symop_operation_xyz
x,y,z
1/2-x,1/2-y,z
1/2+x,-y,-z
-x,1/2+y,-z
-x,-y,-z
1/2+x,1/2+y,-z
1/2-x,y,z
x,1/2-y,z
loop_
_atom_site_type_symbol
_atom_site_label
_atom_site_fract_x
_atom_site_fract_y
_atom_site_fract_z
Si Si1 0.630320 0.424007 0.242195
Si Si2 0.172904 0.576007 0.554181
Si Si3 0.438528 0.573071 0.053238
Si Si4 0.526338 0.576589 0.762699
Si Si5 0.559781 0.926699 0.556153
Si Si6 0.326184 0.421627 0.939019
O O1 0.648377 0.250000 0.226152
O O2 0.656097 0.478874 0.342119
O O3 0.552104 0.453154 0.234410
O O4 0.668062 0.522758 0.166539
O O5 0.250000 0.548027 0.531843
O O6 0.152904 0.750000 0.543949
O O7 0.131048 0.480278 0.480838
O O8 0.445636 0.750000 0.044500
O O9 0.437627 0.524532 0.160458
O O10 0.500000 0.500000 0.000000
O O11 0.369545 0.523609 0.007146
O O12 0.542442 0.750000 0.783478
O O13 0.555026 0.526006 0.663582
O O14 0.552290 0.750000 0.544844
O O15 0.500000 0.000000 0.500000
O O16 0.250000 0.435583 0.971646
O O17 0.351126 0.250000 0.944478
#
# Coordination Sequence:
#
# PCOD8242173 Si02
#       6
#     8   8   8   8   8   8
#     4  10  19  35  60  87 119 157 194 237 290 348
#     4  10  21  38  59  86 122 159 196 240 292 347
#     4  12  24  39  62  88 117 154 195 241 289 347
#     4  10  21  38  60  88 118 152 196 243 288 341
#     4  11  22  38  61  86 118 155 197 243 289 345
#     4  11  24  40  59  87 122 156 193 240 293 348
#
# _framework density 18.690328000000001
#
# number of rings (size 3 to 8) (size 9 to 14) (size 15 to 20)
#    0.000    1.333    3.333    3.000    0.000    4.333 
#    0.000    0.833    0.000    1.000    0.000    0.000 
#    0.000    0.000    0.000    0.000    0.000    0.000 
#
# Total GULP energy -595490.224376 kJ/mol
# GULP energy per Si atom -12406.046341 kJ/mol
# Density = 1.864779 g / cm^3
# Si number density = 18.690328 Si / 1000 Ang^3
#
#
#
# Elastic Constant Matrix: (Units=GPa)
#
#
# Indices 1 2 3 4 5 6 
#
# 1 82.8065 41.3847 54.5476 0.0000 0.0000 0.0000
# 2 41.3847 104.6478 67.5809 0.0000 0.0000 0.0000
# 3 54.5476 67.5809 138.6460 0.0000 0.0000 0.0000
# 4 0.0000 0.0000 0.0000 36.6672 0.0000 0.0000
# 5 0.0000 0.0000 0.0000 0.0000 23.6245 0.0000
# 6 0.0000 0.0000 0.0000 0.0000 0.0000 30.9787
#
#
#
# Elastic Compliance Matrix: (Units=1/GPa)
#
#
# Indices 1 2 3 4 5 6 
#
# 1 0.017155 -0.003540 -0.005024 0.000000 0.000000 0.000000
# 2 -0.003540 0.014676 -0.005761 0.000000 0.000000 0.000000
# 3 -0.005024 -0.005761 0.011997 0.000000 0.000000 0.000000
# 4 0.000000 0.000000 0.000000 0.027272 0.000000 0.000000
# 5 0.000000 0.000000 0.000000 0.000000 0.042329 0.000000
# 6 0.000000 0.000000 0.000000 0.000000 0.000000 0.032280
#
#
# Mechanical properties :
#
#
# Convention : Reuss Voigt Hill
#
# Bulk Modulus (GPa) = 65.88056 72.56963 69.22510
# Shear Modulus (GPa) = 27.86778 29.09321 28.48050
#
# Velocity S-wave (km/s) = 3.86557 3.94965 3.90783
# Velocity P-wave (km/s) = 7.43293 7.72731 7.58155
#
# Compressibility (1/GPa) = 0.01517899
#
# Stress axis : x y z
#
# Youngs Moduli (GPa) = 58.29265 68.13772 83.35240
#
# Poissons Ratio (x) = 0.24119 0.41875
# Poissons Ratio (y) = 0.20634 0.48019
# Poissons Ratio (z) = 0.29285 0.39254
#
# Static dielectric constant tensor:
#      x y z
#    x 3.396890 0.000000 0.000000 
#    y 0.000000 3.294280 0.000000 
#    z 0.000000 0.000000 3.572840 
# 
# 
# High freq. dielectric constant tensor:
#      x y z
#    x 1.724460 0.000000 0.000000 
#    y 0.000000 1.728210 0.000000 
#    z 0.000000 0.000000 1.730120 
# 
# From -- ./inp_files/20465.got.cif
#   From: 2010.03.12/outbox.cif.g09.slc.cpg/sg59_11_cif.got.tgz:20465.got - 2010.04.16 16:29:54.
