data_PCOD8242207
_publ_section_title
;
Structure prediction by ZEFSAII (Michael W. Deem and Ramdas Pophale) SiO2 
 PCOD8242207
Probable space group: P M M N
;
_chemical_formula_sum "Si O2"
_cell_formula_units_Z 64
_cell_length_a 17.652283
_cell_length_b 17.131066
_cell_length_c 11.197020
_cell_angle_alpha 90.000000
_cell_angle_beta 90.000000
_cell_angle_gamma 90.000000
_cell_volume 3386.006002
_symmetry_space_group_name_H-M "P M M N"
_symmetry_group_IT_number 59
_space_group.IT_coordinate_system_code '2'
_symmetry_cell_setting 'orthorhombic'
loop_
_space_group_symop_operation_xyz
x,y,z
1/2-x,1/2-y,z
1/2+x,-y,-z
-x,1/2+y,-z
-x,-y,-z
1/2+x,1/2+y,-z
1/2-x,y,z
x,1/2-y,z
loop_
_atom_site_type_symbol
_atom_site_label
_atom_site_fract_x
_atom_site_fract_y
_atom_site_fract_z
Si Si1 0.838389 0.938352 0.146564
Si Si2 0.406630 0.838112 0.172745
Si Si3 0.022928 0.159911 0.229647
Si Si4 0.334630 0.338936 0.085111
Si Si5 0.061669 0.562231 0.956479
Si Si6 0.062428 0.337850 0.694821
Si Si7 0.336506 0.658839 0.420070
Si Si8 0.517777 0.410575 0.477375
O O1 0.750000 0.949892 0.167213
O O2 0.870980 0.895114 0.263133
O O3 0.877378 0.022267 0.130982
O O4 0.858330 0.889912 0.028034
O O5 0.390008 0.750000 0.128519
O O6 0.493183 0.846065 0.214016
O O7 0.350412 0.860133 0.280754
O O8 0.393219 0.900264 0.067851
O O9 0.004752 0.250000 0.256933
O O10 0.111211 0.146043 0.198035
O O11 0.975654 0.133414 0.114686
O O12 0.002597 0.107013 0.341525
O O13 0.250000 0.359401 0.128421
O O14 0.341324 0.250000 0.041014
O O15 0.000000 0.500000 0.000000
O O16 0.094185 0.250000 0.692503
O O17 0.034981 0.358422 0.562072
O O18 0.250000 0.637351 0.453179
O O19 0.353655 0.750000 0.443883
O O20 0.393309 0.607876 0.501021
O O21 0.500000 0.500000 0.500000
#
# Coordination Sequence:
#
# PCOD8242207 Si02
#       8
#     8   8   8   8   8   8   8   8
#     4  11  22  35  54  83 116 151 191 242 299 347
#     4   9  18  33  58  86 112 144 187 236 286 344
#     4  11  22  38  59  84 116 159 198 231 283 356
#     4   9  18  33  54  82 115 149 187 232 286 353
#     4  12  21  34  56  85 119 150 189 233 287 345
#     4  10  19  36  58  80 107 147 193 238 280 339
#     4   9  19  38  64  90 115 150 199 251 300 349
#     4  11  23  38  60  86 119 152 199 246 291 346
#
# _framework density 18.901325
#
# number of rings (size 3 to 8) (size 9 to 14) (size 15 to 20)
#    0.000    1.750    2.500    3.375    1.750    3.250 
#    0.000    5.000    0.000    3.375    0.000    0.000 
#    0.000    0.000    0.000    0.000    0.000    0.000 
#
# Total GULP energy -793783.286977 kJ/mol
# GULP energy per Si atom -12402.863859 kJ/mol
# Density = 1.885831 g / cm^3
# Si number density = 18.901325 Si / 1000 Ang^3
#
#
#
# Elastic Constant Matrix: (Units=GPa)
#
#
# Indices 1 2 3 4 5 6 
#
# 1 103.2228 30.2718 28.6791 0.0000 0.0000 0.0000
# 2 30.2718 68.2259 16.0342 0.0000 0.0000 0.0000
# 3 28.6791 16.0342 67.0652 0.0000 0.0000 0.0000
# 4 0.0000 0.0000 0.0000 35.6427 0.0000 0.0000
# 5 0.0000 0.0000 0.0000 0.0000 25.4232 0.0000
# 6 0.0000 0.0000 0.0000 0.0000 0.0000 25.9309
#
#
#
# Elastic Compliance Matrix: (Units=1/GPa)
#
#
# Indices 1 2 3 4 5 6 
#
# 1 0.012129 -0.004411 -0.004132 0.000000 0.000000 0.000000
# 2 -0.004411 0.017134 -0.002210 0.000000 0.000000 0.000000
# 3 -0.004132 -0.002210 0.017206 0.000000 0.000000 0.000000
# 4 0.000000 0.000000 0.000000 0.028056 0.000000 0.000000
# 5 0.000000 0.000000 0.000000 0.000000 0.039334 0.000000
# 6 0.000000 0.000000 0.000000 0.000000 0.000000 0.038564
#
#
# Mechanical properties :
#
#
# Convention : Reuss Voigt Hill
#
# Bulk Modulus (GPa) = 40.05943 43.16490 41.61217
# Shear Modulus (GPa) = 27.43463 28.30128 27.86796
#
# Velocity S-wave (km/s) = 3.81394 3.87372 3.84395
# Velocity P-wave (km/s) = 6.37455 6.54936 6.46255
#
# Compressibility (1/GPa) = 0.02496291
#
# Stress axis : x y z
#
# Youngs Moduli (GPa) = 82.44437 58.36477 58.11783
#
# Poissons Ratio (x) = 0.25742 0.24016
# Poissons Ratio (y) = 0.36363 0.12846
# Poissons Ratio (z) = 0.34069 0.12900
#
# Static dielectric constant tensor:
#      x y z
#    x 3.449630 0.000000 0.000000 
#    y 0.000000 3.532290 0.000000 
#    z 0.000000 0.000000 3.377220 
# 
# 
# High freq. dielectric constant tensor:
#      x y z
#    x 1.725210 0.000000 0.000000 
#    y 0.000000 1.739760 0.000000 
#    z 0.000000 0.000000 1.721770 
# 
# From -- ./inp_files/17833.got.cif
#   From: 2010.03.12/outbox.cif.g09.slc.cpg/sg59_9_cif.got.tgz:17833.got - 2010.04.16 16:29:54.
