data_PCOD8242101
_publ_section_title
;
Structure prediction by ZEFSAII (Michael W. Deem and Ramdas Pophale) SiO2 
 PCOD8242101
Probable space group: P M M N
;
_chemical_formula_sum "Si O2"
_cell_formula_units_Z 64
_cell_length_a 24.035107
_cell_length_b 8.968119
_cell_length_c 15.478085
_cell_angle_alpha 90.000000
_cell_angle_beta 90.000000
_cell_angle_gamma 90.000000
_cell_volume 3336.296575
_symmetry_space_group_name_H-M "P M M N"
_symmetry_group_IT_number 59
_space_group.IT_coordinate_system_code '2'
_symmetry_cell_setting 'orthorhombic'
loop_
_space_group_symop_operation_xyz
x,y,z
1/2-x,1/2-y,z
1/2+x,-y,-z
-x,1/2+y,-z
-x,-y,-z
1/2+x,1/2+y,-z
1/2-x,y,z
x,1/2-y,z
loop_
_atom_site_type_symbol
_atom_site_label
_atom_site_fract_x
_atom_site_fract_y
_atom_site_fract_z
Si Si1 0.503834 0.574084 0.841299
Si Si2 0.313216 0.572769 0.744626
Si Si3 0.613263 0.073655 0.905505
Si Si4 0.880245 0.576781 0.407593
Si Si5 0.115053 0.573940 0.902375
Si Si6 0.187432 0.927314 0.251344
Si Si7 0.499480 0.920320 0.338139
Si Si8 0.117945 0.922767 0.416235
O O1 0.510034 0.750000 0.850443
O O2 0.553222 0.496914 0.892524
O O3 0.446659 0.512868 0.882699
O O4 0.505004 0.532363 0.741068
O O5 0.250000 0.516775 0.744944
O O6 0.316992 0.750000 0.740065
O O7 0.343965 0.508081 0.662276
O O8 0.341812 0.509448 0.832024
O O9 0.606393 0.250000 0.896363
O O10 0.657104 0.012217 0.835090
O O11 0.634396 0.027889 0.001223
O O12 0.866019 0.750000 0.402322
O O13 0.863128 0.516713 0.501303
O O14 0.945262 0.544491 0.392066
O O15 0.113794 0.750000 0.893012
O O16 0.250000 0.992210 0.254346
O O17 0.188645 0.750000 0.248985
O O18 0.153303 0.982620 0.334661
O O19 0.498915 0.750000 0.303543
O O20 0.447290 0.948765 0.400224
O O21 0.131180 0.750000 0.433734
#
# Coordination Sequence:
#
# PCOD8242101 Si02
#       8
#     8   8   8   8   8   8   8   8
#     4  11  20  32  54  83 115 146 181 224 273 332
#     4  10  21  39  60  81 110 149 192 234 276 325
#     4  10  19  35  57  81 114 146 181 228 277 331
#     4  11  23  37  57  85 114 143 182 230 282 336
#     4   9  19  34  55  84 112 143 183 229 276 323
#     4   9  18  33  55  81 106 139 184 228 268 315
#     4  10  20  36  57  82 110 147 184 222 278 335
#     4  10  20  36  57  81 112 146 184 225 272 334
#
# _framework density 19.182946000000001
#
# number of rings (size 3 to 8) (size 9 to 14) (size 15 to 20)
#    0.000    2.000    2.500    1.500    0.000    2.250 
#    0.000    5.000    0.000    1.125    0.000    0.000 
#    0.000    0.000    0.000    0.000    0.000    0.000 
#
# Total GULP energy -793691.141635 kJ/mol
# GULP energy per Si atom -12401.424088 kJ/mol
# Density = 1.913929 g / cm^3
# Si number density = 19.182946 Si / 1000 Ang^3
#
#
#
# Elastic Constant Matrix: (Units=GPa)
#
#
# Indices 1 2 3 4 5 6 
#
# 1 151.7319 22.3462 72.4554 0.0000 0.0000 0.0000
# 2 22.3462 24.0462 21.1992 0.0000 0.0000 0.0000
# 3 72.4554 21.1992 153.4672 0.0000 0.0000 0.0000
# 4 0.0000 0.0000 0.0000 19.4634 0.0000 0.0000
# 5 0.0000 0.0000 0.0000 0.0000 10.7263 0.0000
# 6 0.0000 0.0000 0.0000 0.0000 0.0000 23.0882
#
#
#
# Elastic Compliance Matrix: (Units=1/GPa)
#
#
# Indices 1 2 3 4 5 6 
#
# 1 0.009065 -0.005296 -0.003548 0.000000 0.000000 0.000000
# 2 -0.005296 0.050447 -0.004468 0.000000 0.000000 0.000000
# 3 -0.003548 -0.004468 0.008808 0.000000 0.000000 0.000000
# 4 0.000000 0.000000 0.000000 0.051378 0.000000 0.000000
# 5 0.000000 0.000000 0.000000 0.000000 0.093229 0.000000
# 6 0.000000 0.000000 0.000000 0.000000 0.000000 0.043312
#
#
# Mechanical properties :
#
#
# Convention : Reuss Voigt Hill
#
# Bulk Modulus (GPa) = 23.98310 62.36074 43.17192
# Shear Modulus (GPa) = 16.84843 24.87188 20.86015
#
# Velocity S-wave (km/s) = 2.96683 3.60469 3.30120
# Velocity P-wave (km/s) = 4.92601 7.06428 6.08973
#
# Compressibility (1/GPa) = 0.04169602
#
# Stress axis : x y z
#
# Youngs Moduli (GPa) = 110.31618 19.82266 113.52748
#
# Poissons Ratio (x) = 0.10498 0.40282
# Poissons Ratio (y) = 0.58422 0.50726
# Poissons Ratio (z) = 0.39142 0.08857
#
# Static dielectric constant tensor:
#      x y z
#    x 3.707700 0.000000 0.000000 
#    y 0.000000 3.204960 0.000000 
#    z 0.000000 0.000000 3.707090 
# 
# 
# High freq. dielectric constant tensor:
#      x y z
#    x 1.748520 0.000000 0.000000 
#    y 0.000000 1.713280 0.000000 
#    z 0.000000 0.000000 1.759130 
# 
# From -- ./inp_files/24685.got.cif
#   From: 2010.03.12/outbox.cif.g09.slc.cpg/sg59_13_cif.got.tgz:24685.got - 2010.04.16 16:29:54.
