data_PCOD8242043
_publ_section_title
;
Structure prediction by ZEFSAII (Michael W. Deem and Ramdas Pophale) SiO2 
 PCOD8242043
Probable space group: P M M N
;
_chemical_formula_sum "Si O2"
_cell_formula_units_Z 56
_cell_length_a 21.695178
_cell_length_b 9.205846
_cell_length_c 14.748021
_cell_angle_alpha 90.000000
_cell_angle_beta 90.000000
_cell_angle_gamma 90.000000
_cell_volume 2945.511146
_symmetry_space_group_name_H-M "P M M N"
_symmetry_group_IT_number 59
_space_group.IT_coordinate_system_code '2'
_symmetry_cell_setting 'orthorhombic'
loop_
_space_group_symop_operation_xyz
x,y,z
1/2-x,1/2-y,z
1/2+x,-y,-z
-x,1/2+y,-z
-x,-y,-z
1/2+x,1/2+y,-z
1/2-x,y,z
x,1/2-y,z
loop_
_atom_site_type_symbol
_atom_site_label
_atom_site_fract_x
_atom_site_fract_y
_atom_site_fract_z
Si Si1 0.056858 0.088467 0.965049
Si Si2 0.628023 0.422214 0.549749
Si Si3 0.372184 0.085531 0.146381
Si Si4 0.250000 0.908794 0.371435
Si Si5 0.678172 0.421111 0.360881
Si Si6 0.250000 0.910332 0.161356
Si Si7 0.455801 0.921261 0.291571
Si Si8 0.909102 0.919980 0.231649
O O1 0.032841 0.250000 0.942216
O O2 0.084630 0.023692 0.871858
O O3 0.106960 0.089573 0.042900
O O4 0.000000 0.000000 0.000000
O O5 0.629701 0.250000 0.555601
O O6 0.688070 0.491893 0.599012
O O7 0.634055 0.471643 0.445166
O O8 0.568362 0.473964 0.608198
O O9 0.362869 0.250000 0.182917
O O10 0.309134 0.001235 0.135482
O O11 0.419991 0.004213 0.211896
O O12 0.250000 0.750000 0.420877
O O13 0.250000 0.884584 0.266711
O O14 0.750000 0.467260 0.375591
O O15 0.674127 0.250000 0.346226
O O16 0.649608 0.498161 0.273375
O O17 0.250000 0.750000 0.114430
O O18 0.443762 0.750000 0.276958
O O19 0.528021 0.958708 0.285878
O O20 0.894706 0.750000 0.236418
#
# Coordination Sequence:
#
# PCOD8242043 Si02
#       8
#     8   8   8   4   8   4   8   8
#     4  10  21  38  61  84 110 148 187 230 287 345
#     4   9  16  30  55  85 111 143 188 233 274 333
#     4  11  22  35  54  85 121 150 184 239 296 339
#     4   9  14  25  53  82 103 140 190 225 263 323
#     4  10  21  38  60  82 109 149 197 241 279 326
#     4  11  21  35  57  82 113 158 198 231 281 349
#     4  10  19  34  59  87 115 149 189 228 279 352
#     4  10  22  39  58  83 114 147 187 235 285 342
#
# _framework density 19.011980000000001
#
# number of rings (size 3 to 8) (size 9 to 14) (size 15 to 20)
#    0.000    2.000    3.571    0.643    0.000    2.571 
#    1.286    0.714    0.000    0.000    0.000    0.000 
#    0.000    0.000    0.000    0.000    0.000    0.000 
#
# Total GULP energy -693948.023964 kJ/mol
# GULP energy per Si atom -12391.928999 kJ/mol
# Density = 1.896871 g / cm^3
# Si number density = 19.011980 Si / 1000 Ang^3
#
#
#
# Elastic Constant Matrix: (Units=GPa)
#
#
# Indices 1 2 3 4 5 6 
#
# 1 87.1769 40.6640 43.0661 0.0000 0.0000 0.0000
# 2 40.6640 66.6926 31.8943 0.0000 0.0000 0.0000
# 3 43.0661 31.8943 122.0124 0.0000 0.0000 0.0000
# 4 0.0000 0.0000 0.0000 24.0720 0.0000 0.0000
# 5 0.0000 0.0000 0.0000 0.0000 34.1765 0.0000
# 6 0.0000 0.0000 0.0000 0.0000 0.0000 27.4755
#
#
#
# Elastic Compliance Matrix: (Units=1/GPa)
#
#
# Indices 1 2 3 4 5 6 
#
# 1 0.017495 -0.008816 -0.003871 0.000000 0.000000 0.000000
# 2 -0.008816 0.021579 -0.002529 0.000000 0.000000 0.000000
# 3 -0.003871 -0.002529 0.010223 0.000000 0.000000 0.000000
# 4 0.000000 0.000000 0.000000 0.041542 0.000000 0.000000
# 5 0.000000 0.000000 0.000000 0.000000 0.029260 0.000000
# 6 0.000000 0.000000 0.000000 0.000000 0.000000 0.036396
#
#
# Mechanical properties :
#
#
# Convention : Reuss Voigt Hill
#
# Bulk Modulus (GPa) = 53.00594 56.34786 54.67690
# Shear Modulus (GPa) = 25.87772 27.82863 26.85317
#
# Velocity S-wave (km/s) = 3.69335 3.83004 3.76231
# Velocity P-wave (km/s) = 6.79180 7.01864 6.90615
#
# Compressibility (1/GPa) = 0.01886581
#
# Stress axis : x y z
#
# Youngs Moduli (GPa) = 57.15756 46.34111 97.81682
#
# Poissons Ratio (x) = 0.40856 0.37862
# Poissons Ratio (y) = 0.50392 0.24738
# Poissons Ratio (z) = 0.22124 0.11720
#
# Static dielectric constant tensor:
#      x y z
#    x 3.601470 0.000000 0.000000 
#    y 0.000000 3.029920 0.000000 
#    z 0.000000 0.000000 3.721280 
# 
# 
# High freq. dielectric constant tensor:
#      x y z
#    x 1.738720 0.000000 0.000000 
#    y 0.000000 1.713360 0.000000 
#    z 0.000000 0.000000 1.743180 
# 
# From -- ./inp_files/24366.got.cif
#   From: 2010.03.12/outbox.cif.g09.slc.cpg/sg59_13_cif.got.tgz:24366.got - 2010.04.16 16:29:54.
