data_PCOD8242102
_publ_section_title
;
Structure prediction by ZEFSAII (Michael W. Deem and Ramdas Pophale) SiO2 
 PCOD8242102
Probable space group: P M M N
;
_chemical_formula_sum "Si O2"
_cell_formula_units_Z 64
_cell_length_a 24.693001
_cell_length_b 8.957461
_cell_length_c 14.770192
_cell_angle_alpha 90.000000
_cell_angle_beta 90.000000
_cell_angle_gamma 90.000000
_cell_volume 3266.968453
_symmetry_space_group_name_H-M "P M M N"
_symmetry_group_IT_number 59
_space_group.IT_coordinate_system_code '2'
_symmetry_cell_setting 'orthorhombic'
loop_
_space_group_symop_operation_xyz
x,y,z
1/2-x,1/2-y,z
1/2+x,-y,-z
-x,1/2+y,-z
-x,-y,-z
1/2+x,1/2+y,-z
1/2-x,y,z
x,1/2-y,z
loop_
_atom_site_type_symbol
_atom_site_label
_atom_site_fract_x
_atom_site_fract_y
_atom_site_fract_z
Si Si1 0.558514 0.429944 0.521133
Si Si2 0.834184 0.921109 0.005086
Si Si3 0.811191 0.078141 0.820594
Si Si4 0.984235 0.085497 0.215151
Si Si5 0.890439 0.416060 0.343637
Si Si6 0.904095 0.572117 0.706242
Si Si7 0.046156 0.416461 0.948944
Si Si8 0.811369 0.421662 0.193411
O O1 0.500000 0.500000 0.500000
O O2 0.552914 0.250000 0.523480
O O3 0.602124 0.483883 0.444001
O O4 0.585871 0.489616 0.612032
O O5 0.814111 0.750000 0.999487
O O6 0.810147 0.013739 0.922247
O O7 0.898728 0.929596 0.995718
O O8 0.815521 0.987662 0.100468
O O9 0.750000 0.066463 0.782622
O O10 0.830528 0.250000 0.823600
O O11 0.849514 0.984620 0.753743
O O12 0.986538 0.250000 0.171403
O O13 0.952565 0.086431 0.309414
O O14 0.045420 0.028681 0.229192
O O15 0.947967 0.982934 0.150869
O O16 0.866718 0.250000 0.352856
O O17 0.849209 0.496058 0.272642
O O18 0.901090 0.750000 0.691124
O O19 0.026462 0.250000 0.937211
O O20 0.000000 0.500000 0.000000
O O21 0.750000 0.429754 0.228687
O O22 0.829290 0.250000 0.174183
#
# Coordination Sequence:
#
# PCOD8242102 Si02
#       8
#     8   8   8   8   8   8   8   8
#     4  11  21  37  61  90 122 158 198 245 300 357
#     4  11  23  38  57  85 119 155 195 239 292 349
#     4  11  25  44  64  87 115 153 202 249 293 347
#     4  10  19  35  57  81 115 154 189 233 290 349
#     4   9  18  35  57  83 118 153 189 239 291 339
#     4  11  23  40  62  91 121 154 196 244 302 364
#     4  11  23  35  50  79 115 154 195 236 288 348
#     4  10  20  36  60  86 112 151 200 242 283 337
#
# _framework density 19.590028
#
# number of rings (size 3 to 8) (size 9 to 14) (size 15 to 20)
#    0.000    1.500    2.500    3.000    0.000    8.250 
#    0.000    1.875    0.000    2.250    0.000    0.000 
#    0.000    0.000    0.000    0.000    0.000    0.000 
#
# Total GULP energy -793288.324461 kJ/mol
# GULP energy per Si atom -12395.130070 kJ/mol
# Density = 1.954544 g / cm^3
# Si number density = 19.590028 Si / 1000 Ang^3
#
#
#
# Elastic Constant Matrix: (Units=GPa)
#
#
# Indices 1 2 3 4 5 6 
#
# 1 99.1536 32.2646 41.7202 0.0000 0.0000 0.0000
# 2 32.2646 90.3092 37.5022 0.0000 0.0000 0.0000
# 3 41.7202 37.5022 111.1456 0.0000 0.0000 0.0000
# 4 0.0000 0.0000 0.0000 31.3877 0.0000 0.0000
# 5 0.0000 0.0000 0.0000 0.0000 20.6536 0.0000
# 6 0.0000 0.0000 0.0000 0.0000 0.0000 27.2476
#
#
#
# Elastic Compliance Matrix: (Units=1/GPa)
#
#
# Indices 1 2 3 4 5 6 
#
# 1 0.012621 -0.002956 -0.003740 0.000000 0.000000 0.000000
# 2 -0.002956 0.013570 -0.003469 0.000000 0.000000 0.000000
# 3 -0.003740 -0.003469 0.011572 0.000000 0.000000 0.000000
# 4 0.000000 0.000000 0.000000 0.031860 0.000000 0.000000
# 5 0.000000 0.000000 0.000000 0.000000 0.048418 0.000000
# 6 0.000000 0.000000 0.000000 0.000000 0.000000 0.036701
#
#
# Mechanical properties :
#
#
# Convention : Reuss Voigt Hill
#
# Bulk Modulus (GPa) = 57.36548 58.17582 57.77065
# Shear Modulus (GPa) = 27.64247 28.46585 28.05416
#
# Velocity S-wave (km/s) = 3.76047 3.81606 3.78837
# Velocity P-wave (km/s) = 6.94272 7.01267 6.97778
#
# Compressibility (1/GPa) = 0.01743209
#
# Stress axis : x y z
#
# Youngs Moduli (GPa) = 79.23359 73.69350 86.41828
#
# Poissons Ratio (x) = 0.21783 0.32321
# Poissons Ratio (y) = 0.23421 0.29979
# Poissons Ratio (z) = 0.29634 0.25565
#
# Static dielectric constant tensor:
#      x y z
#    x 3.766920 0.000000 0.000000 
#    y 0.000000 3.579760 0.000000 
#    z 0.000000 0.000000 4.067870 
# 
# 
# High freq. dielectric constant tensor:
#      x y z
#    x 1.765920 0.000000 0.000000 
#    y 0.000000 1.756290 0.000000 
#    z 0.000000 0.000000 1.763380 
# 
# From -- ./inp_files/24656.got.cif
#   From: 2010.03.12/outbox.cif.g09.slc.cpg/sg59_13_cif.got.tgz:24656.got - 2010.04.16 16:29:54.
