data_PCOD8242398
_publ_section_title
;
Structure prediction by ZEFSAII (Michael W. Deem and Ramdas Pophale) SiO2 
 PCOD8242398
Probable space group: P M M N
;
_chemical_formula_sum "Si O2"
_cell_formula_units_Z 64
_cell_length_a 17.808279
_cell_length_b 9.321911
_cell_length_c 22.280266
_cell_angle_alpha 90.000000
_cell_angle_beta 90.000000
_cell_angle_gamma 90.000000
_cell_volume 3698.684393
_symmetry_space_group_name_H-M "P M M N"
_symmetry_group_IT_number 59
_space_group.IT_coordinate_system_code '2'
_symmetry_cell_setting 'orthorhombic'
loop_
_space_group_symop_operation_xyz
x,y,z
1/2-x,1/2-y,z
1/2+x,-y,-z
-x,1/2+y,-z
-x,-y,-z
1/2+x,1/2+y,-z
1/2-x,y,z
x,1/2-y,z
loop_
_atom_site_type_symbol
_atom_site_label
_atom_site_fract_x
_atom_site_fract_y
_atom_site_fract_z
Si Si1 0.665067 0.416323 0.292564
Si Si2 0.565813 0.414520 0.031115
Si Si3 0.469888 0.583197 0.378544
Si Si4 0.467757 0.412710 0.139685
Si Si5 0.607135 0.082510 0.421701
Si Si6 0.474031 0.417807 0.751334
Si Si7 0.831319 0.079931 0.547331
Si Si8 0.836042 0.583450 0.951413
O O1 0.750000 0.454033 0.273008
O O2 0.646806 0.250000 0.280492
O O3 0.657150 0.452221 0.363160
O O4 0.607943 0.509438 0.252712
O O5 0.567683 0.250000 0.009232
O O6 0.545696 0.422609 0.101654
O O7 0.500000 0.500000 0.000000
O O8 0.643588 0.491583 0.011459
O O9 0.482768 0.750000 0.391607
O O10 0.528613 0.497725 0.418302
O O11 0.478484 0.548776 0.308396
O O12 0.388573 0.530141 0.400959
O O13 0.456831 0.250000 0.162569
O O14 0.475950 0.518650 0.195351
O O15 0.393384 0.459425 0.102100
O O16 0.590020 0.250000 0.426728
O O17 0.647957 0.023197 0.480961
O O18 0.461859 0.250000 0.762043
O O19 0.750000 0.016533 0.564684
O O20 0.828301 0.250000 0.544459
O O21 0.750000 0.550025 0.932543
O O22 0.846723 0.750000 0.967673
#
# Coordination Sequence:
#
# PCOD8242398 Si02
#       8
#     8   8   8   8   8   8   8   8
#     4   9  17  30  48  69  92 117 149 193 242 290
#     4   9  17  30  50  75 100 126 156 190 232 281
#     4   9  18  31  45  64  91 122 154 190 236 284
#     4   9  18  33  52  72  96 130 167 197 229 273
#     4   9  16  27  47  71  89 111 148 190 233 287
#     4  10  20  32  47  68  94 126 165 202 234 275
#     4   9  16  27  45  67  90 117 150 189 233 283
#     4   9  18  33  53  78 106 132 159 195 239 283
#
# _framework density 17.303449000000001
#
# number of rings (size 3 to 8) (size 9 to 14) (size 15 to 20)
#    0.000    2.875    0.000    2.250    0.000    5.000 
#    0.000    1.250    0.000    3.750    0.000    0.000 
#    0.000    0.000    0.000    0.000    0.000    0.000 
#
# Total GULP energy -793283.638949 kJ/mol
# GULP energy per Si atom -12395.056859 kJ/mol
# Density = 1.726407 g / cm^3
# Si number density = 17.303449 Si / 1000 Ang^3
#
#
#
# Elastic Constant Matrix: (Units=GPa)
#
#
# Indices 1 2 3 4 5 6 
#
# 1 135.4967 44.9427 53.3943 0.0000 0.0000 0.0000
# 2 44.9427 60.7810 33.9906 0.0000 0.0000 0.0000
# 3 53.3943 33.9906 66.9907 0.0000 0.0000 0.0000
# 4 0.0000 0.0000 0.0000 21.9745 0.0000 0.0000
# 5 0.0000 0.0000 0.0000 0.0000 22.0586 0.0000
# 6 0.0000 0.0000 0.0000 0.0000 0.0000 24.3555
#
#
#
# Elastic Compliance Matrix: (Units=1/GPa)
#
#
# Indices 1 2 3 4 5 6 
#
# 1 0.011680 -0.004789 -0.006879 0.000000 0.000000 0.000000
# 2 -0.004789 0.024934 -0.008834 0.000000 0.000000 0.000000
# 3 -0.006879 -0.008834 0.024893 0.000000 0.000000 0.000000
# 4 0.000000 0.000000 0.000000 0.045507 0.000000 0.000000
# 5 0.000000 0.000000 0.000000 0.000000 0.045334 0.000000
# 6 0.000000 0.000000 0.000000 0.000000 0.000000 0.041059
#
#
# Mechanical properties :
#
#
# Convention : Reuss Voigt Hill
#
# Bulk Modulus (GPa) = 48.77695 58.65817 53.71756
# Shear Modulus (GPa) = 20.72582 22.40709 21.56646
#
# Velocity S-wave (km/s) = 3.46466 3.60244 3.53422
# Velocity P-wave (km/s) = 6.65248 7.16078 6.91130
#
# Compressibility (1/GPa) = 0.02050149
#
# Stress axis : x y z
#
# Youngs Moduli (GPa) = 85.61969 40.10579 40.17216
#
# Poissons Ratio (x) = 0.19207 0.27635
# Poissons Ratio (y) = 0.41004 0.35489
# Poissons Ratio (z) = 0.58899 0.35431
#
# Static dielectric constant tensor:
#      x y z
#    x 3.524140 0.000000 0.000000 
#    y 0.000000 3.192010 0.000000 
#    z 0.000000 0.000000 3.202470 
# 
# 
# High freq. dielectric constant tensor:
#      x y z
#    x 1.662860 0.000000 0.000000 
#    y 0.000000 1.658500 0.000000 
#    z 0.000000 0.000000 1.653920 
# 
# From -- ./inp_files/29481.got.cif
#   From: 2010.03.12/outbox.cif.g09.slc.cpg/sg59_15_cif.got.tgz:29481.got - 2010.04.16 16:29:54.
