data_PCOD8242695
_publ_section_title
;
Structure prediction by ZEFSAII (Michael W. Deem and Ramdas Pophale) SiO2 
 PCOD8242695
Probable space group: P M M N
;
_chemical_formula_sum "Si O2"
_cell_formula_units_Z 40
_cell_length_a 9.224044
_cell_length_b 9.860572
_cell_length_c 25.726426
_cell_angle_alpha 90.000000
_cell_angle_beta 90.000000
_cell_angle_gamma 90.000000
_cell_volume 2339.930354
_symmetry_space_group_name_H-M "P M M N"
_symmetry_group_IT_number 59
_space_group.IT_coordinate_system_code '2'
_symmetry_cell_setting 'orthorhombic'
loop_
_space_group_symop_operation_xyz
x,y,z
1/2-x,1/2-y,z
1/2+x,-y,-z
-x,1/2+y,-z
-x,-y,-z
1/2+x,1/2+y,-z
1/2-x,y,z
x,1/2-y,z
loop_
_atom_site_type_symbol
_atom_site_label
_atom_site_fract_x
_atom_site_fract_y
_atom_site_fract_z
Si Si1 0.089352 0.089378 0.142324
Si Si2 0.922682 0.598919 0.743833
Si Si3 0.919383 0.093991 0.540206
Si Si4 0.577446 0.099315 0.656505
Si Si5 0.419830 0.908508 0.958236
O O1 0.250000 0.030059 0.129531
O O2 0.100863 0.250000 0.145268
O O3 0.034318 0.039691 0.199140
O O4 0.976601 0.043938 0.098225
O O5 0.750000 0.603873 0.740226
O O6 0.986412 0.750000 0.735472
O O7 0.989265 0.502986 0.699103
O O8 0.750000 0.068370 0.533881
O O9 0.958313 0.250000 0.528751
O O10 0.970162 0.054768 0.598590
O O11 0.000000 0.000000 0.500000
O O12 0.750000 0.100226 0.659522
O O13 0.518441 0.250000 0.668678
O O14 0.250000 0.937427 0.961026
O O15 0.455041 0.750000 0.968301
O O16 0.500000 0.000000 0.000000
#
# Coordination Sequence:
#
# PCOD8242695 Si02
#       5
#     8   8   8   8   8
#     4   8  14  26  44  65  90 118 146 181 225 268
#     4   8  13  22  39  62  83 107 145 186 220 261
#     4   9  18  31  46  66  92 121 155 193 231 274
#     4   8  14  25  40  60  88 117 143 179 227 270
#     4  10  20  33  50  71  94 123 158 192 228 272
#
# _framework density 17.094525999999998
#
# number of rings (size 3 to 8) (size 9 to 14) (size 15 to 20)
#    0.000    3.400    0.000    3.000    0.000    2.400 
#    0.000    3.000    0.000    4.800    0.000    2.800 
#    0.000    0.000    0.000    0.000    0.000    0.000 
#
# Total GULP energy -495700.931653 kJ/mol
# GULP energy per Si atom -12392.523291 kJ/mol
# Density = 1.705562 g / cm^3
# Si number density = 17.094526 Si / 1000 Ang^3
#
#
#
# Elastic Constant Matrix: (Units=GPa)
#
#
# Indices 1 2 3 4 5 6 
#
# 1 52.2949 37.9314 54.8455 0.0000 0.0000 0.0000
# 2 37.9314 81.5130 88.6979 0.0000 0.0000 0.0000
# 3 54.8455 88.6979 180.1503 0.0000 0.0000 0.0000
# 4 0.0000 0.0000 0.0000 34.3808 0.0000 0.0000
# 5 0.0000 0.0000 0.0000 0.0000 24.4578 0.0000
# 6 0.0000 0.0000 0.0000 0.0000 0.0000 18.6992
#
#
#
# Elastic Compliance Matrix: (Units=1/GPa)
#
#
# Indices 1 2 3 4 5 6 
#
# 1 0.030824 -0.008901 -0.005002 0.000000 0.000000 0.000000
# 2 -0.008901 0.028996 -0.011566 0.000000 0.000000 0.000000
# 3 -0.005002 -0.011566 0.012768 0.000000 0.000000 0.000000
# 4 0.000000 0.000000 0.000000 0.029086 0.000000 0.000000
# 5 0.000000 0.000000 0.000000 0.000000 0.040887 0.000000
# 6 0.000000 0.000000 0.000000 0.000000 0.000000 0.053478
#
#
# Mechanical properties :
#
#
# Convention : Reuss Voigt Hill
#
# Bulk Modulus (GPa) = 46.18926 75.21197 60.70061
# Shear Modulus (GPa) = 19.66992 24.33980 22.00486
#
# Velocity S-wave (km/s) = 3.39581 3.77747 3.59171
# Velocity P-wave (km/s) = 6.51567 7.94474 7.26543
#
# Compressibility (1/GPa) = 0.02165005
#
# Stress axis : x y z
#
# Youngs Moduli (GPa) = 32.44187 34.48744 78.31831
#
# Poissons Ratio (x) = 0.30698 0.39172
# Poissons Ratio (y) = 0.28878 0.90586
# Poissons Ratio (z) = 0.16226 0.39890
#
# Static dielectric constant tensor:
#      x y z
#    x 2.525230 0.000000 0.000000 
#    y 0.000000 3.413200 0.000000 
#    z 0.000000 0.000000 3.214960 
# 
# 
# High freq. dielectric constant tensor:
#      x y z
#    x 1.615580 0.000000 0.000000 
#    y 0.000000 1.638800 0.000000 
#    z 0.000000 0.000000 1.675640 
# 
# From -- ./inp_files/29914.got.cif
#   From: 2010.03.12/outbox.cif.g09.slc.cpg/sg59_15_cif.got.tgz:29914.got - 2010.04.16 16:29:54.
