data_PCOD8242331
_publ_section_title
;
Structure prediction by ZEFSAII (Michael W. Deem and Ramdas Pophale) SiO2 
 PCOD8242331
Probable space group: P M M N
;
_chemical_formula_sum "Si O2"
_cell_formula_units_Z 64
_cell_length_a 21.443983
_cell_length_b 9.466774
_cell_length_c 18.903785
_cell_angle_alpha 90.000000
_cell_angle_beta 90.000000
_cell_angle_gamma 90.000000
_cell_volume 3837.569315
_symmetry_space_group_name_H-M "P M M N"
_symmetry_group_IT_number 59
_space_group.IT_coordinate_system_code '2'
_symmetry_cell_setting 'orthorhombic'
loop_
_space_group_symop_operation_xyz
x,y,z
1/2-x,1/2-y,z
1/2+x,-y,-z
-x,1/2+y,-z
-x,-y,-z
1/2+x,1/2+y,-z
1/2-x,y,z
x,1/2-y,z
loop_
_atom_site_type_symbol
_atom_site_label
_atom_site_fract_x
_atom_site_fract_y
_atom_site_fract_z
Si Si1 0.987887 0.089568 0.312242
Si Si2 0.320369 0.913922 0.457851
Si Si3 0.055372 0.584350 0.538604
Si Si4 0.628974 0.587769 0.668045
Si Si5 0.389893 0.590009 0.083211
Si Si6 0.488869 0.089179 0.826714
Si Si7 0.059181 0.085521 0.972097
Si Si8 0.320811 0.907604 0.214820
O O1 0.978762 0.250000 0.287644
O O2 0.056029 0.067339 0.346539
O O3 0.942591 0.049339 0.377427
O O4 0.973189 0.999203 0.242931
O O5 0.250000 0.943904 0.487963
O O6 0.327095 0.750000 0.438083
O O7 0.375283 0.959031 0.511963
O O8 0.328948 0.002187 0.386647
O O9 0.041997 0.750000 0.525922
O O10 0.000000 0.500000 0.500000
O O11 0.649687 0.750000 0.665289
O O12 0.639401 0.526031 0.745990
O O13 0.400211 0.750000 0.055649
O O14 0.445921 0.546880 0.136806
O O15 0.327695 0.573633 0.129993
O O16 0.383717 0.485705 0.015394
O O17 0.491034 0.250000 0.801168
O O18 0.435112 0.067020 0.887008
O O19 0.053048 0.250000 0.991934
O O20 0.000000 0.000000 0.000000
O O21 0.250000 0.927625 0.236585
O O22 0.344530 0.750000 0.235807
#
# Coordination Sequence:
#
# PCOD8242331 Si02
#       8
#     8   8   8   8   8   8   8   8
#     4  10  20  31  46  70  97 126 158 194 243 291
#     4  10  21  36  54  73  94 128 169 205 245 296
#     4  10  20  35  52  72  99 127 161 203 247 297
#     4  11  21  32  47  70  99 129 164 204 243 287
#     4   9  17  29  44  64  89 120 157 193 233 275
#     4   9  17  29  45  66  91 120 153 188 229 282
#     4   9  17  28  43  65  90 117 149 185 226 274
#     4  10  20  33  47  64  92 131 171 204 236 282
#
# _framework density 16.677223000000001
#
# number of rings (size 3 to 8) (size 9 to 14) (size 15 to 20)
#    0.000    2.250    2.500    1.875    0.000    6.000 
#    0.000    0.000    0.000    0.000    0.000    0.875 
#    0.000    5.000    0.000    0.000    0.000    0.000 
#
# Total GULP energy -793110.321071 kJ/mol
# GULP energy per Si atom -12392.348767 kJ/mol
# Density = 1.663927 g / cm^3
# Si number density = 16.677223 Si / 1000 Ang^3
#
#
#
# Elastic Constant Matrix: (Units=GPa)
#
#
# Indices 1 2 3 4 5 6 
#
# 1 62.5438 37.0419 39.5930 0.0000 0.0000 0.0000
# 2 37.0419 86.3494 58.0429 0.0000 0.0000 0.0000
# 3 39.5930 58.0429 103.4550 0.0000 0.0000 0.0000
# 4 0.0000 0.0000 0.0000 31.9370 0.0000 0.0000
# 5 0.0000 0.0000 0.0000 0.0000 20.4212 0.0000
# 6 0.0000 0.0000 0.0000 0.0000 0.0000 16.0575
#
#
#
# Elastic Compliance Matrix: (Units=1/GPa)
#
#
# Indices 1 2 3 4 5 6 
#
# 1 0.023093 -0.006367 -0.005266 0.000000 0.000000 0.000000
# 2 -0.006367 0.020348 -0.008980 0.000000 0.000000 0.000000
# 3 -0.005266 -0.008980 0.016719 0.000000 0.000000 0.000000
# 4 0.000000 0.000000 0.000000 0.031312 0.000000 0.000000
# 5 0.000000 0.000000 0.000000 0.000000 0.048969 0.000000
# 6 0.000000 0.000000 0.000000 0.000000 0.000000 0.062276
#
#
# Mechanical properties :
#
#
# Convention : Reuss Voigt Hill
#
# Bulk Modulus (GPa) = 52.80944 57.96709 55.38827
# Shear Modulus (GPa) = 19.97978 21.52783 20.75381
#
# Velocity S-wave (km/s) = 3.46501 3.59674 3.53149
# Velocity P-wave (km/s) = 6.90961 7.21682 7.06488
#
# Compressibility (1/GPa) = 0.01893601
#
# Stress axis : x y z
#
# Youngs Moduli (GPa) = 43.30304 49.14500 59.81141
#
# Poissons Ratio (x) = 0.31289 0.31496
# Poissons Ratio (y) = 0.27570 0.53708
# Poissons Ratio (z) = 0.22803 0.44130
#
# Static dielectric constant tensor:
#      x y z
#    x 3.098260 0.000000 0.000000 
#    y 0.000000 3.303640 0.000000 
#    z 0.000000 0.000000 3.332180 
# 
# 
# High freq. dielectric constant tensor:
#      x y z
#    x 1.605460 0.000000 0.000000 
#    y 0.000000 1.647550 0.000000 
#    z 0.000000 0.000000 1.638220 
# 
# From -- ./inp_files/28455.got.cif
#   From: 2010.03.12/outbox.cif.g09.slc.cpg/sg59_15_cif.got.tgz:28455.got - 2010.04.16 16:29:54.
