data_PCOD8242742
_publ_section_title
;
Structure prediction by ZEFSAII (Michael W. Deem and Ramdas Pophale) SiO2 
 PCOD8242742
Probable space group: P M M N
;
_chemical_formula_sum "Si O2"
_cell_formula_units_Z 48
_cell_length_a 8.955302
_cell_length_b 9.095476
_cell_length_c 30.983506
_cell_angle_alpha 90.000000
_cell_angle_beta 90.000000
_cell_angle_gamma 90.000000
_cell_volume 2523.691285
_symmetry_space_group_name_H-M "P M M N"
_symmetry_group_IT_number 59
_space_group.IT_coordinate_system_code '2'
_symmetry_cell_setting 'orthorhombic'
loop_
_space_group_symop_operation_xyz
x,y,z
1/2-x,1/2-y,z
1/2+x,-y,-z
-x,1/2+y,-z
-x,-y,-z
1/2+x,1/2+y,-z
1/2-x,y,z
x,1/2-y,z
loop_
_atom_site_type_symbol
_atom_site_label
_atom_site_fract_x
_atom_site_fract_y
_atom_site_fract_z
Si Si1 0.072156 0.915923 0.125035
Si Si2 0.421825 0.579447 0.293434
Si Si3 0.926662 0.918900 0.960184
Si Si4 0.427878 0.084244 0.208564
Si Si5 0.076002 0.421797 0.460031
Si Si6 0.075436 0.420092 0.618256
O O1 0.250000 0.915545 0.126318
O O2 0.009870 0.750000 0.122888
O O3 0.014726 0.005006 0.083510
O O4 0.007949 0.994071 0.167872
O O5 0.250000 0.540142 0.303590
O O6 0.439462 0.750000 0.281932
O O7 0.484518 0.489024 0.252798
O O8 0.520364 0.534279 0.334387
O O9 0.750000 0.933228 0.964240
O O10 0.978045 0.750000 0.959548
O O11 0.000000 0.000000 0.000000
O O12 0.250000 0.081334 0.207371
O O13 0.489009 0.250000 0.206091
O O14 0.250000 0.457931 0.461218
O O15 0.043658 0.250000 0.463611
O O16 0.000000 0.500000 0.500000
O O17 0.009810 0.479952 0.415597
O O18 0.250000 0.451281 0.614564
O O19 0.037717 0.250000 0.608858
#
# Coordination Sequence:
#
# PCOD8242742 Si02
#       6
#     8   8   8   8   8   8
#     4   9  16  27  45  69  97 129 165 207 257 311
#     4   9  17  30  49  73 101 133 167 205 253 306
#     4  10  20  33  50  73 101 133 170 212 259 311
#     4   9  16  26  43  69  99 128 162 208 257 304
#     4  11  24  40  59  84 112 142 178 219 263 312
#     4  10  21  37  57  81 109 142 180 219 260 308
#
# _framework density 19.019759000000001
#
# number of rings (size 3 to 8) (size 9 to 14) (size 15 to 20)
#    0.000    2.333    0.000    3.000    0.000   10.000 
#    0.000    1.667    0.000    1.000    0.000    2.333 
#    0.000    0.000    0.000    0.000    0.000    0.000 
#
# Total GULP energy -595318.323313 kJ/mol
# GULP energy per Si atom -12402.465069 kJ/mol
# Density = 1.897647 g / cm^3
# Si number density = 19.019759 Si / 1000 Ang^3
#
#
#
# Elastic Constant Matrix: (Units=GPa)
#
#
# Indices 1 2 3 4 5 6 
#
# 1 52.2651 53.9144 53.6485 0.0000 0.0000 0.0000
# 2 53.9144 143.7910 103.4672 0.0000 0.0000 0.0000
# 3 53.6485 103.4672 181.5119 0.0000 0.0000 0.0000
# 4 0.0000 0.0000 0.0000 44.9858 0.0000 0.0000
# 5 0.0000 0.0000 0.0000 0.0000 27.7549 0.0000
# 6 0.0000 0.0000 0.0000 0.0000 0.0000 20.6823
#
#
#
# Elastic Compliance Matrix: (Units=1/GPa)
#
#
# Indices 1 2 3 4 5 6 
#
# 1 0.033345 -0.009174 -0.004626 0.000000 0.000000 0.000000
# 2 -0.009174 0.014315 -0.005448 0.000000 0.000000 0.000000
# 3 -0.004626 -0.005448 0.009982 0.000000 0.000000 0.000000
# 4 0.000000 0.000000 0.000000 0.022229 0.000000 0.000000
# 5 0.000000 0.000000 0.000000 0.000000 0.036030 0.000000
# 6 0.000000 0.000000 0.000000 0.000000 0.000000 0.048351
#
#
# Mechanical properties :
#
#
# Convention : Reuss Voigt Hill
#
# Bulk Modulus (GPa) = 52.23194 88.84757 70.53976
# Shear Modulus (GPa) = 23.90846 29.78711 26.84778
#
# Velocity S-wave (km/s) = 3.54931 3.96171 3.76117
# Velocity P-wave (km/s) = 6.65720 8.23053 7.48532
#
# Compressibility (1/GPa) = 0.01914537
#
# Stress axis : x y z
#
# Youngs Moduli (GPa) = 29.98914 69.85801 100.17656
#
# Poissons Ratio (x) = 0.64087 0.46345
# Poissons Ratio (y) = 0.27512 0.54580
# Poissons Ratio (z) = 0.13874 0.38061
#
# Static dielectric constant tensor:
#      x y z
#    x 3.151120 0.000000 0.000000 
#    y 0.000000 3.569780 0.000000 
#    z 0.000000 0.000000 3.705930 
# 
# 
# High freq. dielectric constant tensor:
#      x y z
#    x 1.699270 0.000000 0.000000 
#    y 0.000000 1.749400 0.000000 
#    z 0.000000 0.000000 1.758150 
# 
# From -- ./inp_files/32919.got.cif
#   From: 2010.03.12/outbox.cif.g09.slc.cpg/sg59_17_cif.got.tgz:32919.got - 2010.04.16 16:29:54.
