data_PCOD8242263
_publ_section_title
;
Structure prediction by ZEFSAII (Michael W. Deem and Ramdas Pophale) SiO2 
 PCOD8242263
Probable space group: P M M N
;
_chemical_formula_sum "Si O2"
_cell_formula_units_Z 56
_cell_length_a 15.460213
_cell_length_b 20.320719
_cell_length_c 9.231110
_cell_angle_alpha 90.000000
_cell_angle_beta 90.000000
_cell_angle_gamma 90.000000
_cell_volume 2900.069925
_symmetry_space_group_name_H-M "P M M N"
_symmetry_group_IT_number 59
_space_group.IT_coordinate_system_code '2'
_symmetry_cell_setting 'orthorhombic'
loop_
_space_group_symop_operation_xyz
x,y,z
1/2-x,1/2-y,z
1/2+x,-y,-z
-x,1/2+y,-z
-x,-y,-z
1/2+x,1/2+y,-z
1/2-x,y,z
x,1/2-y,z
loop_
_atom_site_type_symbol
_atom_site_label
_atom_site_fract_x
_atom_site_fract_y
_atom_site_fract_z
Si Si1 0.883738 0.323375 0.555080
Si Si2 0.348234 0.066964 0.455543
Si Si3 0.076610 0.174226 0.649080
Si Si4 0.655631 0.174796 0.881783
Si Si5 0.520211 0.956543 0.795827
Si Si6 0.346569 0.940807 0.646469
Si Si7 0.004486 0.404117 0.902119
O O1 0.859342 0.250000 0.502717
O O2 0.842530 0.337845 0.710429
O O3 0.843326 0.373691 0.442885
O O4 0.986687 0.331001 0.564287
O O5 0.250000 0.063609 0.397122
O O6 0.355413 0.130989 0.558591
O O7 0.413907 0.072309 0.321592
O O8 0.372323 0.001685 0.544035
O O9 0.108292 0.250000 0.660506
O O10 0.066240 0.145249 0.812231
O O11 0.750000 0.156293 0.945149
O O12 0.632342 0.250000 0.914805
O O13 0.582744 0.131292 0.956848
O O14 0.420756 0.934960 0.767509
O O15 0.522918 0.035652 0.797883
O O16 0.551449 0.928951 0.952108
O O17 0.250000 0.951952 0.713492
#
# Coordination Sequence:
#
# PCOD8242263 Si02
#       7
#     8   8   8   8   8   8   8
#     4   9  17  30  53  84 114 148 187 229 281 342
#     4  11  22  38  62  88 112 149 201 254 304 345
#     4  10  19  37  62  84 110 149 197 250 297 348
#     4   9  17  31  53  82 114 148 192 235 276 347
#     4  11  22  38  57  86 123 153 194 246 293 354
#     4  11  21  34  57  86 121 156 188 236 292 347
#     4  10  21  36  58  82 117 160 194 231 297 361
#
# _framework density 19.309878999999999
#
# number of rings (size 3 to 8) (size 9 to 14) (size 15 to 20)
#    0.000    1.857    2.857    3.857    0.000    3.429 
#    0.000    5.714    0.000    0.000    0.000    0.000 
#    0.000    0.000    0.000    0.000    0.000    0.000 
#
# Total GULP energy -694317.100565 kJ/mol
# GULP energy per Si atom -12398.519653 kJ/mol
# Density = 1.926593 g / cm^3
# Si number density = 19.309879 Si / 1000 Ang^3
#
#
#
# Elastic Constant Matrix: (Units=GPa)
#
#
# Indices 1 2 3 4 5 6 
#
# 1 79.1013 15.3500 28.1903 0.0000 0.0000 0.0000
# 2 15.3500 117.1668 39.4016 0.0000 0.0000 0.0000
# 3 28.1903 39.4016 68.9672 0.0000 0.0000 0.0000
# 4 0.0000 0.0000 0.0000 22.3251 0.0000 0.0000
# 5 0.0000 0.0000 0.0000 0.0000 21.5587 0.0000
# 6 0.0000 0.0000 0.0000 0.0000 0.0000 23.3062
#
#
#
# Elastic Compliance Matrix: (Units=1/GPa)
#
#
# Indices 1 2 3 4 5 6 
#
# 1 0.014799 0.000118 -0.006116 0.000000 0.000000 0.000000
# 2 0.000118 0.010565 -0.006084 0.000000 0.000000 0.000000
# 3 -0.006116 -0.006084 0.020476 0.000000 0.000000 0.000000
# 4 0.000000 0.000000 0.000000 0.044793 0.000000 0.000000
# 5 0.000000 0.000000 0.000000 0.000000 0.046385 0.000000
# 6 0.000000 0.000000 0.000000 0.000000 0.000000 0.042907
#
#
# Mechanical properties :
#
#
# Convention : Reuss Voigt Hill
#
# Bulk Modulus (GPa) = 46.13705 47.90213 47.01959
# Shear Modulus (GPa) = 23.66130 25.59089 24.62609
#
# Velocity S-wave (km/s) = 3.50429 3.64438 3.57502
# Velocity P-wave (km/s) = 6.34967 6.52454 6.43770
#
# Compressibility (1/GPa) = 0.02167456
#
# Stress axis : x y z
#
# Youngs Moduli (GPa) = 67.57258 94.64780 48.83803
#
# Poissons Ratio (x) = -0.01118 0.29872
# Poissons Ratio (y) = -0.00798 0.29715
# Poissons Ratio (z) = 0.41331 0.57588
#
# Static dielectric constant tensor:
#      x y z
#    x 3.642840 0.000000 0.000000 
#    y 0.000000 3.647660 0.000000 
#    z 0.000000 0.000000 3.213850 
# 
# 
# High freq. dielectric constant tensor:
#      x y z
#    x 1.742050 0.000000 0.000000 
#    y 0.000000 1.760880 0.000000 
#    z 0.000000 0.000000 1.722740 
# 
# From -- ./inp_files/9351.got.cif
#   From: 2010.03.12/outbox.cif.g09.slc.cpg/sg59_5_cif.got.tgz:9351.got - 2010.04.16 16:29:54.
