data_PCOD8242887
_publ_section_title
;
Structure prediction by ZEFSAII (Michael W. Deem and Ramdas Pophale) SiO2 
 PCOD8242887
Probable space group: P M M N
;
_chemical_formula_sum "Si O2"
_cell_formula_units_Z 64
_cell_length_a 19.306768
_cell_length_b 9.139924
_cell_length_c 19.862923
_cell_angle_alpha 90.000000
_cell_angle_beta 90.000000
_cell_angle_gamma 90.000000
_cell_volume 3505.058909
_symmetry_space_group_name_H-M "P M M N"
_symmetry_group_IT_number 59
_space_group.IT_coordinate_system_code '2'
_symmetry_cell_setting 'orthorhombic'
loop_
_space_group_symop_operation_xyz
x,y,z
1/2-x,1/2-y,z
1/2+x,-y,-z
-x,1/2+y,-z
-x,-y,-z
1/2+x,1/2+y,-z
1/2-x,y,z
x,1/2-y,z
loop_
_atom_site_type_symbol
_atom_site_label
_atom_site_fract_x
_atom_site_fract_y
_atom_site_fract_z
Si Si1 0.901461 0.579886 0.033223
Si Si2 0.167764 0.914596 0.473652
Si Si3 0.328924 0.583812 0.855846
Si Si4 0.330174 0.077789 0.606621
Si Si5 0.551158 0.079440 0.908010
Si Si6 0.060839 0.418524 0.230599
Si Si7 0.409067 0.580533 0.723957
Si Si8 0.170462 0.419696 0.342308
O O1 0.889752 0.750000 0.020691
O O2 0.840193 0.517394 0.079256
O O3 0.972369 0.545154 0.072264
O O4 0.898895 0.500724 0.961139
O O5 0.250000 0.915847 0.472545
O O6 0.138349 0.750000 0.477476
O O7 0.141675 0.004055 0.538334
O O8 0.140607 0.990315 0.405599
O O9 0.250000 0.569966 0.832196
O O10 0.348221 0.750000 0.875521
O O11 0.376431 0.529860 0.794605
O O12 0.250000 0.036465 0.620267
O O13 0.339809 0.250000 0.599497
O O14 0.377117 0.019844 0.666669
O O15 0.567974 0.250000 0.909943
O O16 0.566065 0.020025 0.834163
O O17 0.063385 0.250000 0.207046
O O18 0.125569 0.460359 0.277264
O O19 0.991009 0.447749 0.272732
O O20 0.391240 0.750000 0.709073
O O21 0.250000 0.460765 0.326195
O O22 0.163065 0.250000 0.361026
#
# Coordination Sequence:
#
# PCOD8242887 Si02
#       8
#     8   8   8   8   8   8   8   8
#     4  10  20  34  54  78 103 135 177 221 263 310
#     4   9  17  31  53  78 103 135 176 218 261 314
#     4  10  20  34  53  77 108 144 178 218 268 316
#     4  10  20  33  51  76 106 140 178 221 265 309
#     4  10  20  34  55  79 104 135 174 220 265 311
#     4  10  20  35  56  80 107 141 177 216 264 320
#     4  10  20  34  52  75 106 142 181 219 259 314
#     4   9  18  34  56  81 107 134 168 214 268 321
#
# _framework density 18.259322000000001
#
# number of rings (size 3 to 8) (size 9 to 14) (size 15 to 20)
#    0.000    2.250    1.250    1.875    0.000    5.500 
#    0.000    1.250    0.000    2.250    0.000    0.000 
#    0.000    0.000    0.000    0.000    0.000    0.000 
#
# Total GULP energy -793817.646696 kJ/mol
# GULP energy per Si atom -12403.400730 kJ/mol
# Density = 1.821776 g / cm^3
# Si number density = 18.259322 Si / 1000 Ang^3
#
#
#
# Elastic Constant Matrix: (Units=GPa)
#
#
# Indices 1 2 3 4 5 6 
#
# 1 64.3284 34.5440 43.3642 0.0000 0.0000 0.0000
# 2 34.5440 100.3262 74.9313 0.0000 0.0000 0.0000
# 3 43.3642 74.9313 129.3319 0.0000 0.0000 0.0000
# 4 0.0000 0.0000 0.0000 41.8479 0.0000 0.0000
# 5 0.0000 0.0000 0.0000 0.0000 25.3252 0.0000
# 6 0.0000 0.0000 0.0000 0.0000 0.0000 21.8595
#
#
#
# Elastic Compliance Matrix: (Units=1/GPa)
#
#
# Indices 1 2 3 4 5 6 
#
# 1 0.020734 -0.003432 -0.004964 0.000000 0.000000 0.000000
# 2 -0.003432 0.018139 -0.009358 0.000000 0.000000 0.000000
# 3 -0.004964 -0.009358 0.014818 0.000000 0.000000 0.000000
# 4 0.000000 0.000000 0.000000 0.023896 0.000000 0.000000
# 5 0.000000 0.000000 0.000000 0.000000 0.039486 0.000000
# 6 0.000000 0.000000 0.000000 0.000000 0.000000 0.045747
#
#
# Mechanical properties :
#
#
# Convention : Reuss Voigt Hill
#
# Bulk Modulus (GPa) = 54.99546 66.62948 60.81247
# Shear Modulus (GPa) = 24.46313 27.21633 25.83973
#
# Velocity S-wave (km/s) = 3.66425 3.86495 3.76593
# Velocity P-wave (km/s) = 6.93446 7.51578 7.23097
#
# Compressibility (1/GPa) = 0.01818332
#
# Stress axis : x y z
#
# Youngs Moduli (GPa) = 48.22955 55.13092 67.48404
#
# Poissons Ratio (x) = 0.18920 0.33497
# Poissons Ratio (y) = 0.16552 0.63154
# Poissons Ratio (z) = 0.23940 0.51593
#
# Static dielectric constant tensor:
#      x y z
#    x 3.168190 0.000000 0.000000 
#    y 0.000000 3.393160 0.000000 
#    z 0.000000 0.000000 3.372410 
# 
# 
# High freq. dielectric constant tensor:
#      x y z
#    x 1.681490 0.000000 0.000000 
#    y 0.000000 1.712140 0.000000 
#    z 0.000000 0.000000 1.712970 
# 
# From -- ./inp_files/26350.got.cif
#   From: 2010.03.12/outbox.cif.g09.slc.cpg/sg59_14_cif.got.tgz:26350.got - 2010.04.16 16:29:54.
