data_PCOD8242452
_publ_section_title
;
Structure prediction by ZEFSAII (Michael W. Deem and Ramdas Pophale) SiO2 
 PCOD8242452
Probable space group: P M M N
;
_chemical_formula_sum "Si O2"
_cell_formula_units_Z 48
_cell_length_a 9.165145
_cell_length_b 9.129801
_cell_length_c 31.039327
_cell_angle_alpha 90.000000
_cell_angle_beta 90.000000
_cell_angle_gamma 90.000000
_cell_volume 2597.245174
_symmetry_space_group_name_H-M "P M M N"
_symmetry_group_IT_number 59
_space_group.IT_coordinate_system_code '2'
_symmetry_cell_setting 'orthorhombic'
loop_
_space_group_symop_operation_xyz
x,y,z
1/2-x,1/2-y,z
1/2+x,-y,-z
-x,1/2+y,-z
-x,-y,-z
1/2+x,1/2+y,-z
1/2-x,y,z
x,1/2-y,z
loop_
_atom_site_type_symbol
_atom_site_label
_atom_site_fract_x
_atom_site_fract_y
_atom_site_fract_z
Si Si1 0.423380 0.914455 0.283913
Si Si2 0.419637 0.079443 0.874628
Si Si3 0.576584 0.583615 0.798640
Si Si4 0.076734 0.914355 0.378715
Si Si5 0.421445 0.918769 0.961484
Si Si6 0.921993 0.581463 0.538479
O O1 0.250000 0.913871 0.283613
O O2 0.480444 0.750000 0.274168
O O3 0.479078 0.965756 0.331331
O O4 0.481862 0.024853 0.247451
O O5 0.250000 0.051681 0.865189
O O6 0.454445 0.250000 0.881033
O O7 0.511449 0.018544 0.835210
O O8 0.470579 0.994485 0.917231
O O9 0.750000 0.573773 0.801325
O O10 0.521953 0.750000 0.804349
O O11 0.250000 0.917087 0.378762
O O12 0.020692 0.750000 0.388149
O O13 0.016933 0.020331 0.416018
O O14 0.250000 0.934804 0.968630
O O15 0.470593 0.750000 0.960113
O O16 0.500000 0.000000 0.000000
O O17 0.750000 0.555433 0.534380
O O18 0.964782 0.750000 0.536143
O O19 0.000000 0.500000 0.500000
#
# Coordination Sequence:
#
# PCOD8242452 Si02
#       6
#     8   8   8   8   8   8
#     4   8  14  26  45  69  97 128 161 199 243 289
#     4  10  21  37  56  76 100 134 173 209 248 295
#     4  10  20  32  49  76 106 134 165 203 247 292
#     4   8  14  26  45  68  94 125 160 198 242 291
#     4  10  21  37  57  80 105 134 168 206 249 295
#     4  10  20  32  48  71  97 127 163 201 244 294
#
# _framework density 18.481120000000001
#
# number of rings (size 3 to 8) (size 9 to 14) (size 15 to 20)
#    0.000    2.667    0.000    3.000    0.000    5.333 
#    0.000    3.333    0.000    1.000    0.000    7.000 
#    0.000    0.000    0.000    0.000    0.000    0.000 
#
# Total GULP energy -595095.615572 kJ/mol
# GULP energy per Si atom -12397.825324 kJ/mol
# Density = 1.843906 g / cm^3
# Si number density = 18.481120 Si / 1000 Ang^3
#
#
#
# Elastic Constant Matrix: (Units=GPa)
#
#
# Indices 1 2 3 4 5 6 
#
# 1 18.8124 31.6485 34.7646 0.0000 0.0000 0.0000
# 2 31.6485 142.5658 93.7683 0.0000 0.0000 0.0000
# 3 34.7646 93.7683 175.4930 0.0000 0.0000 0.0000
# 4 0.0000 0.0000 0.0000 43.8165 0.0000 0.0000
# 5 0.0000 0.0000 0.0000 0.0000 25.3444 0.0000
# 6 0.0000 0.0000 0.0000 0.0000 0.0000 23.2057
#
#
#
# Elastic Compliance Matrix: (Units=1/GPa)
#
#
# Indices 1 2 3 4 5 6 
#
# 1 0.099234 -0.014030 -0.012161 0.000000 0.000000 0.000000
# 2 -0.014030 0.012799 -0.004059 0.000000 0.000000 0.000000
# 3 -0.012161 -0.004059 0.010276 0.000000 0.000000 0.000000
# 4 0.000000 0.000000 0.000000 0.022822 0.000000 0.000000
# 5 0.000000 0.000000 0.000000 0.000000 0.039456 0.000000
# 6 0.000000 0.000000 0.000000 0.000000 0.000000 0.043093
#
#
# Mechanical properties :
#
#
# Convention : Reuss Voigt Hill
#
# Bulk Modulus (GPa) = 16.17942 73.02598 44.60270
# Shear Modulus (GPa) = 16.19254 30.25264 23.22259
#
# Velocity S-wave (km/s) = 2.96322 4.05031 3.54864
# Velocity P-wave (km/s) = 4.52561 7.84047 6.40133
#
# Compressibility (1/GPa) = 0.06180692
#
# Stress axis : x y z
#
# Youngs Moduli (GPa) = 10.07723 78.13266 97.31237
#
# Poissons Ratio (x) = 1.09624 1.18343
# Poissons Ratio (y) = 0.14139 0.39501
# Poissons Ratio (z) = 0.12255 0.31715
#
# Static dielectric constant tensor:
#      x y z
#    x 2.964230 0.000000 0.000000 
#    y 0.000000 3.667930 0.000000 
#    z 0.000000 0.000000 3.755040 
# 
# 
# High freq. dielectric constant tensor:
#      x y z
#    x 1.668470 0.000000 0.000000 
#    y 0.000000 1.726770 0.000000 
#    z 0.000000 0.000000 1.736560 
# 
# From -- ./inp_files/31845.got.cif
#   From: 2010.03.12/outbox.cif.g09.slc.cpg/sg59_16_cif.got.tgz:31845.got - 2010.04.16 16:29:54.
