data_PCOD8242715
_publ_section_title
;
Structure prediction by ZEFSAII (Michael W. Deem and Ramdas Pophale) SiO2 
 PCOD8242715
Probable space group: P M M N
;
_chemical_formula_sum "Si O2"
_cell_formula_units_Z 48
_cell_length_a 9.760271
_cell_length_b 12.402226
_cell_length_c 22.406277
_cell_angle_alpha 90.000000
_cell_angle_beta 90.000000
_cell_angle_gamma 90.000000
_cell_volume 2712.259369
_symmetry_space_group_name_H-M "P M M N"
_symmetry_group_IT_number 59
_space_group.IT_coordinate_system_code '2'
_symmetry_cell_setting 'orthorhombic'
loop_
_space_group_symop_operation_xyz
x,y,z
1/2-x,1/2-y,z
1/2+x,-y,-z
-x,1/2+y,-z
-x,-y,-z
1/2+x,1/2+y,-z
1/2-x,y,z
x,1/2-y,z
loop_
_atom_site_type_symbol
_atom_site_label
_atom_site_fract_x
_atom_site_fract_y
_atom_site_fract_z
Si Si1 0.900429 0.368055 0.998467
Si Si2 0.910253 0.954579 0.091438
Si Si3 0.587740 0.477140 0.442097
Si Si4 0.912999 0.016558 0.222041
Si Si5 0.586539 0.250000 0.256860
Si Si6 0.587784 0.627123 0.331631
Si Si7 0.088632 0.750000 0.610453
O O1 0.750000 0.406775 0.976510
O O2 0.892834 0.250000 0.026143
O O3 0.002592 0.362972 0.941746
O O4 0.950028 0.438972 0.054090
O O5 0.750000 0.926047 0.089368
O O6 0.961437 0.967354 0.159165
O O7 0.500000 0.500000 0.500000
O O8 0.750000 0.482943 0.455656
O O9 0.545848 0.564316 0.391795
O O10 0.540990 0.357652 0.422977
O O11 0.750000 0.019599 0.225998
O O12 0.968322 0.139863 0.226171
O O13 0.971076 0.940054 0.274965
O O14 0.750000 0.250000 0.256533
O O15 0.525893 0.250000 0.323548
O O16 0.750000 0.631912 0.326350
O O17 0.528661 0.750000 0.332368
O O18 0.250000 0.750000 0.616929
#
# Coordination Sequence:
#
# PCOD8242715 Si02
#       7
#     8   8   8   8   4   8   4
#     4   9  18  32  47  65  95 132 162 190 231 284
#     4   9  18  30  47  73  97 119 155 201 240 277
#     4  10  20  33  50  72  97 128 162 197 236 281
#     4   9  16  26  44  71  96 120 152 196 243 280
#     4   9  14  24  44  69  97 121 148 191 242 288
#     4   9  17  29  44  66  98 128 153 188 238 289
#     4   9  16  30  49  71  99 127 158 195 238 286
#
# _framework density 17.697423000000001
#
# number of rings (size 3 to 8) (size 9 to 14) (size 15 to 20)
#    0.000    2.833    1.667    0.000    2.333    1.000 
#    0.000    1.667    0.000    1.000    0.000    0.000 
#    0.000    0.000    0.000    0.000    0.000    0.000 
#
# Total GULP energy -594795.066018 kJ/mol
# GULP energy per Si atom -12391.563875 kJ/mol
# Density = 1.765714 g / cm^3
# Si number density = 17.697423 Si / 1000 Ang^3
#
#
#
# Elastic Constant Matrix: (Units=GPa)
#
#
# Indices 1 2 3 4 5 6 
#
# 1 25.0264 12.8522 30.2416 0.0000 0.0000 0.0000
# 2 12.8522 117.4730 43.2988 0.0000 0.0000 0.0000
# 3 30.2416 43.2988 134.1138 0.0000 0.0000 0.0000
# 4 0.0000 0.0000 0.0000 19.6218 0.0000 0.0000
# 5 0.0000 0.0000 0.0000 0.0000 22.0020 0.0000
# 6 0.0000 0.0000 0.0000 0.0000 0.0000 11.3727
#
#
#
# Elastic Compliance Matrix: (Units=1/GPa)
#
#
# Indices 1 2 3 4 5 6 
#
# 1 0.055203 -0.001647 -0.011916 0.000000 0.000000 0.000000
# 2 -0.001647 0.009712 -0.002764 0.000000 0.000000 0.000000
# 3 -0.011916 -0.002764 0.011036 0.000000 0.000000 0.000000
# 4 0.000000 0.000000 0.000000 0.050964 0.000000 0.000000
# 5 0.000000 0.000000 0.000000 0.000000 0.045450 0.000000
# 6 0.000000 0.000000 0.000000 0.000000 0.000000 0.087930
#
#
# Mechanical properties :
#
#
# Convention : Reuss Voigt Hill
#
# Bulk Modulus (GPa) = 23.09710 49.93314 36.51512
# Shear Modulus (GPa) = 16.26647 23.28067 19.77357
#
# Velocity S-wave (km/s) = 3.03503 3.63089 3.34625
# Velocity P-wave (km/s) = 5.03600 6.77156 5.96722
#
# Compressibility (1/GPa) = 0.04329548
#
# Stress axis : x y z
#
# Youngs Moduli (GPa) = 18.11501 102.96997 90.61562
#
# Poissons Ratio (x) = 0.16964 1.07977
# Poissons Ratio (y) = 0.02984 0.25045
# Poissons Ratio (z) = 0.21586 0.28460
#
# Static dielectric constant tensor:
#      x y z
#    x 2.818640 0.000000 0.000000 
#    y 0.000000 3.695810 0.000000 
#    z 0.000000 0.000000 3.368260 
# 
# 
# High freq. dielectric constant tensor:
#      x y z
#    x 1.619540 0.000000 0.000000 
#    y 0.000000 1.698460 0.000000 
#    z 0.000000 0.000000 1.688820 
# 
# From -- ./inp_files/30009.got.cif
#   From: 2010.03.12/outbox.cif.g09.slc.cpg/sg59_16_cif.got.tgz:30009.got - 2010.04.16 16:29:54.
