data_PCOD8242992
_publ_section_title
;
Structure prediction by ZEFSAII (Michael W. Deem and Ramdas Pophale) SiO2 
 PCOD8242992
Probable space group: P M M N
;
_chemical_formula_sum "Si O2"
_cell_formula_units_Z 64
_cell_length_a 9.155482
_cell_length_b 18.387213
_cell_length_c 20.439830
_cell_angle_alpha 90.000000
_cell_angle_beta 90.000000
_cell_angle_gamma 90.000000
_cell_volume 3440.918606
_symmetry_space_group_name_H-M "P M M N"
_symmetry_group_IT_number 59
_space_group.IT_coordinate_system_code '2'
_symmetry_cell_setting 'orthorhombic'
loop_
_space_group_symop_operation_xyz
x,y,z
1/2-x,1/2-y,z
1/2+x,-y,-z
-x,1/2+y,-z
-x,-y,-z
1/2+x,1/2+y,-z
1/2-x,y,z
x,1/2-y,z
loop_
_atom_site_type_symbol
_atom_site_label
_atom_site_fract_x
_atom_site_fract_y
_atom_site_fract_z
Si Si1 0.588141 0.836395 0.005359
Si Si2 0.419467 0.924400 0.750514
Si Si3 0.421345 0.903874 0.378735
Si Si4 0.079740 0.093253 0.752995
Si Si5 0.414022 0.663604 0.128838
Si Si6 0.420059 0.334346 0.140716
Si Si7 0.417951 0.334210 0.502983
Si Si8 0.420149 0.428563 0.380047
O O1 0.750000 0.867358 0.020796
O O2 0.595119 0.750000 0.007087
O O3 0.538491 0.860402 0.932729
O O4 0.475789 0.866235 0.059614
O O5 0.250000 0.907280 0.743535
O O6 0.482450 0.879917 0.810473
O O7 0.495044 0.899724 0.683291
O O8 0.450894 0.008586 0.764479
O O9 0.250000 0.890626 0.371159
O O10 0.498215 0.879277 0.311875
O O11 0.481980 0.853236 0.435730
O O12 0.458409 0.987613 0.395128
O O13 0.250000 0.110648 0.745255
O O14 0.017678 0.136845 0.813883
O O15 0.250000 0.633124 0.137818
O O16 0.414318 0.750000 0.129238
O O17 0.250000 0.348964 0.154514
O O18 0.457597 0.250000 0.150538
O O19 0.250000 0.353044 0.519814
O O20 0.437130 0.250000 0.485087
O O21 0.472547 0.381075 0.441375
O O22 0.250000 0.417743 0.365826
#
# Coordination Sequence:
#
# PCOD8242992 Si02
#       8
#     8   8   8   8   8   8   8   8
#     4   8  15  30  51  74 101 135 174 211 251 306
#     4  10  21  35  53  79 107 135 172 218 262 303
#     4  10  20  35  56  78 101 133 172 213 255 300
#     4  10  21  37  55  75 103 139 176 212 254 309
#     4  10  20  33  52  79 106 132 168 216 265 309
#     4   9  18  33  54  78 104 138 177 213 254 309
#     4  10  21  36  54  78 107 136 167 206 252 303
#     4   9  19  36  56  76 101 137 176 209 248 305
#
# _framework density 18.599684
#
# number of rings (size 3 to 8) (size 9 to 14) (size 15 to 20)
#    0.000    2.500    0.000    2.625    0.000    5.250 
#    0.000    3.125    0.000    0.000    0.000    0.000 
#    0.000    0.000    0.000    0.000    0.000    0.000 
#
# Total GULP energy -793727.792036 kJ/mol
# GULP energy per Si atom -12401.996751 kJ/mol
# Density = 1.855735 g / cm^3
# Si number density = 18.599684 Si / 1000 Ang^3
#
#
#
# Elastic Constant Matrix: (Units=GPa)
#
#
# Indices 1 2 3 4 5 6 
#
# 1 88.8530 25.3168 57.8128 0.0000 0.0000 0.0000
# 2 25.3168 33.4194 31.7612 0.0000 0.0000 0.0000
# 3 57.8128 31.7612 129.6969 0.0000 0.0000 0.0000
# 4 0.0000 0.0000 0.0000 35.2744 0.0000 0.0000
# 5 0.0000 0.0000 0.0000 0.0000 31.3449 0.0000
# 6 0.0000 0.0000 0.0000 0.0000 0.0000 27.1249
#
#
#
# Elastic Compliance Matrix: (Units=1/GPa)
#
#
# Indices 1 2 3 4 5 6 
#
# 1 0.017174 -0.007474 -0.005825 0.000000 0.000000 0.000000
# 2 -0.007474 0.042252 -0.007015 0.000000 0.000000 0.000000
# 3 -0.005825 -0.007015 0.012025 0.000000 0.000000 0.000000
# 4 0.000000 0.000000 0.000000 0.028349 0.000000 0.000000
# 5 0.000000 0.000000 0.000000 0.000000 0.031903 0.000000
# 6 0.000000 0.000000 0.000000 0.000000 0.000000 0.036866
#
#
# Mechanical properties :
#
#
# Convention : Reuss Voigt Hill
#
# Bulk Modulus (GPa) = 32.44467 53.52788 42.98627
# Shear Modulus (GPa) = 22.78179 27.88741 25.33460
#
# Velocity S-wave (km/s) = 3.50358 3.87634 3.69467
# Velocity P-wave (km/s) = 5.81793 6.99115 6.43135
#
# Compressibility (1/GPa) = 0.03082171
#
# Stress axis : x y z
#
# Youngs Moduli (GPa) = 58.22628 23.66749 83.16123
#
# Poissons Ratio (x) = 0.17690 0.48443
# Poissons Ratio (y) = 0.43520 0.58340
# Poissons Ratio (z) = 0.33918 0.16604
#
# Static dielectric constant tensor:
#      x y z
#    x 3.583650 0.000000 0.000000 
#    y 0.000000 3.196990 0.000000 
#    z 0.000000 0.000000 3.573580 
# 
# 
# High freq. dielectric constant tensor:
#      x y z
#    x 1.726980 0.000000 0.000000 
#    y 0.000000 1.699220 0.000000 
#    z 0.000000 0.000000 1.734060 
# 
# From -- ./inp_files/28256.got.cif
#   From: 2010.03.12/outbox.cif.g09.slc.cpg/sg59_15_cif.got.tgz:28256.got - 2010.04.16 16:29:54.
