data_PCOD8242937
_publ_section_title
;
Structure prediction by ZEFSAII (Michael W. Deem and Ramdas Pophale) SiO2 
 PCOD8242937
Probable space group: P M M N
;
_chemical_formula_sum "Si O2"
_cell_formula_units_Z 64
_cell_length_a 14.082138
_cell_length_b 9.056499
_cell_length_c 26.824307
_cell_angle_alpha 90.000000
_cell_angle_beta 90.000000
_cell_angle_gamma 90.000000
_cell_volume 3421.034472
_symmetry_space_group_name_H-M "P M M N"
_symmetry_group_IT_number 59
_space_group.IT_coordinate_system_code '2'
_symmetry_cell_setting 'orthorhombic'
loop_
_space_group_symop_operation_xyz
x,y,z
1/2-x,1/2-y,z
1/2+x,-y,-z
-x,1/2+y,-z
-x,-y,-z
1/2+x,1/2+y,-z
1/2-x,y,z
x,1/2-y,z
loop_
_atom_site_type_symbol
_atom_site_label
_atom_site_fract_x
_atom_site_fract_y
_atom_site_fract_z
Si Si1 0.138707 0.921167 0.132678
Si Si2 0.043822 0.077328 0.426617
Si Si3 0.443858 0.574604 0.236800
Si Si4 0.851930 0.923469 0.224343
Si Si5 0.857986 0.078852 0.483819
Si Si6 0.357582 0.924055 0.338359
Si Si7 0.020315 0.078621 0.051553
Si Si8 0.145359 0.586675 0.874909
O O1 0.250000 0.944043 0.139074
O O2 0.112166 0.750000 0.125685
O O3 0.090268 0.988179 0.183185
O O4 0.105689 0.007979 0.083481
O O5 0.061798 0.250000 0.422313
O O6 0.933450 0.041866 0.439991
O O7 0.115772 0.015673 0.467947
O O8 0.067372 0.002873 0.374196
O O9 0.439574 0.750000 0.232633
O O10 0.551638 0.520444 0.251090
O O11 0.376679 0.521267 0.281814
O O12 0.750000 0.991153 0.244206
O O13 0.845307 0.750000 0.229537
O O14 0.865823 0.962859 0.166788
O O15 0.750000 0.040811 0.466489
O O16 0.866136 0.250000 0.499083
O O17 0.250000 0.967477 0.352702
O O18 0.373850 0.750000 0.343080
O O19 0.043624 0.250000 0.042706
O O20 0.924021 0.050445 0.080765
O O21 0.000000 0.000000 0.000000
O O22 0.250000 0.580731 0.898414
O O23 0.125139 0.750000 0.851937
#
# Coordination Sequence:
#
# PCOD8242937 Si02
#       8
#     8   8   8   8   8   8   8   8
#     4  10  20  36  58  80 104 137 176 217 262 312
#     4  10  20  33  51  78 109 138 175 227 275 312
#     4   9  17  32  54  78 104 136 177 216 254 309
#     4   9  16  28  51  79 101 123 158 207 256 299
#     4   9  18  34  55  76 102 141 183 219 264 326
#     4  10  20  34  52  74 104 145 186 219 258 314
#     4  11  23  37  54  77 106 137 170 211 260 314
#     4   9  18  33  52  73  97 126 160 199 246 301
#
# _framework density 18.707792000000001
#
# number of rings (size 3 to 8) (size 9 to 14) (size 15 to 20)
#    0.000    2.375    1.250    1.500    0.000    5.250 
#    0.000    3.125    0.000    2.250    0.000    0.000 
#    0.000    0.000    0.000    0.000    0.000    0.000 
#
# Total GULP energy -793145.760777 kJ/mol
# GULP energy per Si atom -12392.902512 kJ/mol
# Density = 1.866521 g / cm^3
# Si number density = 18.707792 Si / 1000 Ang^3
#
#
#
# Elastic Constant Matrix: (Units=GPa)
#
#
# Indices 1 2 3 4 5 6 
#
# 1 125.1735 36.7308 42.9105 0.0000 0.0000 0.0000
# 2 36.7308 43.6995 29.1869 0.0000 0.0000 0.0000
# 3 42.9105 29.1869 95.6443 0.0000 0.0000 0.0000
# 4 0.0000 0.0000 0.0000 24.3259 0.0000 0.0000
# 5 0.0000 0.0000 0.0000 0.0000 27.2887 0.0000
# 6 0.0000 0.0000 0.0000 0.0000 0.0000 24.4429
#
#
#
# Elastic Compliance Matrix: (Units=1/GPa)
#
#
# Indices 1 2 3 4 5 6 
#
# 1 0.011128 -0.007560 -0.002686 0.000000 0.000000 0.000000
# 2 -0.007560 0.033877 -0.006946 0.000000 0.000000 0.000000
# 3 -0.002686 -0.006946 0.013780 0.000000 0.000000 0.000000
# 4 0.000000 0.000000 0.000000 0.041109 0.000000 0.000000
# 5 0.000000 0.000000 0.000000 0.000000 0.036645 0.000000
# 6 0.000000 0.000000 0.000000 0.000000 0.000000 0.040912
#
#
# Mechanical properties :
#
#
# Convention : Reuss Voigt Hill
#
# Bulk Modulus (GPa) = 40.98043 53.57485 47.27764
# Shear Modulus (GPa) = 22.73065 25.59077 24.16071
#
# Velocity S-wave (km/s) = 3.48952 3.70255 3.59761
# Velocity P-wave (km/s) = 6.17970 6.85408 6.52561
#
# Compressibility (1/GPa) = 0.02440189
#
# Stress axis : x y z
#
# Youngs Moduli (GPa) = 89.86475 29.51848 72.56876
#
# Poissons Ratio (x) = 0.22315 0.19489
# Poissons Ratio (y) = 0.67934 0.50409
# Poissons Ratio (z) = 0.24134 0.20505
#
# Static dielectric constant tensor:
#      x y z
#    x 3.899260 0.000000 0.000000 
#    y 0.000000 3.385060 0.000000 
#    z 0.000000 0.000000 3.276130 
# 
# 
# High freq. dielectric constant tensor:
#      x y z
#    x 1.746190 0.000000 0.000000 
#    y 0.000000 1.708110 0.000000 
#    z 0.000000 0.000000 1.703730 
# 
# From -- ./inp_files/32222.got.cif
#   From: 2010.03.12/outbox.cif.g09.slc.cpg/sg59_17_cif.got.tgz:32222.got - 2010.04.16 16:29:54.
