data_PCOD8242055
_publ_section_title
;
Structure prediction by ZEFSAII (Michael W. Deem and Ramdas Pophale) SiO2 
 PCOD8242055
Probable space group: P M M N
;
_chemical_formula_sum "Si O2"
_cell_formula_units_Z 64
_cell_length_a 18.112007
_cell_length_b 14.589075
_cell_length_c 11.283415
_cell_angle_alpha 90.000000
_cell_angle_beta 90.000000
_cell_angle_gamma 90.000000
_cell_volume 2981.500565
_symmetry_space_group_name_H-M "P M M N"
_symmetry_group_IT_number 59
_space_group.IT_coordinate_system_code '2'
_symmetry_cell_setting 'orthorhombic'
loop_
_space_group_symop_operation_xyz
x,y,z
1/2-x,1/2-y,z
1/2+x,-y,-z
-x,1/2+y,-z
-x,-y,-z
1/2+x,1/2+y,-z
1/2-x,y,z
x,1/2-y,z
loop_
_atom_site_type_symbol
_atom_site_label
_atom_site_fract_x
_atom_site_fract_y
_atom_site_fract_z
Si Si1 0.411235 0.970238 0.638923
Si Si2 0.162223 0.641162 0.437265
Si Si3 0.663180 0.649997 0.338467
Si Si4 0.446750 0.853097 0.041973
Si Si5 0.927722 0.848904 0.868108
Si Si6 0.332129 0.579514 0.879279
Si Si7 0.433487 0.523139 0.265917
Si Si8 0.169502 0.124971 0.921218
O O1 0.389010 0.891111 0.546463
O O2 0.381254 0.929921 0.761869
O O3 0.373447 0.065047 0.592808
O O4 0.498247 0.995060 0.647936
O O5 0.250000 0.620659 0.455144
O O6 0.150016 0.750000 0.416922
O O7 0.130858 0.583230 0.326337
O O8 0.750000 0.630610 0.336901
O O9 0.645055 0.750000 0.395824
O O10 0.630527 0.647911 0.204570
O O11 0.463830 0.750000 0.084348
O O12 0.460629 0.919703 0.152312
O O13 0.499495 0.885740 0.934810
O O14 0.366020 0.855271 0.980775
O O15 0.941651 0.750000 0.803968
O O16 0.899887 0.925285 0.775564
O O17 0.869396 0.827251 0.970078
O O18 0.250000 0.614901 0.844741
O O19 0.327832 0.482676 0.944342
O O20 0.250000 0.168828 0.914466
#
# Coordination Sequence:
#
# PCOD8242055 Si02
#       8
#     8   8   8   8   8   8   8   8
#     4  11  22  41  69  93 125 167 219 282 337 384
#     4  11  27  50  72  95 126 171 225 278 336 401
#     4   9  17  30  53  89 127 160 203 258 315 378
#     4  11  22  37  60  95 137 179 217 261 325 393
#     4  11  22  36  58  89 128 170 208 258 319 383
#     4  10  19  34  60  93 131 174 219 269 325 382
#     4  12  24  42  67  94 131 175 217 274 328 399
#     4   9  17  30  51  81 119 164 206 246 302 377
#
# _framework density 21.465700999999999
#
# number of rings (size 3 to 8) (size 9 to 14) (size 15 to 20)
#    0.000    1.500    2.500    4.875    0.000    5.000 
#    0.000    0.625    0.000    0.750    0.000    0.000 
#    0.000    0.000    0.000    0.000    0.000    0.000 
#
# Total GULP energy -792961.810912 kJ/mol
# GULP energy per Si atom -12390.028296 kJ/mol
# Density = 2.141684 g / cm^3
# Si number density = 21.465701 Si / 1000 Ang^3
#
#
#
# Elastic Constant Matrix: (Units=GPa)
#
#
# Indices 1 2 3 4 5 6 
#
# 1 76.8677 24.3945 17.4624 0.0000 0.0000 0.0000
# 2 24.3945 130.6956 48.9078 0.0000 0.0000 0.0000
# 3 17.4624 48.9078 56.1833 0.0000 0.0000 0.0000
# 4 0.0000 0.0000 0.0000 27.2855 0.0000 0.0000
# 5 0.0000 0.0000 0.0000 0.0000 28.7831 0.0000
# 6 0.0000 0.0000 0.0000 0.0000 0.0000 36.9433
#
#
#
# Elastic Compliance Matrix: (Units=1/GPa)
#
#
# Indices 1 2 3 4 5 6 
#
# 1 0.014188 -0.001480 -0.003121 0.000000 0.000000 0.000000
# 2 -0.001480 0.011502 -0.009553 0.000000 0.000000 0.000000
# 3 -0.003121 -0.009553 0.027085 0.000000 0.000000 0.000000
# 4 0.000000 0.000000 0.000000 0.036649 0.000000 0.000000
# 5 0.000000 0.000000 0.000000 0.000000 0.034743 0.000000
# 6 0.000000 0.000000 0.000000 0.000000 0.000000 0.027069
#
#
# Mechanical properties :
#
#
# Convention : Reuss Voigt Hill
#
# Bulk Modulus (GPa) = 40.87189 49.47510 45.17349
# Shear Modulus (GPa) = 26.63820 30.13451 28.38636
#
# Velocity S-wave (km/s) = 3.52656 3.75086 3.64043
# Velocity P-wave (km/s) = 5.97194 6.46970 6.22580
#
# Compressibility (1/GPa) = 0.02446669
#
# Stress axis : x y z
#
# Youngs Moduli (GPa) = 70.48104 86.93820 36.92108
#
# Poissons Ratio (x) = 0.12869 0.11524
# Poissons Ratio (y) = 0.10433 0.35270
# Poissons Ratio (z) = 0.21999 0.83051
#
# Static dielectric constant tensor:
#      x y z
#    x 4.019140 0.000000 0.000000 
#    y 0.000000 4.036420 0.000000 
#    z 0.000000 0.000000 3.528030 
# 
# 
# High freq. dielectric constant tensor:
#      x y z
#    x 1.836770 0.000000 0.000000 
#    y 0.000000 1.859080 0.000000 
#    z 0.000000 0.000000 1.805880 
# 
# From -- ./inp_files/17822.got.cif
#   From: 2010.03.12/outbox.cif.g09.slc.cpg/sg59_9_cif.got.tgz:17822.got - 2010.04.16 16:29:54.
