data_PCOD8242459
_publ_section_title
;
Structure prediction by ZEFSAII (Michael W. Deem and Ramdas Pophale) SiO2 
 PCOD8242459
Probable space group: P M M N
;
_chemical_formula_sum "Si O2"
_cell_formula_units_Z 48
_cell_length_a 13.250486
_cell_length_b 12.666091
_cell_length_c 15.564452
_cell_angle_alpha 90.000000
_cell_angle_beta 90.000000
_cell_angle_gamma 90.000000
_cell_volume 2612.210952
_symmetry_space_group_name_H-M "P M M N"
_symmetry_group_IT_number 59
_space_group.IT_coordinate_system_code '2'
_symmetry_cell_setting 'orthorhombic'
loop_
_space_group_symop_operation_xyz
x,y,z
1/2-x,1/2-y,z
1/2+x,-y,-z
-x,1/2+y,-z
-x,-y,-z
1/2+x,1/2+y,-z
1/2-x,y,z
x,1/2-y,z
loop_
_atom_site_type_symbol
_atom_site_label
_atom_site_fract_x
_atom_site_fract_y
_atom_site_fract_z
Si Si1 0.631798 0.627232 0.501777
Si Si2 0.863384 0.366969 0.287067
Si Si3 0.136396 0.494625 0.877528
Si Si4 0.989422 0.485006 0.625371
Si Si5 0.132988 0.867100 0.030113
Si Si6 0.465496 0.628814 0.201118
O O1 0.750000 0.608605 0.476037
O O2 0.618239 0.750000 0.530543
O O3 0.551994 0.606221 0.424579
O O4 0.602565 0.541357 0.575088
O O5 0.750000 0.369212 0.322688
O O6 0.906502 0.250000 0.279131
O O7 0.869020 0.414371 0.192717
O O8 0.929137 0.425322 0.357357
O O9 0.250000 0.453238 0.892011
O O10 0.072816 0.395162 0.844060
O O11 0.088601 0.545544 0.964395
O O12 0.944216 0.438584 0.713535
O O13 0.250000 0.859532 0.009021
O O14 0.083887 0.750000 0.016347
O O15 0.117733 0.901300 0.129343
O O16 0.461620 0.750000 0.228359
#
# Coordination Sequence:
#
# PCOD8242459 Si02
#       6
#     8   8   8   8   8   8
#     4  10  21  37  56  75  97 128 164 203 252 310
#     4   9  16  27  46  72  99 125 157 199 243 286
#     4   9  17  29  46  69  97 131 167 200 236 280
#     4  10  20  34  52  74 100 127 162 204 250 303
#     4   9  17  30  48  69  95 128 165 203 242 284
#     4  10  20  32  48  72 100 130 164 202 244 289
#
# _framework density 18.375239000000001
#
# number of rings (size 3 to 8) (size 9 to 14) (size 15 to 20)
#    0.000    2.500    0.000    2.500    0.000    3.667 
#    0.000    0.000    0.000   10.500    0.000    0.000 
#    0.000    0.000    0.000    0.000    0.000    0.000 
#
# Total GULP energy -594845.042164 kJ/mol
# GULP energy per Si atom -12392.605045 kJ/mol
# Density = 1.833342 g / cm^3
# Si number density = 18.375239 Si / 1000 Ang^3
#
#
#
# Elastic Constant Matrix: (Units=GPa)
#
#
# Indices 1 2 3 4 5 6 
#
# 1 43.6857 18.2250 11.3171 0.0000 0.0000 0.0000
# 2 18.2250 56.6862 9.0012 0.0000 0.0000 0.0000
# 3 11.3171 9.0012 74.1837 0.0000 0.0000 0.0000
# 4 0.0000 0.0000 0.0000 22.8619 0.0000 0.0000
# 5 0.0000 0.0000 0.0000 0.0000 29.1565 0.0000
# 6 0.0000 0.0000 0.0000 0.0000 0.0000 23.5295
#
#
#
# Elastic Compliance Matrix: (Units=1/GPa)
#
#
# Indices 1 2 3 4 5 6 
#
# 1 0.027136 -0.008226 -0.003142 0.000000 0.000000 0.000000
# 2 -0.008226 0.020481 -0.001230 0.000000 0.000000 0.000000
# 3 -0.003142 -0.001230 0.014109 0.000000 0.000000 0.000000
# 4 0.000000 0.000000 0.000000 0.043741 0.000000 0.000000
# 5 0.000000 0.000000 0.000000 0.000000 0.034298 0.000000
# 6 0.000000 0.000000 0.000000 0.000000 0.000000 0.042500
#
#
# Mechanical properties :
#
#
# Convention : Reuss Voigt Hill
#
# Bulk Modulus (GPa) = 27.37427 27.96027 27.66727
# Shear Modulus (GPa) = 22.76490 24.17705 23.47098
#
# Velocity S-wave (km/s) = 3.52361 3.63125 3.57783
# Velocity P-wave (km/s) = 5.61107 5.72980 5.67075
#
# Compressibility (1/GPa) = 0.03653065
#
# Stress axis : x y z
#
# Youngs Moduli (GPa) = 36.85103 48.82588 70.87870
#
# Poissons Ratio (x) = 0.40162 0.22268
# Poissons Ratio (y) = 0.30312 0.08720
# Poissons Ratio (z) = 0.11578 0.06007
#
# Static dielectric constant tensor:
#      x y z
#    x 3.401970 0.000000 0.000000 
#    y 0.000000 3.399960 0.000000 
#    z 0.000000 0.000000 3.430510 
# 
# 
# High freq. dielectric constant tensor:
#      x y z
#    x 1.695560 0.000000 0.000000 
#    y 0.000000 1.711690 0.000000 
#    z 0.000000 0.000000 1.714560 
# 
# From -- ./inp_files/22390.got.cif
#   From: 2010.03.12/outbox.cif.g09.slc.cpg/sg59_12_cif.got.tgz:22390.got - 2010.04.16 16:29:54.
