data_PCOD8242982
_publ_section_title
;
Structure prediction by ZEFSAII (Michael W. Deem and Ramdas Pophale) SiO2 
 PCOD8242982
Probable space group: P M M N
;
_chemical_formula_sum "Si O2"
_cell_formula_units_Z 64
_cell_length_a 14.983889
_cell_length_b 9.153127
_cell_length_c 23.892309
_cell_angle_alpha 90.000000
_cell_angle_beta 90.000000
_cell_angle_gamma 90.000000
_cell_volume 3276.816775
_symmetry_space_group_name_H-M "P M M N"
_symmetry_group_IT_number 59
_space_group.IT_coordinate_system_code '2'
_symmetry_cell_setting 'orthorhombic'
loop_
_space_group_symop_operation_xyz
x,y,z
1/2-x,1/2-y,z
1/2+x,-y,-z
-x,1/2+y,-z
-x,-y,-z
1/2+x,1/2+y,-z
1/2-x,y,z
x,1/2-y,z
loop_
_atom_site_type_symbol
_atom_site_label
_atom_site_fract_x
_atom_site_fract_y
_atom_site_fract_z
Si Si1 0.355424 0.917530 0.815045
Si Si2 0.651097 0.593936 0.083608
Si Si3 0.350374 0.078050 0.568901
Si Si4 0.485735 0.924253 0.236151
Si Si5 0.580371 0.917375 0.970638
Si Si6 0.515496 0.077369 0.638312
Si Si7 0.146176 0.076474 0.149559
Si Si8 0.852275 0.079322 0.544415
O O1 0.250000 0.939803 0.803404
O O2 0.382952 0.750000 0.807400
O O3 0.388224 0.963770 0.878119
O O4 0.413591 0.018453 0.774254
O O5 0.750000 0.613960 0.106360
O O6 0.599747 0.750000 0.093695
O O7 0.656991 0.561120 0.017408
O O8 0.250000 0.029888 0.585749
O O9 0.356147 0.250000 0.558632
O O10 0.416891 0.026795 0.618210
O O11 0.381499 0.002265 0.511789
O O12 0.483725 0.750000 0.229155
O O13 0.463431 0.976961 0.299130
O O14 0.412116 0.996155 0.196215
O O15 0.553493 0.750000 0.961711
O O16 0.613338 0.981501 0.911454
O O17 0.500000 0.000000 0.000000
O O18 0.520038 0.250000 0.637980
O O19 0.589766 0.015580 0.595751
O O20 0.250000 0.034170 0.157252
O O21 0.133478 0.250000 0.154601
O O22 0.750000 0.046773 0.559401
O O23 0.870096 0.250000 0.534878
#
# Coordination Sequence:
#
# PCOD8242982 Si02
#       8
#     8   8   8   8   8   8   8   8
#     4  10  21  37  56  79 110 146 181 223 281 344
#     4   9  17  31  52  76  99 125 163 210 258 314
#     4   9  17  31  52  78 107 136 167 207 257 315
#     4  11  23  38  57  81 108 143 192 241 277 318
#     4  10  20  33  52  78 106 136 171 215 270 330
#     4   9  19  34  52  75 103 138 178 218 263 314
#     4  10  22  41  61  80 110 153 193 231 281 336
#     4   9  17  31  52  77 105 136 169 208 258 314
#
# _framework density 19.53115
#
# number of rings (size 3 to 8) (size 9 to 14) (size 15 to 20)
#    0.000    2.375    0.000    2.250    0.000    6.500 
#    0.000    5.000    0.000    5.250    0.000    0.000 
#    0.000    0.000    0.000    0.000    0.000    0.000 
#
# Total GULP energy -793028.508455 kJ/mol
# GULP energy per Si atom -12391.070445 kJ/mol
# Density = 1.948670 g / cm^3
# Si number density = 19.531150 Si / 1000 Ang^3
#
#
#
# Elastic Constant Matrix: (Units=GPa)
#
#
# Indices 1 2 3 4 5 6 
#
# 1 103.2541 37.4684 60.7071 0.0000 0.0000 0.0000
# 2 37.4684 55.0260 38.4838 0.0000 0.0000 0.0000
# 3 60.7071 38.4838 139.1744 0.0000 0.0000 0.0000
# 4 0.0000 0.0000 0.0000 28.3535 0.0000 0.0000
# 5 0.0000 0.0000 0.0000 0.0000 27.6707 0.0000
# 6 0.0000 0.0000 0.0000 0.0000 0.0000 26.4405
#
#
#
# Elastic Compliance Matrix: (Units=1/GPa)
#
#
# Indices 1 2 3 4 5 6 
#
# 1 0.014895 -0.006941 -0.004578 0.000000 0.000000 0.000000
# 2 -0.006941 0.025764 -0.004097 0.000000 0.000000 0.000000
# 3 -0.004578 -0.004097 0.010315 0.000000 0.000000 0.000000
# 4 0.000000 0.000000 0.000000 0.035269 0.000000 0.000000
# 5 0.000000 0.000000 0.000000 0.000000 0.036139 0.000000
# 6 0.000000 0.000000 0.000000 0.000000 0.000000 0.037821
#
#
# Mechanical properties :
#
#
# Convention : Reuss Voigt Hill
#
# Bulk Modulus (GPa) = 50.64918 63.41922 57.03420
# Shear Modulus (GPa) = 25.25058 27.21262 26.23160
#
# Velocity S-wave (km/s) = 3.59950 3.73673 3.66876
# Velocity P-wave (km/s) = 6.57754 7.15254 6.87106
#
# Compressibility (1/GPa) = 0.01974365
#
# Stress axis : x y z
#
# Youngs Moduli (GPa) = 67.13682 38.81324 96.94698
#
# Poissons Ratio (x) = 0.26939 0.44382
# Poissons Ratio (y) = 0.46597 0.39717
# Poissons Ratio (z) = 0.30735 0.15901
#
# Static dielectric constant tensor:
#      x y z
#    x -65.521810 0.000000 0.000000 
#    y 0.000000 3.515260 0.000000 
#    z 0.000000 0.000000 3.936810 
# 
# 
# High freq. dielectric constant tensor:
#      x y z
#    x 1.764760 0.000000 0.000000 
#    y 0.000000 1.743130 0.000000 
#    z 0.000000 0.000000 1.760230 
# 
# From -- ./inp_files/32257.got.cif
#   From: 2010.03.12/outbox.cif.g09.slc.cpg/sg59_17_cif.got.tgz:32257.got - 2010.04.16 16:29:54.
