data_PCOD8242578
_publ_section_title
;
Structure prediction by ZEFSAII (Michael W. Deem and Ramdas Pophale) SiO2 
 PCOD8242578
Probable space group: P M M N
;
_chemical_formula_sum "Si O2"
_cell_formula_units_Z 64
_cell_length_a 10.282590
_cell_length_b 26.669337
_cell_length_c 12.692041
_cell_angle_alpha 90.000000
_cell_angle_beta 90.000000
_cell_angle_gamma 90.000000
_cell_volume 3480.536600
_symmetry_space_group_name_H-M "P M M N"
_symmetry_group_IT_number 59
_space_group.IT_coordinate_system_code '2'
_symmetry_cell_setting 'orthorhombic'
loop_
_space_group_symop_operation_xyz
x,y,z
1/2-x,1/2-y,z
1/2+x,-y,-z
-x,1/2+y,-z
-x,-y,-z
1/2+x,1/2+y,-z
1/2-x,y,z
x,1/2-y,z
loop_
_atom_site_type_symbol
_atom_site_label
_atom_site_fract_x
_atom_site_fract_y
_atom_site_fract_z
Si Si1 0.986897 0.550337 0.267837
Si Si2 0.401009 0.905957 0.476682
Si Si3 0.899378 0.376819 0.110095
Si Si4 0.606682 0.655597 0.212190
Si Si5 0.399149 0.693869 0.369857
Si Si6 0.896888 0.691816 0.980077
Si Si7 0.898536 0.441040 0.304213
Si Si8 0.105506 0.963320 0.049316
O O1 0.894246 0.596486 0.237829
O O2 0.905426 0.499914 0.281529
O O3 0.055059 0.560990 0.378483
O O4 0.091345 0.542933 0.174812
O O5 0.250000 0.915360 0.487696
O O6 0.433559 0.846884 0.459801
O O7 0.468497 0.924898 0.585519
O O8 0.750000 0.358789 0.127969
O O9 0.956628 0.409726 0.206790
O O10 0.996108 0.329525 0.101011
O O11 0.908248 0.409181 0.003816
O O12 0.750000 0.675938 0.245267
O O13 0.494092 0.686102 0.271343
O O14 0.584754 0.663018 0.089288
O O15 0.250000 0.685929 0.331142
O O16 0.418038 0.750000 0.415718
O O17 0.750000 0.683352 0.936592
O O18 0.925393 0.750000 0.997751
O O19 0.750000 0.425262 0.311283
O O20 0.250000 0.985204 0.026682
O O21 0.000000 0.000000 0.000000
#
# Coordination Sequence:
#
# PCOD8242578 Si02
#       8
#     8   8   8   8   8   8   8   8
#     4  11  19  33  54  80 111 146 181 219 270 330
#     4   9  19  34  52  76 107 140 181 228 272 316
#     4  10  21  37  55  79 108 141 181 225 268 315
#     4  10  20  32  52  81 111 142 175 216 269 333
#     4   9  18  33  53  76 103 138 179 223 272 322
#     4  10  21  37  55  78 109 144 180 222 275 332
#     4  10  20  35  53  76 108 145 183 227 267 315
#     4  11  22  35  54  82 115 147 183 223 267 320
#
# _framework density 18.387968999999998
#
# number of rings (size 3 to 8) (size 9 to 14) (size 15 to 20)
#    0.000    2.000    2.500    1.500    0.000    3.000 
#    0.000    0.625    0.000    6.750    0.000    0.000 
#    0.000    0.000    0.000    0.000    0.000    0.000 
#
# Total GULP energy -793312.820456 kJ/mol
# GULP energy per Si atom -12395.512820 kJ/mol
# Density = 1.834612 g / cm^3
# Si number density = 18.387969 Si / 1000 Ang^3
#
#
#
# Elastic Constant Matrix: (Units=GPa)
#
#
# Indices 1 2 3 4 5 6 
#
# 1 81.6683 40.1314 32.5584 0.0000 0.0000 0.0000
# 2 40.1314 94.5386 49.0277 0.0000 0.0000 0.0000
# 3 32.5584 49.0277 115.8165 0.0000 0.0000 0.0000
# 4 0.0000 0.0000 0.0000 16.2275 0.0000 0.0000
# 5 0.0000 0.0000 0.0000 0.0000 19.5226 0.0000
# 6 0.0000 0.0000 0.0000 0.0000 0.0000 28.6179
#
#
#
# Elastic Compliance Matrix: (Units=1/GPa)
#
#
# Indices 1 2 3 4 5 6 
#
# 1 0.015846 -0.005659 -0.002059 0.000000 0.000000 0.000000
# 2 -0.005659 0.015574 -0.005002 0.000000 0.000000 0.000000
# 3 -0.002059 -0.005002 0.011331 0.000000 0.000000 0.000000
# 4 0.000000 0.000000 0.000000 0.061624 0.000000 0.000000
# 5 0.000000 0.000000 0.000000 0.000000 0.051223 0.000000
# 6 0.000000 0.000000 0.000000 0.000000 0.000000 0.034943
#
#
# Mechanical properties :
#
#
# Convention : Reuss Voigt Hill
#
# Bulk Modulus (GPa) = 57.76717 59.49538 58.63127
# Shear Modulus (GPa) = 22.54784 24.22733 23.38758
#
# Velocity S-wave (km/s) = 3.50555 3.63376 3.57023
# Velocity P-wave (km/s) = 6.91875 7.07329 6.99645
#
# Compressibility (1/GPa) = 0.01731087
#
# Stress axis : x y z
#
# Youngs Moduli (GPa) = 63.10618 64.21017 88.25593
#
# Poissons Ratio (x) = 0.36335 0.18174
# Poissons Ratio (y) = 0.35711 0.44145
# Poissons Ratio (z) = 0.12995 0.32118
#
# Static dielectric constant tensor:
#      x y z
#    x 3.364930 0.000000 0.000000 
#    y 0.000000 3.351760 0.000000 
#    z 0.000000 0.000000 3.603560 
# 
# 
# High freq. dielectric constant tensor:
#      x y z
#    x 1.703570 0.000000 0.000000 
#    y 0.000000 1.712660 0.000000 
#    z 0.000000 0.000000 1.703630 
# 
# From -- ./inp_files/16257.got.cif
#   From: 2010.03.12/outbox.cif.g09.slc.cpg/sg59_9_cif.got.tgz:16257.got - 2010.04.16 16:29:54.
