data_PCOD8242974
_publ_section_title
;
Structure prediction by ZEFSAII (Michael W. Deem and Ramdas Pophale) SiO2 
 PCOD8242974
Probable space group: P M M N
;
_chemical_formula_sum "Si O2"
_cell_formula_units_Z 56
_cell_length_a 18.005267
_cell_length_b 9.340950
_cell_length_c 18.740107
_cell_angle_alpha 90.000000
_cell_angle_beta 90.000000
_cell_angle_gamma 90.000000
_cell_volume 3151.829235
_symmetry_space_group_name_H-M "P M M N"
_symmetry_group_IT_number 59
_space_group.IT_coordinate_system_code '2'
_symmetry_cell_setting 'orthorhombic'
loop_
_space_group_symop_operation_xyz
x,y,z
1/2-x,1/2-y,z
1/2+x,-y,-z
-x,1/2+y,-z
-x,-y,-z
1/2+x,1/2+y,-z
1/2-x,y,z
x,1/2-y,z
loop_
_atom_site_type_symbol
_atom_site_label
_atom_site_fract_x
_atom_site_fract_y
_atom_site_fract_z
Si Si1 0.409234 0.415222 0.065224
Si Si2 0.544719 0.415452 0.712850
Si Si3 0.165205 0.584968 0.632445
Si Si4 0.033850 0.416444 0.565845
Si Si5 0.417757 0.912881 0.931707
Si Si6 0.587049 0.413820 0.224409
Si Si7 0.336157 0.417266 0.210866
O O1 0.392922 0.250000 0.052985
O O2 0.495410 0.449298 0.077705
O O3 0.363694 0.471523 0.133448
O O4 0.380327 0.493137 0.993569
O O5 0.552614 0.250000 0.733046
O O6 0.523564 0.436574 0.630427
O O7 0.482089 0.482958 0.762898
O O8 0.622246 0.495468 0.726948
O O9 0.250000 0.543492 0.616488
O O10 0.149076 0.750000 0.612192
O O11 0.113660 0.483523 0.584910
O O12 0.150431 0.559761 0.716662
O O13 0.045476 0.250000 0.546956
O O14 0.000000 0.500000 0.500000
O O15 0.406148 0.750000 0.954979
O O16 0.379935 0.945074 0.854615
O O17 0.557480 0.250000 0.227281
O O18 0.250000 0.451410 0.218942
O O19 0.353844 0.250000 0.220480
#
# Coordination Sequence:
#
# PCOD8242974 Si02
#       7
#     8   8   8   8   8   8   8
#     4   9  17  29  44  66  95 127 168 215 259 303
#     4  10  20  33  52  78 104 127 164 212 256 299
#     4   9  18  33  55  82 110 141 173 210 259 310
#     4  10  21  37  58  84 110 140 173 210 253 302
#     4   9  16  27  45  69  95 127 167 213 258 300
#     4   9  16  30  51  73 101 135 173 211 251 305
#     4  10  20  35  53  71  97 136 177 215 261 315
#
# _framework density 17.767461999999998
#
# number of rings (size 3 to 8) (size 9 to 14) (size 15 to 20)
#    0.000    2.571    1.429    0.857    0.000    3.429 
#    0.000    1.429    0.000    1.714    0.000    0.000 
#    0.000    0.000    0.000    0.000    0.000    0.000 
#
# Total GULP energy -694374.404633 kJ/mol
# GULP energy per Si atom -12399.542940 kJ/mol
# Density = 1.772702 g / cm^3
# Si number density = 17.767462 Si / 1000 Ang^3
#
#
#
# Elastic Constant Matrix: (Units=GPa)
#
#
# Indices 1 2 3 4 5 6 
#
# 1 95.4942 58.3947 49.5476 0.0000 0.0000 0.0000
# 2 58.3947 97.1598 63.9099 0.0000 0.0000 0.0000
# 3 49.5476 63.9099 107.6548 0.0000 0.0000 0.0000
# 4 0.0000 0.0000 0.0000 33.2472 0.0000 0.0000
# 5 0.0000 0.0000 0.0000 0.0000 21.2460 0.0000
# 6 0.0000 0.0000 0.0000 0.0000 0.0000 22.4108
#
#
#
# Elastic Compliance Matrix: (Units=1/GPa)
#
#
# Indices 1 2 3 4 5 6 
#
# 1 0.017092 -0.008364 -0.002901 0.000000 0.000000 0.000000
# 2 -0.008364 0.020980 -0.008605 0.000000 0.000000 0.000000
# 3 -0.002901 -0.008605 0.015733 0.000000 0.000000 0.000000
# 4 0.000000 0.000000 0.000000 0.030078 0.000000 0.000000
# 5 0.000000 0.000000 0.000000 0.000000 0.047068 0.000000
# 6 0.000000 0.000000 0.000000 0.000000 0.000000 0.044621
#
#
# Mechanical properties :
#
#
# Convention : Reuss Voigt Hill
#
# Bulk Modulus (GPa) = 71.10642 71.55704 71.33173
# Shear Modulus (GPa) = 22.72740 23.94458 23.33599
#
# Velocity S-wave (km/s) = 3.58041 3.67504 3.62803
# Velocity P-wave (km/s) = 7.56306 7.63999 7.60163
#
# Compressibility (1/GPa) = 0.01406343
#
# Stress axis : x y z
#
# Youngs Moduli (GPa) = 58.50783 47.66529 63.56269
#
# Poissons Ratio (x) = 0.39869 0.18439
# Poissons Ratio (y) = 0.48938 0.54696
# Poissons Ratio (z) = 0.16973 0.41016
#
# Static dielectric constant tensor:
#      x y z
#    x 3.074880 0.000000 0.000000 
#    y 0.000000 3.336130 0.000000 
#    z 0.000000 0.000000 3.384730 
# 
# 
# High freq. dielectric constant tensor:
#      x y z
#    x 1.659980 0.000000 0.000000 
#    y 0.000000 1.687340 0.000000 
#    z 0.000000 0.000000 1.688360 
# 
# From -- ./inp_files/30563.got.cif
#   From: 2010.03.12/outbox.cif.g09.slc.cpg/sg59_16_cif.got.tgz:30563.got - 2010.04.16 16:29:54.
