data_PCOD8242518
_publ_section_title
;
Structure prediction by ZEFSAII (Michael W. Deem and Ramdas Pophale) SiO2 
 PCOD8242518
Probable space group: P M M N
;
_chemical_formula_sum "Si O2"
_cell_formula_units_Z 56
_cell_length_a 9.021534
_cell_length_b 18.508421
_cell_length_c 18.146075
_cell_angle_alpha 90.000000
_cell_angle_beta 90.000000
_cell_angle_gamma 90.000000
_cell_volume 3029.929066
_symmetry_space_group_name_H-M "P M M N"
_symmetry_group_IT_number 59
_space_group.IT_coordinate_system_code '2'
_symmetry_cell_setting 'orthorhombic'
loop_
_space_group_symop_operation_xyz
x,y,z
1/2-x,1/2-y,z
1/2+x,-y,-z
-x,1/2+y,-z
-x,-y,-z
1/2+x,1/2+y,-z
1/2-x,y,z
x,1/2-y,z
loop_
_atom_site_type_symbol
_atom_site_label
_atom_site_fract_x
_atom_site_fract_y
_atom_site_fract_z
Si Si1 0.077171 0.665988 0.426455
Si Si2 0.420247 0.413673 0.705765
Si Si3 0.077793 0.333472 0.423385
Si Si4 0.418407 0.915209 0.704939
Si Si5 0.585464 0.583948 0.846571
Si Si6 0.582445 0.088280 0.851874
Si Si7 0.076312 0.423397 0.993246
O O1 0.250000 0.647857 0.426459
O O2 0.045457 0.750000 0.412034
O O3 0.998509 0.620327 0.364120
O O4 0.011062 0.641544 0.504579
O O5 0.250000 0.389510 0.707875
O O6 0.436221 0.499332 0.699366
O O7 0.498534 0.383411 0.779285
O O8 0.250000 0.348566 0.437457
O O9 0.046508 0.250000 0.405513
O O10 0.023708 0.380115 0.355099
O O11 0.250000 0.890111 0.692428
O O12 0.468937 0.888074 0.786080
O O13 0.750000 0.607289 0.820897
O O14 0.578362 0.497864 0.853494
O O15 0.551593 0.617318 0.927978
O O16 0.750000 0.117927 0.850815
O O17 0.499367 0.119155 0.924975
O O18 0.250000 0.433810 0.976787
O O19 0.000000 0.500000 0.000000
#
# Coordination Sequence:
#
# PCOD8242518 Si02
#       7
#     8   8   8   8   8   8   8
#     4  10  21  37  56  76  98 126 162 203 245 290
#     4  10  20  33  50  74 103 133 165 201 244 293
#     4  10  21  37  56  75  96 126 163 201 243 293
#     4  10  20  32  49  74 102 131 163 202 246 289
#     4   8  15  26  40  61  92 128 162 198 240 285
#     4   9  16  26  41  63  93 128 163 201 244 286
#     4   9  15  23  37  59  89 126 164 200 241 288
#
# _framework density 18.482278999999998
#
# number of rings (size 3 to 8) (size 9 to 14) (size 15 to 20)
#    0.000    2.571    0.000    3.429    0.000    8.000 
#    0.000    0.000    0.000    0.000    0.000    1.000 
#    0.000    1.143    0.000    0.000    0.000    0.000 
#
# Total GULP energy -694242.048072 kJ/mol
# GULP energy per Si atom -12397.179430 kJ/mol
# Density = 1.844021 g / cm^3
# Si number density = 18.482279 Si / 1000 Ang^3
#
#
#
# Elastic Constant Matrix: (Units=GPa)
#
#
# Indices 1 2 3 4 5 6 
#
# 1 139.1310 25.2031 79.2918 0.0000 0.0000 0.0000
# 2 25.2031 15.8293 27.9226 0.0000 0.0000 0.0000
# 3 79.2918 27.9226 156.5329 0.0000 0.0000 0.0000
# 4 0.0000 0.0000 0.0000 -9.0751 0.0000 0.0000
# 5 0.0000 0.0000 0.0000 0.0000 43.8344 0.0000
# 6 0.0000 0.0000 0.0000 0.0000 0.0000 18.5429
#
#
#
# Elastic Compliance Matrix: (Units=1/GPa)
#
#
# Indices 1 2 3 4 5 6 
#
# 1 0.011404 -0.011625 -0.003703 0.000000 0.000000 0.000000
# 2 -0.011625 0.104030 -0.012669 0.000000 0.000000 0.000000
# 3 -0.003703 -0.012669 0.010524 0.000000 0.000000 0.000000
# 4 0.000000 0.000000 0.000000 -0.110191 0.000000 0.000000
# 5 0.000000 0.000000 0.000000 0.000000 0.022813 0.000000
# 6 0.000000 0.000000 0.000000 0.000000 0.000000 0.053929
#
#
# Mechanical properties :
#
#
# Convention : Reuss Voigt Hill
#
# Bulk Modulus (GPa) = 14.29280 64.03648 39.16464
# Shear Modulus (GPa) = 29.09976 22.59880 25.84928
#
# Velocity S-wave (km/s) = 3.97226 3.50055 3.74384
# Velocity P-wave (km/s) = 5.36549 7.14571 6.31861
#
# Compressibility (1/GPa) = 0.06996529
#
# Stress axis : x y z
#
# Youngs Moduli (GPa) = 87.69218 9.61260 95.02157
#
# Poissons Ratio (x) = 0.11174 0.35185
# Poissons Ratio (y) = 1.01941 1.20378
# Poissons Ratio (z) = 0.32471 0.12178
#
# Static dielectric constant tensor:
#      x y z
#    x 3.646430 0.000000 0.000000 
#    y 0.000000 2.846240 0.000000 
#    z 0.000000 0.000000 2.873540 
# 
# 
# High freq. dielectric constant tensor:
#      x y z
#    x 1.735430 0.000000 0.000000 
#    y 0.000000 1.650440 0.000000 
#    z 0.000000 0.000000 1.740230 
# 
# From -- ./inp_files/26008.got.cif
#   From: 2010.03.12/outbox.cif.g09.slc.cpg/sg59_14_cif.got.tgz:26008.got - 2010.04.16 16:29:54.
