data_PCOD8242107
_publ_section_title
;
Structure prediction by ZEFSAII (Michael W. Deem and Ramdas Pophale) SiO2 
 PCOD8242107
Probable space group: P M M N
;
_chemical_formula_sum "Si O2"
_cell_formula_units_Z 56
_cell_length_a 14.906937
_cell_length_b 8.951846
_cell_length_c 21.982439
_cell_angle_alpha 90.000000
_cell_angle_beta 90.000000
_cell_angle_gamma 90.000000
_cell_volume 2933.437875
_symmetry_space_group_name_H-M "P M M N"
_symmetry_group_IT_number 59
_space_group.IT_coordinate_system_code '2'
_symmetry_cell_setting 'orthorhombic'
loop_
_space_group_symop_operation_xyz
x,y,z
1/2-x,1/2-y,z
1/2+x,-y,-z
-x,1/2+y,-z
-x,-y,-z
1/2+x,1/2+y,-z
1/2-x,y,z
x,1/2-y,z
loop_
_atom_site_type_symbol
_atom_site_label
_atom_site_fract_x
_atom_site_fract_y
_atom_site_fract_z
Si Si1 0.569935 0.425076 0.336411
Si Si2 0.750000 0.927462 0.380955
Si Si3 0.904313 0.426173 0.993325
Si Si4 0.349056 0.081576 0.889984
Si Si5 0.650291 0.580652 0.873007
Si Si6 0.980087 0.422693 0.201359
Si Si7 0.750000 0.573196 0.519620
Si Si8 0.055278 0.073813 0.446349
O O1 0.591137 0.250000 0.340967
O O2 0.661571 0.512788 0.347813
O O3 0.531976 0.471553 0.270823
O O4 0.491724 0.471980 0.383310
O O5 0.750000 0.750000 0.377242
O O6 0.750000 0.985867 0.450321
O O7 0.912666 0.250000 0.997385
O O8 0.844677 0.484260 0.048873
O O9 0.860921 0.469856 0.929389
O O10 0.000000 0.500000 0.000000
O O11 0.250000 0.078938 0.860962
O O12 0.378882 0.250000 0.906484
O O13 0.416057 0.018588 0.840592
O O14 0.750000 0.560643 0.846029
O O15 0.634608 0.750000 0.896500
O O16 0.582179 0.543448 0.818387
O O17 0.954981 0.250000 0.192232
O O18 0.750000 0.750000 0.519550
O O19 0.840947 0.515772 0.553051
O O20 0.053164 0.250000 0.457034
O O21 0.000000 0.000000 0.500000
#
# Coordination Sequence:
#
# PCOD8242107 Si02
#       8
#     8   4   8   8   8   8   4   8
#     4  10  22  38  57  85 118 154 196 240 287 342
#     4  11  21  35  59  87 117 153 192 233 290 353
#     4  12  23  37  60  88 117 150 190 238 296 349
#     4  11  24  40  59  86 117 150 190 236 288 345
#     4  10  21  39  62  86 114 150 194 243 293 349
#     4  10  22  40  59  82 115 156 194 236 288 342
#     4   9  18  33  55  85 115 149 188 235 288 343
#     4  10  19  35  57  82 115 149 189 237 286 336
#
# _framework density 19.090229000000001
#
# number of rings (size 3 to 8) (size 9 to 14) (size 15 to 20)
#    0.000    1.571    2.857    2.357    1.000    3.714 
#    1.286    0.357    0.000    0.000    0.000    0.000 
#    0.000    0.000    0.000    0.000    0.000    0.000 
#
# Total GULP energy -694453.393428 kJ/mol
# GULP energy per Si atom -12400.953454 kJ/mol
# Density = 1.904678 g / cm^3
# Si number density = 19.090229 Si / 1000 Ang^3
#
#
#
# Elastic Constant Matrix: (Units=GPa)
#
#
# Indices 1 2 3 4 5 6 
#
# 1 175.3350 53.0058 80.9057 0.0000 0.0000 0.0000
# 2 53.0058 87.4423 52.8045 0.0000 0.0000 0.0000
# 3 80.9057 52.8045 140.3454 0.0000 0.0000 0.0000
# 4 0.0000 0.0000 0.0000 26.3950 0.0000 0.0000
# 5 0.0000 0.0000 0.0000 0.0000 -8.2560 0.0000
# 6 0.0000 0.0000 0.0000 0.0000 0.0000 21.8266
#
#
#
# Elastic Compliance Matrix: (Units=1/GPa)
#
#
# Indices 1 2 3 4 5 6 
#
# 1 0.008254 -0.002756 -0.003721 0.000000 0.000000 0.000000
# 2 -0.002756 0.015719 -0.004325 0.000000 0.000000 0.000000
# 3 -0.003721 -0.004325 0.010898 0.000000 0.000000 0.000000
# 4 0.000000 0.000000 0.000000 0.037886 0.000000 0.000000
# 5 0.000000 0.000000 0.000000 0.000000 -0.121123 0.000000
# 6 0.000000 0.000000 0.000000 0.000000 0.000000 0.045816
#
#
# Mechanical properties :
#
#
# Convention : Reuss Voigt Hill
#
# Bulk Modulus (GPa) = 75.38509 86.28386 80.83447
# Shear Modulus (GPa) = 212.99318 22.42022 117.70670
#
# Velocity S-wave (km/s) = 10.57422 3.43072 7.86079
# Velocity P-wave (km/s) = 13.73535 7.80956 11.17249
#
# Compressibility (1/GPa) = 0.01326522
#
# Stress axis : x y z
#
# Youngs Moduli (GPa) = 121.15965 63.61819 91.76220
#
# Poissons Ratio (x) = 0.17534 0.34145
# Poissons Ratio (y) = 0.33393 0.39690
# Poissons Ratio (z) = 0.45084 0.27517
#
# Static dielectric constant tensor:
#      x y z
#    x 2.442170 0.000000 0.000000 
#    y 0.000000 3.463410 0.000000 
#    z 0.000000 0.000000 3.655600 
# 
# 
# High freq. dielectric constant tensor:
#      x y z
#    x 1.759590 0.000000 0.000000 
#    y 0.000000 1.734420 0.000000 
#    z 0.000000 0.000000 1.732980 
# 
# From -- ./inp_files/30466.got.cif
#   From: 2010.03.12/outbox.cif.g09.slc.cpg/sg59_16_cif.got.tgz:30466.got - 2010.04.16 16:29:54.
