data_PCOD8242168
_publ_section_title
;
Structure prediction by ZEFSAII (Michael W. Deem and Ramdas Pophale) SiO2 
 PCOD8242168
Probable space group: P M M N
;
_chemical_formula_sum "Si O2"
_cell_formula_units_Z 64
_cell_length_a 18.746459
_cell_length_b 8.821614
_cell_length_c 19.808259
_cell_angle_alpha 90.000000
_cell_angle_beta 90.000000
_cell_angle_gamma 90.000000
_cell_volume 3275.771522
_symmetry_space_group_name_H-M "P M M N"
_symmetry_group_IT_number 59
_space_group.IT_coordinate_system_code '2'
_symmetry_cell_setting 'orthorhombic'
loop_
_space_group_symop_operation_xyz
x,y,z
1/2-x,1/2-y,z
1/2+x,-y,-z
-x,1/2+y,-z
-x,-y,-z
1/2+x,1/2+y,-z
1/2-x,y,z
x,1/2-y,z
loop_
_atom_site_type_symbol
_atom_site_label
_atom_site_fract_x
_atom_site_fract_y
_atom_site_fract_z
Si Si1 0.937656 0.927773 0.290593
Si Si2 0.577540 0.929912 0.652786
Si Si3 0.170184 0.069589 0.222432
Si Si4 0.437529 0.925678 0.853414
Si Si5 0.669454 0.427214 0.031946
Si Si6 0.167666 0.926283 0.614230
Si Si7 0.589189 0.927211 0.908687
Si Si8 0.575888 0.071636 0.514734
O O1 0.950759 0.750000 0.297772
O O2 0.937707 0.970763 0.212220
O O3 0.862825 0.975402 0.323866
O O4 0.997582 0.017072 0.332144
O O5 0.577820 0.750000 0.646259
O O6 0.628791 0.989839 0.712013
O O7 0.606715 0.002458 0.583915
O O8 0.250000 0.003955 0.223738
O O9 0.170076 0.250000 0.221940
O O10 0.130886 0.006807 0.156124
O O11 0.441460 0.750000 0.830812
O O12 0.366104 0.961547 0.895555
O O13 0.505669 0.965290 0.900152
O O14 0.750000 0.494841 0.031164
O O15 0.671967 0.250000 0.018417
O O16 0.619829 0.497549 0.975166
O O17 0.250000 0.967536 0.606647
O O18 0.155762 0.750000 0.630926
O O19 0.130293 0.972160 0.544297
O O20 0.602672 0.750000 0.915521
O O21 0.566842 0.250000 0.522478
O O22 0.500000 0.000000 0.500000
#
# Coordination Sequence:
#
# PCOD8242168 Si02
#       8
#     8   8   8   8   8   8   8   8
#     4  12  24  38  61  91 121 153 197 252 301 351
#     4  11  21  37  60  85 119 159 197 239 291 356
#     4   9  18  33  55  84 115 150 193 237 287 346
#     4  10  21  39  61  84 114 155 201 243 293 359
#     4  10  22  38  56  83 119 154 190 237 295 358
#     4  10  23  43  65  88 120 163 204 244 298 361
#     4  10  19  35  60  85 112 152 198 244 289 345
#     4  11  22  37  61  90 119 154 198 244 294 350
#
# _framework density 19.537382000000001
#
# number of rings (size 3 to 8) (size 9 to 14) (size 15 to 20)
#    0.000    1.625    2.500    2.625    0.000    3.500 
#    0.000    1.250    0.000    1.875    0.000    0.000 
#    0.000    0.000    0.000    0.000    0.000    0.000 
#
# Total GULP energy -793840.937103 kJ/mol
# GULP energy per Si atom -12403.764642 kJ/mol
# Density = 1.949291 g / cm^3
# Si number density = 19.537382 Si / 1000 Ang^3
#
#
#
# Elastic Constant Matrix: (Units=GPa)
#
#
# Indices 1 2 3 4 5 6 
#
# 1 117.5427 29.0227 37.1814 0.0000 0.0000 0.0000
# 2 29.0227 58.4186 35.0650 0.0000 0.0000 0.0000
# 3 37.1814 35.0650 98.4706 0.0000 0.0000 0.0000
# 4 0.0000 0.0000 0.0000 36.3151 0.0000 0.0000
# 5 0.0000 0.0000 0.0000 0.0000 33.7912 0.0000
# 6 0.0000 0.0000 0.0000 0.0000 0.0000 20.4142
#
#
#
# Elastic Compliance Matrix: (Units=1/GPa)
#
#
# Indices 1 2 3 4 5 6 
#
# 1 0.010196 -0.003503 -0.002602 0.000000 0.000000 0.000000
# 2 -0.003503 0.022975 -0.006859 0.000000 0.000000 0.000000
# 3 -0.002602 -0.006859 0.013580 0.000000 0.000000 0.000000
# 4 0.000000 0.000000 0.000000 0.027537 0.000000 0.000000
# 5 0.000000 0.000000 0.000000 0.000000 0.029593 0.000000
# 6 0.000000 0.000000 0.000000 0.000000 0.000000 0.048986
#
#
# Mechanical properties :
#
#
# Convention : Reuss Voigt Hill
#
# Bulk Modulus (GPa) = 48.02438 52.99668 50.51053
# Shear Modulus (GPa) = 26.91995 29.64830 28.28412
#
# Velocity S-wave (km/s) = 3.71599 3.89976 3.80898
# Velocity P-wave (km/s) = 6.56091 6.88928 6.72710
#
# Compressibility (1/GPa) = 0.02082276
#
# Stress axis : x y z
#
# Youngs Moduli (GPa) = 98.08047 43.52546 73.63667
#
# Poissons Ratio (x) = 0.15248 0.19162
# Poissons Ratio (y) = 0.34361 0.50504
# Poissons Ratio (z) = 0.25523 0.29852
#
# Static dielectric constant tensor:
#      x y z
#    x 3.738480 0.000000 0.000000 
#    y 0.000000 3.386570 0.000000 
#    z 0.000000 0.000000 3.740740 
# 
# 
# High freq. dielectric constant tensor:
#      x y z
#    x 1.765770 0.000000 0.000000 
#    y 0.000000 1.742850 0.000000 
#    z 0.000000 0.000000 1.774140 
# 
# From -- ./inp_files/30834.got.cif
#   From: 2010.03.12/outbox.cif.g09.slc.cpg/sg59_16_cif.got.tgz:30834.got - 2010.04.16 16:29:54.
