data_PCOD8242392
_publ_section_title
;
Structure prediction by ZEFSAII (Michael W. Deem and Ramdas Pophale) SiO2 
 PCOD8242392
Probable space group: P M M N
;
_chemical_formula_sum "Si O2"
_cell_formula_units_Z 64
_cell_length_a 9.564572
_cell_length_b 14.554962
_cell_length_c 26.088309
_cell_angle_alpha 90.000000
_cell_angle_beta 90.000000
_cell_angle_gamma 90.000000
_cell_volume 3631.805203
_symmetry_space_group_name_H-M "P M M N"
_symmetry_group_IT_number 59
_space_group.IT_coordinate_system_code '2'
_symmetry_cell_setting 'orthorhombic'
loop_
_space_group_symop_operation_xyz
x,y,z
1/2-x,1/2-y,z
1/2+x,-y,-z
-x,1/2+y,-z
-x,-y,-z
1/2+x,1/2+y,-z
1/2-x,y,z
x,1/2-y,z
loop_
_atom_site_type_symbol
_atom_site_label
_atom_site_fract_x
_atom_site_fract_y
_atom_site_fract_z
Si Si1 0.583621 0.851191 0.131606
Si Si2 0.087137 0.507311 0.309730
Si Si3 0.913041 0.500423 0.051421
Si Si4 0.590871 0.641892 0.245495
Si Si5 0.087392 0.484308 0.426283
Si Si6 0.587445 0.356507 0.496334
Si Si7 0.911775 0.854791 0.770699
Si Si8 0.090069 0.854967 0.865782
O O1 0.750000 0.849669 0.132357
O O2 0.524542 0.750000 0.118927
O O3 0.534804 0.882720 0.188287
O O4 0.528263 0.918913 0.087881
O O5 0.250000 0.531486 0.306680
O O6 0.038696 0.492718 0.367824
O O7 0.050799 0.414634 0.278883
O O8 0.004882 0.593178 0.287104
O O9 0.750000 0.513978 0.038359
O O10 0.941625 0.406051 0.081211
O O11 0.000000 0.500000 0.000000
O O12 0.750000 0.608080 0.252403
O O13 0.580399 0.750000 0.254714
O O14 0.250000 0.458498 0.430909
O O15 0.055882 0.582462 0.453160
O O16 0.001339 0.399841 0.450160
O O17 0.750000 0.362499 0.481391
O O18 0.543747 0.250000 0.506088
O O19 0.750000 0.862379 0.785303
O O20 0.954970 0.750000 0.758170
O O21 0.997296 0.893394 0.819247
O O22 0.250000 0.870274 0.849135
O O23 0.053202 0.750000 0.876905
#
# Coordination Sequence:
#
# PCOD8242392 Si02
#       8
#     8   8   8   8   8   8   8   8
#     4   8  15  30  50  68  88 119 158 193 226 272
#     4  10  20  32  49  75 106 135 160 195 244 293
#     4  10  20  32  47  68  92 118 150 191 237 283
#     4   9  18  33  53  75  98 128 166 203 239 284
#     4   9  19  34  51  74 102 133 168 202 243 297
#     4   9  18  34  54  73  96 129 170 214 252 285
#     4   9  18  32  49  71  99 129 162 199 238 284
#     4   9  18  33  51  69  91 122 159 196 236 284
#
# _framework density 17.62209
#
# number of rings (size 3 to 8) (size 9 to 14) (size 15 to 20)
#    0.000    2.875    0.000    1.500    0.000    4.500 
#    0.000    3.125    0.000    2.250    0.000    0.000 
#    0.000    0.000    0.000    0.000    0.000    0.000 
#
# Total GULP energy -793535.401346 kJ/mol
# GULP energy per Si atom -12398.990646 kJ/mol
# Density = 1.758198 g / cm^3
# Si number density = 17.622090 Si / 1000 Ang^3
#
#
#
# Elastic Constant Matrix: (Units=GPa)
#
#
# Indices 1 2 3 4 5 6 
#
# 1 52.2639 43.2748 59.7101 0.0000 0.0000 0.0000
# 2 43.2748 101.3668 66.2747 0.0000 0.0000 0.0000
# 3 59.7101 66.2747 154.4778 0.0000 0.0000 0.0000
# 4 0.0000 0.0000 0.0000 18.9960 0.0000 0.0000
# 5 0.0000 0.0000 0.0000 0.0000 31.4505 0.0000
# 6 0.0000 0.0000 0.0000 0.0000 0.0000 25.1287
#
#
#
# Elastic Compliance Matrix: (Units=1/GPa)
#
#
# Indices 1 2 3 4 5 6 
#
# 1 0.040146 -0.009720 -0.011348 0.000000 0.000000 0.000000
# 2 -0.009720 0.016064 -0.003135 0.000000 0.000000 0.000000
# 3 -0.011348 -0.003135 0.012205 0.000000 0.000000 0.000000
# 4 0.000000 0.000000 0.000000 0.052643 0.000000 0.000000
# 5 0.000000 0.000000 0.000000 0.000000 0.031796 0.000000
# 6 0.000000 0.000000 0.000000 0.000000 0.000000 0.039795
#
#
# Mechanical properties :
#
#
# Convention : Reuss Voigt Hill
#
# Bulk Modulus (GPa) = 49.97440 71.84754 60.91097
# Shear Modulus (GPa) = 20.18380 24.37162 22.27771
#
# Velocity S-wave (km/s) = 3.38800 3.72293 3.55941
# Velocity P-wave (km/s) = 6.61251 7.70325 7.17862
#
# Compressibility (1/GPa) = 0.02001025
#
# Stress axis : x y z
#
# Youngs Moduli (GPa) = 24.90917 62.24964 81.93623
#
# Poissons Ratio (x) = 0.60504 0.92978
# Poissons Ratio (y) = 0.24211 0.25688
# Poissons Ratio (z) = 0.28266 0.19516
#
# Static dielectric constant tensor:
#      x y z
#    x 3.122840 0.000000 0.000000 
#    y 0.000000 3.496890 0.000000 
#    z 0.000000 0.000000 3.282460 
# 
# 
# High freq. dielectric constant tensor:
#      x y z
#    x 1.664040 0.000000 0.000000 
#    y 0.000000 1.689690 0.000000 
#    z 0.000000 0.000000 1.677770 
# 
# From -- ./inp_files/31453.got.cif
#   From: 2010.03.12/outbox.cif.g09.slc.cpg/sg59_16_cif.got.tgz:31453.got - 2010.04.16 16:29:54.
