data_PCOD8242114
_publ_section_title
;
Structure prediction by ZEFSAII (Michael W. Deem and Ramdas Pophale) SiO2 
 PCOD8242114
Probable space group: P M M N
;
_chemical_formula_sum "Si O2"
_cell_formula_units_Z 48
_cell_length_a 31.197731
_cell_length_b 8.647818
_cell_length_c 9.008269
_cell_angle_alpha 90.000000
_cell_angle_beta 90.000000
_cell_angle_gamma 90.000000
_cell_volume 2430.361610
_symmetry_space_group_name_H-M "P M M N"
_symmetry_group_IT_number 59
_space_group.IT_coordinate_system_code '2'
_symmetry_cell_setting 'orthorhombic'
loop_
_space_group_symop_operation_xyz
x,y,z
1/2-x,1/2-y,z
1/2+x,-y,-z
-x,1/2+y,-z
-x,-y,-z
1/2+x,1/2+y,-z
1/2-x,y,z
x,1/2-y,z
loop_
_atom_site_type_symbol
_atom_site_label
_atom_site_fract_x
_atom_site_fract_y
_atom_site_fract_z
Si Si1 0.333247 0.933276 0.834669
Si Si2 0.083128 0.566524 0.333728
Si Si3 0.750000 0.065914 0.341561
Si Si4 0.831969 0.434268 0.829426
Si Si5 0.081533 0.566052 0.671404
Si Si6 0.499652 0.433080 0.836698
Si Si7 0.250000 0.067683 0.332668
O O1 0.333419 0.750000 0.837504
O O2 0.291429 0.992493 0.748384
O O3 0.375450 0.993821 0.751120
O O4 0.332655 0.996953 0.002209
O O5 0.083446 0.750000 0.331267
O O6 0.125297 0.503632 0.251053
O O7 0.082977 0.506892 0.502421
O O8 0.041230 0.502591 0.250043
O O9 0.750000 0.250000 0.364120
O O10 0.750000 0.984371 0.498465
O O11 0.829136 0.250000 0.824107
O O12 0.791534 0.502234 0.746760
O O13 0.076813 0.750000 0.682325
O O14 0.041938 0.487266 0.750575
O O15 0.500748 0.250000 0.846038
O O16 0.500000 0.500000 0.000000
O O17 0.250000 0.250000 0.322020
#
# Coordination Sequence:
#
# PCOD8242114 Si02
#       7
#     8   8   4   8   8   8   4
#     4   9  18  33  60  89 109 135 184 235 273 316
#     4   9  19  35  59  85 110 141 184 229 270 316
#     4  10  19  36  60  84 108 146 193 232 268 318
#     4  10  19  37  62  84 105 140 185 228 269 321
#     4  10  19  35  57  84 114 144 177 224 277 327
#     4  11  22  37  56  82 112 147 186 227 272 324
#     4  12  25  38  52  80 116 148 179 222 276 330
#
# _framework density 19.750147999999999
#
# number of rings (size 3 to 8) (size 9 to 14) (size 15 to 20)
#    0.000    2.000    0.000    4.250    0.000    6.667 
#    0.000   10.000    0.000    0.000    0.000    0.000 
#    0.000    0.000    0.000    0.000    0.000    0.000 
#
# Total GULP energy -595323.756622 kJ/mol
# GULP energy per Si atom -12402.578263 kJ/mol
# Density = 1.970520 g / cm^3
# Si number density = 19.750148 Si / 1000 Ang^3
#
#
#
# Elastic Constant Matrix: (Units=GPa)
#
#
# Indices 1 2 3 4 5 6 
#
# 1 219.0066 27.7574 113.9369 0.0000 0.0000 0.0000
# 2 27.7574 30.0352 21.2933 0.0000 0.0000 0.0000
# 3 113.9369 21.2933 205.0912 0.0000 0.0000 0.0000
# 4 0.0000 0.0000 0.0000 18.1565 0.0000 0.0000
# 5 0.0000 0.0000 0.0000 0.0000 50.2279 0.0000
# 6 0.0000 0.0000 0.0000 0.0000 0.0000 23.8888
#
#
#
# Elastic Compliance Matrix: (Units=1/GPa)
#
#
# Indices 1 2 3 4 5 6 
#
# 1 0.006822 -0.003905 -0.003384 0.000000 0.000000 0.000000
# 2 -0.003905 0.038175 -0.001794 0.000000 0.000000 0.000000
# 3 -0.003384 -0.001794 0.006942 0.000000 0.000000 0.000000
# 4 0.000000 0.000000 0.000000 0.055077 0.000000 0.000000
# 5 0.000000 0.000000 0.000000 0.000000 0.019909 0.000000
# 6 0.000000 0.000000 0.000000 0.000000 0.000000 0.041861
#
#
# Mechanical properties :
#
#
# Convention : Reuss Voigt Hill
#
# Bulk Modulus (GPa) = 29.61011 86.67870 58.14441
# Shear Modulus (GPa) = 25.22578 37.86432 31.54505
#
# Velocity S-wave (km/s) = 3.57773 4.38330 4.00084
# Velocity P-wave (km/s) = 5.66496 8.34270 7.13065
#
# Compressibility (1/GPa) = 0.03377225
#
# Stress axis : x y z
#
# Youngs Moduli (GPa) = 146.59176 26.19507 144.04533
#
# Poissons Ratio (x) = 0.10229 0.48749
# Poissons Ratio (y) = 0.57245 0.25842
# Poissons Ratio (z) = 0.49611 0.04700
#
# Static dielectric constant tensor:
#      x y z
#    x 3.870990 0.000000 0.000000 
#    y 0.000000 3.212950 0.000000 
#    z 0.000000 0.000000 3.944290 
# 
# 
# High freq. dielectric constant tensor:
#      x y z
#    x 1.792640 0.000000 0.000000 
#    y 0.000000 1.726690 0.000000 
#    z 0.000000 0.000000 1.793300 
# 
# From -- ./inp_files/12998.got.cif
#   From: 2010.03.12/outbox.cif.g09.slc.cpg/sg59_7_cif.got.tgz:12998.got - 2010.04.16 16:29:54.
