data_PCOD8242267
_publ_section_title
;
Structure prediction by ZEFSAII (Michael W. Deem and Ramdas Pophale) SiO2 
 PCOD8242267
Probable space group: P M M N
;
_chemical_formula_sum "Si O2"
_cell_formula_units_Z 40
_cell_length_a 18.886646
_cell_length_b 11.531361
_cell_length_c 9.257597
_cell_angle_alpha 90.000000
_cell_angle_beta 90.000000
_cell_angle_gamma 90.000000
_cell_volume 2016.200322
_symmetry_space_group_name_H-M "P M M N"
_symmetry_group_IT_number 59
_space_group.IT_coordinate_system_code '2'
_symmetry_cell_setting 'orthorhombic'
loop_
_space_group_symop_operation_xyz
x,y,z
1/2-x,1/2-y,z
1/2+x,-y,-z
-x,1/2+y,-z
-x,-y,-z
1/2+x,1/2+y,-z
1/2-x,y,z
x,1/2-y,z
loop_
_atom_site_type_symbol
_atom_site_label
_atom_site_fract_x
_atom_site_fract_y
_atom_site_fract_z
Si Si1 0.631714 0.750000 0.094632
Si Si2 0.613305 0.119294 0.689486
Si Si3 0.250000 0.250000 0.146025
Si Si4 0.607294 0.111980 0.358931
Si Si5 0.250000 0.993423 0.606800
Si Si6 0.750000 0.996857 0.719723
Si Si7 0.024127 0.451264 0.849896
Si Si8 0.250000 0.250000 0.676470
O O1 0.586184 0.635189 0.107629
O O2 0.679949 0.750000 0.232525
O O3 0.678855 0.750000 0.949554
O O4 0.640904 0.250000 0.681162
O O5 0.596345 0.075177 0.526415
O O6 0.674819 0.047809 0.776261
O O7 0.540980 0.115071 0.777781
O O8 0.250000 0.360232 0.251521
O O9 0.604088 0.250000 0.335635
O O10 0.682787 0.059190 0.308648
O O11 0.548089 0.053550 0.258439
O O12 0.250000 0.132292 0.585746
O O13 0.250000 0.952552 0.442583
O O14 0.000000 0.500000 0.000000
#
# Coordination Sequence:
#
# PCOD8242267 Si02
#       8
#     4   8   2   8   4   4   8   2
#     4  11  24  40  62  83 124 168 202 253 301 363
#     4  10  21  41  65  90 123 156 205 260 313 370
#     4  11  23  42  56  92 129 161 208 250 306 367
#     4  10  22  39  62  93 123 160 203 258 315 369
#     4  10  19  37  64  90 118 156 203 260 309 363
#     4  10  21  39  63  90 119 157 202 255 314 366
#     4  12  24  40  62  88 126 166 208 250 309 370
#     4  11  19  38  62  84 115 163 202 244 298 355
#
# _framework density 19.839296999999998
#
# number of rings (size 3 to 8) (size 9 to 14) (size 15 to 20)
#    0.000    1.400    3.000    2.700    1.400    2.400 
#    1.800    0.000    0.000    2.400    0.000    0.000 
#    0.000    0.000    0.000    0.000    0.000    0.000 
#
# Total GULP energy -495811.073025 kJ/mol
# GULP energy per Si atom -12395.276826 kJ/mol
# Density = 1.979414 g / cm^3
# Si number density = 19.839297 Si / 1000 Ang^3
#
#
#
# Elastic Constant Matrix: (Units=GPa)
#
#
# Indices 1 2 3 4 5 6 
#
# 1 123.6355 48.1022 41.7658 0.0000 0.0000 0.0000
# 2 48.1022 122.5654 31.3828 0.0000 0.0000 0.0000
# 3 41.7658 31.3828 80.0729 0.0000 0.0000 0.0000
# 4 0.0000 0.0000 0.0000 106.1837 0.0000 0.0000
# 5 0.0000 0.0000 0.0000 0.0000 41.7237 0.0000
# 6 0.0000 0.0000 0.0000 0.0000 0.0000 48.7692
#
#
#
# Elastic Compliance Matrix: (Units=1/GPa)
#
#
# Indices 1 2 3 4 5 6 
#
# 1 0.010785 -0.003104 -0.004409 0.000000 0.000000 0.000000
# 2 -0.003104 0.009962 -0.002286 0.000000 0.000000 0.000000
# 3 -0.004409 -0.002286 0.015684 0.000000 0.000000 0.000000
# 4 0.000000 0.000000 0.000000 0.009418 0.000000 0.000000
# 5 0.000000 0.000000 0.000000 0.000000 0.023967 0.000000
# 6 0.000000 0.000000 0.000000 0.000000 0.000000 0.020505
#
#
# Mechanical properties :
#
#
# Convention : Reuss Voigt Hill
#
# Bulk Modulus (GPa) = 59.40091 63.19727 61.29909
# Shear Modulus (GPa) = 43.27882 53.00354 48.14118
#
# Velocity S-wave (km/s) = 4.67569 5.17440 4.93135
# Velocity P-wave (km/s) = 7.69126 8.22332 7.96173
#
# Compressibility (1/GPa) = 0.01683476
#
# Stress axis : x y z
#
# Youngs Moduli (GPa) = 92.71825 100.37874 63.75864
#
# Poissons Ratio (x) = 0.31156 0.28112
# Poissons Ratio (y) = 0.28779 0.14572
# Poissons Ratio (z) = 0.40881 0.22942
#
# Static dielectric constant tensor:
#      x y z
#    x 3.668910 0.000000 0.000000 
#    y 0.000000 3.492590 0.000000 
#    z 0.000000 0.000000 3.444520 
# 
# 
# High freq. dielectric constant tensor:
#      x y z
#    x 1.790880 0.000000 0.000000 
#    y 0.000000 1.782670 0.000000 
#    z 0.000000 0.000000 1.757400 
# 
# From -- ./inp_files/11201.got.cif
#   From: 2010.03.12/outbox.cif.g09.slc.cpg/sg59_6_cif.got.tgz:11201.got - 2010.04.16 16:29:54.
