data_PCOD8242986
_publ_section_title
;
Structure prediction by ZEFSAII (Michael W. Deem and Ramdas Pophale) SiO2 
 PCOD8242986
Probable space group: P M M N
;
_chemical_formula_sum "Si O2"
_cell_formula_units_Z 64
_cell_length_a 14.380220
_cell_length_b 9.179920
_cell_length_c 26.171234
_cell_angle_alpha 90.000000
_cell_angle_beta 90.000000
_cell_angle_gamma 90.000000
_cell_volume 3454.845474
_symmetry_space_group_name_H-M "P M M N"
_symmetry_group_IT_number 59
_space_group.IT_coordinate_system_code '2'
_symmetry_cell_setting 'orthorhombic'
loop_
_space_group_symop_operation_xyz
x,y,z
1/2-x,1/2-y,z
1/2+x,-y,-z
-x,1/2+y,-z
-x,-y,-z
1/2+x,1/2+y,-z
1/2-x,y,z
x,1/2-y,z
loop_
_atom_site_type_symbol
_atom_site_label
_atom_site_fract_x
_atom_site_fract_y
_atom_site_fract_z
Si Si1 0.009868 0.421172 0.053442
Si Si2 0.643819 0.079391 0.503194
Si Si3 0.140244 0.916591 0.127749
Si Si4 0.856190 0.916958 0.771840
Si Si5 0.011064 0.919515 0.691740
Si Si6 0.144135 0.917735 0.865267
Si Si7 0.359310 0.417032 0.765141
Si Si8 0.988240 0.579289 0.576321
O O1 0.026361 0.250000 0.045318
O O2 0.916261 0.453149 0.085085
O O3 0.097484 0.489152 0.082329
O O4 0.000000 0.500000 0.000000
O O5 0.750000 0.027647 0.494290
O O6 0.639483 0.250000 0.514218
O O7 0.583346 0.038183 0.453266
O O8 0.600986 0.999404 0.552212
O O9 0.250000 0.928761 0.121597
O O10 0.106045 0.750000 0.124422
O O11 0.108442 0.982112 0.182040
O O12 0.750000 0.951549 0.757294
O O13 0.868582 0.750000 0.789552
O O14 0.915967 0.952061 0.721858
O O15 0.037312 0.750000 0.692815
O O16 0.998542 0.975800 0.634169
O O17 0.095471 0.006983 0.716419
O O18 0.250000 0.960286 0.878728
O O19 0.135372 0.750000 0.849112
O O20 0.105518 0.009715 0.817610
O O21 0.250000 0.438038 0.759343
O O22 0.389505 0.250000 0.766749
O O23 0.968088 0.750000 0.573973
#
# Coordination Sequence:
#
# PCOD8242986 Si02
#       8
#     8   8   8   8   8   8   8   8
#     4  11  23  37  55  80 107 136 172 214 263 315
#     4   9  18  34  54  74 100 136 176 218 264 311
#     4  10  21  37  56  77 103 137 176 216 258 307
#     4   9  18  33  52  75 104 136 170 209 255 308
#     4  10  20  33  52  78 107 139 172 210 256 305
#     4   9  19  37  58  77 101 136 175 213 255 307
#     4  10  21  35  52  77 107 138 172 210 254 304
#     4   9  19  34  52  77 105 134 174 218 259 307
#
# _framework density 18.524706999999999
#
# number of rings (size 3 to 8) (size 9 to 14) (size 15 to 20)
#    0.000    2.375    0.000    1.875    0.000    8.250 
#    0.000    3.750    0.000    1.500    0.000    0.000 
#    0.000    0.000    0.000    0.000    0.000    0.000 
#
# Total GULP energy -793837.546402 kJ/mol
# GULP energy per Si atom -12403.711663 kJ/mol
# Density = 1.848254 g / cm^3
# Si number density = 18.524707 Si / 1000 Ang^3
#
#
#
# Elastic Constant Matrix: (Units=GPa)
#
#
# Indices 1 2 3 4 5 6 
#
# 1 86.8767 47.8439 61.1833 0.0000 0.0000 0.0000
# 2 47.8439 89.0304 72.5431 0.0000 0.0000 0.0000
# 3 61.1833 72.5431 168.0890 0.0000 0.0000 0.0000
# 4 0.0000 0.0000 0.0000 32.7469 0.0000 0.0000
# 5 0.0000 0.0000 0.0000 0.0000 20.9786 0.0000
# 6 0.0000 0.0000 0.0000 0.0000 0.0000 29.2124
#
#
#
# Elastic Compliance Matrix: (Units=1/GPa)
#
#
# Indices 1 2 3 4 5 6 
#
# 1 0.017654 -0.006557 -0.003596 0.000000 0.000000 0.000000
# 2 -0.006557 0.019760 -0.006141 0.000000 0.000000 0.000000
# 3 -0.003596 -0.006141 0.009909 0.000000 0.000000 0.000000
# 4 0.000000 0.000000 0.000000 0.030537 0.000000 0.000000
# 5 0.000000 0.000000 0.000000 0.000000 0.047668 0.000000
# 6 0.000000 0.000000 0.000000 0.000000 0.000000 0.034232
#
#
# Mechanical properties :
#
#
# Convention : Reuss Voigt Hill
#
# Bulk Modulus (GPa) = 67.87063 78.57075 73.22069
# Shear Modulus (GPa) = 25.34744 27.41600 26.38172
#
# Velocity S-wave (km/s) = 3.70307 3.85121 3.77787
# Velocity P-wave (km/s) = 7.41627 7.89189 7.65777
#
# Compressibility (1/GPa) = 0.01473391
#
# Stress axis : x y z
#
# Youngs Moduli (GPa) = 56.64385 50.60854 100.92299
#
# Poissons Ratio (x) = 0.33184 0.36294
# Poissons Ratio (y) = 0.37141 0.61977
# Poissons Ratio (z) = 0.20370 0.31079
#
# Static dielectric constant tensor:
#      x y z
#    x 3.586330 0.000000 0.000000 
#    y 0.000000 3.474400 0.000000 
#    z 0.000000 0.000000 3.420190 
# 
# 
# High freq. dielectric constant tensor:
#      x y z
#    x 1.725630 0.000000 0.000000 
#    y 0.000000 1.719220 0.000000 
#    z 0.000000 0.000000 1.714970 
# 
# From -- ./inp_files/31432.got.cif
#   From: 2010.03.12/outbox.cif.g09.slc.cpg/sg59_16_cif.got.tgz:31432.got - 2010.04.16 16:29:54.
