data_PCOD8242924
_publ_section_title
;
Structure prediction by ZEFSAII (Michael W. Deem and Ramdas Pophale) SiO2 
 PCOD8242924
Probable space group: P M M N
;
_chemical_formula_sum "Si O2"
_cell_formula_units_Z 64
_cell_length_a 9.269616
_cell_length_b 28.722239
_cell_length_c 12.481999
_cell_angle_alpha 90.000000
_cell_angle_beta 90.000000
_cell_angle_gamma 90.000000
_cell_volume 3323.258917
_symmetry_space_group_name_H-M "P M M N"
_symmetry_group_IT_number 59
_space_group.IT_coordinate_system_code '2'
_symmetry_cell_setting 'orthorhombic'
loop_
_space_group_symop_operation_xyz
x,y,z
1/2-x,1/2-y,z
1/2+x,-y,-z
-x,1/2+y,-z
-x,-y,-z
1/2+x,1/2+y,-z
1/2-x,y,z
x,1/2-y,z
loop_
_atom_site_type_symbol
_atom_site_label
_atom_site_fract_x
_atom_site_fract_y
_atom_site_fract_z
Si Si1 0.421569 0.866000 0.178267
Si Si2 0.076975 0.454180 0.747748
Si Si3 0.920118 0.196503 0.023513
Si Si4 0.089093 0.800628 0.364492
Si Si5 0.581730 0.852473 0.784569
Si Si6 0.920911 0.956813 0.718686
Si Si7 0.584174 0.671513 0.550271
Si Si8 0.581766 0.568103 0.487795
O O1 0.250000 0.875180 0.179879
O O2 0.508735 0.914588 0.175686
O O3 0.477129 0.838061 0.282680
O O4 0.466640 0.834328 0.077927
O O5 0.250000 0.453336 0.758603
O O6 0.017014 0.447551 0.626096
O O7 0.011579 0.504138 0.783412
O O8 0.750000 0.195862 0.039042
O O9 0.974382 0.250000 0.010759
O O10 0.989613 0.172126 0.125460
O O11 0.250000 0.816391 0.393080
O O12 0.088382 0.750000 0.307331
O O13 0.005130 0.793841 0.476156
O O14 0.750000 0.847103 0.811073
O O15 0.542928 0.907045 0.772064
O O16 0.542382 0.825531 0.674806
O O17 0.750000 0.966460 0.725824
O O18 0.975845 0.958546 0.593973
O O19 0.750000 0.683897 0.535633
O O20 0.544513 0.621542 0.503157
O O21 0.750000 0.559580 0.483253
#
# Coordination Sequence:
#
# PCOD8242924 Si02
#       8
#     8   8   8   8   8   8   8   8
#     4  10  21  38  57  78 108 147 186 226 280 338
#     4  11  20  31  52  83 115 146 185 231 273 321
#     4  10  22  41  64  85 106 139 186 239 288 333
#     4  10  20  33  51  77 108 140 178 225 275 332
#     4   9  20  38  60  83 112 147 185 230 276 329
#     4   9  18  34  54  78 112 153 188 220 269 330
#     4   9  17  33  53  76 110 147 177 213 269 330
#     4   8  15  29  49  74 109 147 181 218 258 311
#
# _framework density 19.258205
#
# number of rings (size 3 to 8) (size 9 to 14) (size 15 to 20)
#    0.000    2.500    1.250    2.625    0.000    4.000 
#    0.000    5.625    0.000    2.250    0.000    0.000 
#    0.000    0.000    0.000    0.000    0.000    0.000 
#
# Total GULP energy -793150.338401 kJ/mol
# GULP energy per Si atom -12392.974038 kJ/mol
# Density = 1.921437 g / cm^3
# Si number density = 19.258205 Si / 1000 Ang^3
#
#
#
# Elastic Constant Matrix: (Units=GPa)
#
#
# Indices 1 2 3 4 5 6 
#
# 1 48.4833 32.1023 39.5039 0.0000 0.0000 0.0000
# 2 32.1023 86.5826 42.7578 0.0000 0.0000 0.0000
# 3 39.5039 42.7578 103.0829 0.0000 0.0000 0.0000
# 4 0.0000 0.0000 0.0000 21.8738 0.0000 0.0000
# 5 0.0000 0.0000 0.0000 0.0000 30.0930 0.0000
# 6 0.0000 0.0000 0.0000 0.0000 0.0000 27.0884
#
#
#
# Elastic Compliance Matrix: (Units=1/GPa)
#
#
# Indices 1 2 3 4 5 6 
#
# 1 0.033606 -0.007672 -0.009697 0.000000 0.000000 0.000000
# 2 -0.007672 0.016276 -0.003811 0.000000 0.000000 0.000000
# 3 -0.009697 -0.003811 0.014998 0.000000 0.000000 0.000000
# 4 0.000000 0.000000 0.000000 0.045717 0.000000 0.000000
# 5 0.000000 0.000000 0.000000 0.000000 0.033230 0.000000
# 6 0.000000 0.000000 0.000000 0.000000 0.000000 0.036916
#
#
# Mechanical properties :
#
#
# Convention : Reuss Voigt Hill
#
# Bulk Modulus (GPa) = 44.40275 51.87521 48.13898
# Shear Modulus (GPa) = 21.68173 24.06337 22.87255
#
# Velocity S-wave (km/s) = 3.35900 3.53868 3.45001
# Velocity P-wave (km/s) = 6.17660 6.60995 6.39695
#
# Compressibility (1/GPa) = 0.02252113
#
# Stress axis : x y z
#
# Youngs Moduli (GPa) = 29.75666 61.43937 66.67667
#
# Poissons Ratio (x) = 0.47134 0.64653
# Poissons Ratio (y) = 0.22828 0.25412
# Poissons Ratio (z) = 0.28854 0.23416
#
# Static dielectric constant tensor:
#      x y z
#    x 3.216860 0.000000 0.000000 
#    y 0.000000 3.578710 0.000000 
#    z 0.000000 0.000000 3.452590 
# 
# 
# High freq. dielectric constant tensor:
#      x y z
#    x 1.728870 0.000000 0.000000 
#    y 0.000000 1.760060 0.000000 
#    z 0.000000 0.000000 1.733980 
# 
# From -- ./inp_files/14965.got.cif
#   From: 2010.03.12/outbox.cif.g09.slc.cpg/sg59_8_cif.got.tgz:14965.got - 2010.04.16 16:29:54.
