data_PCOD8242615
_publ_section_title
;
Structure prediction by ZEFSAII (Michael W. Deem and Ramdas Pophale) SiO2 
 PCOD8242615
Probable space group: P M M N
;
_chemical_formula_sum "Si O2"
_cell_formula_units_Z 64
_cell_length_a 25.493682
_cell_length_b 14.858382
_cell_length_c 9.652015
_cell_angle_alpha 90.000000
_cell_angle_beta 90.000000
_cell_angle_gamma 90.000000
_cell_volume 3656.133726
_symmetry_space_group_name_H-M "P M M N"
_symmetry_group_IT_number 59
_space_group.IT_coordinate_system_code '2'
_symmetry_cell_setting 'orthorhombic'
loop_
_space_group_symop_operation_xyz
x,y,z
1/2-x,1/2-y,z
1/2+x,-y,-z
-x,1/2+y,-z
-x,-y,-z
1/2+x,1/2+y,-z
1/2-x,y,z
x,1/2-y,z
loop_
_atom_site_type_symbol
_atom_site_label
_atom_site_fract_x
_atom_site_fract_y
_atom_site_fract_z
Si Si1 0.527090 0.080537 0.584065
Si Si2 0.999870 0.848517 0.682804
Si Si3 0.393828 0.456537 0.304307
Si Si4 0.069450 0.647555 0.928596
Si Si5 0.688864 0.853681 0.515142
Si Si6 0.478145 0.352357 0.859365
Si Si7 0.115077 0.033050 0.983764
Si Si8 0.688564 0.649172 0.197522
O O1 0.530034 0.157077 0.465743
O O2 0.487915 0.111297 0.705188
O O3 0.500000 0.000000 0.500000
O O4 0.585182 0.054434 0.642066
O O5 0.987991 0.750000 0.739467
O O6 0.037524 0.892330 0.797492
O O7 0.944084 0.894779 0.674681
O O8 0.345147 0.421457 0.393296
O O9 0.375161 0.456885 0.146706
O O10 0.091315 0.750000 0.904798
O O11 0.115064 0.573955 0.950354
O O12 0.033454 0.645797 0.063862
O O13 0.750000 0.875914 0.538659
O O14 0.677540 0.750000 0.556543
O O15 0.672662 0.870060 0.356040
O O16 0.456017 0.250000 0.853207
O O17 0.438248 0.416785 0.940137
O O18 0.163102 0.076588 0.902797
O O19 0.750000 0.640205 0.178846
O O20 0.670242 0.750000 0.156728
#
# Coordination Sequence:
#
# PCOD8242615 Si02
#       8
#     8   8   8   8   8   8   8   8
#     4  10  21  33  46  72 106 140 179 222 254 303
#     4  10  20  33  48  72 106 138 175 218 257 304
#     4  11  21  32  50  76 103 139 180 218 260 309
#     4  10  21  36  53  75 110 147 178 216 264 313
#     4   9  20  38  55  74 104 138 173 216 264 316
#     4  11  21  34  52  77 111 151 180 210 263 321
#     4  12  21  34  55  79 108 142 182 220 263 314
#     4   9  21  39  57  81 109 137 173 217 267 324
#
# _framework density 17.504830999999999
#
# number of rings (size 3 to 8) (size 9 to 14) (size 15 to 20)
#    0.000    1.750    2.500    3.750    5.250    2.000 
#    0.000    1.250    0.000    0.375    0.000    0.000 
#    0.000    2.000    0.000    0.000    0.000    0.000 
#
# Total GULP energy -793199.781284 kJ/mol
# GULP energy per Si atom -12393.746583 kJ/mol
# Density = 1.746499 g / cm^3
# Si number density = 17.504831 Si / 1000 Ang^3
#
#
#
# Elastic Constant Matrix: (Units=GPa)
#
#
# Indices 1 2 3 4 5 6 
#
# 1 59.4997 34.5763 40.0750 0.0000 0.0000 0.0000
# 2 34.5763 86.8550 32.7155 0.0000 0.0000 0.0000
# 3 40.0750 32.7155 118.3368 0.0000 0.0000 0.0000
# 4 0.0000 0.0000 0.0000 27.2785 0.0000 0.0000
# 5 0.0000 0.0000 0.0000 0.0000 31.1646 0.0000
# 6 0.0000 0.0000 0.0000 0.0000 0.0000 26.9431
#
#
#
# Elastic Compliance Matrix: (Units=1/GPa)
#
#
# Indices 1 2 3 4 5 6 
#
# 1 0.025752 -0.007776 -0.006571 0.000000 0.000000 0.000000
# 2 -0.007776 0.015200 -0.001569 0.000000 0.000000 0.000000
# 3 -0.006571 -0.001569 0.011109 0.000000 0.000000 0.000000
# 4 0.000000 0.000000 0.000000 0.036659 0.000000 0.000000
# 5 0.000000 0.000000 0.000000 0.000000 0.032088 0.000000
# 6 0.000000 0.000000 0.000000 0.000000 0.000000 0.037115
#
#
# Mechanical properties :
#
#
# Convention : Reuss Voigt Hill
#
# Bulk Modulus (GPa) = 49.43434 53.26946 51.35190
# Shear Modulus (GPa) = 25.44556 27.56556 26.50556
#
# Velocity S-wave (km/s) = 3.81679 3.97260 3.89548
# Velocity P-wave (km/s) = 6.90837 7.17910 7.04503
#
# Compressibility (1/GPa) = 0.02022885
#
# Stress axis : x y z
#
# Youngs Moduli (GPa) = 38.83264 65.78927 90.01381
#
# Poissons Ratio (x) = 0.51160 0.59147
# Poissons Ratio (y) = 0.30198 0.14121
# Poissons Ratio (z) = 0.25517 0.10321
#
# Static dielectric constant tensor:
#      x y z
#    x 3.310460 0.000000 0.000000 
#    y 0.000000 3.422190 0.000000 
#    z 0.000000 0.000000 6.288770 
# 
# 
# High freq. dielectric constant tensor:
#      x y z
#    x 1.635310 0.000000 0.000000 
#    y 0.000000 1.675200 0.000000 
#    z 0.000000 0.000000 1.697800 
# 
# From -- ./inp_files/12240.got.cif
#   From: 2010.03.12/outbox.cif.g09.slc.cpg/sg59_7_cif.got.tgz:12240.got - 2010.04.16 16:29:54.
