data_PCOD8242909
_publ_section_title
;
Structure prediction by ZEFSAII (Michael W. Deem and Ramdas Pophale) SiO2 
 PCOD8242909
Probable space group: P M M N
;
_chemical_formula_sum "Si O2"
_cell_formula_units_Z 48
_cell_length_a 8.848944
_cell_length_b 18.385805
_cell_length_c 16.522339
_cell_angle_alpha 90.000000
_cell_angle_beta 90.000000
_cell_angle_gamma 90.000000
_cell_volume 2688.101264
_symmetry_space_group_name_H-M "P M M N"
_symmetry_group_IT_number 59
_space_group.IT_coordinate_system_code '2'
_symmetry_cell_setting 'orthorhombic'
loop_
_space_group_symop_operation_xyz
x,y,z
1/2-x,1/2-y,z
1/2+x,-y,-z
-x,1/2+y,-z
-x,-y,-z
1/2+x,1/2+y,-z
1/2-x,y,z
x,1/2-y,z
loop_
_atom_site_type_symbol
_atom_site_label
_atom_site_fract_x
_atom_site_fract_y
_atom_site_fract_z
Si Si1 0.070589 0.831522 0.151740
Si Si2 0.926747 0.608793 0.816876
Si Si3 0.925792 0.458691 0.741048
Si Si4 0.569629 0.967907 0.580555
Si Si5 0.077701 0.335081 0.012978
Si Si6 0.426220 0.833172 0.660003
O O1 0.250000 0.832865 0.152073
O O2 0.008707 0.750000 0.168427
O O3 0.003358 0.884779 0.221413
O O4 0.017978 0.860404 0.064380
O O5 0.750000 0.628272 0.807907
O O6 0.957902 0.523805 0.803276
O O7 0.986619 0.626351 0.906634
O O8 0.015671 0.656544 0.751395
O O9 0.750000 0.445685 0.729893
O O10 0.991020 0.479745 0.652971
O O11 0.750000 0.966499 0.575560
O O12 0.513303 0.885865 0.597342
O O13 0.500000 0.000000 0.500000
O O14 0.250000 0.357982 0.997287
O O15 0.061035 0.250000 0.027547
O O16 0.250000 0.852259 0.656679
O O17 0.456237 0.750000 0.633247
#
# Coordination Sequence:
#
# PCOD8242909 Si02
#       6
#     8   8   8   8   8   8
#     4   9  17  30  47  65  89 124 163 200 239 283
#     4   9  17  30  48  68  94 130 166 200 242 292
#     4   8  16  31  49  69  92 121 159 199 239 288
#     4  10  20  36  57  77 101 131 163 202 249 302
#     4   9  17  28  42  63  92 125 161 200 243 289
#     4  10  20  33  51  77 106 132 162 202 246 295
#
# _framework density 17.856469000000001
#
# number of rings (size 3 to 8) (size 9 to 14) (size 15 to 20)
#    0.000    2.833    0.000    2.500    0.000    3.333 
#    0.000    6.667    0.000    3.000    0.000    0.000 
#    0.000    0.000    0.000    0.000    0.000    0.000 
#
# Total GULP energy -595013.169242 kJ/mol
# GULP energy per Si atom -12396.107693 kJ/mol
# Density = 1.781583 g / cm^3
# Si number density = 17.856469 Si / 1000 Ang^3
#
#
#
# Elastic Constant Matrix: (Units=GPa)
#
#
# Indices 1 2 3 4 5 6 
#
# 1 51.5094 38.7430 35.5926 0.0000 0.0000 0.0000
# 2 38.7430 105.6560 84.1901 0.0000 0.0000 0.0000
# 3 35.5926 84.1901 139.0354 0.0000 0.0000 0.0000
# 4 0.0000 0.0000 0.0000 28.5502 0.0000 0.0000
# 5 0.0000 0.0000 0.0000 0.0000 28.1195 0.0000
# 6 0.0000 0.0000 0.0000 0.0000 0.0000 21.1103
#
#
#
# Elastic Compliance Matrix: (Units=1/GPa)
#
#
# Indices 1 2 3 4 5 6 
#
# 1 0.027032 -0.008499 -0.001774 0.000000 0.000000 0.000000
# 2 -0.008499 0.020962 -0.010517 0.000000 0.000000 0.000000
# 3 -0.001774 -0.010517 0.014015 0.000000 0.000000 0.000000
# 4 0.000000 0.000000 0.000000 0.035026 0.000000 0.000000
# 5 0.000000 0.000000 0.000000 0.000000 0.035562 0.000000
# 6 0.000000 0.000000 0.000000 0.000000 0.000000 0.047370
#
#
# Mechanical properties :
#
#
# Convention : Reuss Voigt Hill
#
# Bulk Modulus (GPa) = 48.95038 68.13913 58.54476
# Shear Modulus (GPa) = 21.89556 24.73436 23.31496
#
# Velocity S-wave (km/s) = 3.50551 3.72583 3.61735
# Velocity P-wave (km/s) = 6.62250 7.53335 7.09256
#
# Compressibility (1/GPa) = 0.02042885
#
# Stress axis : x y z
#
# Youngs Moduli (GPa) = 36.99297 47.70623 71.35246
#
# Poissons Ratio (x) = 0.40546 0.12656
# Poissons Ratio (y) = 0.31441 0.75043
# Poissons Ratio (z) = 0.06561 0.50173
#
# Static dielectric constant tensor:
#      x y z
#    x 3.161690 0.000000 0.000000 
#    y 0.000000 3.515470 0.000000 
#    z 0.000000 0.000000 3.462430 
# 
# 
# High freq. dielectric constant tensor:
#      x y z
#    x 1.673630 0.000000 0.000000 
#    y 0.000000 1.690130 0.000000 
#    z 0.000000 0.000000 1.684720 
# 
# From -- ./inp_files/20774.got.cif
#   From: 2010.03.12/outbox.cif.g09.slc.cpg/sg59_11_cif.got.tgz:20774.got - 2010.04.16 16:29:54.
