data_PCOD8242089
_publ_section_title
;
Structure prediction by ZEFSAII (Michael W. Deem and Ramdas Pophale) SiO2 
 PCOD8242089
Probable space group: P M M N
;
_chemical_formula_sum "Si O2"
_cell_formula_units_Z 48
_cell_length_a 9.824330
_cell_length_b 9.067605
_cell_length_c 28.999886
_cell_angle_alpha 90.000000
_cell_angle_beta 90.000000
_cell_angle_gamma 90.000000
_cell_volume 2583.401016
_symmetry_space_group_name_H-M "P M M N"
_symmetry_group_IT_number 59
_space_group.IT_coordinate_system_code '2'
_symmetry_cell_setting 'orthorhombic'
loop_
_space_group_symop_operation_xyz
x,y,z
1/2-x,1/2-y,z
1/2+x,-y,-z
-x,1/2+y,-z
-x,-y,-z
1/2+x,1/2+y,-z
1/2-x,y,z
x,1/2-y,z
loop_
_atom_site_type_symbol
_atom_site_label
_atom_site_fract_x
_atom_site_fract_y
_atom_site_fract_z
Si Si1 0.093795 0.577714 0.859415
Si Si2 0.531379 0.575254 0.396949
Si Si3 0.593431 0.425435 0.786208
Si Si4 0.401729 0.075126 0.705183
Si Si5 0.598013 0.422192 0.035213
Si Si6 0.250000 0.922574 0.437741
Si Si7 0.750000 0.074033 0.458744
O O1 0.250000 0.530261 0.848390
O O2 0.075897 0.750000 0.848885
O O3 0.057682 0.541760 0.912288
O O4 0.985156 0.486260 0.830387
O O5 0.558402 0.750000 0.401383
O O6 0.565836 0.516617 0.345924
O O7 0.377926 0.528480 0.407550
O O8 0.618032 0.489031 0.434205
O O9 0.750000 0.481591 0.785104
O O10 0.589428 0.250000 0.788275
O O11 0.514076 0.485811 0.740945
O O12 0.250000 0.021506 0.719710
O O13 0.408264 0.250000 0.704808
O O14 0.750000 0.480021 0.025687
O O15 0.589357 0.250000 0.026223
O O16 0.500000 0.500000 0.000000
O O17 0.250000 0.750000 0.445118
O O18 0.250000 0.989948 0.489134
O O19 0.750000 0.250000 0.456383
#
# Coordination Sequence:
#
# PCOD8242089 Si02
#       7
#     8   8   8   8   8   4   4
#     4   9  19  37  57  76 104 145 186 218 256 313
#     4  10  19  35  57  79 101 136 179 215 256 313
#     4  10  21  34  52  81 111 135 165 216 274 316
#     4   9  17  31  53  78 100 129 173 217 255 304
#     4   9  19  35  54  78 108 142 182 225 265 309
#     4   9  20  33  53  81 107 135 173 217 262 309
#     4  11  21  35  51  77 111 139 171 215 260 309
#
# _framework density 18.580158000000001
#
# number of rings (size 3 to 8) (size 9 to 14) (size 15 to 20)
#    0.000    2.500    0.833    2.250    1.167    3.000 
#    0.000    7.083    0.000    0.000    0.000    0.000 
#    0.000    0.000    0.000    0.000    0.000    0.000 
#
# Total GULP energy -595085.474824 kJ/mol
# GULP energy per Si atom -12397.614059 kJ/mol
# Density = 1.853787 g / cm^3
# Si number density = 18.580158 Si / 1000 Ang^3
#
#
#
# Elastic Constant Matrix: (Units=GPa)
#
#
# Indices 1 2 3 4 5 6 
#
# 1 155.5489 28.0382 73.8470 0.0000 0.0000 0.0000
# 2 28.0382 26.4441 24.9775 0.0000 0.0000 0.0000
# 3 73.8470 24.9775 119.3925 0.0000 0.0000 0.0000
# 4 0.0000 0.0000 0.0000 27.8550 0.0000 0.0000
# 5 0.0000 0.0000 0.0000 0.0000 41.9892 0.0000
# 6 0.0000 0.0000 0.0000 0.0000 0.0000 27.1470
#
#
#
# Elastic Compliance Matrix: (Units=1/GPa)
#
#
# Indices 1 2 3 4 5 6 
#
# 1 0.009765 -0.005794 -0.004828 0.000000 0.000000 0.000000
# 2 -0.005794 0.050566 -0.006995 0.000000 0.000000 0.000000
# 3 -0.004828 -0.006995 0.012825 0.000000 0.000000 0.000000
# 4 0.000000 0.000000 0.000000 0.035900 0.000000 0.000000
# 5 0.000000 0.000000 0.000000 0.000000 0.023816 0.000000
# 6 0.000000 0.000000 0.000000 0.000000 0.000000 0.036836
#
#
# Mechanical properties :
#
#
# Convention : Reuss Voigt Hill
#
# Bulk Modulus (GPa) = 26.36938 61.67898 44.02418
# Shear Modulus (GPa) = 22.97976 31.03309 27.00643
#
# Velocity S-wave (km/s) = 3.52062 4.09128 3.81663
# Velocity P-wave (km/s) = 5.54521 7.45562 6.57022
#
# Compressibility (1/GPa) = 0.03792278
#
# Stress axis : x y z
#
# Youngs Moduli (GPa) = 102.40368 19.77630 77.97069
#
# Poissons Ratio (x) = 0.11458 0.37644
# Poissons Ratio (y) = 0.59330 0.54540
# Poissons Ratio (z) = 0.49440 0.13834
#
# Static dielectric constant tensor:
#      x y z
#    x 3.430700 0.000000 0.000000 
#    y 0.000000 3.059310 0.000000 
#    z 0.000000 0.000000 3.467470 
# 
# 
# High freq. dielectric constant tensor:
#      x y z
#    x 1.733940 0.000000 0.000000 
#    y 0.000000 1.684710 0.000000 
#    z 0.000000 0.000000 1.732770 
# 
# From -- ./inp_files/33038.got.cif
#   From: 2010.03.12/outbox.cif.g09.slc.cpg/sg59_17_cif.got.tgz:33038.got - 2010.04.16 16:29:54.
