data_PCOD8242562
_publ_section_title
;
Structure prediction by ZEFSAII (Michael W. Deem and Ramdas Pophale) SiO2 
 PCOD8242562
Probable space group: P M M N
;
_chemical_formula_sum "Si O2"
_cell_formula_units_Z 48
_cell_length_a 9.380163
_cell_length_b 17.795254
_cell_length_c 15.697834
_cell_angle_alpha 90.000000
_cell_angle_beta 90.000000
_cell_angle_gamma 90.000000
_cell_volume 2620.319862
_symmetry_space_group_name_H-M "P M M N"
_symmetry_group_IT_number 59
_space_group.IT_coordinate_system_code '2'
_symmetry_cell_setting 'orthorhombic'
loop_
_space_group_symop_operation_xyz
x,y,z
1/2-x,1/2-y,z
1/2+x,-y,-z
-x,1/2+y,-z
-x,-y,-z
1/2+x,1/2+y,-z
1/2-x,y,z
x,1/2-y,z
loop_
_atom_site_type_symbol
_atom_site_label
_atom_site_fract_x
_atom_site_fract_y
_atom_site_fract_z
Si Si1 0.916715 0.750000 0.791756
Si Si2 0.584536 0.250000 0.381263
Si Si3 0.085808 0.960942 0.198073
Si Si4 0.085427 0.663716 0.063740
Si Si5 0.913823 0.105006 0.484691
Si Si6 0.083978 0.038834 0.628370
Si Si7 0.583414 0.609100 0.904792
O O1 0.750000 0.750000 0.773237
O O2 0.964274 0.823978 0.842501
O O3 0.995780 0.750000 0.703565
O O4 0.750000 0.250000 0.356298
O O5 0.540812 0.320266 0.437466
O O6 0.250000 0.971033 0.226636
O O7 0.062714 0.881081 0.151758
O O8 0.985214 0.962706 0.279276
O O9 0.041345 0.029347 0.136109
O O10 0.250000 0.662077 0.036436
O O11 0.032507 0.750000 0.075084
O O12 0.998200 0.619191 0.992863
O O13 0.750000 0.104713 0.514253
O O14 0.009770 0.101300 0.569311
O O15 0.944992 0.040046 0.416957
O O16 0.250000 0.057518 0.637883
O O17 0.750000 0.613632 0.925206
#
# Coordination Sequence:
#
# PCOD8242562 Si02
#       7
#     4   4   8   8   8   8   8
#     4  10  20  32  50  79 112 139 168 215 274 325
#     4  10  20  34  54  81 106 137 178 217 262 317
#     4  10  21  36  55  79 107 142 183 223 265 318
#     4  10  21  37  55  77 106 142 182 224 269 315
#     4   9  19  36  56  78 108 141 175 218 268 319
#     4  10  20  35  56  81 107 140 180 220 264 316
#     4  10  20  35  55  79 108 142 178 219 271 323
#
# _framework density 18.318373999999999
#
# number of rings (size 3 to 8) (size 9 to 14) (size 15 to 20)
#    0.000    2.167    0.833    2.000    0.000    3.333 
#    1.500    0.000    0.000    0.000    0.000    0.000 
#    0.000    0.000    0.000    0.000    0.000    0.000 
#
# Total GULP energy -595330.283516 kJ/mol
# GULP energy per Si atom -12402.714240 kJ/mol
# Density = 1.827668 g / cm^3
# Si number density = 18.318374 Si / 1000 Ang^3
#
#
#
# Elastic Constant Matrix: (Units=GPa)
#
#
# Indices 1 2 3 4 5 6 
#
# 1 77.8747 28.8603 68.1933 0.0000 0.0000 0.0000
# 2 28.8603 74.0783 40.4727 0.0000 0.0000 0.0000
# 3 68.1933 40.4727 108.5282 0.0000 0.0000 0.0000
# 4 0.0000 0.0000 0.0000 6.1053 0.0000 0.0000
# 5 0.0000 0.0000 0.0000 0.0000 42.9912 0.0000
# 6 0.0000 0.0000 0.0000 0.0000 0.0000 26.0510
#
#
#
# Elastic Compliance Matrix: (Units=1/GPa)
#
#
# Indices 1 2 3 4 5 6 
#
# 1 0.028714 -0.001669 -0.017420 0.000000 0.000000 0.000000
# 2 -0.001669 0.017051 -0.005310 0.000000 0.000000 0.000000
# 3 -0.017420 -0.005310 0.022140 0.000000 0.000000 0.000000
# 4 0.000000 0.000000 0.000000 0.163791 0.000000 0.000000
# 5 0.000000 0.000000 0.000000 0.000000 0.023261 0.000000
# 6 0.000000 0.000000 0.000000 0.000000 0.000000 0.038386
#
#
# Mechanical properties :
#
#
# Convention : Reuss Voigt Hill
#
# Bulk Modulus (GPa) = 52.33712 59.50376 55.92044
# Shear Modulus (GPa) = 14.34684 23.22650 18.78667
#
# Velocity S-wave (km/s) = 2.80160 3.56467 3.20592
# Velocity P-wave (km/s) = 6.25285 7.03535 6.65561
#
# Compressibility (1/GPa) = 0.01910690
#
# Stress axis : x y z
#
# Youngs Moduli (GPa) = 34.82623 58.64928 45.16730
#
# Poissons Ratio (x) = 0.09791 0.78680
# Poissons Ratio (y) = 0.05814 0.23982
# Poissons Ratio (z) = 0.60666 0.31140
#
# Static dielectric constant tensor:
#      x y z
#    x 3.270480 0.000000 0.000000 
#    y 0.000000 3.542590 0.000000 
#    z 0.000000 0.000000 3.267240 
# 
# 
# High freq. dielectric constant tensor:
#      x y z
#    x 1.708370 0.000000 0.000000 
#    y 0.000000 1.717730 0.000000 
#    z 0.000000 0.000000 1.710350 
# 
# From -- ./inp_files/20557.got.cif
#   From: 2010.03.12/outbox.cif.g09.slc.cpg/sg59_11_cif.got.tgz:20557.got - 2010.04.16 16:29:54.
