data_PCOD8242104
_publ_section_title
;
Structure prediction by ZEFSAII (Michael W. Deem and Ramdas Pophale) SiO2 
 PCOD8242104
Probable space group: P M M N
;
_chemical_formula_sum "Si O2"
_cell_formula_units_Z 40
_cell_length_a 9.176016
_cell_length_b 24.514465
_cell_length_c 9.489284
_cell_angle_alpha 90.000000
_cell_angle_beta 90.000000
_cell_angle_gamma 90.000000
_cell_volume 2134.568157
_symmetry_space_group_name_H-M "P M M N"
_symmetry_group_IT_number 59
_space_group.IT_coordinate_system_code '2'
_symmetry_cell_setting 'orthorhombic'
loop_
_space_group_symop_operation_xyz
x,y,z
1/2-x,1/2-y,z
1/2+x,-y,-z
-x,1/2+y,-z
-x,-y,-z
1/2+x,1/2+y,-z
1/2-x,y,z
x,1/2-y,z
loop_
_atom_site_type_symbol
_atom_site_label
_atom_site_fract_x
_atom_site_fract_y
_atom_site_fract_z
Si Si1 0.076313 0.643782 0.210073
Si Si2 0.422175 0.651368 0.532632
Si Si3 0.083246 0.034127 0.884396
Si Si4 0.922646 0.250000 0.962665
Si Si5 0.087276 0.965199 0.607263
Si Si6 0.424421 0.750000 0.717048
O O1 0.250000 0.635013 0.201182
O O2 0.023358 0.653831 0.370682
O O3 0.023999 0.695769 0.118793
O O4 0.998721 0.590271 0.148966
O O5 0.250000 0.658140 0.532260
O O6 0.476056 0.596020 0.608146
O O7 0.488172 0.698710 0.630459
O O8 0.250000 0.047132 0.928452
O O9 0.080152 0.992260 0.757115
O O10 0.000000 0.000000 0.000000
O O11 0.750000 0.250000 0.964868
O O12 0.984884 0.250000 0.122487
O O13 0.250000 0.961938 0.547291
O O14 0.000000 0.000000 0.500000
O O15 0.250000 0.750000 0.722174
#
# Coordination Sequence:
#
# PCOD8242104 Si02
#       6
#     8   8   8   4   8   4
#     4  10  19  35  57  82 112 146 187 229 279 335
#     4   9  17  30  51  78 109 140 173 225 280 327
#     4  11  24  38  56  83 116 152 190 231 285 342
#     4   9  19  31  52  83 112 146 187 232 274 327
#     4  10  20  35  56  83 111 142 182 228 279 333
#     4   9  17  29  49  79 110 138 179 228 278 323
#
# _framework density 18.739153999999999
#
# number of rings (size 3 to 8) (size 9 to 14) (size 15 to 20)
#    0.000    2.200    2.000    1.200    2.800    3.200 
#    0.000    0.500    0.000    0.000    0.000    0.700 
#    0.000    0.000    0.000    0.000    0.000    0.000 
#
# Total GULP energy -495807.388676 kJ/mol
# GULP energy per Si atom -12395.184717 kJ/mol
# Density = 1.869650 g / cm^3
# Si number density = 18.739154 Si / 1000 Ang^3
#
#
#
# Elastic Constant Matrix: (Units=GPa)
#
#
# Indices 1 2 3 4 5 6 
#
# 1 50.5842 41.2860 38.4176 0.0000 0.0000 0.0000
# 2 41.2860 197.8265 86.0021 0.0000 0.0000 0.0000
# 3 38.4176 86.0021 119.4618 0.0000 0.0000 0.0000
# 4 0.0000 0.0000 0.0000 41.6996 0.0000 0.0000
# 5 0.0000 0.0000 0.0000 0.0000 18.2906 0.0000
# 6 0.0000 0.0000 0.0000 0.0000 0.0000 26.3046
#
#
#
# Elastic Compliance Matrix: (Units=1/GPa)
#
#
# Indices 1 2 3 4 5 6 
#
# 1 0.027128 -0.002720 -0.006766 0.000000 0.000000 0.000000
# 2 -0.002720 0.007630 -0.004618 0.000000 0.000000 0.000000
# 3 -0.006766 -0.004618 0.013872 0.000000 0.000000 0.000000
# 4 0.000000 0.000000 0.000000 0.023981 0.000000 0.000000
# 5 0.000000 0.000000 0.000000 0.000000 0.054673 0.000000
# 6 0.000000 0.000000 0.000000 0.000000 0.000000 0.038016
#
#
# Mechanical properties :
#
#
# Convention : Reuss Voigt Hill
#
# Bulk Modulus (GPa) = 48.96933 77.69821 63.33377
# Shear Modulus (GPa) = 24.96064 30.73673 27.84869
#
# Velocity S-wave (km/s) = 3.65362 4.05438 3.85921
# Velocity P-wave (km/s) = 6.63230 7.96683 7.33000
#
# Compressibility (1/GPa) = 0.02042094
#
# Stress axis : x y z
#
# Youngs Moduli (GPa) = 36.86285 131.05393 72.09023
#
# Poissons Ratio (x) = 0.35650 0.48773
# Poissons Ratio (y) = 0.10028 0.33295
# Poissons Ratio (z) = 0.24940 0.60527
#
# Static dielectric constant tensor:
#      x y z
#    x 3.196630 0.000000 0.000000 
#    y 0.000000 3.723060 0.000000 
#    z 0.000000 0.000000 3.601350 
# 
# 
# High freq. dielectric constant tensor:
#      x y z
#    x 1.678950 0.000000 0.000000 
#    y 0.000000 1.749700 0.000000 
#    z 0.000000 0.000000 1.738980 
# 
# From -- ./inp_files/5891.got.cif
#   From: 2010.03.12/outbox.cif.g09.slc.cpg/sg59_3_cif.got.tgz:5891.got - 2010.04.16 16:29:54.
