data_PCOD8242278
_publ_section_title
;
Structure prediction by ZEFSAII (Michael W. Deem and Ramdas Pophale) SiO2 
 PCOD8242278
Probable space group: P M M N
;
_chemical_formula_sum "Si O2"
_cell_formula_units_Z 64
_cell_length_a 25.931370
_cell_length_b 9.204022
_cell_length_c 18.475716
_cell_angle_alpha 90.000000
_cell_angle_beta 90.000000
_cell_angle_gamma 90.000000
_cell_volume 4409.652717
_symmetry_space_group_name_H-M "P M M N"
_symmetry_group_IT_number 59
_space_group.IT_coordinate_system_code '2'
_symmetry_cell_setting 'orthorhombic'
loop_
_space_group_symop_operation_xyz
x,y,z
1/2-x,1/2-y,z
1/2+x,-y,-z
-x,1/2+y,-z
-x,-y,-z
1/2+x,1/2+y,-z
1/2-x,y,z
x,1/2-y,z
loop_
_atom_site_type_symbol
_atom_site_label
_atom_site_fract_x
_atom_site_fract_y
_atom_site_fract_z
Si Si1 0.191345 0.582438 0.685197
Si Si2 0.809185 0.920562 0.170315
Si Si3 0.102770 0.920375 0.579353
Si Si4 0.999400 0.079040 0.167798
Si Si5 0.956966 0.081688 0.955306
Si Si6 0.048601 0.419515 0.466652
Si Si7 0.506548 0.418060 0.328449
Si Si8 0.393025 0.584747 0.912069
O O1 0.250000 0.547640 0.663727
O O2 0.183342 0.750000 0.706751
O O3 0.173276 0.488793 0.753529
O O4 0.157424 0.542211 0.615354
O O5 0.750000 0.962393 0.152985
O O6 0.816842 0.750000 0.175634
O O7 0.845178 0.981949 0.106920
O O8 0.096016 0.750000 0.563478
O O9 0.057807 0.980268 0.632646
O O10 0.099176 0.006053 0.502374
O O11 0.011268 0.250000 0.163447
O O12 0.002110 0.013623 0.249224
O O13 0.943269 0.042528 0.135064
O O14 0.044543 0.995097 0.123314
O O15 0.971974 0.250000 0.946587
O O16 0.904242 0.066032 0.001769
O O17 0.000000 0.000000 0.000000
O O18 0.047144 0.250000 0.486348
O O19 0.000000 0.500000 0.500000
O O20 0.044110 0.441660 0.379446
O O21 0.517684 0.250000 0.315004
O O22 0.377345 0.750000 0.894620
#
# Coordination Sequence:
#
# PCOD8242278 Si02
#       8
#     8   8   8   8   8   8   8   8
#     4   9  17  29  44  59  77 105 138 168 200 239
#     4  10  20  30  40  58  82 104 131 170 206 232
#     4   9  16  27  41  56  77 105 136 167 197 230
#     4   9  16  27  42  59  79 104 133 162 194 231
#     4   9  17  28  40  57  79 102 130 162 194 229
#     4   9  16  26  39  56  78 104 133 163 195 231
#     4   8  14  24  38  55  77 104 130 157 190 231
#     4   9  17  28  42  57  76 106 137 160 190 237
#
# _framework density 14.513615
#
# number of rings (size 3 to 8) (size 9 to 14) (size 15 to 20)
#    0.000    3.000    0.000    3.375    0.000    5.750 
#    0.000    3.125    0.000    0.000    0.000    0.000 
#    0.000    1.000    0.000    7.000    0.000    4.000 
#
# Total GULP energy -793100.898573 kJ/mol
# GULP energy per Si atom -12392.201540 kJ/mol
# Density = 1.448058 g / cm^3
# Si number density = 14.513615 Si / 1000 Ang^3
#
#
#
# Elastic Constant Matrix: (Units=GPa)
#
#
# Indices 1 2 3 4 5 6 
#
# 1 58.4933 32.7381 42.0751 0.0000 0.0000 0.0000
# 2 32.7381 62.8242 37.9969 0.0000 0.0000 0.0000
# 3 42.0751 37.9969 101.3620 0.0000 0.0000 0.0000
# 4 0.0000 0.0000 0.0000 24.7085 0.0000 0.0000
# 5 0.0000 0.0000 0.0000 0.0000 23.1124 0.0000
# 6 0.0000 0.0000 0.0000 0.0000 0.0000 20.0218
#
#
#
# Elastic Compliance Matrix: (Units=1/GPa)
#
#
# Indices 1 2 3 4 5 6 
#
# 1 0.028487 -0.009949 -0.008096 0.000000 0.000000 0.000000
# 2 -0.009949 0.024059 -0.004889 0.000000 0.000000 0.000000
# 3 -0.008096 -0.004889 0.015059 0.000000 0.000000 0.000000
# 4 0.000000 0.000000 0.000000 0.040472 0.000000 0.000000
# 5 0.000000 0.000000 0.000000 0.000000 0.043267 0.000000
# 6 0.000000 0.000000 0.000000 0.000000 0.000000 0.049945
#
#
# Mechanical properties :
#
#
# Convention : Reuss Voigt Hill
#
# Bulk Modulus (GPa) = 46.00186 49.81107 47.90646
# Shear Modulus (GPa) = 19.65393 20.89317 20.27355
#
# Velocity S-wave (km/s) = 3.68390 3.79826 3.74152
# Velocity P-wave (km/s) = 7.06111 7.32328 7.19339
#
# Compressibility (1/GPa) = 0.02173825
#
# Stress axis : x y z
#
# Youngs Moduli (GPa) = 35.10320 41.56498 66.40606
#
# Poissons Ratio (x) = 0.41351 0.53760
# Poissons Ratio (y) = 0.34923 0.32467
# Poissons Ratio (z) = 0.28418 0.20322
#
# Static dielectric constant tensor:
#      x y z
#    x 2.743770 0.000000 0.000000 
#    y 0.000000 2.901380 0.000000 
#    z 0.000000 0.000000 3.248000 
# 
# 
# High freq. dielectric constant tensor:
#      x y z
#    x 1.516420 0.000000 0.000000 
#    y 0.000000 1.554160 0.000000 
#    z 0.000000 0.000000 1.548050 
# 
# From -- ./inp_files/28504.got.cif
#   From: 2010.03.12/outbox.cif.g09.slc.cpg/sg59_15_cif.got.tgz:28504.got - 2010.04.16 16:29:54.
