data_PCOD8242475
_publ_section_title
;
Structure prediction by ZEFSAII (Michael W. Deem and Ramdas Pophale) SiO2 
 PCOD8242475
Probable space group: P M M N
;
_chemical_formula_sum "Si O2"
_cell_formula_units_Z 64
_cell_length_a 21.284090
_cell_length_b 9.462052
_cell_length_c 16.598389
_cell_angle_alpha 90.000000
_cell_angle_beta 90.000000
_cell_angle_gamma 90.000000
_cell_volume 3342.768920
_symmetry_space_group_name_H-M "P M M N"
_symmetry_group_IT_number 59
_space_group.IT_coordinate_system_code '2'
_symmetry_cell_setting 'orthorhombic'
loop_
_space_group_symop_operation_xyz
x,y,z
1/2-x,1/2-y,z
1/2+x,-y,-z
-x,1/2+y,-z
-x,-y,-z
1/2+x,1/2+y,-z
1/2-x,y,z
x,1/2-y,z
loop_
_atom_site_type_symbol
_atom_site_label
_atom_site_fract_x
_atom_site_fract_y
_atom_site_fract_z
Si Si1 0.821950 0.406407 0.730986
Si Si2 0.917325 0.909375 0.813598
Si Si3 0.000728 0.582753 0.300215
Si Si4 0.102407 0.908489 0.425698
Si Si5 0.679087 0.918420 0.110690
Si Si6 0.859711 0.916043 0.284533
Si Si7 0.936055 0.910475 0.998938
Si Si8 0.819558 0.915198 0.455589
O O1 0.750000 0.438511 0.735497
O O2 0.839164 0.250000 0.764934
O O3 0.851896 0.529551 0.783119
O O4 0.841895 0.414524 0.638456
O O5 0.926797 0.750000 0.781836
O O6 0.911957 0.913287 0.908703
O O7 0.972902 0.006727 0.779344
O O8 0.009182 0.750000 0.287425
O O9 0.929610 0.532182 0.306466
O O10 0.038522 0.537059 0.381389
O O11 0.092588 0.750000 0.459079
O O12 0.123580 0.006705 0.499303
O O13 0.750000 0.969131 0.084160
O O14 0.678078 0.750000 0.109679
O O15 0.666330 0.980547 0.200845
O O16 0.621739 0.973151 0.053358
O O17 0.859912 0.750000 0.272033
O O18 0.817996 0.959786 0.361262
O O19 0.951682 0.750000 0.026711
O O20 0.000000 0.000000 0.000000
O O21 0.750000 0.951567 0.490046
O O22 0.834432 0.750000 0.463808
#
# Coordination Sequence:
#
# PCOD8242475 Si02
#       8
#     8   8   8   8   8   8   8   8
#     4   9  18  33  52  72  97 134 175 206 238 295
#     4  10  20  32  48  75 106 131 161 207 260 304
#     4   9  18  34  54  73  97 133 173 208 247 303
#     4   9  18  32  49  70  97 130 167 204 242 293
#     4   9  17  31  53  79 105 135 174 218 262 310
#     4   9  17  31  52  74  96 127 168 212 256 303
#     4  10  21  35  54  80 107 138 175 215 260 312
#     4  10  20  32  48  73 101 126 159 207 258 305
#
# _framework density 19.145803999999998
#
# number of rings (size 3 to 8) (size 9 to 14) (size 15 to 20)
#    0.000    2.625    0.000    2.625    0.000    7.500 
#    0.000    1.875    0.000    1.125    0.000    0.000 
#    0.000    0.000    0.000    0.000    0.000    0.000 
#
# Total GULP energy -793060.171967 kJ/mol
# GULP energy per Si atom -12391.565187 kJ/mol
# Density = 1.910223 g / cm^3
# Si number density = 19.145804 Si / 1000 Ang^3
#
#
#
# Elastic Constant Matrix: (Units=GPa)
#
#
# Indices 1 2 3 4 5 6 
#
# 1 139.7054 16.6265 22.2218 0.0000 0.0000 0.0000
# 2 16.6265 63.4254 48.6487 0.0000 0.0000 0.0000
# 3 22.2218 48.6487 108.6295 0.0000 0.0000 0.0000
# 4 0.0000 0.0000 0.0000 19.8478 0.0000 0.0000
# 5 0.0000 0.0000 0.0000 0.0000 21.8773 0.0000
# 6 0.0000 0.0000 0.0000 0.0000 0.0000 22.4446
#
#
#
# Elastic Compliance Matrix: (Units=1/GPa)
#
#
# Indices 1 2 3 4 5 6 
#
# 1 0.007458 -0.001195 -0.000990 0.000000 0.000000 0.000000
# 2 -0.001195 0.024208 -0.010597 0.000000 0.000000 0.000000
# 3 -0.000990 -0.010597 0.014154 0.000000 0.000000 0.000000
# 4 0.000000 0.000000 0.000000 0.050383 0.000000 0.000000
# 5 0.000000 0.000000 0.000000 0.000000 0.045709 0.000000
# 6 0.000000 0.000000 0.000000 0.000000 0.000000 0.044554
#
#
# Mechanical properties :
#
#
# Convention : Reuss Voigt Hill
#
# Bulk Modulus (GPa) = 49.37157 54.08383 51.72770
# Shear Modulus (GPa) = 22.85374 27.78484 25.31929
#
# Velocity S-wave (km/s) = 3.45870 3.81363 3.64049
# Velocity P-wave (km/s) = 6.46477 6.90662 6.68934
#
# Compressibility (1/GPa) = 0.02025457
#
# Stress axis : x y z
#
# Youngs Moduli (GPa) = 134.08967 41.30890 70.65236
#
# Poissons Ratio (x) = 0.04938 0.06996
# Poissons Ratio (y) = 0.16030 0.74868
# Poissons Ratio (z) = 0.13278 0.43774
#
# Static dielectric constant tensor:
#      x y z
#    x 3.697620 0.000000 0.000000 
#    y 0.000000 3.294370 0.000000 
#    z 0.000000 0.000000 3.509380 
# 
# 
# High freq. dielectric constant tensor:
#      x y z
#    x 1.756610 0.000000 0.000000 
#    y 0.000000 1.707000 0.000000 
#    z 0.000000 0.000000 1.740800 
# 
# From -- ./inp_files/28307.got.cif
#   From: 2010.03.12/outbox.cif.g09.slc.cpg/sg59_15_cif.got.tgz:28307.got - 2010.04.16 16:29:54.
