data_PCOD8242041
_publ_section_title
;
Structure prediction by ZEFSAII (Michael W. Deem and Ramdas Pophale) SiO2 
 PCOD8242041
Probable space group: P M M N
;
_chemical_formula_sum "Si O2"
_cell_formula_units_Z 40
_cell_length_a 8.796510
_cell_length_b 20.527115
_cell_length_c 11.571893
_cell_angle_alpha 90.000000
_cell_angle_beta 90.000000
_cell_angle_gamma 90.000000
_cell_volume 2089.501684
_symmetry_space_group_name_H-M "P M M N"
_symmetry_group_IT_number 59
_space_group.IT_coordinate_system_code '2'
_symmetry_cell_setting 'orthorhombic'
loop_
_space_group_symop_operation_xyz
x,y,z
1/2-x,1/2-y,z
1/2+x,-y,-z
-x,1/2+y,-z
-x,-y,-z
1/2+x,1/2+y,-z
1/2-x,y,z
x,1/2-y,z
loop_
_atom_site_type_symbol
_atom_site_label
_atom_site_fract_x
_atom_site_fract_y
_atom_site_fract_z
Si Si1 0.929816 0.250000 0.363591
Si Si2 0.929947 0.173718 0.007989
Si Si3 0.568644 0.250000 0.621931
Si Si4 0.570805 0.870670 0.763216
Si Si5 0.570183 0.500006 0.627480
Si Si6 0.569512 0.127216 0.758936
O O1 0.750000 0.250000 0.358011
O O2 0.993199 0.250000 0.492681
O O3 0.989326 0.186621 0.302612
O O4 0.750000 0.168862 0.025500
O O5 0.979169 0.250000 0.009451
O O6 0.013944 0.131435 0.105275
O O7 0.983804 0.138654 0.890224
O O8 0.750000 0.250000 0.626863
O O9 0.502505 0.186277 0.683745
O O10 0.750000 0.860978 0.760048
O O11 0.520770 0.936849 0.699971
O O12 0.500000 0.500000 0.500000
O O13 0.750000 0.495763 0.612384
O O14 0.507091 0.439434 0.703037
O O15 0.750000 0.127727 0.754678
#
# Coordination Sequence:
#
# PCOD8242041 Si02
#       6
#     4   8   4   8   8   8
#     4  11  21  34  57  84 106 143 198 241 276 333
#     4  10  19  34  59  86 110 142 190 238 280 334
#     4   9  16  28  53  84 106 131 180 241 284 315
#     4  11  23  37  54  80 117 154 184 229 293 344
#     4  10  22  39  58  82 117 156 191 233 287 340
#     4   9  17  33  56  83 112 143 184 236 283 326
#
# _framework density 19.143319999999999
#
# number of rings (size 3 to 8) (size 9 to 14) (size 15 to 20)
#    0.000    2.000    2.000    2.100    0.000    4.000 
#    0.000    1.000    0.000    2.400    0.000    0.000 
#    0.000    0.000    0.000    0.000    0.000    0.000 
#
# Total GULP energy -495967.668757 kJ/mol
# GULP energy per Si atom -12399.191719 kJ/mol
# Density = 1.909975 g / cm^3
# Si number density = 19.143320 Si / 1000 Ang^3
#
#
#
# Elastic Constant Matrix: (Units=GPa)
#
#
# Indices 1 2 3 4 5 6 
#
# 1 33.5272 31.3025 34.6775 0.0000 0.0000 0.0000
# 2 31.3025 170.2048 95.2834 0.0000 0.0000 0.0000
# 3 34.6775 95.2834 194.9948 0.0000 0.0000 0.0000
# 4 0.0000 0.0000 0.0000 47.9307 0.0000 0.0000
# 5 0.0000 0.0000 0.0000 0.0000 23.7555 0.0000
# 6 0.0000 0.0000 0.0000 0.0000 0.0000 116.3543
#
#
#
# Elastic Compliance Matrix: (Units=1/GPa)
#
#
# Indices 1 2 3 4 5 6 
#
# 1 0.038921 -0.004519 -0.004713 0.000000 0.000000 0.000000
# 2 -0.004519 0.008612 -0.003405 0.000000 0.000000 0.000000
# 3 -0.004713 -0.003405 0.007630 0.000000 0.000000 0.000000
# 4 0.000000 0.000000 0.000000 0.020863 0.000000 0.000000
# 5 0.000000 0.000000 0.000000 0.000000 0.042096 0.000000
# 6 0.000000 0.000000 0.000000 0.000000 0.000000 0.008594
#
#
# Mechanical properties :
#
#
# Convention : Reuss Voigt Hill
#
# Bulk Modulus (GPa) = 33.45723 80.13928 56.79825
# Shear Modulus (GPa) = 30.87279 53.43897 42.15588
#
# Velocity S-wave (km/s) = 4.02022 5.28922 4.69777
# Velocity P-wave (km/s) = 6.25018 8.90251 7.69154
#
# Compressibility (1/GPa) = 0.02988891
#
# Stress axis : x y z
#
# Youngs Moduli (GPa) = 25.69309 116.11071 131.05757
#
# Poissons Ratio (x) = 0.52476 0.61770
# Poissons Ratio (y) = 0.11612 0.44621
# Poissons Ratio (z) = 0.12110 0.39532
#
# Static dielectric constant tensor:
#      x y z
#    x 3.162770 0.000000 0.000000 
#    y 0.000000 3.714050 0.000000 
#    z 0.000000 0.000000 3.812440 
# 
# 
# High freq. dielectric constant tensor:
#      x y z
#    x 1.710080 0.000000 0.000000 
#    y 0.000000 1.753750 0.000000 
#    z 0.000000 0.000000 1.766140 
# 
# From -- ./inp_files/14097.got.cif
#   From: 2010.03.12/outbox.cif.g09.slc.cpg/sg59_8_cif.got.tgz:14097.got - 2010.04.16 16:29:54.
