data_PCOD8242487
_publ_section_title
;
Structure prediction by ZEFSAII (Michael W. Deem and Ramdas Pophale) SiO2 
 PCOD8242487
Probable space group: P M M N
;
_chemical_formula_sum "Si O2"
_cell_formula_units_Z 48
_cell_length_a 8.862213
_cell_length_b 18.145395
_cell_length_c 16.132251
_cell_angle_alpha 90.000000
_cell_angle_beta 90.000000
_cell_angle_gamma 90.000000
_cell_volume 2594.200753
_symmetry_space_group_name_H-M "P M M N"
_symmetry_group_IT_number 59
_space_group.IT_coordinate_system_code '2'
_symmetry_cell_setting 'orthorhombic'
loop_
_space_group_symop_operation_xyz
x,y,z
1/2-x,1/2-y,z
1/2+x,-y,-z
-x,1/2+y,-z
-x,-y,-z
1/2+x,1/2+y,-z
1/2-x,y,z
x,1/2-y,z
loop_
_atom_site_type_symbol
_atom_site_label
_atom_site_fract_x
_atom_site_fract_y
_atom_site_fract_z
Si Si1 0.573953 0.334096 0.341038
Si Si2 0.424753 0.664035 0.156026
Si Si3 0.928246 0.528994 0.583552
Si Si4 0.075224 0.165407 0.013700
Si Si5 0.921356 0.100518 0.168065
Si Si6 0.576712 0.546182 0.262885
O O1 0.750000 0.352912 0.352858
O O2 0.536449 0.250000 0.364226
O O3 0.479887 0.386753 0.401509
O O4 0.529067 0.348860 0.245656
O O5 0.250000 0.643799 0.162716
O O6 0.456068 0.750000 0.169455
O O7 0.514746 0.622772 0.228165
O O8 0.482760 0.638648 0.066117
O O9 0.750000 0.526402 0.576351
O O10 0.000000 0.500000 0.500000
O O11 0.980868 0.476175 0.657398
O O12 0.250000 0.153891 0.993587
O O13 0.037127 0.250000 0.034877
O O14 0.030731 0.115937 0.091728
O O15 0.750000 0.119179 0.142070
O O16 0.939499 0.015173 0.191579
O O17 0.750000 0.555272 0.290108
#
# Coordination Sequence:
#
# PCOD8242487 Si02
#       6
#     8   8   8   8   8   8
#     4   9  18  34  56  82 113 146 179 218 266 319
#     4  10  21  37  56  77 103 138 180 224 270 318
#     4  11  22  38  60  84 112 143 177 218 265 319
#     4  10  20  32  48  73 105 142 183 224 264 307
#     4   9  18  32  51  76 106 141 177 214 260 313
#     4  10  21  38  58  80 106 137 175 217 266 322
#
# _framework density 18.502808999999999
#
# number of rings (size 3 to 8) (size 9 to 14) (size 15 to 20)
#    0.000    2.167    0.000    4.500    0.000    7.000 
#    0.000    0.833    0.000    5.000    0.000    0.000 
#    0.000    0.000    0.000    0.000    0.000    0.000 
#
# Total GULP energy -595400.713950 kJ/mol
# GULP energy per Si atom -12404.181541 kJ/mol
# Density = 1.846070 g / cm^3
# Si number density = 18.502809 Si / 1000 Ang^3
#
#
#
# Elastic Constant Matrix: (Units=GPa)
#
#
# Indices 1 2 3 4 5 6 
#
# 1 115.3178 55.7234 52.6156 0.0000 0.0000 0.0000
# 2 55.7234 85.7762 61.8846 0.0000 0.0000 0.0000
# 3 52.6156 61.8846 98.3686 0.0000 0.0000 0.0000
# 4 0.0000 0.0000 0.0000 24.4933 0.0000 0.0000
# 5 0.0000 0.0000 0.0000 0.0000 35.0039 0.0000
# 6 0.0000 0.0000 0.0000 0.0000 0.0000 32.6527
#
#
#
# Elastic Compliance Matrix: (Units=1/GPa)
#
#
# Indices 1 2 3 4 5 6 
#
# 1 0.013115 -0.006334 -0.003030 0.000000 0.000000 0.000000
# 2 -0.006334 0.024406 -0.011966 0.000000 0.000000 0.000000
# 3 -0.003030 -0.011966 0.019315 0.000000 0.000000 0.000000
# 4 0.000000 0.000000 0.000000 0.040828 0.000000 0.000000
# 5 0.000000 0.000000 0.000000 0.000000 0.028568 0.000000
# 6 0.000000 0.000000 0.000000 0.000000 0.000000 0.030625
#
#
# Mechanical properties :
#
#
# Convention : Reuss Voigt Hill
#
# Bulk Modulus (GPa) = 70.54592 71.10107 70.82349
# Shear Modulus (GPa) = 24.48068 27.04590 25.76329
#
# Velocity S-wave (km/s) = 3.64136 3.82739 3.73553
# Velocity P-wave (km/s) = 7.47591 7.61856 7.54757
#
# Compressibility (1/GPa) = 0.01417516
#
# Stress axis : x y z
#
# Youngs Moduli (GPa) = 76.24959 40.97336 51.77347
#
# Poissons Ratio (x) = 0.25951 0.15689
# Poissons Ratio (y) = 0.48293 0.61954
# Poissons Ratio (z) = 0.23107 0.49030
#
# Static dielectric constant tensor:
#      x y z
#    x 3.483980 0.000000 0.000000 
#    y 0.000000 3.427760 0.000000 
#    z 0.000000 0.000000 3.269470 
# 
# 
# High freq. dielectric constant tensor:
#      x y z
#    x 1.726100 0.000000 0.000000 
#    y 0.000000 1.715300 0.000000 
#    z 0.000000 0.000000 1.706830 
# 
# From -- ./inp_files/20349.got.cif
#   From: 2010.03.12/outbox.cif.g09.slc.cpg/sg59_11_cif.got.tgz:20349.got - 2010.04.16 16:29:54.
