data_PCOD8242375
_publ_section_title
;
Structure prediction by ZEFSAII (Michael W. Deem and Ramdas Pophale) SiO2 
 PCOD8242375
Probable space group: P M M N
;
_chemical_formula_sum "Si O2"
_cell_formula_units_Z 56
_cell_length_a 28.336779
_cell_length_b 8.713066
_cell_length_c 13.651932
_cell_angle_alpha 90.000000
_cell_angle_beta 90.000000
_cell_angle_gamma 90.000000
_cell_volume 3370.665091
_symmetry_space_group_name_H-M "P M M N"
_symmetry_group_IT_number 59
_space_group.IT_coordinate_system_code '2'
_symmetry_cell_setting 'orthorhombic'
loop_
_space_group_symop_operation_xyz
x,y,z
1/2-x,1/2-y,z
1/2+x,-y,-z
-x,1/2+y,-z
-x,-y,-z
1/2+x,1/2+y,-z
1/2-x,y,z
x,1/2-y,z
loop_
_atom_site_type_symbol
_atom_site_label
_atom_site_fract_x
_atom_site_fract_y
_atom_site_fract_z
Si Si1 0.303580 0.928790 0.004350
Si Si2 0.106497 0.430154 0.926258
Si Si3 0.985157 0.572258 0.600962
Si Si4 0.898948 0.926824 0.720322
Si Si5 0.949483 0.429125 0.895859
Si Si6 0.535783 0.431004 0.202880
Si Si7 0.698338 0.573969 0.788329
O O1 0.250000 0.969632 0.973665
O O2 0.314221 0.750000 0.992110
O O3 0.312427 0.971469 0.117286
O O4 0.338656 0.022042 0.933471
O O5 0.101665 0.250000 0.941369
O O6 0.085087 0.482703 0.821174
O O7 0.076004 0.519980 0.005894
O O8 0.993944 0.750000 0.589135
O O9 0.929692 0.534918 0.623336
O O10 0.000000 0.500000 0.500000
O O11 0.017064 0.510958 0.691205
O O12 0.909861 0.750000 0.750713
O O13 0.842446 0.952736 0.705928
O O14 0.914000 0.037990 0.807198
O O15 0.961578 0.250000 0.900719
O O16 0.997717 0.523564 0.880355
O O17 0.543768 0.250000 0.201647
O O18 0.750000 0.533083 0.743422
O O19 0.697262 0.750000 0.823930
#
# Coordination Sequence:
#
# PCOD8242375 Si02
#       7
#     8   8   8   8   8   8   8
#     4  10  20  32  46  67  96 130 168 204 237 275
#     4  12  22  32  47  68  96 130 165 199 236 281
#     4   9  19  34  52  71  94 122 154 197 247 297
#     4   9  17  30  46  68  97 128 159 195 239 286
#     4  11  20  30  45  67  96 130 163 194 233 279
#     4  10  21  36  50  68  94 123 158 199 241 288
#     4   9  16  27  45  67  93 127 163 195 230 277
#
# _framework density 16.613931000000001
#
# number of rings (size 3 to 8) (size 9 to 14) (size 15 to 20)
#    0.000    2.000    1.429    4.714    0.000    3.714 
#    0.000    0.000    0.000    0.000    0.000    1.000 
#    0.000    3.429    0.000    0.000    0.000    0.000 
#
# Total GULP energy -694117.579912 kJ/mol
# GULP energy per Si atom -12394.956784 kJ/mol
# Density = 1.657612 g / cm^3
# Si number density = 16.613931 Si / 1000 Ang^3
#
#
#
# Elastic Constant Matrix: (Units=GPa)
#
#
# Indices 1 2 3 4 5 6 
#
# 1 136.7351 30.0460 53.9941 0.0000 0.0000 0.0000
# 2 30.0460 55.2589 23.2170 0.0000 0.0000 0.0000
# 3 53.9941 23.2170 67.1099 0.0000 0.0000 0.0000
# 4 0.0000 0.0000 0.0000 23.1940 0.0000 0.0000
# 5 0.0000 0.0000 0.0000 0.0000 19.4249 0.0000
# 6 0.0000 0.0000 0.0000 0.0000 0.0000 24.8056
#
#
#
# Elastic Compliance Matrix: (Units=1/GPa)
#
#
# Indices 1 2 3 4 5 6 
#
# 1 0.011043 -0.002658 -0.007965 0.000000 0.000000 0.000000
# 2 -0.002658 0.021814 -0.005408 0.000000 0.000000 0.000000
# 3 -0.007965 -0.005408 0.023180 0.000000 0.000000 0.000000
# 4 0.000000 0.000000 0.000000 0.043115 0.000000 0.000000
# 5 0.000000 0.000000 0.000000 0.000000 0.051480 0.000000
# 6 0.000000 0.000000 0.000000 0.000000 0.000000 0.040313
#
#
# Mechanical properties :
#
#
# Convention : Reuss Voigt Hill
#
# Bulk Modulus (GPa) = 41.71050 52.62425 47.16737
# Shear Modulus (GPa) = 21.64508 23.60802 22.62655
#
# Velocity S-wave (km/s) = 3.61339 3.77367 3.69440
# Velocity P-wave (km/s) = 6.52449 7.12257 6.83008
#
# Compressibility (1/GPa) = 0.02397478
#
# Stress axis : x y z
#
# Youngs Moduli (GPa) = 90.55779 45.84202 43.13999
#
# Poissons Ratio (x) = 0.12184 0.34361
# Poissons Ratio (y) = 0.24068 0.23332
# Poissons Ratio (z) = 0.72130 0.24793
#
# Static dielectric constant tensor:
#      x y z
#    x 3.508310 0.000000 0.000000 
#    y 0.000000 3.271250 0.000000 
#    z 0.000000 0.000000 2.963310 
# 
# 
# High freq. dielectric constant tensor:
#      x y z
#    x 1.649480 0.000000 0.000000 
#    y 0.000000 1.648070 0.000000 
#    z 0.000000 0.000000 1.584240 
# 
# From -- ./inp_files/24980.got.cif
#   From: 2010.03.12/outbox.cif.g09.slc.cpg/sg59_13_cif.got.tgz:24980.got - 2010.04.16 16:29:54.
