data_PCOD8242148
_publ_section_title
;
Structure prediction by ZEFSAII (Michael W. Deem and Ramdas Pophale) SiO2 
 PCOD8242148
Probable space group: P M M N
;
_chemical_formula_sum "Si O2"
_cell_formula_units_Z 64
_cell_length_a 13.916076
_cell_length_b 9.073339
_cell_length_c 26.851297
_cell_angle_alpha 90.000000
_cell_angle_beta 90.000000
_cell_angle_gamma 90.000000
_cell_volume 3390.386402
_symmetry_space_group_name_H-M "P M M N"
_symmetry_group_IT_number 59
_space_group.IT_coordinate_system_code '2'
_symmetry_cell_setting 'orthorhombic'
loop_
_space_group_symop_operation_xyz
x,y,z
1/2-x,1/2-y,z
1/2+x,-y,-z
-x,1/2+y,-z
-x,-y,-z
1/2+x,1/2+y,-z
1/2-x,y,z
x,1/2-y,z
loop_
_atom_site_type_symbol
_atom_site_label
_atom_site_fract_x
_atom_site_fract_y
_atom_site_fract_z
Si Si1 0.858776 0.919979 0.984257
Si Si2 0.644854 0.916602 0.716098
Si Si3 0.954374 0.422080 0.073898
Si Si4 0.997667 0.423318 0.447193
Si Si5 0.141505 0.913245 0.383897
Si Si6 0.642832 0.424570 0.362100
Si Si7 0.059984 0.580102 0.743443
Si Si8 0.860277 0.578078 0.163811
O O1 0.750000 0.954139 0.965923
O O2 0.869096 0.750000 0.000672
O O3 0.934397 0.956129 0.940267
O O4 0.882192 0.018226 0.032042
O O5 0.750000 0.936099 0.742692
O O6 0.636396 0.750000 0.694292
O O7 0.554863 0.942126 0.753244
O O8 0.635403 0.033869 0.672597
O O9 0.935621 0.250000 0.079969
O O10 0.932330 0.499051 0.125946
O O11 0.992115 0.250000 0.455522
O O12 0.910438 0.481074 0.412027
O O13 0.000000 0.500000 0.500000
O O14 0.094630 0.466730 0.419489
O O15 0.250000 0.902978 0.402140
O O16 0.093862 0.750000 0.387779
O O17 0.750000 0.492263 0.361065
O O18 0.647196 0.250000 0.363626
O O19 0.585215 0.473467 0.312573
O O20 0.090101 0.750000 0.751422
O O21 0.120162 0.481239 0.781073
O O22 0.750000 0.545122 0.149220
O O23 0.882414 0.750000 0.162580
#
# Coordination Sequence:
#
# PCOD8242148 Si02
#       8
#     8   8   8   8   8   8   8   8
#     4   9  18  34  56  82 114 150 186 230 284 335
#     4   9  17  32  56  84 109 133 167 213 264 318
#     4  10  20  34  55  83 112 147 192 236 276 327
#     4  11  22  37  55  79 109 142 178 220 271 326
#     4  10  20  34  54  79 105 136 173 214 261 313
#     4   9  18  34  56  80 106 136 172 217 268 322
#     4  10  19  35  59  84 107 139 182 223 268 325
#     4  11  24  39  54  77 111 149 186 230 283 328
#
# _framework density 18.876905000000001
#
# number of rings (size 3 to 8) (size 9 to 14) (size 15 to 20)
#    0.000    2.125    1.250    2.250    0.000    5.500 
#    0.000    1.875    0.000    5.625    0.000    0.000 
#    0.000    0.000    0.000    0.000    0.000    0.000 
#
# Total GULP energy -793415.107861 kJ/mol
# GULP energy per Si atom -12397.111060 kJ/mol
# Density = 1.883394 g / cm^3
# Si number density = 18.876905 Si / 1000 Ang^3
#
#
#
# Elastic Constant Matrix: (Units=GPa)
#
#
# Indices 1 2 3 4 5 6 
#
# 1 122.7604 45.5154 46.0691 0.0000 0.0000 0.0000
# 2 45.5154 75.1330 41.5412 0.0000 0.0000 0.0000
# 3 46.0691 41.5412 97.9092 0.0000 0.0000 0.0000
# 4 0.0000 0.0000 0.0000 31.6533 0.0000 0.0000
# 5 0.0000 0.0000 0.0000 0.0000 24.0114 0.0000
# 6 0.0000 0.0000 0.0000 0.0000 0.0000 24.6107
#
#
#
# Elastic Compliance Matrix: (Units=1/GPa)
#
#
# Indices 1 2 3 4 5 6 
#
# 1 0.011191 -0.005054 -0.003122 0.000000 0.000000 0.000000
# 2 -0.005054 0.019671 -0.005968 0.000000 0.000000 0.000000
# 3 -0.003122 -0.005968 0.014215 0.000000 0.000000 0.000000
# 4 0.000000 0.000000 0.000000 0.031592 0.000000 0.000000
# 5 0.000000 0.000000 0.000000 0.000000 0.041647 0.000000
# 6 0.000000 0.000000 0.000000 0.000000 0.000000 0.040633
#
#
# Mechanical properties :
#
#
# Convention : Reuss Voigt Hill
#
# Bulk Modulus (GPa) = 59.55971 62.45047 61.00509
# Shear Modulus (GPa) = 25.92930 26.90021 26.41476
#
# Velocity S-wave (km/s) = 3.71023 3.77906 3.74480
# Velocity P-wave (km/s) = 7.06927 7.22472 7.14741
#
# Compressibility (1/GPa) = 0.01678987
#
# Stress axis : x y z
#
# Youngs Moduli (GPa) = 89.35657 50.83612 70.35041
#
# Poissons Ratio (x) = 0.25691 0.21960
# Poissons Ratio (y) = 0.45158 0.41987
# Poissons Ratio (z) = 0.27893 0.30340
#
# Static dielectric constant tensor:
#      x y z
#    x 3.917120 0.000000 0.000000 
#    y 0.000000 3.445220 0.000000 
#    z 0.000000 0.000000 3.526080 
# 
# 
# High freq. dielectric constant tensor:
#      x y z
#    x 1.745920 0.000000 0.000000 
#    y 0.000000 1.727180 0.000000 
#    z 0.000000 0.000000 1.710040 
# 
# From -- ./inp_files/32161.got.cif
#   From: 2010.03.12/outbox.cif.g09.slc.cpg/sg59_17_cif.got.tgz:32161.got - 2010.04.16 16:29:54.
