data_PCOD8242744
_publ_section_title
;
Structure prediction by ZEFSAII (Michael W. Deem and Ramdas Pophale) SiO2 
 PCOD8242744
Probable space group: P M M N
;
_chemical_formula_sum "Si O2"
_cell_formula_units_Z 40
_cell_length_a 8.890008
_cell_length_b 8.981262
_cell_length_c 25.962377
_cell_angle_alpha 90.000000
_cell_angle_beta 90.000000
_cell_angle_gamma 90.000000
_cell_volume 2072.926815
_symmetry_space_group_name_H-M "P M M N"
_symmetry_group_IT_number 59
_space_group.IT_coordinate_system_code '2'
_symmetry_cell_setting 'orthorhombic'
loop_
_space_group_symop_operation_xyz
x,y,z
1/2-x,1/2-y,z
1/2+x,-y,-z
-x,1/2+y,-z
-x,-y,-z
1/2+x,1/2+y,-z
1/2-x,y,z
x,1/2-y,z
loop_
_atom_site_type_symbol
_atom_site_label
_atom_site_fract_x
_atom_site_fract_y
_atom_site_fract_z
Si Si1 0.929264 0.918018 0.349142
Si Si2 0.427921 0.920482 0.548302
Si Si3 0.925044 0.924670 0.144376
Si Si4 0.928800 0.082442 0.248259
Si Si5 0.572603 0.920746 0.951570
O O1 0.750000 0.918567 0.347731
O O2 0.991568 0.750000 0.349634
O O3 0.988342 0.001862 0.399853
O O4 0.994098 0.001705 0.298932
O O5 0.250000 0.935186 0.544153
O O6 0.480175 0.750000 0.549462
O O7 0.500000 0.000000 0.500000
O O8 0.750000 0.960253 0.134773
O O9 0.955749 0.750000 0.145290
O O10 0.982121 0.992369 0.198193
O O11 0.021935 0.998371 0.099988
O O12 0.750000 0.084905 0.251064
O O13 0.993003 0.250000 0.245682
O O14 0.750000 0.932620 0.957082
O O15 0.518857 0.750000 0.949930
O O16 0.500000 0.000000 0.000000
#
# Coordination Sequence:
#
# PCOD8242744 Si02
#       5
#     8   8   8   8   8
#     4   9  16  27  45  70 100 133 170 213 258 304
#     4  10  20  33  50  73 101 134 173 216 262 313
#     4  10  20  34  54  81 110 139 173 212 255 305
#     4   9  16  27  46  73 104 136 170 210 255 302
#     4  11  24  40  58  81 108 139 176 216 258 306
#
# _framework density 19.296386999999999
#
# number of rings (size 3 to 8) (size 9 to 14) (size 15 to 20)
#    0.000    2.200    0.000    3.600    0.000   11.200 
#    0.000    0.000    0.000    1.200    0.000    0.000 
#    0.000    0.000    0.000    0.000    0.000    0.000 
#
# Total GULP energy -496093.246975 kJ/mol
# GULP energy per Si atom -12402.331174 kJ/mol
# Density = 1.925247 g / cm^3
# Si number density = 19.296387 Si / 1000 Ang^3
#
#
#
# Elastic Constant Matrix: (Units=GPa)
#
#
# Indices 1 2 3 4 5 6 
#
# 1 23.2162 32.3897 29.6146 0.0000 0.0000 0.0000
# 2 32.3897 183.0937 98.6164 0.0000 0.0000 0.0000
# 3 29.6146 98.6164 195.0693 0.0000 0.0000 0.0000
# 4 0.0000 0.0000 0.0000 48.8126 0.0000 0.0000
# 5 0.0000 0.0000 0.0000 0.0000 27.4172 0.0000
# 6 0.0000 0.0000 0.0000 0.0000 0.0000 21.8550
#
#
#
# Elastic Compliance Matrix: (Units=1/GPa)
#
#
# Indices 1 2 3 4 5 6 
#
# 1 0.060815 -0.007950 -0.005213 0.000000 0.000000 0.000000
# 2 -0.007950 0.008545 -0.003113 0.000000 0.000000 0.000000
# 3 -0.005213 -0.003113 0.007492 0.000000 0.000000 0.000000
# 4 0.000000 0.000000 0.000000 0.020487 0.000000 0.000000
# 5 0.000000 0.000000 0.000000 0.000000 0.036473 0.000000
# 6 0.000000 0.000000 0.000000 0.000000 0.000000 0.045756
#
#
# Mechanical properties :
#
#
# Convention : Reuss Voigt Hill
#
# Bulk Modulus (GPa) = 22.57415 80.29118 51.43267
# Shear Modulus (GPa) = 22.03740 35.66752 28.85246
#
# Velocity S-wave (km/s) = 3.38309 4.30397 3.87101
# Velocity P-wave (km/s) = 5.19465 8.14854 6.83312
#
# Compressibility (1/GPa) = 0.04429846
#
# Stress axis : x y z
#
# Youngs Moduli (GPa) = 16.44321 117.03204 133.48457
#
# Poissons Ratio (x) = 0.93044 0.69592
# Poissons Ratio (y) = 0.13073 0.41550
# Poissons Ratio (z) = 0.08573 0.36429
#
# Static dielectric constant tensor:
#      x y z
#    x 3.034910 0.000000 0.000000 
#    y 0.000000 3.813100 0.000000 
#    z 0.000000 0.000000 3.889150 
# 
# 
# High freq. dielectric constant tensor:
#      x y z
#    x 1.697880 0.000000 0.000000 
#    y 0.000000 1.773720 0.000000 
#    z 0.000000 0.000000 1.772450 
# 
# From -- ./inp_files/31137.got.cif
#   From: 2010.03.12/outbox.cif.g09.slc.cpg/sg59_16_cif.got.tgz:31137.got - 2010.04.16 16:29:54.
