data_PCOD8242818
_publ_section_title
;
Structure prediction by ZEFSAII (Michael W. Deem and Ramdas Pophale) SiO2 
 PCOD8242818
Probable space group: P M M N
;
_chemical_formula_sum "Si O2"
_cell_formula_units_Z 56
_cell_length_a 15.681003
_cell_length_b 8.928634
_cell_length_c 21.127744
_cell_angle_alpha 90.000000
_cell_angle_beta 90.000000
_cell_angle_gamma 90.000000
_cell_volume 2958.094097
_symmetry_space_group_name_H-M "P M M N"
_symmetry_group_IT_number 59
_space_group.IT_coordinate_system_code '2'
_symmetry_cell_setting 'orthorhombic'
loop_
_space_group_symop_operation_xyz
x,y,z
1/2-x,1/2-y,z
1/2+x,-y,-z
-x,1/2+y,-z
-x,-y,-z
1/2+x,1/2+y,-z
1/2-x,y,z
x,1/2-y,z
loop_
_atom_site_type_symbol
_atom_site_label
_atom_site_fract_x
_atom_site_fract_y
_atom_site_fract_z
Si Si1 0.655658 0.572391 0.860660
Si Si2 0.488308 0.072016 0.651493
Si Si3 0.491303 0.927150 0.785391
Si Si4 0.908335 0.927077 0.995858
Si Si5 0.575632 0.423658 0.462695
Si Si6 0.345505 0.921442 0.883158
Si Si7 0.158884 0.575751 0.412960
O O1 0.750000 0.513179 0.840063
O O2 0.654443 0.750000 0.859976
O O3 0.581927 0.514568 0.813206
O O4 0.636515 0.516335 0.931599
O O5 0.483846 0.250000 0.649987
O O6 0.579444 0.006590 0.625976
O O7 0.471977 0.013089 0.721191
O O8 0.414298 0.006756 0.605058
O O9 0.492081 0.750000 0.773372
O O10 0.415199 0.974475 0.832310
O O11 0.918730 0.750000 0.996061
O O12 0.850923 0.977587 0.054511
O O13 0.000000 0.000000 0.000000
O O14 0.500000 0.500000 0.500000
O O15 0.556323 0.250000 0.450120
O O16 0.654867 0.445757 0.510526
O O17 0.250000 0.939158 0.854772
O O18 0.364309 0.750000 0.902257
O O19 0.250000 0.505291 0.390942
O O20 0.157882 0.750000 0.396894
#
# Coordination Sequence:
#
# PCOD8242818 Si02
#       7
#     8   8   8   8   8   8   8
#     4   9  18  33  53  77 106 139 175 217 271 332
#     4  10  20  33  51  74 102 138 175 213 256 308
#     4  10  20  36  54  74 104 143 181 221 268 321
#     4  11  20  34  57  83 111 142 179 224 279 334
#     4   9  16  29  51  75  99 130 164 203 249 299
#     4  10  21  38  58  80 106 139 183 233 282 332
#     4   8  15  29  50  76 103 129 162 205 252 303
#
# _framework density 18.931107999999998
#
# number of rings (size 3 to 8) (size 9 to 14) (size 15 to 20)
#    0.000    2.429    1.429    2.571    0.000    2.000 
#    0.000    0.714    0.000   21.000    0.000    0.000 
#    0.000    0.000    0.000    0.000    0.000    0.000 
#
# Total GULP energy -693989.516390 kJ/mol
# GULP energy per Si atom -12392.669936 kJ/mol
# Density = 1.888802 g / cm^3
# Si number density = 18.931108 Si / 1000 Ang^3
#
#
#
# Elastic Constant Matrix: (Units=GPa)
#
#
# Indices 1 2 3 4 5 6 
#
# 1 78.3611 8.1042 11.6923 0.0000 0.0000 0.0000
# 2 8.1042 51.2104 26.9041 0.0000 0.0000 0.0000
# 3 11.6923 26.9041 103.1447 0.0000 0.0000 0.0000
# 4 0.0000 0.0000 0.0000 31.9269 0.0000 0.0000
# 5 0.0000 0.0000 0.0000 0.0000 16.6100 0.0000
# 6 0.0000 0.0000 0.0000 0.0000 0.0000 15.5059
#
#
#
# Elastic Compliance Matrix: (Units=1/GPa)
#
#
# Indices 1 2 3 4 5 6 
#
# 1 0.013079 -0.001496 -0.001092 0.000000 0.000000 0.000000
# 2 -0.001496 0.022799 -0.005777 0.000000 0.000000 0.000000
# 3 -0.001092 -0.005777 0.011326 0.000000 0.000000 0.000000
# 4 0.000000 0.000000 0.000000 0.031322 0.000000 0.000000
# 5 0.000000 0.000000 0.000000 0.000000 0.060205 0.000000
# 6 0.000000 0.000000 0.000000 0.000000 0.000000 0.064491
#
#
# Mechanical properties :
#
#
# Convention : Reuss Voigt Hill
#
# Bulk Modulus (GPa) = 32.81602 36.23528 34.52565
# Shear Modulus (GPa) = 21.72865 25.20960 23.46913
#
# Velocity S-wave (km/s) = 3.39156 3.65314 3.52477
# Velocity P-wave (km/s) = 5.71917 6.08079 5.90275
#
# Compressibility (1/GPa) = 0.03047292
#
# Stress axis : x y z
#
# Youngs Moduli (GPa) = 76.45757 43.86111 88.29315
#
# Poissons Ratio (x) = 0.06561 0.09646
# Poissons Ratio (y) = 0.11437 0.51010
# Poissons Ratio (z) = 0.08353 0.25340
#
# Static dielectric constant tensor:
#      x y z
#    x 3.826260 0.000000 0.000000 
#    y 0.000000 3.311160 0.000000 
#    z 0.000000 0.000000 3.653990 
# 
# 
# High freq. dielectric constant tensor:
#      x y z
#    x 1.732970 0.000000 0.000000 
#    y 0.000000 1.711150 0.000000 
#    z 0.000000 0.000000 1.732630 
# 
# From -- ./inp_files/30293.got.cif
#   From: 2010.03.12/outbox.cif.g09.slc.cpg/sg59_16_cif.got.tgz:30293.got - 2010.04.16 16:29:54.
