data_PCOD8242313
_publ_section_title
;
Structure prediction by ZEFSAII (Michael W. Deem and Ramdas Pophale) SiO2 
 PCOD8242313
Probable space group: P M M N
;
_chemical_formula_sum "Si O2"
_cell_formula_units_Z 64
_cell_length_a 28.630177
_cell_length_b 8.959308
_cell_length_c 15.518953
_cell_angle_alpha 90.000000
_cell_angle_beta 90.000000
_cell_angle_gamma 90.000000
_cell_volume 3980.713464
_symmetry_space_group_name_H-M "P M M N"
_symmetry_group_IT_number 59
_space_group.IT_coordinate_system_code '2'
_symmetry_cell_setting 'orthorhombic'
loop_
_space_group_symop_operation_xyz
x,y,z
1/2-x,1/2-y,z
1/2+x,-y,-z
-x,1/2+y,-z
-x,-y,-z
1/2+x,1/2+y,-z
1/2-x,y,z
x,1/2-y,z
loop_
_atom_site_type_symbol
_atom_site_label
_atom_site_fract_x
_atom_site_fract_y
_atom_site_fract_z
Si Si1 0.950550 0.579875 0.316119
Si Si2 0.549351 0.922957 0.506819
Si Si3 0.198198 0.420036 0.080540
Si Si4 0.103774 0.574287 0.833698
Si Si5 0.198883 0.926623 0.902813
Si Si6 0.058867 0.573411 0.325723
Si Si7 0.550321 0.427932 0.995044
Si Si8 0.896657 0.924459 0.836915
O O1 0.947999 0.750000 0.285928
O O2 0.927979 0.560339 0.411680
O O3 0.919622 0.485219 0.251978
O O4 0.004608 0.528073 0.312794
O O5 0.543442 0.750000 0.531421
O O6 0.500000 0.000000 0.500000
O O7 0.577528 0.007466 0.582685
O O8 0.250000 0.455035 0.118628
O O9 0.195409 0.250000 0.048019
O O10 0.159084 0.449446 0.152974
O O11 0.187285 0.522632 0.999122
O O12 0.101794 0.750000 0.828115
O O13 0.157703 0.517167 0.839337
O O14 0.077015 0.520282 0.918976
O O15 0.250000 0.987279 0.872635
O O16 0.199014 0.750000 0.905085
O O17 0.065968 0.750000 0.325263
O O18 0.089747 0.497934 0.252853
O O19 0.546797 0.250000 0.986328
O O20 0.576487 0.492751 0.912819
O O21 0.500000 0.500000 0.000000
O O22 0.910074 0.750000 0.837498
#
# Coordination Sequence:
#
# PCOD8242313 Si02
#       8
#     8   8   8   8   8   8   8   8
#     4   9  19  32  47  68  94 125 156 190 231 276
#     4   9  17  31  49  70  95 123 158 198 240 282
#     4   9  18  32  49  69  92 120 157 199 242 287
#     4  10  20  31  45  67  92 122 158 193 230 277
#     4   9  17  31  49  67  89 118 154 198 244 281
#     4  10  20  33  49  70  96 127 162 198 236 283
#     4  11  22  34  45  63  94 130 167 198 230 276
#     4  11  21  32  48  70  95 127 161 197 241 285
#
# _framework density 16.077521000000001
#
# number of rings (size 3 to 8) (size 9 to 14) (size 15 to 20)
#    0.000    2.250    1.250    3.000    0.000    7.000 
#    0.000    0.000    0.000    0.000    0.000    0.875 
#    0.000    1.000    0.000    0.000    0.000    0.000 
#
# Total GULP energy -793267.821651 kJ/mol
# GULP energy per Si atom -12394.809713 kJ/mol
# Density = 1.604093 g / cm^3
# Si number density = 16.077521 Si / 1000 Ang^3
#
#
#
# Elastic Constant Matrix: (Units=GPa)
#
#
# Indices 1 2 3 4 5 6 
#
# 1 96.3558 29.3056 43.6236 0.0000 0.0000 0.0000
# 2 29.3056 46.1207 27.0587 0.0000 0.0000 0.0000
# 3 43.6236 27.0587 94.4169 0.0000 0.0000 0.0000
# 4 0.0000 0.0000 0.0000 31.6458 0.0000 0.0000
# 5 0.0000 0.0000 0.0000 0.0000 8.7743 0.0000
# 6 0.0000 0.0000 0.0000 0.0000 0.0000 19.2469
#
#
#
# Elastic Compliance Matrix: (Units=1/GPa)
#
#
# Indices 1 2 3 4 5 6 
#
# 1 0.014526 -0.006362 -0.004888 0.000000 0.000000 0.000000
# 2 -0.006362 0.028851 -0.005329 0.000000 0.000000 0.000000
# 3 -0.004888 -0.005329 0.014377 0.000000 0.000000 0.000000
# 4 0.000000 0.000000 0.000000 0.031600 0.000000 0.000000
# 5 0.000000 0.000000 0.000000 0.000000 0.113969 0.000000
# 6 0.000000 0.000000 0.000000 0.000000 0.000000 0.051956
#
#
# Mechanical properties :
#
#
# Convention : Reuss Voigt Hill
#
# Bulk Modulus (GPa) = 40.65724 48.54102 44.59913
# Shear Modulus (GPa) = 16.85560 21.06044 18.95802
#
# Velocity S-wave (km/s) = 3.24141 3.62322 3.43762
# Velocity P-wave (km/s) = 6.27313 6.91094 6.59974
#
# Compressibility (1/GPa) = 0.02459586
#
# Stress axis : x y z
#
# Youngs Moduli (GPa) = 68.84060 34.66054 69.55528
#
# Poissons Ratio (x) = 0.22052 0.34001
# Poissons Ratio (y) = 0.43798 0.37065
# Poissons Ratio (z) = 0.33651 0.18470
#
# Static dielectric constant tensor:
#      x y z
#    x 3.083010 0.000000 0.000000 
#    y 0.000000 3.234530 0.000000 
#    z 0.000000 0.000000 3.255480 
# 
# 
# High freq. dielectric constant tensor:
#      x y z
#    x 1.601130 0.000000 0.000000 
#    y 0.000000 1.628770 0.000000 
#    z 0.000000 0.000000 1.607270 
# 
# From -- ./inp_files/21886.got.cif
#   From: 2010.03.12/outbox.cif.g09.slc.cpg/sg59_11_cif.got.tgz:21886.got - 2010.04.16 16:29:54.
