data_PCOD8242247
_publ_section_title
;
Structure prediction by ZEFSAII (Michael W. Deem and Ramdas Pophale) SiO2 
 PCOD8242247
Probable space group: P M M N
;
_chemical_formula_sum "Si O2"
_cell_formula_units_Z 40
_cell_length_a 18.284988
_cell_length_b 13.958035
_cell_length_c 7.694267
_cell_angle_alpha 90.000000
_cell_angle_beta 90.000000
_cell_angle_gamma 90.000000
_cell_volume 1963.750078
_symmetry_space_group_name_H-M "P M M N"
_symmetry_group_IT_number 59
_space_group.IT_coordinate_system_code '2'
_symmetry_cell_setting 'orthorhombic'
loop_
_space_group_symop_operation_xyz
x,y,z
1/2-x,1/2-y,z
1/2+x,-y,-z
-x,1/2+y,-z
-x,-y,-z
1/2+x,1/2+y,-z
1/2-x,y,z
x,1/2-y,z
loop_
_atom_site_type_symbol
_atom_site_label
_atom_site_fract_x
_atom_site_fract_y
_atom_site_fract_z
Si Si1 0.396913 0.954304 0.763892
Si Si2 0.668112 0.002341 0.598243
Si Si3 0.038304 0.140141 0.374671
Si Si4 0.628024 0.359181 0.896375
Si Si5 0.532325 0.644378 0.226661
O O1 0.352879 0.948462 0.584528
O O2 0.476741 0.906214 0.745955
O O3 0.407997 0.064874 0.824859
O O4 0.350974 0.901086 0.913900
O O5 0.750000 0.960403 0.583458
O O6 0.668145 0.083388 0.745311
O O7 0.614402 0.915782 0.649517
O O8 0.050744 0.250000 0.318841
O O9 0.010205 0.130702 0.571837
O O10 0.654730 0.250000 0.883851
O O11 0.540730 0.368380 0.883076
O O12 0.566858 0.750000 0.196289
#
# Coordination Sequence:
#
# PCOD8242247 Si02
#       5
#     8   8   8   8   8
#     4  11  20  38  62  89 114 152 199 246 292 343
#     4  11  24  41  58  82 123 162 191 235 295 356
#     4  10  19  36  63  91 116 148 197 247 292 345
#     4  11  22  36  59  88 115 146 193 246 295 345
#     4   9  17  32  57  88 118 145 183 241 294 339
#
# _framework density 20.369191000000001
#
# number of rings (size 3 to 8) (size 9 to 14) (size 15 to 20)
#    0.000    1.600    4.000    2.400    0.000    2.400 
#    0.000    0.000    0.000    0.000    0.000    2.800 
#    0.000    0.000    0.000    0.000    0.000    0.000 
#
# Total GULP energy -496074.314608 kJ/mol
# GULP energy per Si atom -12401.857865 kJ/mol
# Density = 2.032283 g / cm^3
# Si number density = 20.369191 Si / 1000 Ang^3
#
#
#
# Elastic Constant Matrix: (Units=GPa)
#
#
# Indices 1 2 3 4 5 6 
#
# 1 85.1185 30.1653 30.0003 0.0000 0.0000 0.0000
# 2 30.1653 132.7417 44.4758 0.0000 0.0000 0.0000
# 3 30.0003 44.4758 96.6742 0.0000 0.0000 0.0000
# 4 0.0000 0.0000 0.0000 29.4350 0.0000 0.0000
# 5 0.0000 0.0000 0.0000 0.0000 3.2124 0.0000
# 6 0.0000 0.0000 0.0000 0.0000 0.0000 11.2910
#
#
#
# Elastic Compliance Matrix: (Units=1/GPa)
#
#
# Indices 1 2 3 4 5 6 
#
# 1 0.013620 -0.001985 -0.003313 0.000000 0.000000 0.000000
# 2 -0.001985 0.009196 -0.003615 0.000000 0.000000 0.000000
# 3 -0.003313 -0.003615 0.013035 0.000000 0.000000 0.000000
# 4 0.000000 0.000000 0.000000 0.033973 0.000000 0.000000
# 5 0.000000 0.000000 0.000000 0.000000 0.311292 0.000000
# 6 0.000000 0.000000 0.000000 0.000000 0.000000 0.088566
#
#
# Mechanical properties :
#
#
# Convention : Reuss Voigt Hill
#
# Bulk Modulus (GPa) = 55.47922 58.20192 56.84057
# Shear Modulus (GPa) = 10.13140 22.78054 16.45597
#
# Velocity S-wave (km/s) = 2.23264 3.34785 2.84542
# Velocity P-wave (km/s) = 5.82599 6.60149 6.22583
#
# Compressibility (1/GPa) = 0.01802477
#
# Stress axis : x y z
#
# Youngs Moduli (GPa) = 73.42387 108.74820 76.71581
#
# Poissons Ratio (x) = 0.21585 0.25418
# Poissons Ratio (y) = 0.14574 0.27729
# Poissons Ratio (z) = 0.24328 0.39307
#
# Static dielectric constant tensor:
#      x y z
#    x 3.250540 0.000000 0.000000 
#    y 0.000000 3.941370 0.000000 
#    z 0.000000 0.000000 3.670180 
# 
# 
# High freq. dielectric constant tensor:
#      x y z
#    x 1.754010 0.000000 0.000000 
#    y 0.000000 1.805320 0.000000 
#    z 0.000000 0.000000 1.801550 
# 
# From -- ./inp_files/10129.got.cif
#   From: 2010.03.12/outbox.cif.g09.slc.cpg/sg59_6_cif.got.tgz:10129.got - 2010.04.16 16:29:54.
