data_PCOD8242172
_publ_section_title
;
Structure prediction by ZEFSAII (Michael W. Deem and Ramdas Pophale) SiO2 
 PCOD8242172
Probable space group: P M M N
;
_chemical_formula_sum "Si O2"
_cell_formula_units_Z 48
_cell_length_a 17.514468
_cell_length_b 14.234397
_cell_length_c 9.753864
_cell_angle_alpha 90.000000
_cell_angle_beta 90.000000
_cell_angle_gamma 90.000000
_cell_volume 2431.715261
_symmetry_space_group_name_H-M "P M M N"
_symmetry_group_IT_number 59
_space_group.IT_coordinate_system_code '2'
_symmetry_cell_setting 'orthorhombic'
loop_
_space_group_symop_operation_xyz
x,y,z
1/2-x,1/2-y,z
1/2+x,-y,-z
-x,1/2+y,-z
-x,-y,-z
1/2+x,1/2+y,-z
1/2-x,y,z
x,1/2-y,z
loop_
_atom_site_type_symbol
_atom_site_label
_atom_site_fract_x
_atom_site_fract_y
_atom_site_fract_z
Si Si1 0.415072 0.640966 0.133728
Si Si2 0.836733 0.642758 0.193463
Si Si3 0.381349 0.506100 0.585878
Si Si4 0.750000 0.137787 0.494867
Si Si5 0.447593 0.358544 0.048590
Si Si6 0.455366 0.021600 0.309843
Si Si7 0.250000 0.860408 0.189797
O O1 0.418954 0.750000 0.174324
O O2 0.451747 0.587375 0.263319
O O3 0.327198 0.605948 0.111653
O O4 0.464686 0.620622 0.997394
O O5 0.750000 0.636176 0.140649
O O6 0.857864 0.750000 0.233669
O O7 0.846467 0.577938 0.325853
O O8 0.891426 0.607104 0.071722
O O9 0.324155 0.594052 0.577865
O O10 0.458687 0.548143 0.649663
O O11 0.398539 0.462090 0.436506
O O12 0.750000 0.250000 0.475318
O O13 0.750000 0.105122 0.653272
O O14 0.434634 0.250000 0.081234
O O15 0.427089 0.414927 0.184382
O O16 0.250000 0.750000 0.190704
#
# Coordination Sequence:
#
# PCOD8242172 Si02
#       7
#     8   8   8   4   8   8   4
#     4  10  19  35  60  87 117 159 206 251 307 368
#     4  10  21  40  64  88 118 158 204 252 306 366
#     4  11  23  38  62  92 122 160 203 250 305 365
#     4  11  22  40  60  86 127 165 198 245 310 366
#     4  10  22  41  61  84 121 163 201 251 312 367
#     4  11  23  38  60  92 122 157 206 251 302 364
#     4   9  18  34  57  86 117 155 205 249 291 364
#
# _framework density 19.739153000000002
#
# number of rings (size 3 to 8) (size 9 to 14) (size 15 to 20)
#    0.000    1.667    4.167    0.500    0.000    1.333 
#    3.000    4.167    0.000    1.000    0.000    0.000 
#    0.000    0.000    0.000    0.000    0.000    0.000 
#
# Total GULP energy -595187.702847 kJ/mol
# GULP energy per Si atom -12399.743809 kJ/mol
# Density = 1.969423 g / cm^3
# Si number density = 19.739153 Si / 1000 Ang^3
#
#
#
# Elastic Constant Matrix: (Units=GPa)
#
#
# Indices 1 2 3 4 5 6 
#
# 1 132.9988 52.6795 49.4244 0.0000 0.0000 0.0000
# 2 52.6795 84.4124 61.4999 0.0000 0.0000 0.0000
# 3 49.4244 61.4999 121.3587 0.0000 0.0000 0.0000
# 4 0.0000 0.0000 0.0000 28.7550 0.0000 0.0000
# 5 0.0000 0.0000 0.0000 0.0000 16.8493 0.0000
# 6 0.0000 0.0000 0.0000 0.0000 0.0000 25.7858
#
#
#
# Elastic Compliance Matrix: (Units=1/GPa)
#
#
# Indices 1 2 3 4 5 6 
#
# 1 0.010149 -0.005267 -0.001464 0.000000 0.000000 0.000000
# 2 -0.005267 0.021514 -0.008757 0.000000 0.000000 0.000000
# 3 -0.001464 -0.008757 0.013274 0.000000 0.000000 0.000000
# 4 0.000000 0.000000 0.000000 0.034777 0.000000 0.000000
# 5 0.000000 0.000000 0.000000 0.000000 0.059350 0.000000
# 6 0.000000 0.000000 0.000000 0.000000 0.000000 0.038781
#
#
# Mechanical properties :
#
#
# Convention : Reuss Voigt Hill
#
# Bulk Modulus (GPa) = 71.63276 73.99751 72.81513
# Shear Modulus (GPa) = 23.42188 25.95574 24.68881
#
# Velocity S-wave (km/s) = 3.44840 3.63014 3.54044
# Velocity P-wave (km/s) = 7.22660 7.42561 7.32678
#
# Compressibility (1/GPa) = 0.01396009
#
# Stress axis : x y z
#
# Youngs Moduli (GPa) = 98.52974 46.48144 75.33379
#
# Poissons Ratio (x) = 0.24482 0.11030
# Poissons Ratio (y) = 0.51896 0.65973
# Poissons Ratio (z) = 0.14427 0.40706
#
# Static dielectric constant tensor:
#      x y z
#    x 4.051280 0.000000 0.000000 
#    y 0.000000 3.492400 0.000000 
#    z 0.000000 0.000000 3.477630 
# 
# 
# High freq. dielectric constant tensor:
#      x y z
#    x 1.785700 0.000000 0.000000 
#    y 0.000000 1.761600 0.000000 
#    z 0.000000 0.000000 1.754410 
# 
# From -- ./inp_files/10287.got.cif
#   From: 2010.03.12/outbox.cif.g09.slc.cpg/sg59_6_cif.got.tgz:10287.got - 2010.04.16 16:29:54.
