data_PCOD8242650
_publ_section_title
;
Structure prediction by ZEFSAII (Michael W. Deem and Ramdas Pophale) SiO2 
 PCOD8242650
Probable space group: P M M N
;
_chemical_formula_sum "Si O2"
_cell_formula_units_Z 48
_cell_length_a 9.000670
_cell_length_b 8.848784
_cell_length_c 31.209194
_cell_angle_alpha 90.000000
_cell_angle_beta 90.000000
_cell_angle_gamma 90.000000
_cell_volume 2485.655778
_symmetry_space_group_name_H-M "P M M N"
_symmetry_group_IT_number 59
_space_group.IT_coordinate_system_code '2'
_symmetry_cell_setting 'orthorhombic'
loop_
_space_group_symop_operation_xyz
x,y,z
1/2-x,1/2-y,z
1/2+x,-y,-z
-x,1/2+y,-z
-x,-y,-z
1/2+x,1/2+y,-z
1/2-x,y,z
x,1/2-y,z
loop_
_atom_site_type_symbol
_atom_site_label
_atom_site_fract_x
_atom_site_fract_y
_atom_site_fract_z
Si Si1 0.582370 0.929993 0.874729
Si Si2 0.417238 0.070389 0.293512
Si Si3 0.920011 0.428248 0.540309
Si Si4 0.082149 0.930374 0.790459
Si Si5 0.424081 0.573817 0.620282
Si Si6 0.580076 0.071091 0.040258
O O1 0.750000 0.992740 0.875323
O O2 0.581801 0.750000 0.873956
O O3 0.499925 0.993098 0.832656
O O4 0.497631 0.990072 0.916675
O O5 0.250000 0.005879 0.295620
O O6 0.414836 0.250000 0.291393
O O7 0.497706 0.005722 0.251273
O O8 0.507329 0.016357 0.335083
O O9 0.750000 0.484078 0.541720
O O10 0.929399 0.250000 0.535690
O O11 0.000000 0.500000 0.500000
O O12 0.001657 0.478024 0.583155
O O13 0.250000 0.991979 0.790163
O O14 0.081349 0.750000 0.790275
O O15 0.250000 0.541102 0.621137
O O16 0.457823 0.750000 0.612479
O O17 0.750000 0.017577 0.041027
O O18 0.566705 0.250000 0.037171
O O19 0.500000 0.000000 0.000000
#
# Coordination Sequence:
#
# PCOD8242650 Si02
#       6
#     8   8   8   8   8   8
#     4   9  16  26  41  62  90 124 161 202 249 299
#     4   9  16  26  42  66  97 132 167 203 246 294
#     4  11  24  40  58  81 107 136 172 212 254 301
#     4   9  15  23  37  60  92 127 162 202 247 294
#     4  10  20  34  53  78 107 138 172 209 250 297
#     4  10  20  33  49  70  96 127 164 206 253 304
#
# _framework density 19.310798999999999
#
# number of rings (size 3 to 8) (size 9 to 14) (size 15 to 20)
#    0.000    2.333    0.000    3.500    0.000   11.333 
#    0.000    0.000    0.000    0.000    0.000    1.167 
#    0.000    9.333    0.000    0.000    0.000    0.000 
#
# Total GULP energy -595276.427024 kJ/mol
# GULP energy per Si atom -12401.592230 kJ/mol
# Density = 1.926685 g / cm^3
# Si number density = 19.310799 Si / 1000 Ang^3
#
#
#
# Elastic Constant Matrix: (Units=GPa)
#
#
# Indices 1 2 3 4 5 6 
#
# 1 192.9886 26.8838 103.8507 0.0000 0.0000 0.0000
# 2 26.8838 18.1782 24.3647 0.0000 0.0000 0.0000
# 3 103.8507 24.3647 201.2045 0.0000 0.0000 0.0000
# 4 0.0000 0.0000 0.0000 22.0242 0.0000 0.0000
# 5 0.0000 0.0000 0.0000 0.0000 49.1993 0.0000
# 6 0.0000 0.0000 0.0000 0.0000 0.0000 18.2916
#
#
#
# Elastic Compliance Matrix: (Units=1/GPa)
#
#
# Indices 1 2 3 4 5 6 
#
# 1 0.007940 -0.007461 -0.003195 0.000000 0.000000 0.000000
# 2 -0.007461 0.072680 -0.004950 0.000000 0.000000 0.000000
# 3 -0.003195 -0.004950 0.007219 0.000000 0.000000 0.000000
# 4 0.000000 0.000000 0.000000 0.045405 0.000000 0.000000
# 5 0.000000 0.000000 0.000000 0.000000 0.020326 0.000000
# 6 0.000000 0.000000 0.000000 0.000000 0.000000 0.054670
#
#
# Mechanical properties :
#
#
# Convention : Reuss Voigt Hill
#
# Bulk Modulus (GPa) = 17.65950 80.28553 48.97252
# Shear Modulus (GPa) = 19.35543 35.05447 27.20495
#
# Velocity S-wave (km/s) = 3.16936 4.26523 3.75746
# Velocity P-wave (km/s) = 4.74952 8.11923 6.65131
#
# Compressibility (1/GPa) = 0.05662673
#
# Stress axis : x y z
#
# Youngs Moduli (GPa) = 125.94263 13.75902 138.53263
#
# Poissons Ratio (x) = 0.10265 0.44259
# Poissons Ratio (y) = 0.93961 0.68578
# Poissons Ratio (z) = 0.40236 0.06811
#
# Static dielectric constant tensor:
#      x y z
#    x 3.848470 0.000000 0.000000 
#    y 0.000000 2.924120 0.000000 
#    z 0.000000 0.000000 3.985430 
# 
# 
# High freq. dielectric constant tensor:
#      x y z
#    x 1.774430 0.000000 0.000000 
#    y 0.000000 1.685930 0.000000 
#    z 0.000000 0.000000 1.773400 
# 
# From -- ./inp_files/32886.got.cif
#   From: 2010.03.12/outbox.cif.g09.slc.cpg/sg59_17_cif.got.tgz:32886.got - 2010.04.16 16:29:54.
