data_PCOD8242725
_publ_section_title
;
Structure prediction by ZEFSAII (Michael W. Deem and Ramdas Pophale) SiO2 
 PCOD8242725
Probable space group: P M M N
;
_chemical_formula_sum "Si O2"
_cell_formula_units_Z 40
_cell_length_a 8.977552
_cell_length_b 9.189152
_cell_length_c 25.776130
_cell_angle_alpha 90.000000
_cell_angle_beta 90.000000
_cell_angle_gamma 90.000000
_cell_volume 2126.429938
_symmetry_space_group_name_H-M "P M M N"
_symmetry_group_IT_number 59
_space_group.IT_coordinate_system_code '2'
_symmetry_cell_setting 'orthorhombic'
loop_
_space_group_symop_operation_xyz
x,y,z
1/2-x,1/2-y,z
1/2+x,-y,-z
-x,1/2+y,-z
-x,-y,-z
1/2+x,1/2+y,-z
1/2-x,y,z
x,1/2-y,z
loop_
_atom_site_type_symbol
_atom_site_label
_atom_site_fract_x
_atom_site_fract_y
_atom_site_fract_z
Si Si1 0.922057 0.079300 0.361458
Si Si2 0.574736 0.082718 0.547153
Si Si3 0.927411 0.912995 0.148260
Si Si4 0.926766 0.411131 0.245274
Si Si5 0.426230 0.917154 0.952792
O O1 0.750000 0.039712 0.371777
O O2 0.948034 0.250000 0.371180
O O3 0.970238 0.035991 0.302951
O O4 0.025521 0.986511 0.398760
O O5 0.750000 0.067006 0.541248
O O6 0.524152 0.250000 0.545729
O O7 0.500000 0.000000 0.500000
O O8 0.750000 0.911139 0.149790
O O9 0.990788 0.750000 0.142146
O O10 0.991388 0.979923 0.201857
O O11 0.983705 0.009893 0.100322
O O12 0.750000 0.402915 0.241245
O O13 0.992274 0.250000 0.234897
O O14 0.250000 0.931116 0.957990
O O15 0.477928 0.750000 0.952919
O O16 0.500000 0.000000 0.000000
#
# Coordination Sequence:
#
# PCOD8242725 Si02
#       5
#     8   8   8   8   8
#     4   9  18  33  54  80 107 134 166 204 247 297
#     4  11  24  39  55  77 104 134 170 210 251 297
#     4   9  16  26  43  69  99 130 166 207 249 295
#     4   8  14  26  45  70 100 130 160 199 246 294
#     4  10  20  33  50  72  99 132 169 210 257 306
#
# _framework density 18.810873000000001
#
# number of rings (size 3 to 8) (size 9 to 14) (size 15 to 20)
#    0.000    2.600    0.000    3.600    0.000    8.800 
#    0.000    2.000    0.000    1.200    0.000    5.600 
#    0.000    0.000    0.000    0.000    0.000    0.000 
#
# Total GULP energy -495959.217040 kJ/mol
# GULP energy per Si atom -12398.980426 kJ/mol
# Density = 1.876806 g / cm^3
# Si number density = 18.810873 Si / 1000 Ang^3
#
#
#
# Elastic Constant Matrix: (Units=GPa)
#
#
# Indices 1 2 3 4 5 6 
#
# 1 26.8010 33.8213 31.7339 0.0000 0.0000 0.0000
# 2 33.8213 155.8950 102.2472 0.0000 0.0000 0.0000
# 3 31.7339 102.2472 176.7853 0.0000 0.0000 0.0000
# 4 0.0000 0.0000 0.0000 41.3125 0.0000 0.0000
# 5 0.0000 0.0000 0.0000 0.0000 26.3237 0.0000
# 6 0.0000 0.0000 0.0000 0.0000 0.0000 22.8424
#
#
#
# Elastic Compliance Matrix: (Units=1/GPa)
#
#
# Indices 1 2 3 4 5 6 
#
# 1 0.053671 -0.008580 -0.004672 0.000000 0.000000 0.000000
# 2 -0.008580 0.011707 -0.005231 0.000000 0.000000 0.000000
# 3 -0.004672 -0.005231 0.009520 0.000000 0.000000 0.000000
# 4 0.000000 0.000000 0.000000 0.024206 0.000000 0.000000
# 5 0.000000 0.000000 0.000000 0.000000 0.037989 0.000000
# 6 0.000000 0.000000 0.000000 0.000000 0.000000 0.043778
#
#
# Mechanical properties :
#
#
# Convention : Reuss Voigt Hill
#
# Bulk Modulus (GPa) = 26.36194 77.23178 51.79686
# Shear Modulus (GPa) = 21.69389 30.87431 26.28410
#
# Velocity S-wave (km/s) = 3.39966 4.05569 3.74208
# Velocity P-wave (km/s) = 5.42723 7.94214 6.80193
#
# Compressibility (1/GPa) = 0.03793347
#
# Stress axis : x y z
#
# Youngs Moduli (GPa) = 18.63202 85.42246 105.03687
#
# Poissons Ratio (x) = 0.73289 0.49074
# Poissons Ratio (y) = 0.15986 0.54941
# Poissons Ratio (z) = 0.08705 0.44681
#
# Static dielectric constant tensor:
#      x y z
#    x 2.956100 0.000000 0.000000 
#    y 0.000000 3.735560 0.000000 
#    z 0.000000 0.000000 3.723720 
# 
# 
# High freq. dielectric constant tensor:
#      x y z
#    x 1.679340 0.000000 0.000000 
#    y 0.000000 1.739460 0.000000 
#    z 0.000000 0.000000 1.750190 
# 
# From -- ./inp_files/31126.got.cif
#   From: 2010.03.12/outbox.cif.g09.slc.cpg/sg59_16_cif.got.tgz:31126.got - 2010.04.16 16:29:54.
