data_PCOD8242484
_publ_section_title
;
Structure prediction by ZEFSAII (Michael W. Deem and Ramdas Pophale) SiO2 
 PCOD8242484
Probable space group: P M M N
;
_chemical_formula_sum "Si O2"
_cell_formula_units_Z 64
_cell_length_a 9.015425
_cell_length_b 18.855676
_cell_length_c 21.220454
_cell_angle_alpha 90.000000
_cell_angle_beta 90.000000
_cell_angle_gamma 90.000000
_cell_volume 3607.305990
_symmetry_space_group_name_H-M "P M M N"
_symmetry_group_IT_number 59
_space_group.IT_coordinate_system_code '2'
_symmetry_cell_setting 'orthorhombic'
loop_
_space_group_symop_operation_xyz
x,y,z
1/2-x,1/2-y,z
1/2+x,-y,-z
-x,1/2+y,-z
-x,-y,-z
1/2+x,1/2+y,-z
1/2-x,y,z
x,1/2-y,z
loop_
_atom_site_type_symbol
_atom_site_label
_atom_site_fract_x
_atom_site_fract_y
_atom_site_fract_z
Si Si1 0.418652 0.332573 0.609633
Si Si2 0.587434 0.977578 0.190862
Si Si3 0.087919 0.638949 0.770730
Si Si4 0.078604 0.331147 0.464859
Si Si5 0.920615 0.829148 0.890335
Si Si6 0.424046 0.945020 0.310183
Si Si7 0.924579 0.085499 0.358001
Si Si8 0.573656 0.034085 0.060421
O O1 0.250000 0.353405 0.627196
O O2 0.445441 0.250000 0.621396
O O3 0.449837 0.351958 0.537142
O O4 0.533028 0.373791 0.653566
O O5 0.750000 0.940658 0.192492
O O6 0.476308 0.936373 0.237208
O O7 0.604140 0.056716 0.215038
O O8 0.528128 0.982992 0.118928
O O9 0.250000 0.675151 0.779942
O O10 0.036587 0.642559 0.697583
O O11 0.969908 0.674824 0.817043
O O12 0.250000 0.342004 0.446963
O O13 0.031259 0.250000 0.453010
O O14 0.978299 0.382852 0.423659
O O15 0.750000 0.852967 0.892804
O O16 0.941146 0.750000 0.919144
O O17 0.016262 0.885452 0.929826
O O18 0.250000 0.955971 0.310255
O O19 0.497377 0.010718 0.345980
O O20 0.750000 0.071192 0.360846
O O21 0.750000 0.037968 0.052979
O O22 0.500000 0.000000 0.000000
#
# Coordination Sequence:
#
# PCOD8242484 Si02
#       8
#     8   8   8   8   8   8   8   8
#     4   9  19  37  57  73  94 128 166 206 259 319
#     4   8  16  32  51  73 101 130 160 195 239 292
#     4   8  16  30  46  66  94 129 166 201 240 289
#     4   9  19  35  52  70  94 126 166 211 257 307
#     4  10  20  32  48  73 104 137 174 214 251 291
#     4  11  21  32  52  79 103 129 163 210 258 295
#     4  10  20  33  49  71 101 136 171 206 249 303
#     4  10  20  34  55  80 106 139 174 208 249 298
#
# _framework density 17.741771
#
# number of rings (size 3 to 8) (size 9 to 14) (size 15 to 20)
#    0.000    2.625    0.000    4.500    0.000    8.500 
#    0.000    3.750    0.000    0.750    0.000    5.250 
#    0.000    0.000    0.000    0.000    0.000    0.000 
#
# Total GULP energy -793314.094431 kJ/mol
# GULP energy per Si atom -12395.532725 kJ/mol
# Density = 1.770139 g / cm^3
# Si number density = 17.741771 Si / 1000 Ang^3
#
#
#
# Elastic Constant Matrix: (Units=GPa)
#
#
# Indices 1 2 3 4 5 6 
#
# 1 110.3683 46.8764 61.4300 0.0000 0.0000 0.0000
# 2 46.8764 66.0551 53.1608 0.0000 0.0000 0.0000
# 3 61.4300 53.1608 118.1658 0.0000 0.0000 0.0000
# 4 0.0000 0.0000 0.0000 16.6038 0.0000 0.0000
# 5 0.0000 0.0000 0.0000 0.0000 29.0580 0.0000
# 6 0.0000 0.0000 0.0000 0.0000 0.0000 25.4554
#
#
#
# Elastic Compliance Matrix: (Units=1/GPa)
#
#
# Indices 1 2 3 4 5 6 
#
# 1 0.014358 -0.006556 -0.004515 0.000000 0.000000 0.000000
# 2 -0.006556 0.026724 -0.008615 0.000000 0.000000 0.000000
# 3 -0.004515 -0.008615 0.014685 0.000000 0.000000 0.000000
# 4 0.000000 0.000000 0.000000 0.060227 0.000000 0.000000
# 5 0.000000 0.000000 0.000000 0.000000 0.034414 0.000000
# 6 0.000000 0.000000 0.000000 0.000000 0.000000 0.039284
#
#
# Mechanical properties :
#
#
# Convention : Reuss Voigt Hill
#
# Bulk Modulus (GPa) = 60.98659 68.61373 64.80016
# Shear Modulus (GPa) = 21.31930 23.09822 22.20876
#
# Velocity S-wave (km/s) = 3.47023 3.61212 3.54189
# Velocity P-wave (km/s) = 7.10675 7.49360 7.30274
#
# Compressibility (1/GPa) = 0.01639705
#
# Stress axis : x y z
#
# Youngs Moduli (GPa) = 69.64834 37.41929 68.09479
#
# Poissons Ratio (x) = 0.24531 0.30744
# Poissons Ratio (y) = 0.45659 0.58662
# Poissons Ratio (z) = 0.31445 0.32236
#
# Static dielectric constant tensor:
#      x y z
#    x 3.331420 0.000000 0.000000 
#    y 0.000000 3.015180 0.000000 
#    z 0.000000 0.000000 3.534220 
# 
# 
# High freq. dielectric constant tensor:
#      x y z
#    x 1.689630 0.000000 0.000000 
#    y 0.000000 1.661930 0.000000 
#    z 0.000000 0.000000 1.681460 
# 
# From -- ./inp_files/29443.got.cif
#   From: 2010.03.12/outbox.cif.g09.slc.cpg/sg59_15_cif.got.tgz:29443.got - 2010.04.16 16:29:54.
