data_PCOD8242915
_publ_section_title
;
Structure prediction by ZEFSAII (Michael W. Deem and Ramdas Pophale) SiO2 
 PCOD8242915
Probable space group: P M M N
;
_chemical_formula_sum "Si O2"
_cell_formula_units_Z 56
_cell_length_a 22.421653
_cell_length_b 9.230267
_cell_length_c 14.642695
_cell_angle_alpha 90.000000
_cell_angle_beta 90.000000
_cell_angle_gamma 90.000000
_cell_volume 3030.420584
_symmetry_space_group_name_H-M "P M M N"
_symmetry_group_IT_number 59
_space_group.IT_coordinate_system_code '2'
_symmetry_cell_setting 'orthorhombic'
loop_
_space_group_symop_operation_xyz
x,y,z
1/2-x,1/2-y,z
1/2+x,-y,-z
-x,1/2+y,-z
-x,-y,-z
1/2+x,1/2+y,-z
1/2-x,y,z
x,1/2-y,z
loop_
_atom_site_type_symbol
_atom_site_label
_atom_site_fract_x
_atom_site_fract_y
_atom_site_fract_z
Si Si1 0.317154 0.085591 0.565423
Si Si2 0.152094 0.920668 0.384785
Si Si3 0.089733 0.418360 0.715959
Si Si4 0.443544 0.580885 0.890338
Si Si5 0.078268 0.081105 0.073212
Si Si6 0.316401 0.083851 0.207110
Si Si7 0.518102 0.083951 0.589168
O O1 0.250000 0.080885 0.602941
O O2 0.335963 0.250000 0.538900
O O3 0.359400 0.027626 0.646199
O O4 0.321610 0.984589 0.477594
O O5 0.163717 0.750000 0.384689
O O6 0.082913 0.962550 0.376843
O O7 0.184621 0.989636 0.298569
O O8 0.098189 0.250000 0.740603
O O9 0.093205 0.511742 0.807358
O O10 0.025877 0.450334 0.671669
O O11 0.429970 0.750000 0.893429
O O12 0.514369 0.549933 0.879354
O O13 0.417197 0.511014 0.981548
O O14 0.084671 0.250000 0.048402
O O15 0.132421 0.028496 0.137950
O O16 0.250000 0.069125 0.162808
O O17 0.329716 0.250000 0.233662
O O18 0.516067 0.250000 0.560232
O O19 0.500000 0.000000 0.500000
#
# Coordination Sequence:
#
# PCOD8242915 Si02
#       7
#     8   8   8   8   8   8   8
#     4  10  21  37  55  73  99 142 190 225 256 306
#     4  11  22  34  52  80 111 142 177 220 273 323
#     4  10  20  35  54  77 106 139 176 220 264 309
#     4  10  20  34  57  85 108 135 171 215 272 328
#     4   9  19  37  58  81 108 137 172 218 266 316
#     4  10  21  37  57  80 107 144 186 221 260 318
#     4  10  20  33  51  77 106 139 177 218 267 315
#
# _framework density 18.479282999999999
#
# number of rings (size 3 to 8) (size 9 to 14) (size 15 to 20)
#    0.000    2.000    1.429    2.143    0.000    5.143 
#    0.000    0.714    0.000    4.286    0.000    0.000 
#    0.000    0.000    0.000    0.000    0.000    0.000 
#
# Total GULP energy -694529.635354 kJ/mol
# GULP energy per Si atom -12402.314917 kJ/mol
# Density = 1.843722 g / cm^3
# Si number density = 18.479283 Si / 1000 Ang^3
#
#
#
# Elastic Constant Matrix: (Units=GPa)
#
#
# Indices 1 2 3 4 5 6 
#
# 1 106.4929 31.1613 51.6034 0.0000 0.0000 0.0000
# 2 31.1613 67.7639 55.4533 0.0000 0.0000 0.0000
# 3 51.6034 55.4533 121.1994 0.0000 0.0000 0.0000
# 4 0.0000 0.0000 0.0000 33.7044 0.0000 0.0000
# 5 0.0000 0.0000 0.0000 0.0000 21.6470 0.0000
# 6 0.0000 0.0000 0.0000 0.0000 0.0000 23.6585
#
#
#
# Elastic Compliance Matrix: (Units=1/GPa)
#
#
# Indices 1 2 3 4 5 6 
#
# 1 0.012023 -0.002141 -0.004139 0.000000 0.000000 0.000000
# 2 -0.002141 0.023971 -0.010056 0.000000 0.000000 0.000000
# 3 -0.004139 -0.010056 0.014614 0.000000 0.000000 0.000000
# 4 0.000000 0.000000 0.000000 0.029670 0.000000 0.000000
# 5 0.000000 0.000000 0.000000 0.000000 0.046196 0.000000
# 6 0.000000 0.000000 0.000000 0.000000 0.000000 0.042268
#
#
# Mechanical properties :
#
#
# Convention : Reuss Voigt Hill
#
# Bulk Modulus (GPa) = 55.75738 63.54359 59.65048
# Shear Modulus (GPa) = 24.10893 26.28454 25.19674
#
# Velocity S-wave (km/s) = 3.61591 3.77554 3.69658
# Velocity P-wave (km/s) = 6.90445 7.31213 7.11121
#
# Compressibility (1/GPa) = 0.01793485
#
# Stress axis : x y z
#
# Youngs Moduli (GPa) = 83.17668 41.71733 68.42709
#
# Poissons Ratio (x) = 0.08933 0.28323
# Poissons Ratio (y) = 0.17812 0.68809
# Poissons Ratio (z) = 0.34428 0.41950
#
# Static dielectric constant tensor:
#      x y z
#    x 3.560800 0.000000 0.000000 
#    y 0.000000 3.301720 0.000000 
#    z 0.000000 0.000000 3.152290 
# 
# 
# High freq. dielectric constant tensor:
#      x y z
#    x 1.721740 0.000000 0.000000 
#    y 0.000000 1.715960 0.000000 
#    z 0.000000 0.000000 1.707650 
# 
# From -- ./inp_files/24197.got.cif
#   From: 2010.03.12/outbox.cif.g09.slc.cpg/sg59_13_cif.got.tgz:24197.got - 2010.04.16 16:29:54.
