data_PCOD8242888
_publ_section_title
;
Structure prediction by ZEFSAII (Michael W. Deem and Ramdas Pophale) SiO2 
 PCOD8242888
Probable space group: P M M N
;
_chemical_formula_sum "Si O2"
_cell_formula_units_Z 64
_cell_length_a 12.847607
_cell_length_b 26.138770
_cell_length_c 10.233351
_cell_angle_alpha 90.000000
_cell_angle_beta 90.000000
_cell_angle_gamma 90.000000
_cell_volume 3436.570527
_symmetry_space_group_name_H-M "P M M N"
_symmetry_group_IT_number 59
_space_group.IT_coordinate_system_code '2'
_symmetry_cell_setting 'orthorhombic'
loop_
_space_group_symop_operation_xyz
x,y,z
1/2-x,1/2-y,z
1/2+x,-y,-z
-x,1/2+y,-z
-x,-y,-z
1/2+x,1/2+y,-z
1/2-x,y,z
x,1/2-y,z
loop_
_atom_site_type_symbol
_atom_site_label
_atom_site_fract_x
_atom_site_fract_y
_atom_site_fract_z
Si Si1 0.129619 0.898134 0.981205
Si Si2 0.500563 0.940979 0.752885
Si Si3 0.002524 0.307913 0.487168
Si Si4 0.371217 0.159461 0.245538
Si Si5 0.634118 0.689312 0.266515
Si Si6 0.021745 0.191411 0.993288
Si Si7 0.131493 0.542396 0.246198
Si Si8 0.870083 0.403825 0.482034
O O1 0.250000 0.892418 0.945018
O O2 0.080174 0.841649 0.974115
O O3 0.112134 0.921101 0.123719
O O4 0.076397 0.934967 0.875359
O O5 0.591280 0.898997 0.756160
O O6 0.435967 0.937525 0.619078
O O7 0.552191 0.995992 0.761561
O O8 0.963718 0.250000 0.513206
O O9 0.902506 0.344267 0.473785
O O10 0.070461 0.308436 0.356451
O O11 0.072652 0.329189 0.605781
O O12 0.250000 0.160996 0.275898
O O13 0.393577 0.186571 0.107836
O O14 0.750000 0.665243 0.269648
O O15 0.642309 0.750000 0.263685
O O16 0.574600 0.669691 0.138105
O O17 0.985935 0.250000 0.976786
O O18 0.250000 0.521802 0.247217
O O19 0.107804 0.575390 0.374076
O O20 0.750000 0.407606 0.442940
#
# Coordination Sequence:
#
# PCOD8242888 Si02
#       8
#     8   8   8   8   8   8   8   8
#     4  10  21  36  55  79 106 138 175 212 254 306
#     4  10  20  36  56  78 105 134 169 215 263 311
#     4  10  20  33  51  76 106 141 177 212 253 302
#     4  10  20  33  51  77 105 134 173 217 261 311
#     4   9  17  30  48  70  99 136 174 211 253 298
#     4  10  20  33  51  76 106 141 177 212 253 302
#     4  10  20  36  58  80 102 132 169 213 266 313
#     4  10  21  36  55  79 106 138 175 212 254 306
#
# _framework density 18.623218999999999
#
# number of rings (size 3 to 8) (size 9 to 14) (size 15 to 20)
#    0.000    2.125    0.000    3.375    0.000    2.500 
#    0.000    0.000    0.000   19.500    0.000    0.000 
#    0.000    0.000    0.000    0.000    0.000    0.000 
#
# Total GULP energy -793828.585733 kJ/mol
# GULP energy per Si atom -12403.571652 kJ/mol
# Density = 1.858083 g / cm^3
# Si number density = 18.623219 Si / 1000 Ang^3
#
#
#
# Elastic Constant Matrix: (Units=GPa)
#
#
# Indices 1 2 3 4 5 6 
#
# 1 86.0387 44.1586 17.4554 0.0000 0.0000 0.0000
# 2 44.1586 77.3633 13.6001 0.0000 0.0000 0.0000
# 3 17.4554 13.6001 108.6449 0.0000 0.0000 0.0000
# 4 0.0000 0.0000 0.0000 14.0578 0.0000 0.0000
# 5 0.0000 0.0000 0.0000 0.0000 27.3669 0.0000
# 6 0.0000 0.0000 0.0000 0.0000 0.0000 19.0349
#
#
#
# Elastic Compliance Matrix: (Units=1/GPa)
#
#
# Indices 1 2 3 4 5 6 
#
# 1 0.016681 -0.009254 -0.001522 0.000000 0.000000 0.000000
# 2 -0.009254 0.018351 -0.000810 0.000000 0.000000 0.000000
# 3 -0.001522 -0.000810 0.009550 0.000000 0.000000 0.000000
# 4 0.000000 0.000000 0.000000 0.071135 0.000000 0.000000
# 5 0.000000 0.000000 0.000000 0.000000 0.036541 0.000000
# 6 0.000000 0.000000 0.000000 0.000000 0.000000 0.052535
#
#
# Mechanical properties :
#
#
# Convention : Reuss Voigt Hill
#
# Bulk Modulus (GPa) = 46.70728 46.94168 46.82448
# Shear Modulus (GPa) = 21.26750 25.21409 23.24079
#
# Velocity S-wave (km/s) = 3.38300 3.68354 3.53646
# Velocity P-wave (km/s) = 6.35564 6.58422 6.47094
#
# Compressibility (1/GPa) = 0.02140994
#
# Stress axis : x y z
#
# Youngs Moduli (GPa) = 59.94904 54.49430 104.70973
#
# Poissons Ratio (x) = 0.50428 0.15933
# Poissons Ratio (y) = 0.55476 0.08485
# Poissons Ratio (z) = 0.09122 0.04416
#
# Static dielectric constant tensor:
#      x y z
#    x 3.392810 0.000000 0.000000 
#    y 0.000000 3.186230 0.000000 
#    z 0.000000 0.000000 3.625500 
# 
# 
# High freq. dielectric constant tensor:
#      x y z
#    x 1.721730 0.000000 0.000000 
#    y 0.000000 1.708240 0.000000 
#    z 0.000000 0.000000 1.743730 
# 
# From -- ./inp_files/8011.got.cif
#   From: 2010.03.12/outbox.cif.g09.slc.cpg/sg59_5_cif.got.tgz:8011.got - 2010.04.16 16:29:54.
