data_PCOD8242493
_publ_section_title
;
Structure prediction by ZEFSAII (Michael W. Deem and Ramdas Pophale) SiO2 
 PCOD8242493
Probable space group: P M M N
;
_chemical_formula_sum "Si O2"
_cell_formula_units_Z 48
_cell_length_a 9.452513
_cell_length_b 9.313864
_cell_length_c 30.740290
_cell_angle_alpha 90.000000
_cell_angle_beta 90.000000
_cell_angle_gamma 90.000000
_cell_volume 2706.357319
_symmetry_space_group_name_H-M "P M M N"
_symmetry_group_IT_number 59
_space_group.IT_coordinate_system_code '2'
_symmetry_cell_setting 'orthorhombic'
loop_
_space_group_symop_operation_xyz
x,y,z
1/2-x,1/2-y,z
1/2+x,-y,-z
-x,1/2+y,-z
-x,-y,-z
1/2+x,1/2+y,-z
1/2-x,y,z
x,1/2-y,z
loop_
_atom_site_type_symbol
_atom_site_label
_atom_site_fract_x
_atom_site_fract_y
_atom_site_fract_z
Si Si1 0.586092 0.583959 0.633201
Si Si2 0.088039 0.079632 0.704147
Si Si3 0.092228 0.920692 0.215195
Si Si4 0.082147 0.909654 0.119874
Si Si5 0.083282 0.416802 0.036916
Si Si6 0.090357 0.083666 0.465465
O O1 0.750000 0.541859 0.639951
O O2 0.563025 0.750000 0.645301
O O3 0.487854 0.485649 0.662512
O O4 0.538303 0.554716 0.583648
O O5 0.250000 0.028722 0.705259
O O6 0.075696 0.250000 0.701022
O O7 0.012802 0.020460 0.747840
O O8 0.250000 0.983627 0.223568
O O9 0.099679 0.750000 0.216379
O O10 0.033216 0.966645 0.167490
O O11 0.250000 0.899384 0.120723
O O12 0.020037 0.750000 0.110126
O O13 0.030832 0.020263 0.083125
O O14 0.250000 0.441446 0.030218
O O15 0.043103 0.250000 0.035322
O O16 0.000000 0.500000 0.000000
O O17 0.250000 0.029248 0.470054
O O18 0.078842 0.250000 0.476633
O O19 0.000000 0.000000 0.500000
#
# Coordination Sequence:
#
# PCOD8242493 Si02
#       6
#     8   8   8   8   8   8
#     4   9  19  36  54  71  95 130 169 205 242 286
#     4  10  20  32  48  74 105 133 162 199 243 289
#     4   8  14  27  48  70  92 124 165 203 239 282
#     4   8  14  27  48  70  92 123 163 204 243 283
#     4  10  20  33  50  73 100 130 164 201 243 291
#     4   9  19  35  53  74 100 128 161 202 245 291
#
# _framework density 17.736017
#
# number of rings (size 3 to 8) (size 9 to 14) (size 15 to 20)
#    0.000    3.000    0.000    3.000    0.000    4.000 
#    0.000    6.667    0.000    6.000    0.000    0.000 
#    0.000    0.000    0.000    0.000    0.000    0.000 
#
# Total GULP energy -595025.847450 kJ/mol
# GULP energy per Si atom -12396.371822 kJ/mol
# Density = 1.769565 g / cm^3
# Si number density = 17.736017 Si / 1000 Ang^3
#
#
#
# Elastic Constant Matrix: (Units=GPa)
#
#
# Indices 1 2 3 4 5 6 
#
# 1 77.0042 35.9055 64.2118 0.0000 0.0000 0.0000
# 2 35.9055 60.6378 54.2145 0.0000 0.0000 0.0000
# 3 64.2118 54.2145 144.6475 0.0000 0.0000 0.0000
# 4 0.0000 0.0000 0.0000 32.2210 0.0000 0.0000
# 5 0.0000 0.0000 0.0000 0.0000 31.2983 0.0000
# 6 0.0000 0.0000 0.0000 0.0000 0.0000 24.9486
#
#
#
# Elastic Compliance Matrix: (Units=1/GPa)
#
#
# Indices 1 2 3 4 5 6 
#
# 1 0.022211 -0.006522 -0.007415 0.000000 0.000000 0.000000
# 2 -0.006522 0.026718 -0.007119 0.000000 0.000000 0.000000
# 3 -0.007415 -0.007119 0.012873 0.000000 0.000000 0.000000
# 4 0.000000 0.000000 0.000000 0.031036 0.000000 0.000000
# 5 0.000000 0.000000 0.000000 0.000000 0.031951 0.000000
# 6 0.000000 0.000000 0.000000 0.000000 0.000000 0.040082
#
#
# Mechanical properties :
#
#
# Convention : Reuss Voigt Hill
#
# Bulk Modulus (GPa) = 50.78728 65.66147 58.22437
# Shear Modulus (GPa) = 23.41417 26.22410 24.81914
#
# Velocity S-wave (km/s) = 3.63733 3.84940 3.74487
# Velocity P-wave (km/s) = 6.80716 7.54050 7.18319
#
# Compressibility (1/GPa) = 0.01968997
#
# Stress axis : x y z
#
# Youngs Moduli (GPa) = 45.02320 37.42816 77.67984
#
# Poissons Ratio (x) = 0.24410 0.57603
# Poissons Ratio (y) = 0.29363 0.55299
# Poissons Ratio (z) = 0.33386 0.26644
#
# Static dielectric constant tensor:
#      x y z
#    x 3.204150 0.000000 0.000000 
#    y 0.000000 3.019980 0.000000 
#    z 0.000000 0.000000 3.598560 
# 
# 
# High freq. dielectric constant tensor:
#      x y z
#    x 1.665020 0.000000 0.000000 
#    y 0.000000 1.664970 0.000000 
#    z 0.000000 0.000000 1.702110 
# 
# From -- ./inp_files/32894.got.cif
#   From: 2010.03.12/outbox.cif.g09.slc.cpg/sg59_17_cif.got.tgz:32894.got - 2010.04.16 16:29:54.
