data_PCOD8242705
_publ_section_title
;
Structure prediction by ZEFSAII (Michael W. Deem and Ramdas Pophale) SiO2 
 PCOD8242705
Probable space group: P M M N
;
_chemical_formula_sum "Si O2"
_cell_formula_units_Z 64
_cell_length_a 9.461228
_cell_length_b 14.191906
_cell_length_c 25.866844
_cell_angle_alpha 90.000000
_cell_angle_beta 90.000000
_cell_angle_gamma 90.000000
_cell_volume 3473.215082
_symmetry_space_group_name_H-M "P M M N"
_symmetry_group_IT_number 59
_space_group.IT_coordinate_system_code '2'
_symmetry_cell_setting 'orthorhombic'
loop_
_space_group_symop_operation_xyz
x,y,z
1/2-x,1/2-y,z
1/2+x,-y,-z
-x,1/2+y,-z
-x,-y,-z
1/2+x,1/2+y,-z
1/2-x,y,z
x,1/2-y,z
loop_
_atom_site_type_symbol
_atom_site_label
_atom_site_fract_x
_atom_site_fract_y
_atom_site_fract_z
Si Si1 0.413441 0.540708 0.372029
Si Si2 0.915430 0.546552 0.176705
Si Si3 0.588245 0.359122 0.523242
Si Si4 0.913183 0.855547 0.575727
Si Si5 0.917118 0.359022 0.914545
Si Si6 0.404311 0.861322 0.974251
Si Si7 0.583058 0.146960 0.136919
Si Si8 0.583213 0.640974 0.282781
O O1 0.250000 0.564106 0.359972
O O2 0.461353 0.585558 0.426150
O O3 0.439513 0.427816 0.376854
O O4 0.508910 0.582584 0.327427
O O5 0.750000 0.566015 0.168193
O O6 0.949280 0.433840 0.179220
O O7 0.968109 0.595959 0.228924
O O8 0.999951 0.585275 0.128650
O O9 0.750000 0.381833 0.509827
O O10 0.563590 0.250000 0.535240
O O11 0.496832 0.391593 0.474386
O O12 0.750000 0.856971 0.559612
O O13 0.961009 0.750000 0.592685
O O14 0.750000 0.378131 0.909898
O O15 0.951583 0.250000 0.905739
O O16 0.975633 0.394563 0.971316
O O17 0.250000 0.909214 0.972127
O O18 0.386199 0.750000 0.979886
O O19 0.484429 0.882149 0.919583
O O20 0.750000 0.155882 0.127956
O O21 0.524707 0.250000 0.155281
O O22 0.750000 0.630275 0.289891
O O23 0.536517 0.750000 0.284556
#
# Coordination Sequence:
#
# PCOD8242705 Si02
#       8
#     8   8   8   8   8   8   8   8
#     4  10  20  34  53  75  99 131 171 209 240 277
#     4  10  20  33  50  72  96 123 158 202 248 287
#     4   9  17  29  47  74 105 133 164 204 244 279
#     4   9  18  32  50  75 107 138 165 195 236 287
#     4   9  17  29  46  69  97 128 160 193 233 287
#     4   7  11  22  41  66  95 124 154 189 229 278
#     4   8  14  27  48  71  95 125 159 193 233 286
#     4  10  22  38  52  69  97 128 157 198 251 297
#
# _framework density 18.426729000000002
#
# number of rings (size 3 to 8) (size 9 to 14) (size 15 to 20)
#    0.000    3.000    0.000    2.625    0.000    3.500 
#    0.000    1.875    0.000    1.125    0.000    1.750 
#    0.000    0.000    0.000    0.000    0.000    0.000 
#
# Total GULP energy -792949.511781 kJ/mol
# GULP energy per Si atom -12389.836122 kJ/mol
# Density = 1.838479 g / cm^3
# Si number density = 18.426729 Si / 1000 Ang^3
#
#
#
# Elastic Constant Matrix: (Units=GPa)
#
#
# Indices 1 2 3 4 5 6 
#
# 1 28.0997 25.9348 30.0176 0.0000 0.0000 0.0000
# 2 25.9348 95.4573 65.4596 0.0000 0.0000 0.0000
# 3 30.0176 65.4596 97.0272 0.0000 0.0000 0.0000
# 4 0.0000 0.0000 0.0000 31.4224 0.0000 0.0000
# 5 0.0000 0.0000 0.0000 0.0000 19.2361 0.0000
# 6 0.0000 0.0000 0.0000 0.0000 0.0000 19.1979
#
#
#
# Elastic Compliance Matrix: (Units=1/GPa)
#
#
# Indices 1 2 3 4 5 6 
#
# 1 0.054995 -0.006093 -0.012903 0.000000 0.000000 0.000000
# 2 -0.006093 0.020170 -0.011723 0.000000 0.000000 0.000000
# 3 -0.012903 -0.011723 0.022207 0.000000 0.000000 0.000000
# 4 0.000000 0.000000 0.000000 0.031824 0.000000 0.000000
# 5 0.000000 0.000000 0.000000 0.000000 0.051986 0.000000
# 6 0.000000 0.000000 0.000000 0.000000 0.000000 0.052089
#
#
# Mechanical properties :
#
#
# Convention : Reuss Voigt Hill
#
# Bulk Modulus (GPa) = 27.82875 51.48980 39.65927
# Shear Modulus (GPa) = 16.30319 20.58276 18.44297
#
# Velocity S-wave (km/s) = 2.97771 3.34579 3.16710
# Velocity P-wave (km/s) = 5.19207 6.55205 5.91130
#
# Compressibility (1/GPa) = 0.03593406
#
# Stress axis : x y z
#
# Youngs Moduli (GPa) = 18.18333 49.57796 45.03078
#
# Poissons Ratio (x) = 0.30210 0.58104
# Poissons Ratio (y) = 0.11080 0.52788
# Poissons Ratio (z) = 0.23462 0.58119
#
# Static dielectric constant tensor:
#      x y z
#    x 3.080200 0.000000 0.000000 
#    y 0.000000 3.654480 0.000000 
#    z 0.000000 0.000000 3.392010 
# 
# 
# High freq. dielectric constant tensor:
#      x y z
#    x 1.678980 0.000000 0.000000 
#    y 0.000000 1.725060 0.000000 
#    z 0.000000 0.000000 1.702080 
# 
# From -- ./inp_files/31630.got.cif
#   From: 2010.03.12/outbox.cif.g09.slc.cpg/sg59_16_cif.got.tgz:31630.got - 2010.04.16 16:29:54.
