data_PCOD8242124
_publ_section_title
;
Structure prediction by ZEFSAII (Michael W. Deem and Ramdas Pophale) SiO2 
 PCOD8242124
Probable space group: P M M N
;
_chemical_formula_sum "Si O2"
_cell_formula_units_Z 48
_cell_length_a 7.768144
_cell_length_b 34.442455
_cell_length_c 8.996614
_cell_angle_alpha 90.000000
_cell_angle_beta 90.000000
_cell_angle_gamma 90.000000
_cell_volume 2407.079614
_symmetry_space_group_name_H-M "P M M N"
_symmetry_group_IT_number 59
_space_group.IT_coordinate_system_code '2'
_symmetry_cell_setting 'orthorhombic'
loop_
_space_group_symop_operation_xyz
x,y,z
1/2-x,1/2-y,z
1/2+x,-y,-z
-x,1/2+y,-z
-x,-y,-z
1/2+x,1/2+y,-z
1/2-x,y,z
x,1/2-y,z
loop_
_atom_site_type_symbol
_atom_site_label
_atom_site_fract_x
_atom_site_fract_y
_atom_site_fract_z
Si Si1 0.952151 0.999167 0.329195
Si Si2 0.250000 0.206678 0.325455
Si Si3 0.059251 0.846259 0.326826
Si Si4 0.054001 0.078059 0.822409
Si Si5 0.250000 0.293175 0.678122
Si Si6 0.552664 0.348755 0.328860
Si Si7 0.047900 0.926592 0.845932
O O1 0.750000 0.999524 0.308630
O O2 0.027828 0.960437 0.252505
O O3 0.027350 0.037153 0.247449
O O4 0.000000 0.000000 0.500000
O O5 0.250000 0.250000 0.256289
O O6 0.250000 0.209524 0.501888
O O7 0.423244 0.184738 0.271630
O O8 0.250000 0.827893 0.310200
O O9 0.021583 0.857115 0.497491
O O10 0.055260 0.885209 0.230327
O O11 0.920645 0.815428 0.265669
O O12 0.250000 0.084029 0.769484
O O13 0.049986 0.074264 0.998953
O O14 0.250000 0.250000 0.747721
O O15 0.750000 0.335806 0.297599
O O16 0.504194 0.387886 0.244277
O O17 0.250000 0.930561 0.875250
#
# Coordination Sequence:
#
# PCOD8242124 Si02
#       7
#     8   4   8   8   4   8   8
#     4  10  22  38  56  80 112 145 188 237 284 338
#     4   9  18  32  55  85 117 147 181 233 291 337
#     4  10  19  35  58  82 113 153 188 232 288 339
#     4  11  22  35  54  82 112 148 192 236 282 339
#     4   9  18  34  55  87 121 145 187 243 283 343
#     4   9  19  34  56  82 110 147 190 230 279 340
#     4  10  21  37  54  78 111 148 190 234 280 339
#
# _framework density 19.941178000000001
#
# number of rings (size 3 to 8) (size 9 to 14) (size 15 to 20)
#    0.000    2.167    0.833    2.000    1.167    4.000 
#    0.000    3.333    0.000    2.000    0.000    2.333 
#    0.000    0.000    0.000    0.000    0.000    0.000 
#
# Total GULP energy -595276.787012 kJ/mol
# GULP energy per Si atom -12401.599729 kJ/mol
# Density = 1.989579 g / cm^3
# Si number density = 19.941178 Si / 1000 Ang^3
#
#
#
# Elastic Constant Matrix: (Units=GPa)
#
#
# Indices 1 2 3 4 5 6 
#
# 1 95.7294 67.0011 25.3850 0.0000 0.0000 0.0000
# 2 67.0011 178.7712 52.7663 0.0000 0.0000 0.0000
# 3 25.3850 52.7663 88.7450 0.0000 0.0000 0.0000
# 4 0.0000 0.0000 0.0000 8.4932 0.0000 0.0000
# 5 0.0000 0.0000 0.0000 0.0000 23.1492 0.0000
# 6 0.0000 0.0000 0.0000 0.0000 0.0000 21.6960
#
#
#
# Elastic Compliance Matrix: (Units=1/GPa)
#
#
# Indices 1 2 3 4 5 6 
#
# 1 0.014247 -0.005017 -0.001092 0.000000 0.000000 0.000000
# 2 -0.005017 0.008551 -0.003649 0.000000 0.000000 0.000000
# 3 -0.001092 -0.003649 0.013750 0.000000 0.000000 0.000000
# 4 0.000000 0.000000 0.000000 0.117741 0.000000 0.000000
# 5 0.000000 0.000000 0.000000 0.000000 0.043198 0.000000
# 6 0.000000 0.000000 0.000000 0.000000 0.000000 0.046091
#
#
# Mechanical properties :
#
#
# Convention : Reuss Voigt Hill
#
# Bulk Modulus (GPa) = 58.71453 72.61671 65.66562
# Shear Modulus (GPa) = 18.60294 25.20722 21.90508
#
# Velocity S-wave (km/s) = 3.05764 3.55925 3.31794
# Velocity P-wave (km/s) = 6.47868 7.30654 6.90503
#
# Compressibility (1/GPa) = 0.01703156
#
# Stress axis : x y z
#
# Youngs Moduli (GPa) = 70.18825 116.94104 72.72495
#
# Poissons Ratio (x) = 0.58674 0.07943
# Poissons Ratio (y) = 0.35216 0.26539
# Poissons Ratio (z) = 0.07666 0.42675
#
# Static dielectric constant tensor:
#      x y z
#    x 3.636830 0.000000 0.000000 
#    y 0.000000 3.820690 0.000000 
#    z 0.000000 0.000000 3.302380 
# 
# 
# High freq. dielectric constant tensor:
#      x y z
#    x 1.782680 0.000000 0.000000 
#    y 0.000000 1.777080 0.000000 
#    z 0.000000 0.000000 1.756390 
# 
# From -- ./inp_files/6347.got.cif
#   From: 2010.03.12/outbox.cif.g09.slc.cpg/sg59_4_cif.got.tgz:6347.got - 2010.04.16 16:29:54.
