data_PCOD8242882
_publ_section_title
;
Structure prediction by ZEFSAII (Michael W. Deem and Ramdas Pophale) SiO2 
 PCOD8242882
Probable space group: P M M N
;
_chemical_formula_sum "Si O2"
_cell_formula_units_Z 56
_cell_length_a 19.201238
_cell_length_b 9.150568
_cell_length_c 16.160797
_cell_angle_alpha 90.000000
_cell_angle_beta 90.000000
_cell_angle_gamma 90.000000
_cell_volume 2839.488136
_symmetry_space_group_name_H-M "P M M N"
_symmetry_group_IT_number 59
_space_group.IT_coordinate_system_code '2'
_symmetry_cell_setting 'orthorhombic'
loop_
_space_group_symop_operation_xyz
x,y,z
1/2-x,1/2-y,z
1/2+x,-y,-z
-x,1/2+y,-z
-x,-y,-z
1/2+x,1/2+y,-z
1/2-x,y,z
x,1/2-y,z
loop_
_atom_site_type_symbol
_atom_site_label
_atom_site_fract_x
_atom_site_fract_y
_atom_site_fract_z
Si Si1 0.326702 0.076298 0.159111
Si Si2 0.038709 0.581091 0.426400
Si Si3 0.457854 0.418774 0.258797
Si Si4 0.170124 0.420211 0.972240
Si Si5 0.828230 0.416814 0.479505
Si Si6 0.832428 0.586153 0.319569
Si Si7 0.401131 0.581795 0.828542
O O1 0.250000 0.021983 0.188658
O O2 0.328645 0.250000 0.158071
O O3 0.386055 0.016748 0.220882
O O4 0.340803 0.022445 0.065727
O O5 0.016105 0.750000 0.425457
O O6 0.019623 0.510464 0.338756
O O7 0.121839 0.563438 0.441408
O O8 0.000000 0.500000 0.500000
O O9 0.449517 0.250000 0.285376
O O10 0.516820 0.436404 0.188948
O O11 0.250000 0.447233 0.944340
O O12 0.151694 0.250000 0.964110
O O13 0.116672 0.509676 0.916059
O O14 0.750000 0.464868 0.505255
O O15 0.828966 0.250000 0.448038
O O16 0.858766 0.514037 0.404779
O O17 0.750000 0.586906 0.318992
O O18 0.862697 0.750000 0.314341
O O19 0.857122 0.494348 0.242344
O O20 0.379063 0.750000 0.831203
#
# Coordination Sequence:
#
# PCOD8242882 Si02
#       7
#     8   8   8   8   8   8   8
#     4   8  16  35  61  83 105 138 179 221 265 312
#     4  11  23  38  57  80 107 141 179 219 265 317
#     4  10  22  38  55  79 109 140 176 218 264 315
#     4   9  18  34  57  82 106 137 179 221 258 303
#     4   9  19  36  55  75 102 135 170 213 268 322
#     4  10  20  33  51  76 104 136 178 223 261 305
#     4  11  22  33  48  75 111 145 175 211 261 318
#
# _framework density 19.721864
#
# number of rings (size 3 to 8) (size 9 to 14) (size 15 to 20)
#    0.000    2.286    0.000    3.429    0.000    9.714 
#    0.000    0.714    0.000    0.857    0.000    0.000 
#    0.000    0.000    0.000    0.000    0.000    0.000 
#
# Total GULP energy -694425.944876 kJ/mol
# GULP energy per Si atom -12400.463301 kJ/mol
# Density = 1.967698 g / cm^3
# Si number density = 19.721864 Si / 1000 Ang^3
#
#
#
# Elastic Constant Matrix: (Units=GPa)
#
#
# Indices 1 2 3 4 5 6 
#
# 1 69.1763 39.5377 46.9600 0.0000 0.0000 0.0000
# 2 39.5377 96.1513 43.1852 0.0000 0.0000 0.0000
# 3 46.9600 43.1852 91.2332 0.0000 0.0000 0.0000
# 4 0.0000 0.0000 0.0000 28.3052 0.0000 0.0000
# 5 0.0000 0.0000 0.0000 0.0000 36.5673 0.0000
# 6 0.0000 0.0000 0.0000 0.0000 0.0000 22.5221
#
#
#
# Elastic Compliance Matrix: (Units=1/GPa)
#
#
# Indices 1 2 3 4 5 6 
#
# 1 0.024362 -0.005570 -0.009903 0.000000 0.000000 0.000000
# 2 -0.005570 0.014482 -0.003988 0.000000 0.000000 0.000000
# 3 -0.009903 -0.003988 0.017946 0.000000 0.000000 0.000000
# 4 0.000000 0.000000 0.000000 0.035329 0.000000 0.000000
# 5 0.000000 0.000000 0.000000 0.000000 0.027347 0.000000
# 6 0.000000 0.000000 0.000000 0.000000 0.000000 0.044401
#
#
# Mechanical properties :
#
#
# Convention : Reuss Voigt Hill
#
# Bulk Modulus (GPa) = 55.96691 57.32519 56.64605
# Shear Modulus (GPa) = 23.95268 25.93744 24.94506
#
# Velocity S-wave (km/s) = 3.48878 3.63045 3.56032
# Velocity P-wave (km/s) = 6.68345 6.83399 6.75914
#
# Compressibility (1/GPa) = 0.01786770
#
# Stress axis : x y z
#
# Youngs Moduli (GPa) = 41.04744 69.05231 55.72228
#
# Poissons Ratio (x) = 0.38461 0.55183
# Poissons Ratio (y) = 0.22863 0.22222
# Poissons Ratio (z) = 0.40651 0.27538
#
# Static dielectric constant tensor:
#      x y z
#    x 3.863360 0.000000 0.000000 
#    y 0.000000 3.587880 0.000000 
#    z 0.000000 0.000000 3.500870 
# 
# 
# High freq. dielectric constant tensor:
#      x y z
#    x 1.777970 0.000000 0.000000 
#    y 0.000000 1.754990 0.000000 
#    z 0.000000 0.000000 1.760090 
# 
# From -- ./inp_files/24264.got.cif
#   From: 2010.03.12/outbox.cif.g09.slc.cpg/sg59_13_cif.got.tgz:24264.got - 2010.04.16 16:29:54.
