data_PCOD8242169
_publ_section_title
;
Structure prediction by ZEFSAII (Michael W. Deem and Ramdas Pophale) SiO2 
 PCOD8242169
Probable space group: P M M N
;
_chemical_formula_sum "Si O2"
_cell_formula_units_Z 48
_cell_length_a 15.974680
_cell_length_b 9.005748
_cell_length_c 16.470873
_cell_angle_alpha 90.000000
_cell_angle_beta 90.000000
_cell_angle_gamma 90.000000
_cell_volume 2369.564726
_symmetry_space_group_name_H-M "P M M N"
_symmetry_group_IT_number 59
_space_group.IT_coordinate_system_code '2'
_symmetry_cell_setting 'orthorhombic'
loop_
_space_group_symop_operation_xyz
x,y,z
1/2-x,1/2-y,z
1/2+x,-y,-z
-x,1/2+y,-z
-x,-y,-z
1/2+x,1/2+y,-z
1/2-x,y,z
x,1/2-y,z
loop_
_atom_site_type_symbol
_atom_site_label
_atom_site_fract_x
_atom_site_fract_y
_atom_site_fract_z
Si Si1 0.425194 0.580969 0.269515
Si Si2 0.080209 0.572427 0.456781
Si Si3 0.750000 0.574023 0.291677
Si Si4 0.900035 0.578692 0.183372
Si Si5 0.847648 0.076958 0.026051
Si Si6 0.250000 0.429027 0.523812
Si Si7 0.652782 0.912312 0.868427
O O1 0.395685 0.750000 0.263110
O O2 0.429153 0.531810 0.362449
O O3 0.513891 0.553920 0.228598
O O4 0.359051 0.484315 0.219860
O O5 0.081418 0.750000 0.471831
O O6 0.166609 0.497750 0.484838
O O7 0.000000 0.500000 0.500000
O O8 0.750000 0.750000 0.294318
O O9 0.830665 0.513057 0.244363
O O10 0.750000 0.516053 0.383355
O O11 0.881834 0.750000 0.163300
O O12 0.900745 0.489943 0.099601
O O13 0.750000 0.038663 0.039292
O O14 0.863937 0.250000 0.021901
O O15 0.884008 0.010869 0.941910
O O16 0.250000 0.250000 0.514330
O O17 0.750000 0.896087 0.883739
O O18 0.609935 0.750000 0.870469
#
# Coordination Sequence:
#
# PCOD8242169 Si02
#       7
#     8   8   4   8   8   4   8
#     4  10  23  40  60  87 120 158 202 248 304 363
#     4  11  24  44  67  95 130 169 214 266 323 385
#     4   9  18  35  61  88 117 154 197 243 296 361
#     4  10  19  35  60  86 114 154 199 243 291 352
#     4  10  20  35  56  85 120 156 193 240 301 356
#     4  11  23  41  67  96 127 168 213 261 324 391
#     4  10  22  39  60  85 114 154 205 251 296 354
#
# _framework density 20.256885
#
# number of rings (size 3 to 8) (size 9 to 14) (size 15 to 20)
#    0.000    1.833    0.833    2.750    1.167    7.000 
#    0.000    3.333    0.000    0.000    0.000    0.000 
#    0.000    0.000    0.000    0.000    0.000    0.000 
#
# Total GULP energy -595227.209967 kJ/mol
# GULP energy per Si atom -12400.566874 kJ/mol
# Density = 2.021078 g / cm^3
# Si number density = 20.256885 Si / 1000 Ang^3
#
#
#
# Elastic Constant Matrix: (Units=GPa)
#
#
# Indices 1 2 3 4 5 6 
#
# 1 72.9939 50.5214 46.5190 0.0000 0.0000 0.0000
# 2 50.5214 110.3654 81.8927 0.0000 0.0000 0.0000
# 3 46.5190 81.8927 186.2373 0.0000 0.0000 0.0000
# 4 0.0000 0.0000 0.0000 38.2267 0.0000 0.0000
# 5 0.0000 0.0000 0.0000 0.0000 30.0885 0.0000
# 6 0.0000 0.0000 0.0000 0.0000 0.0000 20.3402
#
#
#
# Elastic Compliance Matrix: (Units=1/GPa)
#
#
# Indices 1 2 3 4 5 6 
#
# 1 0.020318 -0.008216 -0.001462 0.000000 0.000000 0.000000
# 2 -0.008216 0.016771 -0.005322 0.000000 0.000000 0.000000
# 3 -0.001462 -0.005322 0.008075 0.000000 0.000000 0.000000
# 4 0.000000 0.000000 0.000000 0.026160 0.000000 0.000000
# 5 0.000000 0.000000 0.000000 0.000000 0.033235 0.000000
# 6 0.000000 0.000000 0.000000 0.000000 0.000000 0.049164
#
#
# Mechanical properties :
#
#
# Convention : Reuss Voigt Hill
#
# Bulk Modulus (GPa) = 65.94983 80.82919 73.38951
# Shear Modulus (GPa) = 26.48601 30.44198 28.46400
#
# Velocity S-wave (km/s) = 3.61987 3.88080 3.75260
# Velocity P-wave (km/s) = 7.07804 7.75045 7.42187
#
# Compressibility (1/GPa) = 0.01516304
#
# Stress axis : x y z
#
# Youngs Moduli (GPa) = 49.21686 59.62660 123.83602
#
# Poissons Ratio (x) = 0.48988 0.18111
# Poissons Ratio (y) = 0.40436 0.65911
# Poissons Ratio (z) = 0.07198 0.31736
#
# Static dielectric constant tensor:
#      x y z
#    x 3.636580 0.000000 0.000000 
#    y 0.000000 3.797190 0.000000 
#    z 0.000000 0.000000 3.948250 
# 
# 
# High freq. dielectric constant tensor:
#      x y z
#    x 1.790450 0.000000 0.000000 
#    y 0.000000 1.787820 0.000000 
#    z 0.000000 0.000000 1.807180 
# 
# From -- ./inp_files/23773.got.cif
#   From: 2010.03.12/outbox.cif.g09.slc.cpg/sg59_12_cif.got.tgz:23773.got - 2010.04.16 16:29:54.
