data_PCOD8242402
_publ_section_title
;
Structure prediction by ZEFSAII (Michael W. Deem and Ramdas Pophale) SiO2 
 PCOD8242402
Probable space group: P M M N
;
_chemical_formula_sum "Si O2"
_cell_formula_units_Z 48
_cell_length_a 9.127174
_cell_length_b 9.259837
_cell_length_c 31.375533
_cell_angle_alpha 90.000000
_cell_angle_beta 90.000000
_cell_angle_gamma 90.000000
_cell_volume 2651.739050
_symmetry_space_group_name_H-M "P M M N"
_symmetry_group_IT_number 59
_space_group.IT_coordinate_system_code '2'
_symmetry_cell_setting 'orthorhombic'
loop_
_space_group_symop_operation_xyz
x,y,z
1/2-x,1/2-y,z
1/2+x,-y,-z
-x,1/2+y,-z
-x,-y,-z
1/2+x,1/2+y,-z
1/2-x,y,z
x,1/2-y,z
loop_
_atom_site_type_symbol
_atom_site_label
_atom_site_fract_x
_atom_site_fract_y
_atom_site_fract_z
Si Si1 0.076547 0.592292 0.788713
Si Si2 0.414409 0.577471 0.879710
Si Si3 0.080620 0.080474 0.037640
Si Si4 0.416850 0.577536 0.696463
Si Si5 0.579697 0.417009 0.623325
Si Si6 0.919356 0.580565 0.462307
O O1 0.250000 0.611552 0.790367
O O2 0.001780 0.750000 0.787816
O O3 0.030371 0.513934 0.833404
O O4 0.037074 0.515455 0.743651
O O5 0.250000 0.523258 0.890116
O O6 0.416563 0.750000 0.876380
O O7 0.519988 0.522428 0.917150
O O8 0.250000 0.041315 0.035452
O O9 0.050854 0.250000 0.032838
O O10 0.000000 0.000000 0.000000
O O11 0.250000 0.531374 0.685498
O O12 0.430369 0.750000 0.695861
O O13 0.528257 0.509890 0.663238
O O14 0.750000 0.445962 0.614817
O O15 0.547683 0.250000 0.633152
O O16 0.491097 0.469187 0.581982
O O17 0.750000 0.535361 0.461660
O O18 0.940423 0.750000 0.469429
O O19 0.000000 0.500000 0.500000
#
# Coordination Sequence:
#
# PCOD8242402 Si02
#       6
#     8   8   8   8   8   8
#     4   7  11  22  42  68  95 121 152 192 236 281
#     4   8  13  24  44  67  91 121 155 192 236 284
#     4  10  20  32  47  69  95 123 157 196 238 286
#     4   9  17  30  50  76 102 127 159 200 242 283
#     4  10  21  36  52  71  99 135 170 202 238 282
#     4  10  21  37  57  79 101 128 163 201 242 288
#
# _framework density 18.101327999999999
#
# number of rings (size 3 to 8) (size 9 to 14) (size 15 to 20)
#    0.000    3.000    0.000    3.500    0.000    4.000 
#    0.000    0.833    0.000    4.000    0.000    2.333 
#    0.000    0.000    0.000    0.000    0.000    0.000 
#
# Total GULP energy -594763.780444 kJ/mol
# GULP energy per Si atom -12390.912093 kJ/mol
# Density = 1.806013 g / cm^3
# Si number density = 18.101328 Si / 1000 Ang^3
#
#
#
# Elastic Constant Matrix: (Units=GPa)
#
#
# Indices 1 2 3 4 5 6 
#
# 1 105.4604 30.6832 82.1914 0.0000 0.0000 0.0000
# 2 30.6832 24.1688 41.6387 0.0000 0.0000 0.0000
# 3 82.1914 41.6387 194.0366 0.0000 0.0000 0.0000
# 4 0.0000 0.0000 0.0000 22.1238 0.0000 0.0000
# 5 0.0000 0.0000 0.0000 0.0000 34.1163 0.0000
# 6 0.0000 0.0000 0.0000 0.0000 0.0000 23.0580
#
#
#
# Elastic Compliance Matrix: (Units=1/GPa)
#
#
# Indices 1 2 3 4 5 6 
#
# 1 0.016814 -0.014399 -0.004032 0.000000 0.000000 0.000000
# 2 -0.014399 0.077977 -0.010634 0.000000 0.000000 0.000000
# 3 -0.004032 -0.010634 0.009144 0.000000 0.000000 0.000000
# 4 0.000000 0.000000 0.000000 0.045200 0.000000 0.000000
# 5 0.000000 0.000000 0.000000 0.000000 0.029312 0.000000
# 6 0.000000 0.000000 0.000000 0.000000 0.000000 0.043369
#
#
# Mechanical properties :
#
#
# Convention : Reuss Voigt Hill
#
# Bulk Modulus (GPa) = 21.83240 70.29915 46.06578
# Shear Modulus (GPa) = 16.93687 27.13643 22.03665
#
# Velocity S-wave (km/s) = 3.06219 3.87607 3.49292
# Velocity P-wave (km/s) = 4.95884 7.67807 6.46308
#
# Compressibility (1/GPa) = 0.04580348
#
# Stress axis : x y z
#
# Youngs Moduli (GPa) = 59.47317 12.82437 109.36600
#
# Poissons Ratio (x) = 0.18466 0.44100
# Poissons Ratio (y) = 0.85638 1.16297
# Poissons Ratio (z) = 0.23981 0.13637
#
# Static dielectric constant tensor:
#      x y z
#    x 4.326900 0.000000 0.000000 
#    y 0.000000 2.903600 0.000000 
#    z 0.000000 0.000000 3.905210 
# 
# 
# High freq. dielectric constant tensor:
#      x y z
#    x 1.687910 0.000000 0.000000 
#    y 0.000000 1.649930 0.000000 
#    z 0.000000 0.000000 1.728430 
# 
# From -- ./inp_files/31248.got.cif
#   From: 2010.03.12/outbox.cif.g09.slc.cpg/sg59_16_cif.got.tgz:31248.got - 2010.04.16 16:29:54.
