data_PCOD8242931
_publ_section_title
;
Structure prediction by ZEFSAII (Michael W. Deem and Ramdas Pophale) SiO2 
 PCOD8242931
Probable space group: P M M N
;
_chemical_formula_sum "Si O2"
_cell_formula_units_Z 64
_cell_length_a 9.131652
_cell_length_b 20.689574
_cell_length_c 16.930615
_cell_angle_alpha 90.000000
_cell_angle_beta 90.000000
_cell_angle_gamma 90.000000
_cell_volume 3198.700919
_symmetry_space_group_name_H-M "P M M N"
_symmetry_group_IT_number 59
_space_group.IT_coordinate_system_code '2'
_symmetry_cell_setting 'orthorhombic'
loop_
_space_group_symop_operation_xyz
x,y,z
1/2-x,1/2-y,z
1/2+x,-y,-z
-x,1/2+y,-z
-x,-y,-z
1/2+x,1/2+y,-z
1/2-x,y,z
x,1/2-y,z
loop_
_atom_site_type_symbol
_atom_site_label
_atom_site_fract_x
_atom_site_fract_y
_atom_site_fract_z
Si Si1 0.576943 0.634495 0.211050
Si Si2 0.919284 0.177858 0.936743
Si Si3 0.579340 0.568105 0.506450
Si Si4 0.083742 0.995580 0.186624
Si Si5 0.076211 0.323066 0.614995
Si Si6 0.909538 0.175449 0.200532
Si Si7 0.415378 0.397218 0.315644
Si Si8 0.079881 0.106918 0.069848
O O1 0.750000 0.642203 0.201744
O O2 0.496664 0.680116 0.148231
O O3 0.532400 0.561219 0.192621
O O4 0.524077 0.655989 0.297819
O O5 0.750000 0.159581 0.926659
O O6 0.936220 0.250000 0.974050
O O7 0.991177 0.121496 0.989941
O O8 0.500000 0.500000 0.500000
O O9 0.750000 0.556456 0.489614
O O10 0.515927 0.623189 0.446897
O O11 0.548453 0.592352 0.593846
O O12 0.250000 0.968866 0.184090
O O13 0.060450 0.038251 0.264604
O O14 0.051011 0.035566 0.105819
O O15 0.250000 0.322364 0.610218
O O16 0.017779 0.250000 0.596173
O O17 0.750000 0.142002 0.185401
O O18 0.883770 0.250000 0.199009
O O19 0.971626 0.156549 0.286127
O O20 0.027581 0.157577 0.134928
O O21 0.250000 0.372118 0.304102
O O22 0.250000 0.118322 0.052450
#
# Coordination Sequence:
#
# PCOD8242931 Si02
#       8
#     8   8   8   8   8   8   8   8
#     4  11  22  36  58  83 107 143 189 235 283 335
#     4  11  24  40  58  81 110 144 182 227 280 335
#     4  10  20  35  58  86 114 147 187 235 290 343
#     4   9  19  36  55  79 113 146 179 224 276 332
#     4   9  19  36  57  83 115 150 192 241 290 341
#     4  10  20  33  51  77 110 146 181 221 272 327
#     4   9  19  34  53  79 109 144 186 227 271 330
#     4  10  21  37  58  83 111 145 183 225 274 329
#
# _framework density 20.008123000000001
#
# number of rings (size 3 to 8) (size 9 to 14) (size 15 to 20)
#    0.000    2.125    0.000    3.750    0.000    8.000 
#    0.000    1.875    0.000    1.875    0.000    0.000 
#    0.000    0.000    0.000    0.000    0.000    0.000 
#
# Total GULP energy -793407.432010 kJ/mol
# GULP energy per Si atom -12396.991125 kJ/mol
# Density = 1.996258 g / cm^3
# Si number density = 20.008123 Si / 1000 Ang^3
#
#
#
# Elastic Constant Matrix: (Units=GPa)
#
#
# Indices 1 2 3 4 5 6 
#
# 1 61.1209 20.4117 34.4183 0.0000 0.0000 0.0000
# 2 20.4117 94.7916 43.2744 0.0000 0.0000 0.0000
# 3 34.4183 43.2744 117.9590 0.0000 0.0000 0.0000
# 4 0.0000 0.0000 0.0000 22.7511 0.0000 0.0000
# 5 0.0000 0.0000 0.0000 0.0000 7.4893 0.0000
# 6 0.0000 0.0000 0.0000 0.0000 0.0000 29.2235
#
#
#
# Elastic Compliance Matrix: (Units=1/GPa)
#
#
# Indices 1 2 3 4 5 6 
#
# 1 0.019877 -0.001961 -0.005080 0.000000 0.000000 0.000000
# 2 -0.001961 0.012865 -0.004148 0.000000 0.000000 0.000000
# 3 -0.005080 -0.004148 0.011481 0.000000 0.000000 0.000000
# 4 0.000000 0.000000 0.000000 0.043954 0.000000 0.000000
# 5 0.000000 0.000000 0.000000 0.000000 0.133523 0.000000
# 6 0.000000 0.000000 0.000000 0.000000 0.000000 0.034219
#
#
# Mechanical properties :
#
#
# Convention : Reuss Voigt Hill
#
# Bulk Modulus (GPa) = 45.77528 52.23114 49.00321
# Shear Modulus (GPa) = 17.50831 23.61059 20.55945
#
# Velocity S-wave (km/s) = 2.96135 3.43891 3.20903
# Velocity P-wave (km/s) = 5.88395 6.47532 6.18670
#
# Compressibility (1/GPa) = 0.02184585
#
# Stress axis : x y z
#
# Youngs Moduli (GPa) = 50.31024 77.72940 87.09710
#
# Poissons Ratio (x) = 0.15241 0.44248
# Poissons Ratio (y) = 0.09865 0.36124
# Poissons Ratio (z) = 0.25559 0.32239
#
# Static dielectric constant tensor:
#      x y z
#    x 3.719180 0.000000 0.000000 
#    y 0.000000 3.615490 0.000000 
#    z 0.000000 0.000000 3.690630 
# 
# 
# High freq. dielectric constant tensor:
#      x y z
#    x 1.772550 0.000000 0.000000 
#    y 0.000000 1.779750 0.000000 
#    z 0.000000 0.000000 1.786140 
# 
# From -- ./inp_files/26269.got.cif
#   From: 2010.03.12/outbox.cif.g09.slc.cpg/sg59_14_cif.got.tgz:26269.got - 2010.04.16 16:29:54.
