data_PCOD8242350
_publ_section_title
;
Structure prediction by ZEFSAII (Michael W. Deem and Ramdas Pophale) SiO2 
 PCOD8242350
Probable space group: P M M N
;
_chemical_formula_sum "Si O2"
_cell_formula_units_Z 64
_cell_length_a 28.362096
_cell_length_b 9.082830
_cell_length_c 15.580127
_cell_angle_alpha 90.000000
_cell_angle_beta 90.000000
_cell_angle_gamma 90.000000
_cell_volume 4013.566858
_symmetry_space_group_name_H-M "P M M N"
_symmetry_group_IT_number 59
_space_group.IT_coordinate_system_code '2'
_symmetry_cell_setting 'orthorhombic'
loop_
_space_group_symop_operation_xyz
x,y,z
1/2-x,1/2-y,z
1/2+x,-y,-z
-x,1/2+y,-z
-x,-y,-z
1/2+x,1/2+y,-z
1/2-x,y,z
x,1/2-y,z
loop_
_atom_site_type_symbol
_atom_site_label
_atom_site_fract_x
_atom_site_fract_y
_atom_site_fract_z
Si Si1 0.802535 0.419190 0.574810
Si Si2 0.054198 0.082226 0.816949
Si Si3 0.394608 0.922242 0.338706
Si Si4 0.943939 0.077289 0.829398
Si Si5 0.950018 0.424285 0.496011
Si Si6 0.608830 0.076443 0.329519
Si Si7 0.549178 0.919877 0.993327
Si Si8 0.303637 0.077411 0.602336
O O1 0.750000 0.444251 0.611344
O O2 0.810315 0.250000 0.545095
O O3 0.839043 0.459189 0.650791
O O4 0.812678 0.520263 0.493499
O O5 0.061253 0.250000 0.785441
O O6 0.074592 0.063324 0.914076
O O7 0.998891 0.041496 0.813969
O O8 0.082785 0.972971 0.756663
O O9 0.404163 0.750000 0.333633
O O10 0.414850 0.990387 0.250889
O O11 0.421356 0.984227 0.422030
O O12 0.935694 0.250000 0.842497
O O13 0.923237 0.996021 0.914240
O O14 0.956751 0.250000 0.497788
O O15 0.922267 0.473900 0.410842
O O16 0.000000 0.500000 0.500000
O O17 0.616083 0.250000 0.327506
O O18 0.660324 0.001587 0.333032
O O19 0.540606 0.750000 0.971505
O O20 0.500000 0.000000 0.000000
O O21 0.250000 0.040985 0.631032
O O22 0.313393 0.250000 0.603780
#
# Coordination Sequence:
#
# PCOD8242350 Si02
#       8
#     8   8   8   8   8   8   8   8
#     4   9  16  29  49  68  89 119 155 195 234 272
#     4   9  18  31  46  65  91 124 154 189 237 279
#     4   9  16  29  45  64  92 122 153 188 229 275
#     4   9  17  29  47  67  92 126 158 191 230 273
#     4  10  20  32  43  60  90 126 159 186 221 266
#     4  11  21  32  48  69  92 122 158 195 231 273
#     4   9  17  30  47  66  91 120 153 193 235 276
#     4  10  20  33  49  68  91 120 154 194 238 280
#
# _framework density 15.945916
#
# number of rings (size 3 to 8) (size 9 to 14) (size 15 to 20)
#    0.000    2.500    1.250    2.625    0.000    5.250 
#    0.000    1.250    0.000    0.000    0.000    0.875 
#    0.000    3.000    0.000    0.000    0.000    0.000 
#
# Total GULP energy -793355.408392 kJ/mol
# GULP energy per Si atom -12396.178256 kJ/mol
# Density = 1.590962 g / cm^3
# Si number density = 15.945916 Si / 1000 Ang^3
#
#
#
# Elastic Constant Matrix: (Units=GPa)
#
#
# Indices 1 2 3 4 5 6 
#
# 1 93.7295 37.7439 52.9602 0.0000 0.0000 0.0000
# 2 37.7439 62.6737 42.7361 0.0000 0.0000 0.0000
# 3 52.9602 42.7361 121.0438 0.0000 0.0000 0.0000
# 4 0.0000 0.0000 0.0000 25.9676 0.0000 0.0000
# 5 0.0000 0.0000 0.0000 0.0000 12.7152 0.0000
# 6 0.0000 0.0000 0.0000 0.0000 0.0000 21.2058
#
#
#
# Elastic Compliance Matrix: (Units=1/GPa)
#
#
# Indices 1 2 3 4 5 6 
#
# 1 0.015889 -0.006360 -0.004707 0.000000 0.000000 0.000000
# 2 -0.006360 0.023560 -0.005536 0.000000 0.000000 0.000000
# 3 -0.004707 -0.005536 0.012275 0.000000 0.000000 0.000000
# 4 0.000000 0.000000 0.000000 0.038509 0.000000 0.000000
# 5 0.000000 0.000000 0.000000 0.000000 0.078646 0.000000
# 6 0.000000 0.000000 0.000000 0.000000 0.000000 0.047157
#
#
# Mechanical properties :
#
#
# Convention : Reuss Voigt Hill
#
# Bulk Modulus (GPa) = 53.99337 60.48082 57.23709
# Shear Modulus (GPa) = 19.57596 21.57818 20.57707
#
# Velocity S-wave (km/s) = 3.50758 3.68259 3.59615
# Velocity P-wave (km/s) = 7.09493 7.48953 7.29490
#
# Compressibility (1/GPa) = 0.01852079
#
# Stress axis : x y z
#
# Youngs Moduli (GPa) = 62.93504 42.44423 81.46448
#
# Poissons Ratio (x) = 0.26993 0.38343
# Poissons Ratio (y) = 0.40024 0.45097
# Poissons Ratio (z) = 0.29622 0.23496
#
# Static dielectric constant tensor:
#      x y z
#    x 3.002060 0.000000 0.000000 
#    y 0.000000 3.016580 0.000000 
#    z 0.000000 0.000000 3.110970 
# 
# 
# High freq. dielectric constant tensor:
#      x y z
#    x 1.592680 0.000000 0.000000 
#    y 0.000000 1.608230 0.000000 
#    z 0.000000 0.000000 1.604380 
# 
# From -- ./inp_files/25020.got.cif
#   From: 2010.03.12/outbox.cif.g09.slc.cpg/sg59_13_cif.got.tgz:25020.got - 2010.04.16 16:29:54.
