data_PCOD8242897
_publ_section_title
;
Structure prediction by ZEFSAII (Michael W. Deem and Ramdas Pophale) SiO2 
 PCOD8242897
Probable space group: P M M N
;
_chemical_formula_sum "Si O2"
_cell_formula_units_Z 40
_cell_length_a 13.583165
_cell_length_b 14.924115
_cell_length_c 10.957637
_cell_angle_alpha 90.000000
_cell_angle_beta 90.000000
_cell_angle_gamma 90.000000
_cell_volume 2221.296194
_symmetry_space_group_name_H-M "P M M N"
_symmetry_group_IT_number 59
_space_group.IT_coordinate_system_code '2'
_symmetry_cell_setting 'orthorhombic'
loop_
_space_group_symop_operation_xyz
x,y,z
1/2-x,1/2-y,z
1/2+x,-y,-z
-x,1/2+y,-z
-x,-y,-z
1/2+x,1/2+y,-z
1/2-x,y,z
x,1/2-y,z
loop_
_atom_site_type_symbol
_atom_site_label
_atom_site_fract_x
_atom_site_fract_y
_atom_site_fract_z
Si Si1 0.365882 0.250000 0.180077
Si Si2 0.366406 0.250000 0.453339
Si Si3 0.858160 0.250000 0.559454
Si Si4 0.866195 0.572965 0.954941
Si Si5 0.978530 0.079022 0.841655
Si Si6 0.505422 0.598855 0.442083
Si Si7 0.139382 0.750000 0.150914
O O1 0.250000 0.250000 0.195277
O O2 0.410817 0.250000 0.316135
O O3 0.401225 0.334568 0.103588
O O4 0.250000 0.250000 0.456507
O O5 0.400096 0.157615 0.518544
O O6 0.750000 0.250000 0.500341
O O7 0.852622 0.250000 0.704215
O O8 0.911835 0.341213 0.516124
O O9 0.750000 0.567844 0.979676
O O10 0.899006 0.499718 0.856039
O O11 0.922250 0.559278 0.082734
O O12 0.922526 0.165309 0.894531
O O13 0.010640 0.088511 0.702653
O O14 0.500000 0.500000 0.500000
O O15 0.250000 0.750000 0.094507
#
# Coordination Sequence:
#
# PCOD8242897 Si02
#       7
#     4   4   4   8   8   8   4
#     4   9  18  33  53  74  97 133 172 206 256 310
#     4  10  21  35  52  79 109 135 172 218 265 322
#     4   8  17  32  49  71  97 128 172 214 249 303
#     4  10  20  34  52  74 103 135 172 219 258 301
#     4  10  20  33  51  77 102 133 176 212 258 313
#     4  10  20  34  53  77 106 140 174 216 267 317
#     4   9  16  30  51  72  97 126 161 208 251 295
#
# _framework density 18.007503
#
# number of rings (size 3 to 8) (size 9 to 14) (size 15 to 20)
#    0.000    2.400    0.000    3.000    0.000    2.400 
#    0.000    1.000    0.000    0.000    0.000    8.400 
#    0.000    0.000    0.000    0.000    0.000    0.000 
#
# Total GULP energy -495860.956504 kJ/mol
# GULP energy per Si atom -12396.523913 kJ/mol
# Density = 1.796652 g / cm^3
# Si number density = 18.007503 Si / 1000 Ang^3
#
#
#
# Elastic Constant Matrix: (Units=GPa)
#
#
# Indices 1 2 3 4 5 6 
#
# 1 112.2320 47.3205 34.2950 0.0000 0.0000 0.0000
# 2 47.3205 155.3376 35.0204 0.0000 0.0000 0.0000
# 3 34.2950 35.0204 79.9683 0.0000 0.0000 0.0000
# 4 0.0000 0.0000 0.0000 29.3408 0.0000 0.0000
# 5 0.0000 0.0000 0.0000 0.0000 19.6165 0.0000
# 6 0.0000 0.0000 0.0000 0.0000 0.0000 25.8675
#
#
#
# Elastic Compliance Matrix: (Units=1/GPa)
#
#
# Indices 1 2 3 4 5 6 
#
# 1 0.011102 -0.002562 -0.003640 0.000000 0.000000 0.000000
# 2 -0.002562 0.007734 -0.002288 0.000000 0.000000 0.000000
# 3 -0.003640 -0.002288 0.015068 0.000000 0.000000 0.000000
# 4 0.000000 0.000000 0.000000 0.034082 0.000000 0.000000
# 5 0.000000 0.000000 0.000000 0.000000 0.050978 0.000000
# 6 0.000000 0.000000 0.000000 0.000000 0.000000 0.038659
#
#
# Mechanical properties :
#
#
# Convention : Reuss Voigt Hill
#
# Bulk Modulus (GPa) = 59.08342 64.53440 61.80891
# Shear Modulus (GPa) = 27.74036 30.35843 29.04940
#
# Velocity S-wave (km/s) = 3.92916 4.11040 4.02080
# Velocity P-wave (km/s) = 7.31205 7.64477 7.48026
#
# Compressibility (1/GPa) = 0.01692522
#
# Stress axis : x y z
#
# Youngs Moduli (GPa) = 90.07154 129.30226 66.36619
#
# Poissons Ratio (x) = 0.33122 0.24154
# Poissons Ratio (y) = 0.23072 0.15187
# Poissons Ratio (z) = 0.32782 0.29588
#
# Static dielectric constant tensor:
#      x y z
#    x 3.339320 0.000000 0.000000 
#    y 0.000000 3.091450 0.000000 
#    z 0.000000 0.000000 3.170900 
# 
# 
# High freq. dielectric constant tensor:
#      x y z
#    x 1.693980 0.000000 0.000000 
#    y 0.000000 1.714640 0.000000 
#    z 0.000000 0.000000 1.681540 
# 
# From -- ./inp_files/8683.got.cif
#   From: 2010.03.12/outbox.cif.g09.slc.cpg/sg59_5_cif.got.tgz:8683.got - 2010.04.16 16:29:54.
