data_PCOD8242510
_publ_section_title
;
Structure prediction by ZEFSAII (Michael W. Deem and Ramdas Pophale) SiO2 
 PCOD8242510
Probable space group: P M M N
;
_chemical_formula_sum "Si O2"
_cell_formula_units_Z 48
_cell_length_a 9.097109
_cell_length_b 15.369340
_cell_length_c 19.056320
_cell_angle_alpha 90.000000
_cell_angle_beta 90.000000
_cell_angle_gamma 90.000000
_cell_volume 2664.389132
_symmetry_space_group_name_H-M "P M M N"
_symmetry_group_IT_number 59
_space_group.IT_coordinate_system_code '2'
_symmetry_cell_setting 'orthorhombic'
loop_
_space_group_symop_operation_xyz
x,y,z
1/2-x,1/2-y,z
1/2+x,-y,-z
-x,1/2+y,-z
-x,-y,-z
1/2+x,1/2+y,-z
1/2-x,y,z
x,1/2-y,z
loop_
_atom_site_type_symbol
_atom_site_label
_atom_site_fract_x
_atom_site_fract_y
_atom_site_fract_z
Si Si1 0.078521 0.151575 0.572126
Si Si2 0.084676 0.750000 0.960051
Si Si3 0.585819 0.250000 0.206023
Si Si4 0.077350 0.423965 0.041756
Si Si5 0.077363 0.000691 0.674616
Si Si6 0.921249 0.922101 0.794794
Si Si7 0.421563 0.651547 0.571090
O O1 0.250000 0.140324 0.557716
O O2 0.038179 0.250000 0.594592
O O3 0.027711 0.087708 0.634223
O O4 0.999304 0.124594 0.500815
O O5 0.250000 0.750000 0.992245
O O6 0.095102 0.750000 0.877077
O O7 0.995131 0.834443 0.985083
O O8 0.750000 0.250000 0.239253
O O9 0.500193 0.165411 0.231887
O O10 0.250000 0.420977 0.025133
O O11 0.047210 0.440459 0.123782
O O12 0.000000 0.500000 0.000000
O O13 0.250000 0.000790 0.690748
O O14 0.028733 0.915816 0.630563
O O15 0.989778 0.999892 0.748413
O O16 0.750000 0.912191 0.780197
O O17 0.250000 0.643324 0.556550
O O18 0.464668 0.750000 0.594187
#
# Coordination Sequence:
#
# PCOD8242510 Si02
#       7
#     8   4   4   8   8   8   8
#     4   9  18  33  51  70  94 128 173 219 260 303
#     4   9  17  31  53  81 107 137 172 207 256 313
#     4   9  17  31  51  73 103 139 168 197 246 311
#     4  10  20  35  56  80 109 141 178 221 264 315
#     4  10  20  32  49  72 100 135 171 210 259 313
#     4  10  21  34  50  77 108 136 171 214 259 307
#     4   9  18  31  47  71 100 128 164 208 256 310
#
# _framework density 18.015384999999998
#
# number of rings (size 3 to 8) (size 9 to 14) (size 15 to 20)
#    0.000    2.500    0.000    2.000    1.167    5.333 
#    0.000    0.000    1.833    0.000    0.000    0.000 
#    0.000    0.000    0.000    0.000    0.000    0.000 
#
# Total GULP energy -595232.352487 kJ/mol
# GULP energy per Si atom -12400.674010 kJ/mol
# Density = 1.797438 g / cm^3
# Si number density = 18.015385 Si / 1000 Ang^3
#
#
#
# Elastic Constant Matrix: (Units=GPa)
#
#
# Indices 1 2 3 4 5 6 
#
# 1 95.4087 56.0190 51.1633 0.0000 0.0000 0.0000
# 2 56.0190 114.6972 56.7058 0.0000 0.0000 0.0000
# 3 51.1633 56.7058 71.7901 0.0000 0.0000 0.0000
# 4 0.0000 0.0000 0.0000 30.7278 0.0000 0.0000
# 5 0.0000 0.0000 0.0000 0.0000 31.0189 0.0000
# 6 0.0000 0.0000 0.0000 0.0000 0.0000 27.8168
#
#
#
# Elastic Compliance Matrix: (Units=1/GPa)
#
#
# Indices 1 2 3 4 5 6 
#
# 1 0.018030 -0.004025 -0.009671 0.000000 0.000000 0.000000
# 2 -0.004025 0.015203 -0.009140 0.000000 0.000000 0.000000
# 3 -0.009671 -0.009140 0.028041 0.000000 0.000000 0.000000
# 4 0.000000 0.000000 0.000000 0.032544 0.000000 0.000000
# 5 0.000000 0.000000 0.000000 0.000000 0.032238 0.000000
# 6 0.000000 0.000000 0.000000 0.000000 0.000000 0.035949
#
#
# Mechanical properties :
#
#
# Convention : Reuss Voigt Hill
#
# Bulk Modulus (GPa) = 64.08947 67.74134 65.91540
# Shear Modulus (GPa) = 23.48742 25.77990 24.63366
#
# Velocity S-wave (km/s) = 3.61465 3.78695 3.70181
# Velocity P-wave (km/s) = 7.28513 7.53690 7.41208
#
# Compressibility (1/GPa) = 0.01560319
#
# Stress axis : x y z
#
# Youngs Moduli (GPa) = 55.46178 65.77450 35.66172
#
# Poissons Ratio (x) = 0.26475 0.34487
# Poissons Ratio (y) = 0.22324 0.32596
# Poissons Ratio (z) = 0.53634 0.60120
#
# Static dielectric constant tensor:
#      x y z
#    x 3.390850 0.000000 0.000000 
#    y 0.000000 3.483230 0.000000 
#    z 0.000000 0.000000 3.168010 
# 
# 
# High freq. dielectric constant tensor:
#      x y z
#    x 1.703030 0.000000 0.000000 
#    y 0.000000 1.695540 0.000000 
#    z 0.000000 0.000000 1.678440 
# 
# From -- ./inp_files/25544.got.cif
#   From: 2010.03.12/outbox.cif.g09.slc.cpg/sg59_13_cif.got.tgz:25544.got - 2010.04.16 16:29:54.
