data_PCOD8242692
_publ_section_title
;
Structure prediction by ZEFSAII (Michael W. Deem and Ramdas Pophale) SiO2 
 PCOD8242692
Probable space group: P M M N
;
_chemical_formula_sum "Si O2"
_cell_formula_units_Z 64
_cell_length_a 19.028192
_cell_length_b 9.248815
_cell_length_c 20.613334
_cell_angle_alpha 90.000000
_cell_angle_beta 90.000000
_cell_angle_gamma 90.000000
_cell_volume 3627.704115
_symmetry_space_group_name_H-M "P M M N"
_symmetry_group_IT_number 59
_space_group.IT_coordinate_system_code '2'
_symmetry_cell_setting 'orthorhombic'
loop_
_space_group_symop_operation_xyz
x,y,z
1/2-x,1/2-y,z
1/2+x,-y,-z
-x,1/2+y,-z
-x,-y,-z
1/2+x,1/2+y,-z
1/2-x,y,z
x,1/2-y,z
loop_
_atom_site_type_symbol
_atom_site_label
_atom_site_fract_x
_atom_site_fract_y
_atom_site_fract_z
Si Si1 0.168389 0.917681 0.813311
Si Si2 0.833810 0.086395 0.436937
Si Si3 0.333855 0.412434 0.438705
Si Si4 0.166581 0.589841 0.317863
Si Si5 0.168348 0.581705 0.172507
Si Si6 0.833651 0.913371 0.312817
Si Si7 0.581900 0.581613 0.934402
Si Si8 0.580974 0.082360 0.062410
O O1 0.250000 0.947917 0.826836
O O2 0.154753 0.750000 0.797562
O O3 0.125802 0.969267 0.876103
O O4 0.140024 0.009527 0.752620
O O5 0.750000 0.087130 0.436245
O O6 0.862821 0.250000 0.435980
O O7 0.862142 0.006521 0.501150
O O8 0.863295 0.001282 0.374410
O O9 0.250000 0.411821 0.438564
O O10 0.363149 0.250000 0.445092
O O11 0.363409 0.480028 0.371709
O O12 0.250000 0.596828 0.322188
O O13 0.136318 0.750000 0.332089
O O14 0.145119 0.539501 0.245677
O O15 0.250000 0.547354 0.161324
O O16 0.152976 0.750000 0.159239
O O17 0.123511 0.483136 0.125486
O O18 0.750000 0.913572 0.314947
O O19 0.862945 0.750000 0.314945
O O20 0.598476 0.750000 0.939618
O O21 0.500059 0.550032 0.922464
O O22 0.607617 0.507546 0.000729
O O23 0.594169 0.250000 0.046915
#
# Coordination Sequence:
#
# PCOD8242692 Si02
#       8
#     8   8   8   8   8   8   8   8
#     4   9  17  30  48  67  87 116 153 187 221 268
#     4   9  15  22  33  49  73 110 152 185 214 258
#     4   9  15  21  31  50  77 109 144 182 223 263
#     4   8  14  25  39  55  78 110 146 181 219 265
#     4   9  18  32  49  68  92 123 156 190 230 277
#     4   9  16  25  37  56  84 113 141 180 228 269
#     4  10  20  33  50  71  94 120 151 190 232 272
#     4   9  19  35  51  68  93 123 153 186 227 276
#
# _framework density 17.642012000000001
#
# number of rings (size 3 to 8) (size 9 to 14) (size 15 to 20)
#    0.000    3.000    0.000    2.250    0.000    6.750 
#    0.000    2.500    0.000    0.000    0.000    0.000 
#    0.000    1.000    0.000    3.000    0.000    6.375 
#
# Total GULP energy -793509.548252 kJ/mol
# GULP energy per Si atom -12398.586691 kJ/mol
# Density = 1.760186 g / cm^3
# Si number density = 17.642012 Si / 1000 Ang^3
#
#
#
# Elastic Constant Matrix: (Units=GPa)
#
#
# Indices 1 2 3 4 5 6 
#
# 1 22.2728 26.3936 37.6618 0.0000 0.0000 0.0000
# 2 26.3936 133.6446 101.9577 0.0000 0.0000 0.0000
# 3 37.6618 101.9577 183.6443 0.0000 0.0000 0.0000
# 4 0.0000 0.0000 0.0000 35.9498 0.0000 0.0000
# 5 0.0000 0.0000 0.0000 0.0000 -2.1859 0.0000
# 6 0.0000 0.0000 0.0000 0.0000 0.0000 15.0486
#
#
#
# Elastic Compliance Matrix: (Units=1/GPa)
#
#
# Indices 1 2 3 4 5 6 
#
# 1 0.070628 -0.005028 -0.011693 0.000000 0.000000 0.000000
# 2 -0.005028 0.013338 -0.006374 0.000000 0.000000 0.000000
# 3 -0.011693 -0.006374 0.011382 0.000000 0.000000 0.000000
# 4 0.000000 0.000000 0.000000 0.027817 0.000000 0.000000
# 5 0.000000 0.000000 0.000000 0.000000 -0.457488 0.000000
# 6 0.000000 0.000000 0.000000 0.000000 0.000000 0.066452
#
#
# Mechanical properties :
#
#
# Convention : Reuss Voigt Hill
#
# Bulk Modulus (GPa) = 20.34236 74.62087 47.48161
# Shear Modulus (GPa) = -24.35525 21.33241 -1.51142
#
# Velocity S-wave (km/s) = -3.71957 3.48110 -0.92659
# Velocity P-wave (km/s) = 2.62513 7.65157 5.08209
#
# Compressibility (1/GPa) = 0.04915852
#
# Stress axis : x y z
#
# Youngs Moduli (GPa) = 14.15870 74.97147 87.85602
#
# Poissons Ratio (x) = 0.37694 1.02730
# Poissons Ratio (y) = 0.07119 0.56002
# Poissons Ratio (z) = 0.16556 0.47789
#
# Static dielectric constant tensor:
#      x y z
#    x 2.689470 0.000000 0.000000 
#    y 0.000000 3.433700 0.000000 
#    z 0.000000 0.000000 3.499160 
# 
# 
# High freq. dielectric constant tensor:
#      x y z
#    x 1.613550 0.000000 0.000000 
#    y 0.000000 1.690460 0.000000 
#    z 0.000000 0.000000 1.698670 
# 
# From -- ./inp_files/30667.got.cif
#   From: 2010.03.12/outbox.cif.g09.slc.cpg/sg59_16_cif.got.tgz:30667.got - 2010.04.16 16:29:54.
