data_PCOD8242477
_publ_section_title
;
Structure prediction by ZEFSAII (Michael W. Deem and Ramdas Pophale) SiO2 
 PCOD8242477
Probable space group: P M M N
;
_chemical_formula_sum "Si O2"
_cell_formula_units_Z 64
_cell_length_a 15.643407
_cell_length_b 9.072418
_cell_length_c 23.402958
_cell_angle_alpha 90.000000
_cell_angle_beta 90.000000
_cell_angle_gamma 90.000000
_cell_volume 3321.430347
_symmetry_space_group_name_H-M "P M M N"
_symmetry_group_IT_number 59
_space_group.IT_coordinate_system_code '2'
_symmetry_cell_setting 'orthorhombic'
loop_
_space_group_symop_operation_xyz
x,y,z
1/2-x,1/2-y,z
1/2+x,-y,-z
-x,1/2+y,-z
-x,-y,-z
1/2+x,1/2+y,-z
1/2-x,y,z
x,1/2-y,z
loop_
_atom_site_type_symbol
_atom_site_label
_atom_site_fract_x
_atom_site_fract_y
_atom_site_fract_z
Si Si1 0.152062 0.075876 0.930926
Si Si2 0.653405 0.410976 0.539378
Si Si3 0.847879 0.076731 0.947999
Si Si4 0.153964 0.083414 0.686075
Si Si5 0.596659 0.082685 0.421236
Si Si6 0.584490 0.913822 0.635353
Si Si7 0.993378 0.576992 0.874843
Si Si8 0.991743 0.420658 0.255965
O O1 0.250000 0.047243 0.910145
O O2 0.133145 0.250000 0.934413
O O3 0.084456 0.998185 0.888955
O O4 0.137477 0.004027 0.992360
O O5 0.750000 0.399468 0.519236
O O6 0.612999 0.250000 0.550544
O O7 0.605345 0.486376 0.485124
O O8 0.653041 0.494210 0.600091
O O9 0.750000 0.052717 0.926828
O O10 0.868099 0.250000 0.954776
O O11 0.914042 0.003874 0.904403
O O12 0.250000 0.076666 0.709775
O O13 0.121414 0.250000 0.679712
O O14 0.151270 0.009327 0.624034
O O15 0.096769 0.004352 0.733891
O O16 0.631963 0.250000 0.421815
O O17 0.498766 0.078702 0.403844
O O18 0.621022 0.750000 0.641899
O O19 0.563420 0.978093 0.698743
O O20 0.996165 0.750000 0.891515
O O21 0.975562 0.555256 0.807871
O O22 0.973554 0.250000 0.269931
#
# Coordination Sequence:
#
# PCOD8242477 Si02
#       8
#     8   8   8   8   8   8   8   8
#     4  10  21  37  58  86 121 156 186 220 267 324
#     4  10  20  32  48  73 101 128 160 200 252 312
#     4  10  21  38  60  86 116 149 187 230 275 325
#     4  10  20  32  49  76 106 134 168 213 262 310
#     4   9  18  33  52  72  97 130 165 201 248 312
#     4   9  18  34  53  71  93 125 167 210 251 297
#     4  11  22  37  59  84 112 147 188 234 278 323
#     4   9  21  39  55  73  99 137 182 218 255 311
#
# _framework density 19.268808
#
# number of rings (size 3 to 8) (size 9 to 14) (size 15 to 20)
#    0.000    2.250    0.000    3.375    0.000    7.250 
#    0.000    3.125    0.000    3.750    0.000    0.000 
#    0.000    0.000    0.000    0.000    0.000    0.000 
#
# Total GULP energy -793314.431336 kJ/mol
# GULP energy per Si atom -12395.537990 kJ/mol
# Density = 1.922495 g / cm^3
# Si number density = 19.268808 Si / 1000 Ang^3
#
#
#
# Elastic Constant Matrix: (Units=GPa)
#
#
# Indices 1 2 3 4 5 6 
#
# 1 63.8468 30.6619 35.6293 0.0000 0.0000 0.0000
# 2 30.6619 93.6314 40.4969 0.0000 0.0000 0.0000
# 3 35.6293 40.4969 107.5456 0.0000 0.0000 0.0000
# 4 0.0000 0.0000 0.0000 27.0920 0.0000 0.0000
# 5 0.0000 0.0000 0.0000 0.0000 18.9520 0.0000
# 6 0.0000 0.0000 0.0000 0.0000 0.0000 29.1077
#
#
#
# Elastic Compliance Matrix: (Units=1/GPa)
#
#
# Indices 1 2 3 4 5 6 
#
# 1 0.020726 -0.004560 -0.005149 0.000000 0.000000 0.000000
# 2 -0.004560 0.013761 -0.003671 0.000000 0.000000 0.000000
# 3 -0.005149 -0.003671 0.012387 0.000000 0.000000 0.000000
# 4 0.000000 0.000000 0.000000 0.036911 0.000000 0.000000
# 5 0.000000 0.000000 0.000000 0.000000 0.052765 0.000000
# 6 0.000000 0.000000 0.000000 0.000000 0.000000 0.034355
#
#
# Mechanical properties :
#
#
# Convention : Reuss Voigt Hill
#
# Bulk Modulus (GPa) = 49.71927 53.17777 51.44852
# Shear Modulus (GPa) = 24.46536 25.57939 25.02237
#
# Velocity S-wave (km/s) = 3.56713 3.64744 3.60751
# Velocity P-wave (km/s) = 6.54407 6.73767 6.64158
#
# Compressibility (1/GPa) = 0.02011292
#
# Stress axis : x y z
#
# Youngs Moduli (GPa) = 48.24873 72.66741 80.73167
#
# Poissons Ratio (x) = 0.33137 0.41571
# Poissons Ratio (y) = 0.22002 0.29638
# Poissons Ratio (z) = 0.24845 0.26678
#
# Static dielectric constant tensor:
#      x y z
#    x 3.415860 0.000000 0.000000 
#    y 0.000000 3.649910 0.000000 
#    z 0.000000 0.000000 3.491050 
# 
# 
# High freq. dielectric constant tensor:
#      x y z
#    x 1.741370 0.000000 0.000000 
#    y 0.000000 1.752410 0.000000 
#    z 0.000000 0.000000 1.745520 
# 
# From -- ./inp_files/32198.got.cif
#   From: 2010.03.12/outbox.cif.g09.slc.cpg/sg59_17_cif.got.tgz:32198.got - 2010.04.16 16:29:54.
