data_PCOD8242657
_publ_section_title
;
Structure prediction by ZEFSAII (Michael W. Deem and Ramdas Pophale) SiO2 
 PCOD8242657
Probable space group: P M M N
;
_chemical_formula_sum "Si O2"
_cell_formula_units_Z 40
_cell_length_a 21.250640
_cell_length_b 8.888277
_cell_length_c 11.538941
_cell_angle_alpha 90.000000
_cell_angle_beta 90.000000
_cell_angle_gamma 90.000000
_cell_volume 2179.493347
_symmetry_space_group_name_H-M "P M M N"
_symmetry_group_IT_number 59
_space_group.IT_coordinate_system_code '2'
_symmetry_cell_setting 'orthorhombic'
loop_
_space_group_symop_operation_xyz
x,y,z
1/2-x,1/2-y,z
1/2+x,-y,-z
-x,1/2+y,-z
-x,-y,-z
1/2+x,1/2+y,-z
1/2-x,y,z
x,1/2-y,z
loop_
_atom_site_type_symbol
_atom_site_label
_atom_site_fract_x
_atom_site_fract_y
_atom_site_fract_z
Si Si1 0.409979 0.580271 0.461866
Si Si2 0.180382 0.928980 0.014266
Si Si3 0.549381 0.428649 0.089016
Si Si4 0.958938 0.581206 0.331376
Si Si5 0.321312 0.922566 0.270767
O O1 0.388632 0.750000 0.491860
O O2 0.406937 0.488972 0.582419
O O3 0.477370 0.580516 0.402704
O O4 0.363145 0.499166 0.370195
O O5 0.250000 0.983998 0.968592
O O6 0.182381 0.750000 0.022238
O O7 0.169083 0.995598 0.143736
O O8 0.121551 0.982524 0.936377
O O9 0.543658 0.250000 0.079109
O O10 0.532653 0.480991 0.217497
O O11 0.500000 0.500000 0.000000
O O12 0.939210 0.750000 0.295657
O O13 0.250000 0.936900 0.311398
O O14 0.343705 0.750000 0.263091
#
# Coordination Sequence:
#
# PCOD8242657 Si02
#       5
#     8   8   8   8   8
#     4   9  17  31  50  71  95 123 157 198 244 292
#     4   8  15  29  49  73 100 130 165 205 246 288
#     4  11  21  33  52  77 103 131 166 208 251 296
#     4  10  20  33  49  70  97 129 163 200 244 292
#     4   8  13  24  46  73  95 116 150 198 244 283
#
# _framework density 18.352889000000001
#
# number of rings (size 3 to 8) (size 9 to 14) (size 15 to 20)
#    0.000    2.800    0.000    3.600    0.000    4.000 
#    0.000    1.000    0.000    9.000    0.000    5.600 
#    0.000    0.000    0.000    0.000    0.000    0.000 
#
# Total GULP energy -495652.901098 kJ/mol
# GULP energy per Si atom -12391.322527 kJ/mol
# Density = 1.831112 g / cm^3
# Si number density = 18.352889 Si / 1000 Ang^3
#
#
#
# Elastic Constant Matrix: (Units=GPa)
#
#
# Indices 1 2 3 4 5 6 
#
# 1 51.5407 25.4819 16.0749 0.0000 0.0000 0.0000
# 2 25.4819 57.6389 30.2651 0.0000 0.0000 0.0000
# 3 16.0749 30.2651 87.3666 0.0000 0.0000 0.0000
# 4 0.0000 0.0000 0.0000 26.5760 0.0000 0.0000
# 5 0.0000 0.0000 0.0000 0.0000 28.4292 0.0000
# 6 0.0000 0.0000 0.0000 0.0000 0.0000 12.4831
#
#
#
# Elastic Compliance Matrix: (Units=1/GPa)
#
#
# Indices 1 2 3 4 5 6 
#
# 1 0.024892 -0.010512 -0.000939 0.000000 0.000000 0.000000
# 2 -0.010512 0.025646 -0.006950 0.000000 0.000000 0.000000
# 3 -0.000939 -0.006950 0.014026 0.000000 0.000000 0.000000
# 4 0.000000 0.000000 0.000000 0.037628 0.000000 0.000000
# 5 0.000000 0.000000 0.000000 0.000000 0.035175 0.000000
# 6 0.000000 0.000000 0.000000 0.000000 0.000000 0.080108
#
#
# Mechanical properties :
#
#
# Convention : Reuss Voigt Hill
#
# Bulk Modulus (GPa) = 36.01855 37.79888 36.90871
# Shear Modulus (GPa) = 18.97311 21.81260 20.39286
#
# Velocity S-wave (km/s) = 3.21876 3.45122 3.33701
# Velocity P-wave (km/s) = 5.78636 6.04330 5.91623
#
# Compressibility (1/GPa) = 0.02776347
#
# Stress axis : x y z
#
# Youngs Moduli (GPa) = 40.17367 38.99252 71.29460
#
# Poissons Ratio (x) = 0.40988 0.06691
# Poissons Ratio (y) = 0.42230 0.49550
# Poissons Ratio (z) = 0.03770 0.27100
#
# Static dielectric constant tensor:
#      x y z
#    x 3.536150 0.000000 0.000000 
#    y 0.000000 3.177770 0.000000 
#    z 0.000000 0.000000 3.490800 
# 
# 
# High freq. dielectric constant tensor:
#      x y z
#    x 1.707410 0.000000 0.000000 
#    y 0.000000 1.672110 0.000000 
#    z 0.000000 0.000000 1.712560 
# 
# From -- ./inp_files/14035.got.cif
#   From: 2010.03.12/outbox.cif.g09.slc.cpg/sg59_8_cif.got.tgz:14035.got - 2010.04.16 16:29:54.
