data_PCOD8242939
_publ_section_title
;
Structure prediction by ZEFSAII (Michael W. Deem and Ramdas Pophale) SiO2 
 PCOD8242939
Probable space group: P M M N
;
_chemical_formula_sum "Si O2"
_cell_formula_units_Z 48
_cell_length_a 9.387906
_cell_length_b 20.059657
_cell_length_c 12.507416
_cell_angle_alpha 90.000000
_cell_angle_beta 90.000000
_cell_angle_gamma 90.000000
_cell_volume 2355.373746
_symmetry_space_group_name_H-M "P M M N"
_symmetry_group_IT_number 59
_space_group.IT_coordinate_system_code '2'
_symmetry_cell_setting 'orthorhombic'
loop_
_space_group_symop_operation_xyz
x,y,z
1/2-x,1/2-y,z
1/2+x,-y,-z
-x,1/2+y,-z
-x,-y,-z
1/2+x,1/2+y,-z
1/2-x,y,z
x,1/2-y,z
loop_
_atom_site_type_symbol
_atom_site_label
_atom_site_fract_x
_atom_site_fract_y
_atom_site_fract_z
Si Si1 0.412929 0.467279 0.903518
Si Si2 0.587671 0.985997 0.334796
Si Si3 0.412682 0.902276 0.487223
Si Si4 0.412456 0.175570 0.970069
Si Si5 0.907732 0.327711 0.177837
Si Si6 0.093024 0.327367 0.368587
O O1 0.250000 0.481907 0.932103
O O2 0.453759 0.500596 0.789266
O O3 0.436846 0.386603 0.889881
O O4 0.500000 0.500000 0.000000
O O5 0.750000 0.958834 0.339633
O O6 0.478178 0.930909 0.378579
O O7 0.571170 0.049435 0.410693
O O8 0.250000 0.882102 0.465713
O O9 0.506372 0.838403 0.521205
O O10 0.250000 0.175722 0.012740
O O11 0.446174 0.250000 0.920954
O O12 0.518209 0.159173 0.065931
O O13 0.750000 0.361449 0.179092
O O14 0.889875 0.250000 0.200345
O O15 0.004129 0.359792 0.270770
O O16 0.250000 0.361360 0.374288
O O17 0.113458 0.250000 0.348803
#
# Coordination Sequence:
#
# PCOD8242939 Si02
#       6
#     8   8   8   8   8   8
#     4  10  22  38  57  83 114 148 188 237 283 333
#     4   9  20  39  57  78 109 144 185 229 278 335
#     4  10  20  35  58  82 107 143 184 230 278 330
#     4   9  18  34  54  77 107 145 186 225 274 335
#     4   9  17  29  47  73 106 142 179 222 270 322
#     4  10  20  33  51  78 111 145 182 226 276 331
#
# _framework density 20.378931000000001
#
# number of rings (size 3 to 8) (size 9 to 14) (size 15 to 20)
#    0.000    2.500    0.000    1.500    2.333    5.000 
#    0.000    0.833    0.000    3.000    0.000    0.000 
#    0.000    0.000    0.000    0.000    0.000    0.000 
#
# Total GULP energy -594784.919995 kJ/mol
# GULP energy per Si atom -12391.352500 kJ/mol
# Density = 2.033255 g / cm^3
# Si number density = 20.378931 Si / 1000 Ang^3
#
#
#
# Elastic Constant Matrix: (Units=GPa)
#
#
# Indices 1 2 3 4 5 6 
#
# 1 130.3281 15.0894 46.9286 0.0000 0.0000 0.0000
# 2 15.0894 48.1591 18.4202 0.0000 0.0000 0.0000
# 3 46.9286 18.4202 102.2631 0.0000 0.0000 0.0000
# 4 0.0000 0.0000 0.0000 31.3847 0.0000 0.0000
# 5 0.0000 0.0000 0.0000 0.0000 32.3453 0.0000
# 6 0.0000 0.0000 0.0000 0.0000 0.0000 23.7455
#
#
#
# Elastic Compliance Matrix: (Units=1/GPa)
#
#
# Indices 1 2 3 4 5 6 
#
# 1 0.009276 -0.001373 -0.004009 0.000000 0.000000 0.000000
# 2 -0.001373 0.022504 -0.003424 0.000000 0.000000 0.000000
# 3 -0.004009 -0.003424 0.012235 0.000000 0.000000 0.000000
# 4 0.000000 0.000000 0.000000 0.031863 0.000000 0.000000
# 5 0.000000 0.000000 0.000000 0.000000 0.030916 0.000000
# 6 0.000000 0.000000 0.000000 0.000000 0.000000 0.042113
#
#
# Mechanical properties :
#
#
# Convention : Reuss Voigt Hill
#
# Bulk Modulus (GPa) = 37.87361 49.06963 43.47162
# Shear Modulus (GPa) = 28.51934 30.84925 29.68429
#
# Velocity S-wave (km/s) = 3.74498 3.89496 3.82071
# Velocity P-wave (km/s) = 6.10941 6.66021 6.39075
#
# Compressibility (1/GPa) = 0.02640361
#
# Stress axis : x y z
#
# Youngs Moduli (GPa) = 107.81031 44.43632 81.73115
#
# Poissons Ratio (x) = 0.06100 0.32768
# Poissons Ratio (y) = 0.14800 0.27981
# Poissons Ratio (z) = 0.43224 0.15213
#
# Static dielectric constant tensor:
#      x y z
#    x 3.991090 0.000000 0.000000 
#    y 0.000000 3.688410 0.000000 
#    z 0.000000 0.000000 3.502240 
# 
# 
# High freq. dielectric constant tensor:
#      x y z
#    x 1.807660 0.000000 0.000000 
#    y 0.000000 1.785080 0.000000 
#    z 0.000000 0.000000 1.769200 
# 
# From -- ./inp_files/14296.got.cif
#   From: 2010.03.12/outbox.cif.g09.slc.cpg/sg59_8_cif.got.tgz:14296.got - 2010.04.16 16:29:54.
