data_PCOD8242425
_publ_section_title
;
Structure prediction by ZEFSAII (Michael W. Deem and Ramdas Pophale) SiO2 
 PCOD8242425
Probable space group: P M M N
;
_chemical_formula_sum "Si O2"
_cell_formula_units_Z 48
_cell_length_a 9.182982
_cell_length_b 18.248563
_cell_length_c 16.224310
_cell_angle_alpha 90.000000
_cell_angle_beta 90.000000
_cell_angle_gamma 90.000000
_cell_volume 2718.808632
_symmetry_space_group_name_H-M "P M M N"
_symmetry_group_IT_number 59
_space_group.IT_coordinate_system_code '2'
_symmetry_cell_setting 'orthorhombic'
loop_
_space_group_symop_operation_xyz
x,y,z
1/2-x,1/2-y,z
1/2+x,-y,-z
-x,1/2+y,-z
-x,-y,-z
1/2+x,1/2+y,-z
1/2-x,y,z
x,1/2-y,z
loop_
_atom_site_type_symbol
_atom_site_label
_atom_site_fract_x
_atom_site_fract_y
_atom_site_fract_z
Si Si1 0.920306 0.165520 0.514373
Si Si2 0.915864 0.447985 0.247768
Si Si3 0.079172 0.472748 0.919477
Si Si4 0.076775 0.169026 0.830945
Si Si5 0.918668 0.665421 0.652469
Si Si6 0.917673 0.901331 0.336122
O O1 0.750000 0.150626 0.505395
O O2 0.954642 0.250000 0.535569
O O3 0.994875 0.142521 0.429214
O O4 0.983412 0.114191 0.585321
O O5 0.750000 0.419864 0.249480
O O6 0.958330 0.473712 0.156135
O O7 0.935390 0.514008 0.312232
O O8 0.022067 0.381750 0.271235
O O9 0.250000 0.471402 0.936750
O O10 0.021294 0.390817 0.897113
O O11 0.000000 0.500000 0.000000
O O12 0.250000 0.165699 0.829591
O O13 0.018832 0.250000 0.855014
O O14 0.023601 0.148628 0.739155
O O15 0.750000 0.648245 0.637867
O O16 0.945031 0.750000 0.674760
O O17 0.750000 0.882558 0.356799
#
# Coordination Sequence:
#
# PCOD8242425 Si02
#       6
#     8   8   8   8   8   8
#     4  10  20  32  47  70 101 135 167 201 246 293
#     4   9  19  35  53  74  99 128 162 199 247 302
#     4   9  18  33  53  76 101 129 160 195 240 294
#     4   8  14  27  49  74  98 126 160 197 237 282
#     4  10  21  36  53  72  94 126 171 214 247 284
#     4   9  17  30  50  74  98 127 164 202 240 289
#
# _framework density 17.654792
#
# number of rings (size 3 to 8) (size 9 to 14) (size 15 to 20)
#    0.000    2.833    0.000    3.500    0.000    4.667 
#    0.000    3.333    0.000    4.500    0.000    0.000 
#    0.000    0.000    0.000    0.000    0.000    0.000 
#
# Total GULP energy -595173.237871 kJ/mol
# GULP energy per Si atom -12399.442456 kJ/mol
# Density = 1.761461 g / cm^3
# Si number density = 17.654792 Si / 1000 Ang^3
#
#
#
# Elastic Constant Matrix: (Units=GPa)
#
#
# Indices 1 2 3 4 5 6 
#
# 1 80.2307 49.2359 59.6091 0.0000 0.0000 0.0000
# 2 49.2359 98.8517 69.7363 0.0000 0.0000 0.0000
# 3 59.6091 69.7363 118.6303 0.0000 0.0000 0.0000
# 4 0.0000 0.0000 0.0000 24.6381 0.0000 0.0000
# 5 0.0000 0.0000 0.0000 0.0000 34.8611 0.0000
# 6 0.0000 0.0000 0.0000 0.0000 0.0000 27.4277
#
#
#
# Elastic Compliance Matrix: (Units=1/GPa)
#
#
# Indices 1 2 3 4 5 6 
#
# 1 0.021369 -0.005243 -0.007656 0.000000 0.000000 0.000000
# 2 -0.005243 0.018570 -0.008282 0.000000 0.000000 0.000000
# 3 -0.007656 -0.008282 0.017145 0.000000 0.000000 0.000000
# 4 0.000000 0.000000 0.000000 0.040588 0.000000 0.000000
# 5 0.000000 0.000000 0.000000 0.000000 0.028685 0.000000
# 6 0.000000 0.000000 0.000000 0.000000 0.000000 0.036460
#
#
# Mechanical properties :
#
#
# Convention : Reuss Voigt Hill
#
# Bulk Modulus (GPa) = 67.91879 72.76392 70.34136
# Shear Modulus (GPa) = 23.79982 25.32747 24.56364
#
# Velocity S-wave (km/s) = 3.67558 3.79171 3.73410
# Velocity P-wave (km/s) = 7.52112 7.77649 7.64987
#
# Compressibility (1/GPa) = 0.01472347
#
# Stress axis : x y z
#
# Youngs Moduli (GPa) = 46.79586 53.84984 58.32643
#
# Poissons Ratio (x) = 0.28233 0.44653
# Poissons Ratio (y) = 0.24534 0.48306
# Poissons Ratio (z) = 0.35825 0.44598
#
# Static dielectric constant tensor:
#      x y z
#    x 3.087560 0.000000 0.000000 
#    y 0.000000 3.382240 0.000000 
#    z 0.000000 0.000000 3.119700 
# 
# 
# High freq. dielectric constant tensor:
#      x y z
#    x 1.666880 0.000000 0.000000 
#    y 0.000000 1.683760 0.000000 
#    z 0.000000 0.000000 1.672460 
# 
# From -- ./inp_files/20476.got.cif
#   From: 2010.03.12/outbox.cif.g09.slc.cpg/sg59_11_cif.got.tgz:20476.got - 2010.04.16 16:29:54.
