data_PCOD8242948
_publ_section_title
;
Structure prediction by ZEFSAII (Michael W. Deem and Ramdas Pophale) SiO2 
 PCOD8242948
Probable space group: P M M N
;
_chemical_formula_sum "Si O2"
_cell_formula_units_Z 40
_cell_length_a 28.886280
_cell_length_b 9.140171
_cell_length_c 7.927021
_cell_angle_alpha 90.000000
_cell_angle_beta 90.000000
_cell_angle_gamma 90.000000
_cell_volume 2092.935990
_symmetry_space_group_name_H-M "P M M N"
_symmetry_group_IT_number 59
_space_group.IT_coordinate_system_code '2'
_symmetry_cell_setting 'orthorhombic'
loop_
_space_group_symop_operation_xyz
x,y,z
1/2-x,1/2-y,z
1/2+x,-y,-z
-x,1/2+y,-z
-x,-y,-z
1/2+x,1/2+y,-z
1/2-x,y,z
x,1/2-y,z
loop_
_atom_site_type_symbol
_atom_site_label
_atom_site_fract_x
_atom_site_fract_y
_atom_site_fract_z
Si Si1 0.387818 0.422561 0.798568
Si Si2 0.697898 0.079862 0.330053
Si Si3 0.394910 0.421025 0.167435
Si Si4 0.951082 0.575875 0.514309
Si Si5 0.198862 0.418245 0.322553
O O1 0.379381 0.250000 0.793543
O O2 0.337901 0.498238 0.790677
O O3 0.420852 0.473592 0.647087
O O4 0.410241 0.470613 0.979271
O O5 0.750000 0.051103 0.263301
O O6 0.685907 0.250000 0.332564
O O7 0.692166 0.020002 0.517496
O O8 0.401240 0.250000 0.186656
O O9 0.426679 0.488243 0.316230
O O10 0.340737 0.463222 0.189828
O O11 0.957308 0.750000 0.517086
O O12 0.000000 0.500000 0.500000
O O13 0.250000 0.441654 0.241790
O O14 0.192350 0.250000 0.381317
#
# Coordination Sequence:
#
# PCOD8242948 Si02
#       5
#     8   8   8   8   8
#     4  10  20  36  59  82 106 141 183 224 267 316
#     4  10  20  33  51  79 115 149 180 217 263 316
#     4   9  18  34  56  83 110 136 177 227 265 311
#     4  10  21  38  57  80 108 139 177 224 275 325
#     4   9  16  30  54  80 107 142 181 217 258 312
#
# _framework density 19.111909000000001
#
# number of rings (size 3 to 8) (size 9 to 14) (size 15 to 20)
#    0.000    2.400    2.000    0.600    0.000    3.600 
#    0.000    4.000    0.000    2.400    0.000    0.000 
#    0.000    0.000    0.000    0.000    0.000    0.000 
#
# Total GULP energy -495784.200173 kJ/mol
# GULP energy per Si atom -12394.605004 kJ/mol
# Density = 1.906841 g / cm^3
# Si number density = 19.111909 Si / 1000 Ang^3
#
#
#
# Elastic Constant Matrix: (Units=GPa)
#
#
# Indices 1 2 3 4 5 6 
#
# 1 133.5677 38.6985 77.1158 0.0000 0.0000 0.0000
# 2 38.6985 37.4023 33.7664 0.0000 0.0000 0.0000
# 3 77.1158 33.7664 149.9198 0.0000 0.0000 0.0000
# 4 0.0000 0.0000 0.0000 6.3012 0.0000 0.0000
# 5 0.0000 0.0000 0.0000 0.0000 16.1158 0.0000
# 6 0.0000 0.0000 0.0000 0.0000 0.0000 32.6715
#
#
#
# Elastic Compliance Matrix: (Units=1/GPa)
#
#
# Indices 1 2 3 4 5 6 
#
# 1 0.012717 -0.009104 -0.004491 0.000000 0.000000 0.000000
# 2 -0.009104 0.040077 -0.004344 0.000000 0.000000 0.000000
# 3 -0.004491 -0.004344 0.009959 0.000000 0.000000 0.000000
# 4 0.000000 0.000000 0.000000 0.158700 0.000000 0.000000
# 5 0.000000 0.000000 0.000000 0.000000 0.062051 0.000000
# 6 0.000000 0.000000 0.000000 0.000000 0.000000 0.030608
#
#
# Mechanical properties :
#
#
# Convention : Reuss Voigt Hill
#
# Bulk Modulus (GPa) = 37.20797 68.89458 53.05127
# Shear Modulus (GPa) = 13.92963 22.43831 18.18397
#
# Velocity S-wave (km/s) = 2.70264 3.43016 3.08790
# Velocity P-wave (km/s) = 5.40831 7.19821 6.36647
#
# Compressibility (1/GPa) = 0.02687596
#
# Stress axis : x y z
#
# Youngs Moduli (GPa) = 78.63230 24.95202 100.41403
#
# Poissons Ratio (x) = 0.22715 0.45098
# Poissons Ratio (y) = 0.71583 0.43618
# Poissons Ratio (z) = 0.35315 0.10839
#
# Static dielectric constant tensor:
#      x y z
#    x 3.630030 0.000000 0.000000 
#    y 0.000000 3.237600 0.000000 
#    z 0.000000 0.000000 3.774750 
# 
# 
# High freq. dielectric constant tensor:
#      x y z
#    x 1.745280 0.000000 0.000000 
#    y 0.000000 1.713770 0.000000 
#    z 0.000000 0.000000 1.740990 
# 
# From -- ./inp_files/5837.got.cif
#   From: 2010.03.12/outbox.cif.g09.slc.cpg/sg59_3_cif.got.tgz:5837.got - 2010.04.16 16:29:54.
