data_PCOD8242632
_publ_section_title
;
Structure prediction by ZEFSAII (Michael W. Deem and Ramdas Pophale) SiO2 
 PCOD8242632
Probable space group: P M M N
;
_chemical_formula_sum "Si O2"
_cell_formula_units_Z 48
_cell_length_a 18.756936
_cell_length_b 9.059987
_cell_length_c 16.393493
_cell_angle_alpha 90.000000
_cell_angle_beta 90.000000
_cell_angle_gamma 90.000000
_cell_volume 2785.870796
_symmetry_space_group_name_H-M "P M M N"
_symmetry_group_IT_number 59
_space_group.IT_coordinate_system_code '2'
_symmetry_cell_setting 'orthorhombic'
loop_
_space_group_symop_operation_xyz
x,y,z
1/2-x,1/2-y,z
1/2+x,-y,-z
-x,1/2+y,-z
-x,-y,-z
1/2+x,1/2+y,-z
1/2-x,y,z
x,1/2-y,z
loop_
_atom_site_type_symbol
_atom_site_label
_atom_site_fract_x
_atom_site_fract_y
_atom_site_fract_z
Si Si1 0.977922 0.411973 0.747230
Si Si2 0.463893 0.073856 0.576994
Si Si3 0.361978 0.414026 0.803314
Si Si4 0.829560 0.079824 0.356367
Si Si5 0.939161 0.914869 0.894692
Si Si6 0.101426 0.915811 0.953430
O O1 0.941756 0.250000 0.746328
O O2 0.930686 0.520654 0.802853
O O3 0.987532 0.471160 0.654905
O O4 0.054770 0.398394 0.787570
O O5 0.458910 0.250000 0.567884
O O6 0.500000 0.000000 0.500000
O O7 0.384006 0.010731 0.586855
O O8 0.327544 0.250000 0.804179
O O9 0.325942 0.513523 0.734306
O O10 0.349737 0.491736 0.890680
O O11 0.750000 0.067989 0.394291
O O12 0.854532 0.250000 0.351361
O O13 0.908113 0.750000 0.893830
O O14 0.020660 0.914430 0.922440
O O15 0.892876 0.011553 0.957301
O O16 0.131285 0.750000 0.959150
#
# Coordination Sequence:
#
# PCOD8242632 Si02
#       6
#     8   8   8   8   8   8
#     4   8  15  26  38  55  80 111 144 179 223 273
#     4  10  20  33  50  70  94 124 158 198 245 298
#     4   9  16  26  40  58  82 112 147 184 221 265
#     4  10  20  33  49  69  94 124 158 195 236 286
#     4   9  15  21  32  51  75 106 142 178 214 254
#     4   9  15  22  33  50  76 109 142 176 213 254
#
# _framework density 17.229800999999998
#
# number of rings (size 3 to 8) (size 9 to 14) (size 15 to 20)
#    0.000    2.833    0.000    3.500    0.000   10.000 
#    0.000    0.000    0.000    0.000    0.000    0.000 
#    0.000    1.333    0.000   11.667    0.000   14.667 
#
# Total GULP energy -594948.165669 kJ/mol
# GULP energy per Si atom -12394.753451 kJ/mol
# Density = 1.719059 g / cm^3
# Si number density = 17.229801 Si / 1000 Ang^3
#
#
#
# Elastic Constant Matrix: (Units=GPa)
#
#
# Indices 1 2 3 4 5 6 
#
# 1 36.5637 28.5612 34.3696 0.0000 0.0000 0.0000
# 2 28.5612 144.8053 72.6583 0.0000 0.0000 0.0000
# 3 34.3696 72.6583 137.1070 0.0000 0.0000 0.0000
# 4 0.0000 0.0000 0.0000 32.9607 0.0000 0.0000
# 5 0.0000 0.0000 0.0000 0.0000 8.1533 0.0000
# 6 0.0000 0.0000 0.0000 0.0000 0.0000 12.1171
#
#
#
# Elastic Compliance Matrix: (Units=1/GPa)
#
#
# Indices 1 2 3 4 5 6 
#
# 1 0.037119 -0.003613 -0.007390 0.000000 0.000000 0.000000
# 2 -0.003613 0.009759 -0.004266 0.000000 0.000000 0.000000
# 3 -0.007390 -0.004266 0.011407 0.000000 0.000000 0.000000
# 4 0.000000 0.000000 0.000000 0.030339 0.000000 0.000000
# 5 0.000000 0.000000 0.000000 0.000000 0.122649 0.000000
# 6 0.000000 0.000000 0.000000 0.000000 0.000000 0.082528
#
#
# Mechanical properties :
#
#
# Convention : Reuss Voigt Hill
#
# Bulk Modulus (GPa) = 36.04117 65.51715 50.77916
# Shear Modulus (GPa) = 14.98855 22.83868 18.91361
#
# Velocity S-wave (km/s) = 2.95264 3.64474 3.31679
# Velocity P-wave (km/s) = 5.70854 7.47129 6.64859
#
# Compressibility (1/GPa) = 0.02774605
#
# Stress axis : x y z
#
# Youngs Moduli (GPa) = 26.94073 102.46989 87.66732
#
# Poissons Ratio (x) = 0.37024 0.64786
# Poissons Ratio (y) = 0.09734 0.37398
# Poissons Ratio (z) = 0.19909 0.43713
#
# Static dielectric constant tensor:
#      x y z
#    x 2.652060 0.000000 0.000000 
#    y 0.000000 3.556920 0.000000 
#    z 0.000000 0.000000 3.259580 
# 
# 
# High freq. dielectric constant tensor:
#      x y z
#    x 1.595310 0.000000 0.000000 
#    y 0.000000 1.686530 0.000000 
#    z 0.000000 0.000000 1.656300 
# 
# From -- ./inp_files/20762.got.cif
#   From: 2010.03.12/outbox.cif.g09.slc.cpg/sg59_11_cif.got.tgz:20762.got - 2010.04.16 16:29:54.
