data_PCOD8242554
_publ_section_title
;
Structure prediction by ZEFSAII (Michael W. Deem and Ramdas Pophale) SiO2 
 PCOD8242554
Probable space group: P M M N
;
_chemical_formula_sum "Si O2"
_cell_formula_units_Z 64
_cell_length_a 9.878657
_cell_length_b 17.314832
_cell_length_c 20.379460
_cell_angle_alpha 90.000000
_cell_angle_beta 90.000000
_cell_angle_gamma 90.000000
_cell_volume 3485.851330
_symmetry_space_group_name_H-M "P M M N"
_symmetry_group_IT_number 59
_space_group.IT_coordinate_system_code '2'
_symmetry_cell_setting 'orthorhombic'
loop_
_space_group_symop_operation_xyz
x,y,z
1/2-x,1/2-y,z
1/2+x,-y,-z
-x,1/2+y,-z
-x,-y,-z
1/2+x,1/2+y,-z
1/2-x,y,z
x,1/2-y,z
loop_
_atom_site_type_symbol
_atom_site_label
_atom_site_fract_x
_atom_site_fract_y
_atom_site_fract_z
Si Si1 0.602195 0.159302 0.597569
Si Si2 0.093322 0.932128 0.528507
Si Si3 0.089356 0.336618 0.954032
Si Si4 0.589685 0.926751 0.169625
Si Si5 0.398419 0.339533 0.096971
Si Si6 0.098708 0.158488 0.703857
Si Si7 0.410207 0.661924 0.654532
Si Si8 0.410376 0.598070 0.796294
O O1 0.750000 0.130970 0.621357
O O2 0.590012 0.250000 0.602124
O O3 0.578746 0.137269 0.522667
O O4 0.491015 0.121810 0.645632
O O5 0.250000 0.960221 0.534956
O O6 0.037782 0.895683 0.596864
O O7 0.000000 0.000000 0.500000
O O8 0.250000 0.332617 0.946429
O O9 0.029594 0.250000 0.943311
O O10 0.028290 0.394731 0.898798
O O11 0.051979 0.371907 0.025837
O O12 0.750000 0.927601 0.165328
O O13 0.540183 0.869742 0.226975
O O14 0.538305 0.011911 0.187997
O O15 0.250000 0.374634 0.116793
O O16 0.377360 0.250000 0.084266
O O17 0.511541 0.349344 0.151970
O O18 0.250000 0.126359 0.692435
O O19 0.096340 0.250000 0.703823
O O20 0.250000 0.666757 0.649356
O O21 0.468692 0.750000 0.648504
O O22 0.454835 0.624098 0.723506
O O23 0.250000 0.608825 0.805933
#
# Coordination Sequence:
#
# PCOD8242554 Si02
#       8
#     8   8   8   8   8   8   8   8
#     4   9  18  33  51  71  97 131 168 201 240 297
#     4  10  21  35  54  77 101 130 163 206 252 296
#     4   8  14  27  48  71  97 133 172 205 243 299
#     4   9  17  28  45  72 105 133 164 207 250 294
#     4   9  18  33  52  72  95 128 170 211 251 299
#     4   9  17  29  49  75 100 129 165 205 245 287
#     4   9  18  34  55  75  97 133 177 208 237 291
#     4  10  20  32  50  77 103 130 164 209 256 294
#
# _framework density 18.359933999999999
#
# number of rings (size 3 to 8) (size 9 to 14) (size 15 to 20)
#    0.000    2.875    0.000    1.875    1.750    4.750 
#    0.000    1.250    0.000    2.625    0.000    1.750 
#    0.000    0.000    0.000    0.000    0.000    0.000 
#
# Total GULP energy -793057.958550 kJ/mol
# GULP energy per Si atom -12391.530602 kJ/mol
# Density = 1.831815 g / cm^3
# Si number density = 18.359934 Si / 1000 Ang^3
#
#
#
# Elastic Constant Matrix: (Units=GPa)
#
#
# Indices 1 2 3 4 5 6 
#
# 1 50.4843 23.1591 53.4926 0.0000 0.0000 0.0000
# 2 23.1591 59.4982 54.0088 0.0000 0.0000 0.0000
# 3 53.4926 54.0088 168.8261 0.0000 0.0000 0.0000
# 4 0.0000 0.0000 0.0000 25.1221 0.0000 0.0000
# 5 0.0000 0.0000 0.0000 0.0000 19.0043 0.0000
# 6 0.0000 0.0000 0.0000 0.0000 0.0000 15.6009
#
#
#
# Elastic Compliance Matrix: (Units=1/GPa)
#
#
# Indices 1 2 3 4 5 6 
#
# 1 0.030610 -0.004384 -0.008296 0.000000 0.000000 0.000000
# 2 -0.004384 0.024313 -0.006389 0.000000 0.000000 0.000000
# 3 -0.008296 -0.006389 0.010596 0.000000 0.000000 0.000000
# 4 0.000000 0.000000 0.000000 0.039806 0.000000 0.000000
# 5 0.000000 0.000000 0.000000 0.000000 0.052620 0.000000
# 6 0.000000 0.000000 0.000000 0.000000 0.000000 0.064099
#
#
# Mechanical properties :
#
#
# Convention : Reuss Voigt Hill
#
# Bulk Modulus (GPa) = 36.52204 60.01442 48.26823
# Shear Modulus (GPa) = 18.56611 21.82199 20.19405
#
# Velocity S-wave (km/s) = 3.18343 3.45130 3.32007
# Velocity P-wave (km/s) = 5.78340 6.97428 6.40657
#
# Compressibility (1/GPa) = 0.02738072
#
# Stress axis : x y z
#
# Youngs Moduli (GPa) = 32.66922 41.13016 94.37654
#
# Poissons Ratio (x) = 0.18030 0.78298
# Poissons Ratio (y) = 0.14321 0.60297
# Poissons Ratio (z) = 0.27104 0.26278
#
# Static dielectric constant tensor:
#      x y z
#    x 3.146760 0.000000 0.000000 
#    y 0.000000 3.380740 0.000000 
#    z 0.000000 0.000000 3.752330 
# 
# 
# High freq. dielectric constant tensor:
#      x y z
#    x 1.664890 0.000000 0.000000 
#    y 0.000000 1.704410 0.000000 
#    z 0.000000 0.000000 1.728140 
# 
# From -- ./inp_files/27078.got.cif
#   From: 2010.03.12/outbox.cif.g09.slc.cpg/sg59_14_cif.got.tgz:27078.got - 2010.04.16 16:29:54.
