data_PCOD8242047
_publ_section_title
;
Structure prediction by ZEFSAII (Michael W. Deem and Ramdas Pophale) SiO2 
 PCOD8242047
Probable space group: P M M N
;
_chemical_formula_sum "Si O2"
_cell_formula_units_Z 64
_cell_length_a 23.474469
_cell_length_b 8.922402
_cell_length_c 15.372045
_cell_angle_alpha 90.000000
_cell_angle_beta 90.000000
_cell_angle_gamma 90.000000
_cell_volume 3219.654060
_symmetry_space_group_name_H-M "P M M N"
_symmetry_group_IT_number 59
_space_group.IT_coordinate_system_code '2'
_symmetry_cell_setting 'orthorhombic'
loop_
_space_group_symop_operation_xyz
x,y,z
1/2-x,1/2-y,z
1/2+x,-y,-z
-x,1/2+y,-z
-x,-y,-z
1/2+x,1/2+y,-z
1/2-x,y,z
x,1/2-y,z
loop_
_atom_site_type_symbol
_atom_site_label
_atom_site_fract_x
_atom_site_fract_y
_atom_site_fract_z
Si Si1 0.493152 0.575289 0.908069
Si Si2 0.627774 0.077083 0.353191
Si Si3 0.389990 0.927550 0.338543
Si Si4 0.500250 0.924016 0.593030
Si Si5 0.113868 0.425304 0.163537
Si Si6 0.816536 0.924209 0.512908
Si Si7 0.873246 0.426665 0.158101
Si Si8 0.684665 0.577344 0.001197
O O1 0.488003 0.750000 0.925768
O O2 0.547070 0.540358 0.847390
O O3 0.436766 0.511680 0.861290
O O4 0.500000 0.500000 0.000000
O O5 0.643553 0.250000 0.372089
O O6 0.560312 0.053264 0.361807
O O7 0.645037 0.028229 0.255652
O O8 0.662814 0.971628 0.417470
O O9 0.394800 0.750000 0.340702
O O10 0.452420 0.998786 0.347418
O O11 0.363758 0.983619 0.247187
O O12 0.349348 0.978450 0.416253
O O13 0.515639 0.750000 0.582389
O O14 0.500000 0.000000 0.500000
O O15 0.126471 0.250000 0.178323
O O16 0.147141 0.485526 0.078615
O O17 0.750000 0.957554 0.521996
O O18 0.830523 0.750000 0.527148
O O19 0.872846 0.250000 0.148320
O O20 0.828345 0.492827 0.090503
O O21 0.750000 0.552137 0.976117
O O22 0.669738 0.750000 0.016735
#
# Coordination Sequence:
#
# PCOD8242047 Si02
#       8
#     8   8   8   8   8   8   8   8
#     4  10  19  34  59  88 119 155 195 240 296 355
#     4  10  22  40  63  90 122 160 200 245 300 359
#     4  12  25  40  62  93 125 160 199 247 303 364
#     4  11  21  37  63  93 126 161 198 244 301 363
#     4  10  21  39  61  86 120 159 198 248 300 356
#     4  11  25  44  65  88 117 157 204 255 307 359
#     4  10  21  37  59  88 121 156 194 241 295 355
#     4  10  22  40  61  85 115 155 202 249 298 353
#
# _framework density 19.877912999999999
#
# number of rings (size 3 to 8) (size 9 to 14) (size 15 to 20)
#    0.000    1.500    2.500    2.625    0.000    6.250 
#    0.000    5.000    0.000    0.000    0.000    0.000 
#    0.000    0.000    0.000    0.000    0.000    0.000 
#
# Total GULP energy -793862.514488 kJ/mol
# GULP energy per Si atom -12404.101789 kJ/mol
# Density = 1.983267 g / cm^3
# Si number density = 19.877913 Si / 1000 Ang^3
#
#
#
# Elastic Constant Matrix: (Units=GPa)
#
#
# Indices 1 2 3 4 5 6 
#
# 1 52.4358 23.8619 16.3499 0.0000 0.0000 0.0000
# 2 23.8619 81.0784 44.6879 0.0000 0.0000 0.0000
# 3 16.3499 44.6879 132.5937 0.0000 0.0000 0.0000
# 4 0.0000 0.0000 0.0000 37.7937 0.0000 0.0000
# 5 0.0000 0.0000 0.0000 0.0000 12.0892 0.0000
# 6 0.0000 0.0000 0.0000 0.0000 0.0000 27.9339
#
#
#
# Elastic Compliance Matrix: (Units=1/GPa)
#
#
# Indices 1 2 3 4 5 6 
#
# 1 0.022066 -0.006134 -0.000654 0.000000 0.000000 0.000000
# 2 -0.006134 0.016853 -0.004923 0.000000 0.000000 0.000000
# 3 -0.000654 -0.004923 0.009282 0.000000 0.000000 0.000000
# 4 0.000000 0.000000 0.000000 0.026459 0.000000 0.000000
# 5 0.000000 0.000000 0.000000 0.000000 0.082719 0.000000
# 6 0.000000 0.000000 0.000000 0.000000 0.000000 0.035799
#
#
# Mechanical properties :
#
#
# Convention : Reuss Voigt Hill
#
# Bulk Modulus (GPa) = 40.35755 48.43412 44.39583
# Shear Modulus (GPa) = 22.23617 27.64390 24.94003
#
# Velocity S-wave (km/s) = 3.34823 3.73323 3.54596
# Velocity P-wave (km/s) = 5.94090 6.55755 6.25683
#
# Compressibility (1/GPa) = 0.02477851
#
# Stress axis : x y z
#
# Youngs Moduli (GPa) = 45.31836 59.33778 107.73790
#
# Poissons Ratio (x) = 0.36397 0.07042
# Poissons Ratio (y) = 0.27798 0.53044
# Poissons Ratio (z) = 0.02962 0.29215
#
# Static dielectric constant tensor:
#      x y z
#    x 3.663380 0.000000 0.000000 
#    y 0.000000 3.543360 0.000000 
#    z 0.000000 0.000000 3.635290 
# 
# 
# High freq. dielectric constant tensor:
#      x y z
#    x 1.774100 0.000000 0.000000 
#    y 0.000000 1.768050 0.000000 
#    z 0.000000 0.000000 1.789440 
# 
# From -- ./inp_files/24672.got.cif
#   From: 2010.03.12/outbox.cif.g09.slc.cpg/sg59_13_cif.got.tgz:24672.got - 2010.04.16 16:29:54.
