data_PCOD8242346
_publ_section_title
;
Structure prediction by ZEFSAII (Michael W. Deem and Ramdas Pophale) SiO2 
 PCOD8242346
Probable space group: P M M N
;
_chemical_formula_sum "Si O2"
_cell_formula_units_Z 64
_cell_length_a 25.982625
_cell_length_b 9.073708
_cell_length_c 14.518359
_cell_angle_alpha 90.000000
_cell_angle_beta 90.000000
_cell_angle_gamma 90.000000
_cell_volume 3422.830204
_symmetry_space_group_name_H-M "P M M N"
_symmetry_group_IT_number 59
_space_group.IT_coordinate_system_code '2'
_symmetry_cell_setting 'orthorhombic'
loop_
_space_group_symop_operation_xyz
x,y,z
1/2-x,1/2-y,z
1/2+x,-y,-z
-x,1/2+y,-z
-x,-y,-z
1/2+x,1/2+y,-z
1/2-x,y,z
x,1/2-y,z
loop_
_atom_site_type_symbol
_atom_site_label
_atom_site_fract_x
_atom_site_fract_y
_atom_site_fract_z
Si Si1 0.595321 0.074721 0.097618
Si Si2 0.977388 0.422225 0.588731
Si Si3 0.902095 0.075062 0.889931
Si Si4 0.861597 0.074462 0.589071
Si Si5 0.192916 0.925543 0.792129
Si Si6 0.308597 0.577908 0.589295
Si Si7 0.307679 0.925795 0.228492
Si Si8 0.494506 0.076985 0.790415
O O1 0.591163 0.250000 0.102170
O O2 0.650271 0.018428 0.136300
O O3 0.550121 0.009342 0.158551
O O4 0.591183 0.014855 0.993593
O O5 0.977950 0.250000 0.568113
O O6 0.919559 0.478282 0.606173
O O7 0.000000 0.500000 0.500000
O O8 0.009137 0.459454 0.681511
O O9 0.899755 0.250000 0.890410
O O10 0.848529 0.014310 0.847140
O O11 0.950530 0.021863 0.829443
O O12 0.857923 0.250000 0.587230
O O13 0.843150 0.006111 0.491309
O O14 0.825588 0.015342 0.671488
O O15 0.250000 0.981308 0.822061
O O16 0.193764 0.750000 0.787604
O O17 0.178956 0.988926 0.690272
O O18 0.250000 0.546802 0.562455
O O19 0.320167 0.750000 0.593235
O O20 0.250000 0.985155 0.206850
O O21 0.307707 0.750000 0.227740
O O22 0.487832 0.250000 0.808839
#
# Coordination Sequence:
#
# PCOD8242346 Si02
#       8
#     8   8   8   8   8   8   8   8
#     4  10  20  31  51  77  97 126 171 212 244 292
#     4  10  21  34  50  72 100 132 163 201 249 297
#     4   9  17  31  46  67  99 132 165 205 252 294
#     4   9  15  25  41  63  93 127 159 193 239 293
#     4   8  15  27  41  64  99 127 148 191 254 298
#     4   8  13  21  35  57  87 120 149 181 226 281
#     4   9  15  24  42  68  98 132 166 199 246 309
#     4  10  20  36  52  68 100 138 166 200 250 300
#
# _framework density 18.697976000000001
#
# number of rings (size 3 to 8) (size 9 to 14) (size 15 to 20)
#    0.000    2.875    1.250    1.500    1.750    2.500 
#    0.000    2.500    0.000    0.375    0.000    0.000 
#    0.000    5.500    0.000    0.000    0.000    0.000 
#
# Total GULP energy -793186.952072 kJ/mol
# GULP energy per Si atom -12393.546126 kJ/mol
# Density = 1.865542 g / cm^3
# Si number density = 18.697976 Si / 1000 Ang^3
#
#
#
# Elastic Constant Matrix: (Units=GPa)
#
#
# Indices 1 2 3 4 5 6 
#
# 1 140.7479 20.8992 77.2141 0.0000 0.0000 0.0000
# 2 20.8992 12.5595 23.4370 0.0000 0.0000 0.0000
# 3 77.2141 23.4370 150.4256 0.0000 0.0000 0.0000
# 4 0.0000 0.0000 0.0000 16.5459 0.0000 0.0000
# 5 0.0000 0.0000 0.0000 0.0000 37.8267 0.0000
# 6 0.0000 0.0000 0.0000 0.0000 0.0000 15.3582
#
#
#
# Elastic Compliance Matrix: (Units=1/GPa)
#
#
# Indices 1 2 3 4 5 6 
#
# 1 0.010836 -0.010789 -0.003881 0.000000 0.000000 0.000000
# 2 -0.010789 0.123002 -0.013626 0.000000 0.000000 0.000000
# 3 -0.003881 -0.013626 0.010763 0.000000 0.000000 0.000000
# 4 0.000000 0.000000 0.000000 0.060438 0.000000 0.000000
# 5 0.000000 0.000000 0.000000 0.000000 0.026436 0.000000
# 6 0.000000 0.000000 0.000000 0.000000 0.000000 0.065112
#
#
# Mechanical properties :
#
#
# Convention : Reuss Voigt Hill
#
# Bulk Modulus (GPa) = 11.36256 60.75928 36.06092
# Shear Modulus (GPa) = 13.07134 26.09167 19.58151
#
# Velocity S-wave (km/s) = 2.64688 3.73959 3.23964
# Velocity P-wave (km/s) = 3.92828 7.15624 5.77248
#
# Compressibility (1/GPa) = 0.08800836
#
# Stress axis : x y z
#
# Youngs Moduli (GPa) = 92.28353 8.12996 92.90977
#
# Poissons Ratio (x) = 0.08771 0.36061
# Poissons Ratio (y) = 0.99563 1.26602
# Poissons Ratio (z) = 0.35818 0.11078
#
# Static dielectric constant tensor:
#      x y z
#    x 3.675210 0.000000 0.000000 
#    y 0.000000 2.703640 0.000000 
#    z 0.000000 0.000000 3.719830 
# 
# 
# High freq. dielectric constant tensor:
#      x y z
#    x 1.736980 0.000000 0.000000 
#    y 0.000000 1.642070 0.000000 
#    z 0.000000 0.000000 1.742600 
# 
# From -- ./inp_files/19022.got.cif
#   From: 2010.03.12/outbox.cif.g09.slc.cpg/sg59_10_cif.got.tgz:19022.got - 2010.04.16 16:29:54.
