data_PCOD8242409
_publ_section_title
;
Structure prediction by ZEFSAII (Michael W. Deem and Ramdas Pophale) SiO2 
 PCOD8242409
Probable space group: P M M N
;
_chemical_formula_sum "Si O2"
_cell_formula_units_Z 48
_cell_length_a 9.354949
_cell_length_b 8.991131
_cell_length_c 31.430470
_cell_angle_alpha 90.000000
_cell_angle_beta 90.000000
_cell_angle_gamma 90.000000
_cell_volume 2643.666239
_symmetry_space_group_name_H-M "P M M N"
_symmetry_group_IT_number 59
_space_group.IT_coordinate_system_code '2'
_symmetry_cell_setting 'orthorhombic'
loop_
_space_group_symop_operation_xyz
x,y,z
1/2-x,1/2-y,z
1/2+x,-y,-z
-x,1/2+y,-z
-x,-y,-z
1/2+x,1/2+y,-z
1/2-x,y,z
x,1/2-y,z
loop_
_atom_site_type_symbol
_atom_site_label
_atom_site_fract_x
_atom_site_fract_y
_atom_site_fract_z
Si Si1 0.914717 0.426375 0.198487
Si Si2 0.085857 0.426177 0.462146
Si Si3 0.582861 0.577006 0.962151
Si Si4 0.582127 0.420723 0.876229
Si Si5 0.080834 0.587530 0.709391
Si Si6 0.089388 0.572244 0.618315
O O1 0.750000 0.463267 0.188927
O O2 0.941399 0.250000 0.196139
O O3 0.960206 0.490003 0.245630
O O4 0.010345 0.510551 0.164919
O O5 0.250000 0.477622 0.463887
O O6 0.070838 0.250000 0.466117
O O7 0.000000 0.500000 0.500000
O O8 0.018654 0.484273 0.417837
O O9 0.750000 0.546991 0.968757
O O10 0.545480 0.750000 0.961547
O O11 0.528709 0.507323 0.917957
O O12 0.500000 0.500000 0.000000
O O13 0.750000 0.439574 0.870343
O O14 0.536572 0.250000 0.881212
O O15 0.250000 0.607699 0.708784
O O16 0.008074 0.750000 0.709688
O O17 0.038145 0.506355 0.664705
O O18 0.250000 0.516867 0.607131
O O19 0.088642 0.750000 0.621411
#
# Coordination Sequence:
#
# PCOD8242409 Si02
#       6
#     8   8   8   8   8   8
#     4   9  17  30  50  76 102 127 159 200 242 285
#     4  10  20  32  47  69  96 125 159 199 242 290
#     4  10  21  37  57  79 102 130 165 204 247 295
#     4  10  21  36  52  71  99 135 170 203 241 285
#     4   7  11  22  42  68  95 121 152 192 237 284
#     4   8  13  24  44  67  91 121 155 193 239 287
#
# _framework density 18.156604000000002
#
# number of rings (size 3 to 8) (size 9 to 14) (size 15 to 20)
#    0.000    3.000    0.000    3.500    0.000    4.000 
#    0.000    0.833    0.000    4.000    0.000    2.333 
#    0.000    0.000    0.000    0.000    0.000    0.000 
#
# Total GULP energy -594750.907480 kJ/mol
# GULP energy per Si atom -12390.643906 kJ/mol
# Density = 1.811528 g / cm^3
# Si number density = 18.156604 Si / 1000 Ang^3
#
#
#
# Elastic Constant Matrix: (Units=GPa)
#
#
# Indices 1 2 3 4 5 6 
#
# 1 64.9953 30.4842 71.9654 0.0000 0.0000 0.0000
# 2 30.4842 54.4559 56.9679 0.0000 0.0000 0.0000
# 3 71.9654 56.9679 208.5034 0.0000 0.0000 0.0000
# 4 0.0000 0.0000 0.0000 22.7876 0.0000 0.0000
# 5 0.0000 0.0000 0.0000 0.0000 35.5935 0.0000
# 6 0.0000 0.0000 0.0000 0.0000 0.0000 23.1782
#
#
#
# Elastic Compliance Matrix: (Units=1/GPa)
#
#
# Indices 1 2 3 4 5 6 
#
# 1 0.026921 -0.007491 -0.007245 0.000000 0.000000 0.000000
# 2 -0.007491 0.027797 -0.005009 0.000000 0.000000 0.000000
# 3 -0.007245 -0.005009 0.008665 0.000000 0.000000 0.000000
# 4 0.000000 0.000000 0.000000 0.043884 0.000000 0.000000
# 5 0.000000 0.000000 0.000000 0.000000 0.028095 0.000000
# 6 0.000000 0.000000 0.000000 0.000000 0.000000 0.043144
#
#
# Mechanical properties :
#
#
# Convention : Reuss Voigt Hill
#
# Bulk Modulus (GPa) = 41.85329 71.86552 56.85941
# Shear Modulus (GPa) = 22.12758 27.54766 24.83762
#
# Velocity S-wave (km/s) = 3.49479 3.89938 3.70262
# Velocity P-wave (km/s) = 6.27583 7.74212 7.04721
#
# Compressibility (1/GPa) = 0.02389298
#
# Stress axis : x y z
#
# Youngs Moduli (GPa) = 37.14517 35.97463 115.40064
#
# Poissons Ratio (x) = 0.26949 0.83611
# Poissons Ratio (y) = 0.27826 0.57808
# Poissons Ratio (z) = 0.26913 0.18021
#
# Static dielectric constant tensor:
#      x y z
#    x 3.139910 0.000000 0.000000 
#    y 0.000000 2.989470 0.000000 
#    z 0.000000 0.000000 3.874070 
# 
# 
# High freq. dielectric constant tensor:
#      x y z
#    x 1.680680 0.000000 0.000000 
#    y 0.000000 1.664040 0.000000 
#    z 0.000000 0.000000 1.731300 
# 
# From -- ./inp_files/32913.got.cif
#   From: 2010.03.12/outbox.cif.g09.slc.cpg/sg59_17_cif.got.tgz:32913.got - 2010.04.16 16:29:54.
