data_PCOD8242515
_publ_section_title
;
Structure prediction by ZEFSAII (Michael W. Deem and Ramdas Pophale) SiO2 
 PCOD8242515
Probable space group: P M M N
;
_chemical_formula_sum "Si O2"
_cell_formula_units_Z 64
_cell_length_a 17.939494
_cell_length_b 20.935854
_cell_length_c 9.351171
_cell_angle_alpha 90.000000
_cell_angle_beta 90.000000
_cell_angle_gamma 90.000000
_cell_volume 3512.099967
_symmetry_space_group_name_H-M "P M M N"
_symmetry_group_IT_number 59
_space_group.IT_coordinate_system_code '2'
_symmetry_cell_setting 'orthorhombic'
loop_
_space_group_symop_operation_xyz
x,y,z
1/2-x,1/2-y,z
1/2+x,-y,-z
-x,1/2+y,-z
-x,-y,-z
1/2+x,1/2+y,-z
1/2-x,y,z
x,1/2-y,z
loop_
_atom_site_type_symbol
_atom_site_label
_atom_site_fract_x
_atom_site_fract_y
_atom_site_fract_z
Si Si1 0.086648 0.434221 0.595481
Si Si2 0.161501 0.320187 0.097876
Si Si3 0.833558 0.180489 0.577463
Si Si4 0.661066 0.048006 0.898735
Si Si5 0.088306 0.945398 0.404828
Si Si6 0.663057 0.675693 0.578405
Si Si7 0.666417 0.183170 0.917582
Si Si8 0.338352 0.067044 0.900221
O O1 0.111007 0.496424 0.507268
O O2 0.113111 0.368812 0.521767
O O3 0.123538 0.438127 0.749121
O O4 0.998727 0.434521 0.614565
O O5 0.250000 0.319351 0.094223
O O6 0.130497 0.250000 0.056399
O O7 0.137408 0.338153 0.258916
O O8 0.130580 0.370793 0.983692
O O9 0.750000 0.172537 0.517687
O O10 0.865505 0.250000 0.525605
O O11 0.881260 0.120168 0.523516
O O12 0.832623 0.179233 0.747477
O O13 0.750000 0.050213 0.875096
O O14 0.623764 0.036030 0.746435
O O15 0.631463 0.115646 0.968355
O O16 0.636697 0.993569 0.007187
O O17 0.750000 0.658748 0.556156
O O18 0.649103 0.750000 0.539205
O O19 0.750000 0.187612 0.977146
O O20 0.624970 0.250000 0.965460
O O21 0.250000 0.070195 0.880253
#
# Coordination Sequence:
#
# PCOD8242515 Si02
#       8
#     8   8   8   8   8   8   8   8
#     4  11  23  34  46  72 108 141 174 212 256 302
#     4   8  15  30  52  75  97 124 163 209 254 304
#     4   8  14  27  50  76  94 113 153 209 257 293
#     4   9  17  31  52  73  92 124 170 212 255 307
#     4  10  21  35  50  71 101 140 178 207 246 308
#     4   9  18  34  56  78 100 133 176 215 254 308
#     4   7  10  19  39  67  91 107 135 187 241 284
#     4  10  20  32  49  74 101 130 167 216 267 303
#
# _framework density 18.222715999999998
#
# number of rings (size 3 to 8) (size 9 to 14) (size 15 to 20)
#    0.000    3.000    0.000    3.750    0.000    4.500 
#    0.000    1.250    0.000    0.750    0.000    1.750 
#    0.000    0.000    0.000    0.000    0.000    0.000 
#
# Total GULP energy -792889.000732 kJ/mol
# GULP energy per Si atom -12388.890636 kJ/mol
# Density = 1.818124 g / cm^3
# Si number density = 18.222716 Si / 1000 Ang^3
#
#
#
# Elastic Constant Matrix: (Units=GPa)
#
#
# Indices 1 2 3 4 5 6 
#
# 1 40.4064 45.2183 36.6708 0.0000 0.0000 0.0000
# 2 45.2183 184.4464 83.1924 0.0000 0.0000 0.0000
# 3 36.6708 83.1924 106.3220 0.0000 0.0000 0.0000
# 4 0.0000 0.0000 0.0000 7.2189 0.0000 0.0000
# 5 0.0000 0.0000 0.0000 0.0000 18.0692 0.0000
# 6 0.0000 0.0000 0.0000 0.0000 0.0000 22.3243
#
#
#
# Elastic Compliance Matrix: (Units=1/GPa)
#
#
# Indices 1 2 3 4 5 6 
#
# 1 0.039261 -0.005436 -0.009288 0.000000 0.000000 0.000000
# 2 -0.005436 0.009131 -0.005270 0.000000 0.000000 0.000000
# 3 -0.009288 -0.005270 0.016732 0.000000 0.000000 0.000000
# 4 0.000000 0.000000 0.000000 0.138525 0.000000 0.000000
# 5 0.000000 0.000000 0.000000 0.000000 0.055343 0.000000
# 6 0.000000 0.000000 0.000000 0.000000 0.000000 0.044794
#
#
# Mechanical properties :
#
#
# Convention : Reuss Voigt Hill
#
# Bulk Modulus (GPa) = 39.78180 73.48198 56.63189
# Shear Modulus (GPa) = 14.19834 20.59535 17.39685
#
# Velocity S-wave (km/s) = 2.79437 3.36550 3.09314
# Velocity P-wave (km/s) = 5.68239 7.45077 6.62584
#
# Compressibility (1/GPa) = 0.02513712
#
# Stress axis : x y z
#
# Youngs Moduli (GPa) = 25.47048 109.51441 59.76455
#
# Poissons Ratio (x) = 0.59531 0.55509
# Poissons Ratio (y) = 0.13846 0.31495
# Poissons Ratio (z) = 0.23657 0.57713
#
# Static dielectric constant tensor:
#      x y z
#    x 3.032300 0.000000 0.000000 
#    y 0.000000 4.210870 0.000000 
#    z 0.000000 0.000000 3.067830 
# 
# 
# High freq. dielectric constant tensor:
#      x y z
#    x 1.667830 0.000000 0.000000 
#    y 0.000000 1.737920 0.000000 
#    z 0.000000 0.000000 1.674940 
# 
# From -- ./inp_files/10709.got.cif
#   From: 2010.03.12/outbox.cif.g09.slc.cpg/sg59_6_cif.got.tgz:10709.got - 2010.04.16 16:29:54.
