data_PCOD8242778
_publ_section_title
;
Structure prediction by ZEFSAII (Michael W. Deem and Ramdas Pophale) SiO2 
 PCOD8242778
Probable space group: P M M N
;
_chemical_formula_sum "Si O2"
_cell_formula_units_Z 56
_cell_length_a 15.624609
_cell_length_b 9.137173
_cell_length_c 21.161730
_cell_angle_alpha 90.000000
_cell_angle_beta 90.000000
_cell_angle_gamma 90.000000
_cell_volume 3021.149209
_symmetry_space_group_name_H-M "P M M N"
_symmetry_group_IT_number 59
_space_group.IT_coordinate_system_code '2'
_symmetry_cell_setting 'orthorhombic'
loop_
_space_group_symop_operation_xyz
x,y,z
1/2-x,1/2-y,z
1/2+x,-y,-z
-x,1/2+y,-z
-x,-y,-z
1/2+x,1/2+y,-z
1/2-x,y,z
x,1/2-y,z
loop_
_atom_site_type_symbol
_atom_site_label
_atom_site_fract_x
_atom_site_fract_y
_atom_site_fract_z
Si Si1 0.575572 0.583639 0.468697
Si Si2 0.844936 0.580709 0.592546
Si Si3 0.409186 0.076445 0.002422
Si Si4 0.155511 0.423325 0.138493
Si Si5 0.153978 0.917354 0.884052
Si Si6 0.991559 0.076881 0.213633
Si Si7 0.001796 0.078216 0.656263
O O1 0.500000 0.500000 0.500000
O O2 0.546880 0.750000 0.469962
O O3 0.656082 0.556202 0.515350
O O4 0.579165 0.540416 0.394105
O O5 0.750000 0.541666 0.616753
O O6 0.867246 0.750000 0.607634
O O7 0.911173 0.478791 0.629391
O O8 0.420796 0.250000 0.998356
O O9 0.351517 0.020365 0.944999
O O10 0.363309 0.027883 0.067001
O O11 0.500000 0.000000 0.000000
O O12 0.250000 0.482943 0.158323
O O13 0.154568 0.250000 0.142201
O O14 0.081591 0.483146 0.185213
O O15 0.250000 0.931099 0.856123
O O16 0.133598 0.750000 0.903800
O O17 0.085801 0.970028 0.832128
O O18 0.994240 0.250000 0.223291
O O19 0.973013 0.002007 0.279963
O O20 0.993444 0.250000 0.669576
#
# Coordination Sequence:
#
# PCOD8242778 Si02
#       7
#     8   8   8   8   8   8   8
#     4   8  15  29  48  70  96 125 160 202 248 295
#     4   9  17  31  53  78 101 131 172 211 253 314
#     4  11  20  34  57  83 110 138 176 224 278 331
#     4   9  18  33  53  76 102 134 175 220 265 316
#     4  10  21  38  58  80 107 140 181 229 278 324
#     4  10  20  36  54  74 104 145 186 221 261 317
#     4  10  20  33  50  74 105 138 171 214 264 309
#
# _framework density 18.535990999999999
#
# number of rings (size 3 to 8) (size 9 to 14) (size 15 to 20)
#    0.000    2.429    1.429    1.286    0.000    2.857 
#    0.000    2.143    0.000    2.571    0.000    0.000 
#    0.000    0.000    0.000    0.000    0.000    0.000 
#
# Total GULP energy -693843.224814 kJ/mol
# GULP energy per Si atom -12390.057586 kJ/mol
# Density = 1.849380 g / cm^3
# Si number density = 18.535991 Si / 1000 Ang^3
#
#
#
# Elastic Constant Matrix: (Units=GPa)
#
#
# Indices 1 2 3 4 5 6 
#
# 1 78.7159 12.3994 19.1374 0.0000 0.0000 0.0000
# 2 12.3994 43.2790 31.5518 0.0000 0.0000 0.0000
# 3 19.1374 31.5518 109.6140 0.0000 0.0000 0.0000
# 4 0.0000 0.0000 0.0000 32.8080 0.0000 0.0000
# 5 0.0000 0.0000 0.0000 0.0000 18.7038 0.0000
# 6 0.0000 0.0000 0.0000 0.0000 0.0000 17.7333
#
#
#
# Elastic Compliance Matrix: (Units=1/GPa)
#
#
# Indices 1 2 3 4 5 6 
#
# 1 0.013516 -0.002724 -0.001576 0.000000 0.000000 0.000000
# 2 -0.002724 0.029791 -0.008100 0.000000 0.000000 0.000000
# 3 -0.001576 -0.008100 0.011729 0.000000 0.000000 0.000000
# 4 0.000000 0.000000 0.000000 0.030480 0.000000 0.000000
# 5 0.000000 0.000000 0.000000 0.000000 0.053465 0.000000
# 6 0.000000 0.000000 0.000000 0.000000 0.000000 0.056391
#
#
# Mechanical properties :
#
#
# Convention : Reuss Voigt Hill
#
# Bulk Modulus (GPa) = 33.07034 39.75401 36.41217
# Shear Modulus (GPa) = 21.71545 25.08370 23.39957
#
# Velocity S-wave (km/s) = 3.42647 3.68264 3.55686
# Velocity P-wave (km/s) = 5.79087 6.29094 6.04608
#
# Compressibility (1/GPa) = 0.03023858
#
# Stress axis : x y z
#
# Youngs Moduli (GPa) = 73.98618 33.56704 85.25519
#
# Poissons Ratio (x) = 0.09142 0.13434
# Poissons Ratio (y) = 0.20150 0.69054
# Poissons Ratio (z) = 0.11659 0.27188
#
# Static dielectric constant tensor:
#      x y z
#    x 10.271550 0.000000 0.000000 
#    y 0.000000 3.284150 0.000000 
#    z 0.000000 0.000000 3.737280 
# 
# 
# High freq. dielectric constant tensor:
#      x y z
#    x 1.711550 0.000000 0.000000 
#    y 0.000000 1.703480 0.000000 
#    z 0.000000 0.000000 1.721260 
# 
# From -- ./inp_files/30585.got.cif
#   From: 2010.03.12/outbox.cif.g09.slc.cpg/sg59_16_cif.got.tgz:30585.got - 2010.04.16 16:29:54.
