data_PCOD8242714
_publ_section_title
;
Structure prediction by ZEFSAII (Michael W. Deem and Ramdas Pophale) SiO2 
 PCOD8242714
Probable space group: P M M N
;
_chemical_formula_sum "Si O2"
_cell_formula_units_Z 48
_cell_length_a 12.447099
_cell_length_b 9.884591
_cell_length_c 22.429849
_cell_angle_alpha 90.000000
_cell_angle_beta 90.000000
_cell_angle_gamma 90.000000
_cell_volume 2759.644870
_symmetry_space_group_name_H-M "P M M N"
_symmetry_group_IT_number 59
_space_group.IT_coordinate_system_code '2'
_symmetry_cell_setting 'orthorhombic'
loop_
_space_group_symop_operation_xyz
x,y,z
1/2-x,1/2-y,z
1/2+x,-y,-z
-x,1/2+y,-z
-x,-y,-z
1/2+x,1/2+y,-z
1/2-x,y,z
x,1/2-y,z
loop_
_atom_site_type_symbol
_atom_site_label
_atom_site_fract_x
_atom_site_fract_y
_atom_site_fract_z
Si Si1 0.627745 0.089851 0.667685
Si Si2 0.517993 0.909084 0.225244
Si Si3 0.750000 0.908968 0.391884
Si Si4 0.977365 0.910097 0.443081
Si Si5 0.371966 0.602178 0.982799
Si Si6 0.250000 0.088647 0.740232
Si Si7 0.514197 0.906681 0.092366
O O1 0.750000 0.030864 0.665522
O O2 0.633912 0.250000 0.673249
O O3 0.563213 0.029217 0.725094
O O4 0.562610 0.049743 0.608198
O O5 0.522290 0.750000 0.237048
O O6 0.640259 0.966454 0.229400
O O7 0.475040 0.944195 0.159036
O O8 0.750000 0.750000 0.384397
O O9 0.857465 0.955018 0.425184
O O10 0.750000 0.971800 0.326200
O O11 0.984346 0.750000 0.457530
O O12 0.000000 0.000000 0.500000
O O13 0.250000 0.614733 0.999210
O O14 0.418798 0.750000 0.964720
O O15 0.385319 0.498172 0.928000
O O16 0.422972 0.552775 0.045144
O O17 0.250000 0.250000 0.741972
O O18 0.548539 0.750000 0.089938
#
# Coordination Sequence:
#
# PCOD8242714 Si02
#       7
#     8   8   4   8   8   4   8
#     4   9  17  29  45  68  98 126 153 191 240 288
#     4   9  16  26  43  69  93 115 149 195 240 274
#     4   9  16  30  49  69  97 129 158 189 234 288
#     4  10  20  33  50  72  97 128 162 196 235 281
#     4   9  18  32  46  63  95 132 156 183 233 288
#     4   9  14  24  42  65  93 117 142 187 238 278
#     4   9  18  30  47  72  94 117 157 201 232 270
#
# _framework density 17.393542
#
# number of rings (size 3 to 8) (size 9 to 14) (size 15 to 20)
#    0.000    2.833    1.667    0.000    2.333    1.000 
#    0.000    3.333    0.000    1.000    0.000    0.000 
#    0.000    0.000    0.000    0.000    0.000    0.000 
#
# Total GULP energy -594727.213688 kJ/mol
# GULP energy per Si atom -12390.150285 kJ/mol
# Density = 1.735395 g / cm^3
# Si number density = 17.393542 Si / 1000 Ang^3
#
#
#
# Elastic Constant Matrix: (Units=GPa)
#
#
# Indices 1 2 3 4 5 6 
#
# 1 123.7745 21.3319 59.6787 0.0000 0.0000 0.0000
# 2 21.3319 31.0969 41.3309 0.0000 0.0000 0.0000
# 3 59.6787 41.3309 148.2542 0.0000 0.0000 0.0000
# 4 0.0000 0.0000 0.0000 22.4889 0.0000 0.0000
# 5 0.0000 0.0000 0.0000 0.0000 19.7644 0.0000
# 6 0.0000 0.0000 0.0000 0.0000 0.0000 12.4718
#
#
#
# Elastic Compliance Matrix: (Units=1/GPa)
#
#
# Indices 1 2 3 4 5 6 
#
# 1 0.010139 -0.002432 -0.003404 0.000000 0.000000 0.000000
# 2 -0.002432 0.051670 -0.013426 0.000000 0.000000 0.000000
# 3 -0.003404 -0.013426 0.011858 0.000000 0.000000 0.000000
# 4 0.000000 0.000000 0.000000 0.044466 0.000000 0.000000
# 5 0.000000 0.000000 0.000000 0.000000 0.050596 0.000000
# 6 0.000000 0.000000 0.000000 0.000000 0.000000 0.080181
#
#
# Mechanical properties :
#
#
# Convention : Reuss Voigt Hill
#
# Bulk Modulus (GPa) = 28.45337 60.86761 44.66049
# Shear Modulus (GPa) = 16.71412 22.99731 19.85572
#
# Velocity S-wave (km/s) = 3.10326 3.64012 3.38236
# Velocity P-wave (km/s) = 5.40689 7.26207 6.40203
#
# Compressibility (1/GPa) = 0.03514523
#
# Stress axis : x y z
#
# Youngs Moduli (GPa) = 98.62551 19.35355 84.32968
#
# Poissons Ratio (x) = 0.04706 0.28703
# Poissons Ratio (y) = 0.23982 1.13221
# Poissons Ratio (z) = 0.33568 0.25984
#
# Static dielectric constant tensor:
#      x y z
#    x 3.656620 0.000000 0.000000 
#    y 0.000000 2.907340 0.000000 
#    z 0.000000 0.000000 3.328030 
# 
# 
# High freq. dielectric constant tensor:
#      x y z
#    x 1.678960 0.000000 0.000000 
#    y 0.000000 1.610250 0.000000 
#    z 0.000000 0.000000 1.680480 
# 
# From -- ./inp_files/30019.got.cif
#   From: 2010.03.12/outbox.cif.g09.slc.cpg/sg59_16_cif.got.tgz:30019.got - 2010.04.16 16:29:54.
