data_PCOD8242396
_publ_section_title
;
Structure prediction by ZEFSAII (Michael W. Deem and Ramdas Pophale) SiO2 
 PCOD8242396
Probable space group: P M M N
;
_chemical_formula_sum "Si O2"
_cell_formula_units_Z 64
_cell_length_a 9.085553
_cell_length_b 19.339085
_cell_length_c 21.645015
_cell_angle_alpha 90.000000
_cell_angle_beta 90.000000
_cell_angle_gamma 90.000000
_cell_volume 3803.165104
_symmetry_space_group_name_H-M "P M M N"
_symmetry_group_IT_number 59
_space_group.IT_coordinate_system_code '2'
_symmetry_cell_setting 'orthorhombic'
loop_
_space_group_symop_operation_xyz
x,y,z
1/2-x,1/2-y,z
1/2+x,-y,-z
-x,1/2+y,-z
-x,-y,-z
1/2+x,1/2+y,-z
1/2-x,y,z
x,1/2-y,z
loop_
_atom_site_type_symbol
_atom_site_label
_atom_site_fract_x
_atom_site_fract_y
_atom_site_fract_z
Si Si1 0.421761 0.546875 0.331975
Si Si2 0.079839 0.328607 0.617132
Si Si3 0.420433 0.537708 0.190563
Si Si4 0.916745 0.326513 0.491947
Si Si5 0.915044 0.463564 0.088286
Si Si6 0.578931 0.031181 0.440256
Si Si7 0.921314 0.172734 0.879910
Si Si8 0.084735 0.105038 0.986704
O O1 0.250000 0.546421 0.348322
O O2 0.483714 0.624335 0.337799
O O3 0.452348 0.523832 0.262189
O O4 0.505661 0.495398 0.377693
O O5 0.250000 0.349506 0.621668
O O6 0.052786 0.250000 0.637612
O O7 0.029082 0.341349 0.547151
O O8 0.250000 0.528284 0.174457
O O9 0.508493 0.479137 0.153669
O O10 0.470369 0.615665 0.170981
O O11 0.750000 0.330980 0.518276
O O12 0.945954 0.250000 0.463344
O O13 0.940047 0.385381 0.440318
O O14 0.750000 0.437698 0.100903
O O15 0.916048 0.532396 0.047994
O O16 0.000970 0.403057 0.052000
O O17 0.750000 0.009553 0.441484
O O18 0.500000 0.000000 0.500000
O O19 0.750000 0.164858 0.894812
O O20 0.957851 0.250000 0.854821
O O21 0.005459 0.161812 0.944384
O O22 0.250000 0.130120 0.000241
#
# Coordination Sequence:
#
# PCOD8242396 Si02
#       8
#     8   8   8   8   8   8   8   8
#     4  11  22  34  49  70  98 134 172 208 251 307
#     4  10  20  32  47  68  94 125 162 205 249 294
#     4   9  19  33  47  65  92 128 168 204 240 287
#     4   9  18  33  52  72  93 120 155 195 245 304
#     4   9  16  27  45  67  90 117 151 193 239 279
#     4  11  21  33  52  75 100 127 159 206 260 310
#     4   9  17  30  47  67  94 128 166 204 237 274
#     4   9  16  26  43  67  93 120 151 189 233 279
#
# _framework density 16.828088999999999
#
# number of rings (size 3 to 8) (size 9 to 14) (size 15 to 20)
#    0.000    2.375    1.250    1.875    0.000    6.000 
#    0.000    1.250    0.000    0.000    0.000    0.875 
#    0.000    3.000    0.000    0.000    0.000    0.000 
#
# Total GULP energy -793469.910403 kJ/mol
# GULP energy per Si atom -12397.967350 kJ/mol
# Density = 1.678979 g / cm^3
# Si number density = 16.828089 Si / 1000 Ang^3
#
#
#
# Elastic Constant Matrix: (Units=GPa)
#
#
# Indices 1 2 3 4 5 6 
#
# 1 101.4600 31.3722 56.5754 0.0000 0.0000 0.0000
# 2 31.3722 49.9883 35.3171 0.0000 0.0000 0.0000
# 3 56.5754 35.3171 95.3310 0.0000 0.0000 0.0000
# 4 0.0000 0.0000 0.0000 20.7668 0.0000 0.0000
# 5 0.0000 0.0000 0.0000 0.0000 27.8829 0.0000
# 6 0.0000 0.0000 0.0000 0.0000 0.0000 22.9738
#
#
#
# Elastic Compliance Matrix: (Units=1/GPa)
#
#
# Indices 1 2 3 4 5 6 
#
# 1 0.015397 -0.004344 -0.007528 0.000000 0.000000 0.000000
# 2 -0.004344 0.028323 -0.007914 0.000000 0.000000 0.000000
# 3 -0.007528 -0.007914 0.017890 0.000000 0.000000 0.000000
# 4 0.000000 0.000000 0.000000 0.048154 0.000000 0.000000
# 5 0.000000 0.000000 0.000000 0.000000 0.035864 0.000000
# 6 0.000000 0.000000 0.000000 0.000000 0.000000 0.043528
#
#
# Mechanical properties :
#
#
# Convention : Reuss Voigt Hill
#
# Bulk Modulus (GPa) = 45.38150 54.81208 50.09679
# Shear Modulus (GPa) = 21.17973 22.55902 21.86937
#
# Velocity S-wave (km/s) = 3.55152 3.66533 3.60887
# Velocity P-wave (km/s) = 6.62148 7.11023 6.87020
#
# Compressibility (1/GPa) = 0.02203541
#
# Stress axis : x y z
#
# Youngs Moduli (GPa) = 64.94655 35.30723 55.89857
#
# Poissons Ratio (x) = 0.15339 0.42082
# Poissons Ratio (y) = 0.28216 0.44241
# Poissons Ratio (z) = 0.48893 0.27944
#
# Static dielectric constant tensor:
#      x y z
#    x 3.329790 0.000000 0.000000 
#    y 0.000000 3.170670 0.000000 
#    z 0.000000 0.000000 2.941990 
# 
# 
# High freq. dielectric constant tensor:
#      x y z
#    x 1.663100 0.000000 0.000000 
#    y 0.000000 1.628990 0.000000 
#    z 0.000000 0.000000 1.620910 
# 
# From -- ./inp_files/29708.got.cif
#   From: 2010.03.12/outbox.cif.g09.slc.cpg/sg59_15_cif.got.tgz:29708.got - 2010.04.16 16:29:54.
