data_PCOD8242661
_publ_section_title
;
Structure prediction by ZEFSAII (Michael W. Deem and Ramdas Pophale) SiO2 
 PCOD8242661
Probable space group: P M M N
;
_chemical_formula_sum "Si O2"
_cell_formula_units_Z 40
_cell_length_a 9.341851
_cell_length_b 13.427783
_cell_length_c 18.313092
_cell_angle_alpha 90.000000
_cell_angle_beta 90.000000
_cell_angle_gamma 90.000000
_cell_volume 2297.200634
_symmetry_space_group_name_H-M "P M M N"
_symmetry_group_IT_number 59
_space_group.IT_coordinate_system_code '2'
_symmetry_cell_setting 'orthorhombic'
loop_
_space_group_symop_operation_xyz
x,y,z
1/2-x,1/2-y,z
1/2+x,-y,-z
-x,1/2+y,-z
-x,-y,-z
1/2+x,1/2+y,-z
1/2-x,y,z
x,1/2-y,z
loop_
_atom_site_type_symbol
_atom_site_label
_atom_site_fract_x
_atom_site_fract_y
_atom_site_fract_z
Si Si1 0.085716 0.139774 0.523587
Si Si2 0.082964 0.946164 0.605344
Si Si3 0.914841 0.133507 0.239870
Si Si4 0.584355 0.635642 0.045833
Si Si5 0.082961 0.039328 0.108419
O O1 0.250000 0.124308 0.501258
O O2 0.058092 0.250000 0.555780
O O3 0.995557 0.127417 0.450086
O O4 0.042025 0.060347 0.585821
O O5 0.250000 0.924233 0.596982
O O6 0.034189 0.924541 0.687688
O O7 0.750000 0.109113 0.220668
O O8 0.936873 0.250000 0.253326
O O9 0.015375 0.097926 0.175225
O O10 0.750000 0.618037 0.065184
O O11 0.539779 0.750000 0.057330
O O12 0.489637 0.568834 0.099959
O O13 0.553095 0.606340 0.962455
O O14 0.250000 0.023273 0.122660
#
# Coordination Sequence:
#
# PCOD8242661 Si02
#       5
#     8   8   8   8   8
#     4   9  17  30  49  72  96 123 158 201 246 289
#     4   9  18  32  49  70  97 128 163 200 238 285
#     4  10  20  33  49  70  98 131 164 199 242 293
#     4   9  18  34  54  74  98 130 166 201 240 289
#     4  10  20  33  51  76 103 128 160 203 246 289
#
# _framework density 17.412499
#
# number of rings (size 3 to 8) (size 9 to 14) (size 15 to 20)
#    0.000    2.600    0.000    1.800    0.000    4.400 
#    0.000    1.000    0.000    3.600    0.000    0.000 
#    0.000    0.000    0.000    0.000    0.000    0.000 
#
# Total GULP energy -496049.372327 kJ/mol
# GULP energy per Si atom -12401.234308 kJ/mol
# Density = 1.737287 g / cm^3
# Si number density = 17.412499 Si / 1000 Ang^3
#
#
#
# Elastic Constant Matrix: (Units=GPa)
#
#
# Indices 1 2 3 4 5 6 
#
# 1 60.9962 38.0595 38.2601 0.0000 0.0000 0.0000
# 2 38.0595 104.9227 32.8780 0.0000 0.0000 0.0000
# 3 38.2601 32.8780 77.1759 0.0000 0.0000 0.0000
# 4 0.0000 0.0000 0.0000 22.5192 0.0000 0.0000
# 5 0.0000 0.0000 0.0000 0.0000 29.8373 0.0000
# 6 0.0000 0.0000 0.0000 0.0000 0.0000 26.8008
#
#
#
# Elastic Compliance Matrix: (Units=1/GPa)
#
#
# Indices 1 2 3 4 5 6 
#
# 1 0.027159 -0.006500 -0.010695 0.000000 0.000000 0.000000
# 2 -0.006500 0.012555 -0.002126 0.000000 0.000000 0.000000
# 3 -0.010695 -0.002126 0.019165 0.000000 0.000000 0.000000
# 4 0.000000 0.000000 0.000000 0.044406 0.000000 0.000000
# 5 0.000000 0.000000 0.000000 0.000000 0.033515 0.000000
# 6 0.000000 0.000000 0.000000 0.000000 0.000000 0.037312
#
#
# Mechanical properties :
#
#
# Convention : Reuss Voigt Hill
#
# Bulk Modulus (GPa) = 49.41551 51.27665 50.34608
# Shear Modulus (GPa) = 22.77900 24.75795 23.76847
#
# Velocity S-wave (km/s) = 3.62083 3.77483 3.69863
# Velocity P-wave (km/s) = 6.77654 6.96500 6.87142
#
# Compressibility (1/GPa) = 0.02023656
#
# Stress axis : x y z
#
# Youngs Moduli (GPa) = 36.82057 79.65003 52.17813
#
# Poissons Ratio (x) = 0.51774 0.55803
# Poissons Ratio (y) = 0.23934 0.11093
# Poissons Ratio (z) = 0.39379 0.16934
#
# Static dielectric constant tensor:
#      x y z
#    x 3.259570 0.000000 0.000000 
#    y 0.000000 3.425190 0.000000 
#    z 0.000000 0.000000 3.103580 
# 
# 
# High freq. dielectric constant tensor:
#      x y z
#    x 1.673070 0.000000 0.000000 
#    y 0.000000 1.681550 0.000000 
#    z 0.000000 0.000000 1.656140 
# 
# From -- ./inp_files/19853.got.cif
#   From: 2010.03.12/outbox.cif.g09.slc.cpg/sg59_10_cif.got.tgz:19853.got - 2010.04.16 16:29:54.
