data_PCOD8242014
_publ_section_title
;
Structure prediction by ZEFSAII (Michael W. Deem and Ramdas Pophale) SiO2 
 PCOD8242014
Probable space group: P M M N
;
_chemical_formula_sum "Si O2"
_cell_formula_units_Z 64
_cell_length_a 19.396446
_cell_length_b 14.265723
_cell_length_c 11.996650
_cell_angle_alpha 90.000000
_cell_angle_beta 90.000000
_cell_angle_gamma 90.000000
_cell_volume 3319.524950
_symmetry_space_group_name_H-M "P M M N"
_symmetry_group_IT_number 59
_space_group.IT_coordinate_system_code '2'
_symmetry_cell_setting 'orthorhombic'
loop_
_space_group_symop_operation_xyz
x,y,z
1/2-x,1/2-y,z
1/2+x,-y,-z
-x,1/2+y,-z
-x,-y,-z
1/2+x,1/2+y,-z
1/2-x,y,z
x,1/2-y,z
loop_
_atom_site_type_symbol
_atom_site_label
_atom_site_fract_x
_atom_site_fract_y
_atom_site_fract_z
Si Si1 0.629528 0.645874 0.737592
Si Si2 0.938027 0.359283 0.990245
Si Si3 0.172300 0.495348 0.077922
Si Si4 0.825951 0.854700 0.118830
Si Si5 0.467691 0.354680 0.788984
Si Si6 0.828874 0.643459 0.486572
Si Si7 0.968117 0.143796 0.242315
Si Si8 0.050416 0.483811 0.602808
O O1 0.647049 0.750000 0.786413
O O2 0.659439 0.561916 0.809993
O O3 0.664447 0.634855 0.618590
O O4 0.547879 0.635687 0.727992
O O5 0.919272 0.250000 0.990420
O O6 0.874493 0.413487 0.935640
O O7 0.004080 0.380605 0.911984
O O8 0.954965 0.392947 0.116019
O O9 0.250000 0.532746 0.076966
O O10 0.156841 0.425669 0.978095
O O11 0.750000 0.873365 0.171598
O O12 0.829656 0.750000 0.067816
O O13 0.884314 0.865429 0.212622
O O14 0.491123 0.250000 0.757628
O O15 0.494442 0.423079 0.692120
O O16 0.750000 0.620285 0.452682
O O17 0.848068 0.750000 0.448994
O O18 0.879992 0.569113 0.430643
O O19 0.941138 0.250000 0.255344
O O20 0.928369 0.080115 0.333508
O O21 0.000000 0.500000 0.500000
#
# Coordination Sequence:
#
# PCOD8242014 Si02
#       8
#     8   8   8   8   8   8   8   8
#     4  10  19  34  57  86 118 152 191 238 296 359
#     4  10  22  39  58  81 110 152 201 248 294 340
#     4  11  21  32  52  80 114 152 192 239 290 349
#     4   9  18  32  51  81 116 143 170 212 277 352
#     4  10  21  37  58  83 113 147 187 236 287 344
#     4  10  22  40  60  86 123 160 196 243 300 363
#     4  10  21  38  61  88 119 153 197 249 297 349
#     4  12  23  36  59  88 117 156 198 242 291 349
#
# _framework density 19.279868
#
# number of rings (size 3 to 8) (size 9 to 14) (size 15 to 20)
#    0.000    1.750    1.250    3.375    0.000    6.000 
#    0.000    1.875    0.000    1.125    0.000    0.000 
#    0.000    0.000    0.000    0.000    0.000    0.000 
#
# Total GULP energy -793429.227376 kJ/mol
# GULP energy per Si atom -12397.331678 kJ/mol
# Density = 1.923599 g / cm^3
# Si number density = 19.279868 Si / 1000 Ang^3
#
#
#
# Elastic Constant Matrix: (Units=GPa)
#
#
# Indices 1 2 3 4 5 6 
#
# 1 91.5300 52.1014 37.9880 0.0000 0.0000 0.0000
# 2 52.1014 98.9088 62.1871 0.0000 0.0000 0.0000
# 3 37.9880 62.1871 109.2080 0.0000 0.0000 0.0000
# 4 0.0000 0.0000 0.0000 38.5339 0.0000 0.0000
# 5 0.0000 0.0000 0.0000 0.0000 15.6907 0.0000
# 6 0.0000 0.0000 0.0000 0.0000 0.0000 25.6244
#
#
#
# Elastic Compliance Matrix: (Units=1/GPa)
#
#
# Indices 1 2 3 4 5 6 
#
# 1 0.015700 -0.007534 -0.001171 0.000000 0.000000 0.000000
# 2 -0.007534 0.019364 -0.008406 0.000000 0.000000 0.000000
# 3 -0.001171 -0.008406 0.014351 0.000000 0.000000 0.000000
# 4 0.000000 0.000000 0.000000 0.025951 0.000000 0.000000
# 5 0.000000 0.000000 0.000000 0.000000 0.063732 0.000000
# 6 0.000000 0.000000 0.000000 0.000000 0.000000 0.039025
#
#
# Mechanical properties :
#
#
# Convention : Reuss Voigt Hill
#
# Bulk Modulus (GPa) = 65.82006 67.13332 66.47669
# Shear Modulus (GPa) = 22.99813 25.79451 24.39632
#
# Velocity S-wave (km/s) = 3.45752 3.66170 3.56107
# Velocity P-wave (km/s) = 7.08186 7.26453 7.17377
#
# Compressibility (1/GPa) = 0.01519294
#
# Stress axis : x y z
#
# Youngs Moduli (GPa) = 63.69476 51.64263 69.68222
#
# Poissons Ratio (x) = 0.38906 0.08161
# Poissons Ratio (y) = 0.47986 0.58574
# Poissons Ratio (z) = 0.07460 0.43410
#
# Static dielectric constant tensor:
#      x y z
#    x 3.469110 0.000000 0.000000 
#    y 0.000000 4.628310 0.000000 
#    z 0.000000 0.000000 3.541180 
# 
# 
# High freq. dielectric constant tensor:
#      x y z
#    x 1.735480 0.000000 0.000000 
#    y 0.000000 1.751990 0.000000 
#    z 0.000000 0.000000 1.753710 
# 
# From -- ./inp_files/17873.got.cif
#   From: 2010.03.12/outbox.cif.g09.slc.cpg/sg59_9_cif.got.tgz:17873.got - 2010.04.16 16:29:54.
