data_PCOD8242418
_publ_section_title
;
Structure prediction by ZEFSAII (Michael W. Deem and Ramdas Pophale) SiO2 
 PCOD8242418
Probable space group: P M M N
;
_chemical_formula_sum "Si O2"
_cell_formula_units_Z 56
_cell_length_a 15.011797
_cell_length_b 9.412599
_cell_length_c 21.646365
_cell_angle_alpha 90.000000
_cell_angle_beta 90.000000
_cell_angle_gamma 90.000000
_cell_volume 3058.631925
_symmetry_space_group_name_H-M "P M M N"
_symmetry_group_IT_number 59
_space_group.IT_coordinate_system_code '2'
_symmetry_cell_setting 'orthorhombic'
loop_
_space_group_symop_operation_xyz
x,y,z
1/2-x,1/2-y,z
1/2+x,-y,-z
-x,1/2+y,-z
-x,-y,-z
1/2+x,1/2+y,-z
1/2-x,y,z
x,1/2-y,z
loop_
_atom_site_type_symbol
_atom_site_label
_atom_site_fract_x
_atom_site_fract_y
_atom_site_fract_z
Si Si1 0.651703 0.918851 0.555445
Si Si2 0.849786 0.919962 0.881403
Si Si3 0.647693 0.918986 0.147685
Si Si4 0.000822 0.415129 0.353720
Si Si5 0.646772 0.586201 0.416426
Si Si6 0.998989 0.584854 0.787710
Si Si7 0.355290 0.095164 0.986059
O O1 0.750000 0.978617 0.572525
O O2 0.655190 0.750000 0.558238
O O3 0.579959 0.979200 0.603888
O O4 0.625808 0.966432 0.486121
O O5 0.750000 0.974560 0.865156
O O6 0.848864 0.750000 0.885209
O O7 0.917394 0.973822 0.829095
O O8 0.881618 0.982171 0.949083
O O9 0.750000 0.956727 0.162508
O O10 0.633211 0.750000 0.150637
O O11 0.619563 0.980016 0.079120
O O12 0.587816 0.996823 0.198162
O O13 0.985969 0.250000 0.367935
O O14 0.909282 0.494569 0.368288
O O15 0.028006 0.440756 0.283012
O O16 0.750000 0.563061 0.400668
O O17 0.620124 0.750000 0.408578
O O18 0.017804 0.750000 0.801083
O O19 0.250000 0.115377 0.986658
O O20 0.401042 0.250000 0.985509
#
# Coordination Sequence:
#
# PCOD8242418 Si02
#       7
#     8   8   8   8   8   8   8
#     4   8  15  30  52  75  96 119 151 192 234 273
#     4   8  14  27  47  69  94 122 152 190 234 279
#     4   9  18  33  51  68  88 120 162 200 233 275
#     4  10  20  32  47  70 100 129 154 185 228 276
#     4   9  18  33  53  74  93 118 156 197 233 270
#     4  10  21  32  44  70 101 126 155 188 227 276
#     4   7  11  23  45  69  88 111 150 197 237 271
#
# _framework density 18.30884
#
# number of rings (size 3 to 8) (size 9 to 14) (size 15 to 20)
#    0.000    3.286    0.000    3.000    0.000    2.857 
#    0.000    5.714    0.000    1.714    0.000    4.000 
#    0.000    0.000    0.000    0.000    0.000    0.000 
#
# Total GULP energy -693875.086237 kJ/mol
# GULP energy per Si atom -12390.626540 kJ/mol
# Density = 1.826717 g / cm^3
# Si number density = 18.308840 Si / 1000 Ang^3
#
#
#
# Elastic Constant Matrix: (Units=GPa)
#
#
# Indices 1 2 3 4 5 6 
#
# 1 72.5577 24.2171 31.2950 0.0000 0.0000 0.0000
# 2 24.2171 25.4063 21.6835 0.0000 0.0000 0.0000
# 3 31.2950 21.6835 74.6760 0.0000 0.0000 0.0000
# 4 0.0000 0.0000 0.0000 17.8266 0.0000 0.0000
# 5 0.0000 0.0000 0.0000 0.0000 29.6271 0.0000
# 6 0.0000 0.0000 0.0000 0.0000 0.0000 20.8077
#
#
#
# Elastic Compliance Matrix: (Units=1/GPa)
#
#
# Indices 1 2 3 4 5 6 
#
# 1 0.021069 -0.016681 -0.003986 0.000000 0.000000 0.000000
# 2 -0.016681 0.065535 -0.012039 0.000000 0.000000 0.000000
# 3 -0.003986 -0.012039 0.018557 0.000000 0.000000 0.000000
# 4 0.000000 0.000000 0.000000 0.056096 0.000000 0.000000
# 5 0.000000 0.000000 0.000000 0.000000 0.033753 0.000000
# 6 0.000000 0.000000 0.000000 0.000000 0.000000 0.048059
#
#
# Mechanical properties :
#
#
# Convention : Reuss Voigt Hill
#
# Bulk Modulus (GPa) = 25.15707 36.33679 30.74693
# Shear Modulus (GPa) = 15.54102 20.01525 17.77813
#
# Velocity S-wave (km/s) = 2.91662 3.30995 3.11949
# Velocity P-wave (km/s) = 5.01123 5.87344 5.45939
#
# Compressibility (1/GPa) = 0.03975025
#
# Stress axis : x y z
#
# Youngs Moduli (GPa) = 47.46391 15.25904 53.88731
#
# Poissons Ratio (x) = 0.25453 0.21479
# Poissons Ratio (y) = 0.79173 0.64874
# Poissons Ratio (z) = 0.18918 0.18370
#
# Static dielectric constant tensor:
#      x y z
#    x 3.375920 0.000000 0.000000 
#    y 0.000000 2.847790 0.000000 
#    z 0.000000 0.000000 3.592710 
# 
# 
# High freq. dielectric constant tensor:
#      x y z
#    x 1.705200 0.000000 0.000000 
#    y 0.000000 1.653810 0.000000 
#    z 0.000000 0.000000 1.719570 
# 
# From -- ./inp_files/30048.got.cif
#   From: 2010.03.12/outbox.cif.g09.slc.cpg/sg59_16_cif.got.tgz:30048.got - 2010.04.16 16:29:54.
