data_PCOD8242213
_publ_section_title
;
Structure prediction by ZEFSAII (Michael W. Deem and Ramdas Pophale) SiO2 
 PCOD8242213
Probable space group: P M M N
;
_chemical_formula_sum "Si O2"
_cell_formula_units_Z 48
_cell_length_a 10.100476
_cell_length_b 8.901146
_cell_length_c 28.920149
_cell_angle_alpha 90.000000
_cell_angle_beta 90.000000
_cell_angle_gamma 90.000000
_cell_volume 2600.089466
_symmetry_space_group_name_H-M "P M M N"
_symmetry_group_IT_number 59
_space_group.IT_coordinate_system_code '2'
_symmetry_cell_setting 'orthorhombic'
loop_
_space_group_symop_operation_xyz
x,y,z
1/2-x,1/2-y,z
1/2+x,-y,-z
-x,1/2+y,-z
-x,-y,-z
1/2+x,1/2+y,-z
1/2-x,y,z
x,1/2-y,z
loop_
_atom_site_type_symbol
_atom_site_label
_atom_site_fract_x
_atom_site_fract_y
_atom_site_fract_z
Si Si1 0.401290 0.574544 0.366860
Si Si2 0.901482 0.573426 0.536126
Si Si3 0.096715 0.575141 0.704469
Si Si4 0.250000 0.427115 0.056918
Si Si5 0.250000 0.071569 0.952927
Si Si6 0.497403 0.926427 0.102698
Si Si7 0.097624 0.080309 0.798277
O O1 0.250000 0.539756 0.351607
O O2 0.422036 0.750000 0.375764
O O3 0.437241 0.488153 0.413560
O O4 0.501807 0.520655 0.327935
O O5 0.750000 0.532465 0.522974
O O6 0.924628 0.750000 0.536206
O O7 0.000000 0.500000 0.500000
O O8 0.250000 0.534955 0.693649
O O9 0.068556 0.750000 0.696790
O O10 0.061982 0.533241 0.757163
O O11 0.250000 0.250000 0.054289
O O12 0.375001 0.481464 0.084907
O O13 0.250000 0.494008 0.004926
O O14 0.250000 0.250000 0.952702
O O15 0.122128 0.011882 0.925937
O O16 0.475988 0.750000 0.094516
O O17 0.512162 0.962238 0.157004
O O18 0.250000 0.066855 0.813168
O O19 0.066340 0.250000 0.781656
#
# Coordination Sequence:
#
# PCOD8242213 Si02
#       7
#     8   8   8   4   4   8   8
#     4  10  21  38  59  83 112 148 190 233 276 326
#     4  10  21  37  58  84 115 152 192 234 281 331
#     4  10  21  36  56  83 113 143 177 223 277 332
#     4  11  23  35  49  79 117 143 171 219 270 321
#     4   9  18  35  59  81 103 137 183 225 266 319
#     4  10  19  36  59  79 103 140 181 222 268 322
#     4   9  17  33  58  82 102 133 180 228 270 318
#
# _framework density 18.460903999999999
#
# number of rings (size 3 to 8) (size 9 to 14) (size 15 to 20)
#    0.000    2.167    0.833    2.250    0.000    4.333 
#    1.500    1.250    0.000    0.000    0.000    0.000 
#    0.000    0.000    0.000    0.000    0.000    0.000 
#
# Total GULP energy -595298.541223 kJ/mol
# GULP energy per Si atom -12402.052942 kJ/mol
# Density = 1.841889 g / cm^3
# Si number density = 18.460904 Si / 1000 Ang^3
#
#
#
# Elastic Constant Matrix: (Units=GPa)
#
#
# Indices 1 2 3 4 5 6 
#
# 1 114.6766 42.1361 68.8146 0.0000 0.0000 0.0000
# 2 42.1361 63.7631 43.4140 0.0000 0.0000 0.0000
# 3 68.8146 43.4140 113.3836 0.0000 0.0000 0.0000
# 4 0.0000 0.0000 0.0000 33.2083 0.0000 0.0000
# 5 0.0000 0.0000 0.0000 0.0000 32.8293 0.0000
# 6 0.0000 0.0000 0.0000 0.0000 0.0000 57.7764
#
#
#
# Elastic Compliance Matrix: (Units=1/GPa)
#
#
# Indices 1 2 3 4 5 6 
#
# 1 0.014788 -0.004952 -0.007079 0.000000 0.000000 0.000000
# 2 -0.004952 0.022872 -0.005752 0.000000 0.000000 0.000000
# 3 -0.007079 -0.005752 0.015318 0.000000 0.000000 0.000000
# 4 0.000000 0.000000 0.000000 0.030113 0.000000 0.000000
# 5 0.000000 0.000000 0.000000 0.000000 0.030461 0.000000
# 6 0.000000 0.000000 0.000000 0.000000 0.000000 0.017308
#
#
# Mechanical properties :
#
#
# Convention : Reuss Voigt Hill
#
# Bulk Modulus (GPa) = 57.43189 66.72806 62.07997
# Shear Modulus (GPa) = 29.03116 33.92671 31.47894
#
# Velocity S-wave (km/s) = 3.96987 4.29156 4.13385
# Velocity P-wave (km/s) = 7.22432 7.79620 7.51570
#
# Compressibility (1/GPa) = 0.01741193
#
# Stress axis : x y z
#
# Youngs Moduli (GPa) = 67.62462 43.72171 65.28235
#
# Poissons Ratio (x) = 0.21653 0.46211
# Poissons Ratio (y) = 0.33490 0.37549
# Poissons Ratio (z) = 0.47869 0.25148
#
# Static dielectric constant tensor:
#      x y z
#    x 3.367800 0.000000 0.000000 
#    y 0.000000 3.389870 0.000000 
#    z 0.000000 0.000000 1.569400 
# 
# 
# High freq. dielectric constant tensor:
#      x y z
#    x 1.714740 0.000000 0.000000 
#    y 0.000000 1.713450 0.000000 
#    z 0.000000 0.000000 1.723860 
# 
# From -- ./inp_files/32948.got.cif
#   From: 2010.03.12/outbox.cif.g09.slc.cpg/sg59_17_cif.got.tgz:32948.got - 2010.04.16 16:29:54.
