data_PCOD8242785
_publ_section_title
;
Structure prediction by ZEFSAII (Michael W. Deem and Ramdas Pophale) SiO2 
 PCOD8242785
Probable space group: P M M N
;
_chemical_formula_sum "Si O2"
_cell_formula_units_Z 48
_cell_length_a 8.921862
_cell_length_b 20.478725
_cell_length_c 14.830704
_cell_angle_alpha 90.000000
_cell_angle_beta 90.000000
_cell_angle_gamma 90.000000
_cell_volume 2709.693582
_symmetry_space_group_name_H-M "P M M N"
_symmetry_group_IT_number 59
_space_group.IT_coordinate_system_code '2'
_symmetry_cell_setting 'orthorhombic'
loop_
_space_group_symop_operation_xyz
x,y,z
1/2-x,1/2-y,z
1/2+x,-y,-z
-x,1/2+y,-z
-x,-y,-z
1/2+x,1/2+y,-z
1/2-x,y,z
x,1/2-y,z
loop_
_atom_site_type_symbol
_atom_site_label
_atom_site_fract_x
_atom_site_fract_y
_atom_site_fract_z
Si Si1 0.423348 0.322106 0.389182
Si Si2 0.926582 0.045359 0.425882
Si Si3 0.575817 0.011923 0.224899
Si Si4 0.574056 0.448115 0.932395
Si Si5 0.580143 0.821867 0.003171
Si Si6 0.081721 0.138909 0.191731
O O1 0.250000 0.334952 0.411782
O O2 0.471951 0.250000 0.425464
O O3 0.517304 0.379883 0.435946
O O4 0.451744 0.320354 0.281803
O O5 0.750000 0.045842 0.438868
O O6 0.973281 0.014684 0.329549
O O7 0.000000 0.000000 0.500000
O O8 0.750000 0.996573 0.214193
O O9 0.483221 0.957560 0.170274
O O10 0.538354 0.081298 0.179973
O O11 0.750000 0.458810 0.937341
O O12 0.500000 0.500000 0.000000
O O13 0.534562 0.374146 0.957632
O O14 0.750000 0.842325 0.029081
O O15 0.542212 0.750000 0.042544
O O16 0.564936 0.815546 0.895042
O O17 0.250000 0.108748 0.196827
#
# Coordination Sequence:
#
# PCOD8242785 Si02
#       6
#     8   8   8   8   8   8
#     4   9  17  30  50  77 109 142 174 210 258 319
#     4  10  21  36  56  81 109 139 175 220 269 320
#     4  10  20  34  53  78 105 136 176 221 265 312
#     4  12  23  35  53  76 105 142 183 223 262 310
#     4  10  20  33  50  74 106 143 181 221 266 315
#     4   9  16  28  48  74 105 140 174 208 253 312
#
# _framework density 17.714181
#
# number of rings (size 3 to 8) (size 9 to 14) (size 15 to 20)
#    0.000    2.000    1.667    3.000    0.000    4.667 
#    0.000    0.000    0.000    4.000    0.000    7.000 
#    0.000    0.000    0.000    0.000    0.000    0.000 
#
# Total GULP energy -595055.626691 kJ/mol
# GULP energy per Si atom -12396.992223 kJ/mol
# Density = 1.767386 g / cm^3
# Si number density = 17.714181 Si / 1000 Ang^3
#
#
#
# Elastic Constant Matrix: (Units=GPa)
#
#
# Indices 1 2 3 4 5 6 
#
# 1 93.9981 53.4809 43.2558 0.0000 0.0000 0.0000
# 2 53.4809 121.6637 55.1119 0.0000 0.0000 0.0000
# 3 43.2558 55.1119 71.7844 0.0000 0.0000 0.0000
# 4 0.0000 0.0000 0.0000 23.4247 0.0000 0.0000
# 5 0.0000 0.0000 0.0000 0.0000 24.0120 0.0000
# 6 0.0000 0.0000 0.0000 0.0000 0.0000 30.5800
#
#
#
# Elastic Compliance Matrix: (Units=1/GPa)
#
#
# Indices 1 2 3 4 5 6 
#
# 1 0.015935 -0.004071 -0.006477 0.000000 0.000000 0.000000
# 2 -0.004071 0.013642 -0.008021 0.000000 0.000000 0.000000
# 3 -0.006477 -0.008021 0.023991 0.000000 0.000000 0.000000
# 4 0.000000 0.000000 0.000000 0.042690 0.000000 0.000000
# 5 0.000000 0.000000 0.000000 0.000000 0.041646 0.000000
# 6 0.000000 0.000000 0.000000 0.000000 0.000000 0.032701
#
#
# Mechanical properties :
#
#
# Convention : Reuss Voigt Hill
#
# Bulk Modulus (GPa) = 60.85746 65.68260 63.27003
# Shear Modulus (GPa) = 23.45007 24.64318 24.04663
#
# Velocity S-wave (km/s) = 3.64236 3.73387 3.68840
# Velocity P-wave (km/s) = 7.21934 7.46650 7.34396
#
# Compressibility (1/GPa) = 0.01643184
#
# Stress axis : x y z
#
# Youngs Moduli (GPa) = 62.75440 73.30274 41.68211
#
# Poissons Ratio (x) = 0.29841 0.26997
# Poissons Ratio (y) = 0.25547 0.33431
# Poissons Ratio (z) = 0.40645 0.58793
#
# Static dielectric constant tensor:
#      x y z
#    x 3.309300 0.000000 0.000000 
#    y 0.000000 3.288330 0.000000 
#    z 0.000000 0.000000 3.202650 
# 
# 
# High freq. dielectric constant tensor:
#      x y z
#    x 1.686420 0.000000 0.000000 
#    y 0.000000 1.678590 0.000000 
#    z 0.000000 0.000000 1.658130 
# 
# From -- ./inp_files/20400.got.cif
#   From: 2010.03.12/outbox.cif.g09.slc.cpg/sg59_11_cif.got.tgz:20400.got - 2010.04.16 16:29:54.
