data_PCOD8242603
_publ_section_title
;
Structure prediction by ZEFSAII (Michael W. Deem and Ramdas Pophale) SiO2 
 PCOD8242603
Probable space group: P M M N
;
_chemical_formula_sum "Si O2"
_cell_formula_units_Z 64
_cell_length_a 9.407342
_cell_length_b 13.654526
_cell_length_c 30.482214
_cell_angle_alpha 90.000000
_cell_angle_beta 90.000000
_cell_angle_gamma 90.000000
_cell_volume 3915.525614
_symmetry_space_group_name_H-M "P M M N"
_symmetry_group_IT_number 59
_space_group.IT_coordinate_system_code '2'
_symmetry_cell_setting 'orthorhombic'
loop_
_space_group_symop_operation_xyz
x,y,z
1/2-x,1/2-y,z
1/2+x,-y,-z
-x,1/2+y,-z
-x,-y,-z
1/2+x,1/2+y,-z
1/2-x,y,z
x,1/2-y,z
loop_
_atom_site_type_symbol
_atom_site_label
_atom_site_fract_x
_atom_site_fract_y
_atom_site_fract_z
Si Si1 0.083622 0.362836 0.623969
Si Si2 0.415743 0.549629 0.937124
Si Si3 0.909766 0.996542 0.681496
Si Si4 0.081692 0.138203 0.239782
Si Si5 0.413436 0.636980 0.846375
Si Si6 0.413760 0.140731 0.986718
Si Si7 0.406949 0.360929 0.400765
Si Si8 0.416648 0.503246 0.545033
O O1 0.250000 0.374411 0.632689
O O2 0.036566 0.250000 0.620961
O O3 0.042807 0.412971 0.577378
O O4 0.005741 0.412501 0.665528
O O5 0.250000 0.572511 0.942693
O O6 0.463376 0.570999 0.887417
O O7 0.496403 0.622219 0.969695
O O8 0.453432 0.436690 0.948516
O O9 0.750000 0.036120 0.689654
O O10 0.970827 0.941653 0.724488
O O11 0.910078 0.913975 0.645131
O O12 0.250000 0.132592 0.234367
O O13 0.036466 0.250000 0.252478
O O14 0.009498 0.106075 0.194535
O O15 0.250000 0.616485 0.834028
O O16 0.436808 0.750000 0.859098
O O17 0.250000 0.128834 0.000142
O O18 0.446046 0.250000 0.968946
O O19 0.250000 0.374364 0.422729
O O20 0.440551 0.250000 0.390163
O O21 0.531573 0.397405 0.432317
O O22 0.500000 0.500000 0.500000
O O23 0.250000 0.507473 0.535520
#
# Coordination Sequence:
#
# PCOD8242603 Si02
#       8
#     8   8   8   8   8   8   8   8
#     4   9  19  35  52  69  91 121 155 190 228 267
#     4   9  17  29  44  62  87 119 151 185 226 270
#     4   9  17  30  49  72  94 116 146 184 223 265
#     4   9  17  29  46  69  96 123 148 177 219 270
#     4   9  17  28  42  62  88 118 152 186 220 263
#     4   9  17  28  43  64  87 112 147 190 231 270
#     4   9  17  30  48  68  91 119 147 177 218 266
#     4  10  20  33  48  68  94 122 153 188 224 264
#
# _framework density 16.345188
#
# number of rings (size 3 to 8) (size 9 to 14) (size 15 to 20)
#    0.000    2.875    0.000    1.125    0.000    4.750 
#    0.000    2.500    0.000    3.000    0.000    1.750 
#    0.000    0.000    0.000    0.000    0.000    0.000 
#
# Total GULP energy -793365.258015 kJ/mol
# GULP energy per Si atom -12396.332156 kJ/mol
# Density = 1.630799 g / cm^3
# Si number density = 16.345188 Si / 1000 Ang^3
#
#
#
# Elastic Constant Matrix: (Units=GPa)
#
#
# Indices 1 2 3 4 5 6 
#
# 1 50.8303 38.5356 44.9623 0.0000 0.0000 0.0000
# 2 38.5356 102.9154 49.4355 0.0000 0.0000 0.0000
# 3 44.9623 49.4355 107.8508 0.0000 0.0000 0.0000
# 4 0.0000 0.0000 0.0000 19.4451 0.0000 0.0000
# 5 0.0000 0.0000 0.0000 0.0000 30.3973 0.0000
# 6 0.0000 0.0000 0.0000 0.0000 0.0000 23.3426
#
#
#
# Elastic Compliance Matrix: (Units=1/GPa)
#
#
# Indices 1 2 3 4 5 6 
#
# 1 0.035610 -0.007954 -0.011200 0.000000 0.000000 0.000000
# 2 -0.007954 0.014237 -0.003210 0.000000 0.000000 0.000000
# 3 -0.011200 -0.003210 0.015412 0.000000 0.000000 0.000000
# 4 0.000000 0.000000 0.000000 0.051427 0.000000 0.000000
# 5 0.000000 0.000000 0.000000 0.000000 0.032898 0.000000
# 6 0.000000 0.000000 0.000000 0.000000 0.000000 0.042840
#
#
# Mechanical properties :
#
#
# Convention : Reuss Voigt Hill
#
# Bulk Modulus (GPa) = 48.70353 58.60703 53.65528
# Shear Modulus (GPa) = 20.49218 23.21455 21.85336
#
# Velocity S-wave (km/s) = 3.54462 3.77273 3.66045
# Velocity P-wave (km/s) = 6.82745 7.41024 7.12481
#
# Compressibility (1/GPa) = 0.02053239
#
# Stress axis : x y z
#
# Youngs Moduli (GPa) = 28.08171 70.24031 64.88263
#
# Poissons Ratio (x) = 0.55870 0.72667
# Poissons Ratio (y) = 0.22336 0.20826
# Poissons Ratio (z) = 0.31451 0.22545
#
# Static dielectric constant tensor:
#      x y z
#    x 3.396320 0.000000 0.000000 
#    y 0.000000 3.194700 0.000000 
#    z 0.000000 0.000000 3.095270 
# 
# 
# High freq. dielectric constant tensor:
#      x y z
#    x 1.629050 0.000000 0.000000 
#    y 0.000000 1.620850 0.000000 
#    z 0.000000 0.000000 1.618100 
# 
# From -- ./inp_files/33199.got.cif
#   From: 2010.03.12/outbox.cif.g09.slc.cpg/sg59_17_cif.got.tgz:33199.got - 2010.04.16 16:29:54.
