data_PCOD8242016
_publ_section_title
;
Structure prediction by ZEFSAII (Michael W. Deem and Ramdas Pophale) SiO2 
 PCOD8242016
Probable space group: P M M N
;
_chemical_formula_sum "Si O2"
_cell_formula_units_Z 64
_cell_length_a 14.669359
_cell_length_b 23.260437
_cell_length_c 9.305742
_cell_angle_alpha 90.000000
_cell_angle_beta 90.000000
_cell_angle_gamma 90.000000
_cell_volume 3175.265278
_symmetry_space_group_name_H-M "P M M N"
_symmetry_group_IT_number 59
_space_group.IT_coordinate_system_code '2'
_symmetry_cell_setting 'orthorhombic'
loop_
_space_group_symop_operation_xyz
x,y,z
1/2-x,1/2-y,z
1/2+x,-y,-z
-x,1/2+y,-z
-x,-y,-z
1/2+x,1/2+y,-z
1/2-x,y,z
x,1/2-y,z
loop_
_atom_site_type_symbol
_atom_site_label
_atom_site_fract_x
_atom_site_fract_y
_atom_site_fract_z
Si Si1 0.527663 0.983874 0.344035
Si Si2 0.643281 0.089896 0.340828
Si Si3 0.092654 0.996364 0.084294
Si Si4 0.149161 0.624453 0.974436
Si Si5 0.507855 0.635710 0.441756
Si Si6 0.351886 0.377973 0.035896
Si Si7 0.495537 0.184733 0.855111
Si Si8 0.144476 0.316935 0.325200
O O1 0.436306 0.993644 0.250584
O O2 0.553411 0.916854 0.351760
O O3 0.500000 0.000000 0.500000
O O4 0.612649 0.024485 0.300623
O O5 0.750000 0.089965 0.385806
O O6 0.582557 0.117718 0.468271
O O7 0.626295 0.125647 0.195343
O O8 0.146951 0.939842 0.039055
O O9 0.150491 0.053073 0.049828
O O10 0.000000 0.000000 0.000000
O O11 0.250000 0.648418 0.998646
O O12 0.084280 0.668083 0.055485
O O13 0.482487 0.680121 0.315103
O O14 0.584230 0.662950 0.541869
O O15 0.250000 0.355897 0.005556
O O16 0.388927 0.351080 0.184471
O O17 0.414019 0.357270 0.904444
O O18 0.468561 0.250000 0.890634
O O19 0.250000 0.330511 0.360220
O O20 0.128722 0.250000 0.296446
#
# Coordination Sequence:
#
# PCOD8242016 Si02
#       8
#     8   8   8   8   8   8   8   8
#     4  10  19  34  57  88 125 162 197 247 308 376
#     4  10  22  39  62  90 123 163 206 252 310 373
#     4  12  19  38  63  92 128 163 200 255 316 378
#     4  11  23  41  65  93 125 163 210 263 315 372
#     4  11  22  40  61  88 125 167 207 254 311 369
#     4  11  23  40  66  97 126 162 208 258 316 377
#     4  12  25  42  64  91 126 167 209 259 314 369
#     4  10  22  41  64  89 120 162 214 263 306 366
#
# _framework density 20.155795000000001
#
# number of rings (size 3 to 8) (size 9 to 14) (size 15 to 20)
#    0.000    1.125    3.750    3.375    0.000    2.500 
#    0.000    2.500    0.000    2.625    0.000    0.000 
#    0.000    0.000    0.000    0.000    0.000    0.000 
#
# Total GULP energy -793445.026718 kJ/mol
# GULP energy per Si atom -12397.578542 kJ/mol
# Density = 2.010992 g / cm^3
# Si number density = 20.155795 Si / 1000 Ang^3
#
#
#
# Elastic Constant Matrix: (Units=GPa)
#
#
# Indices 1 2 3 4 5 6 
#
# 1 88.1604 3.5406 45.3977 0.0000 0.0000 0.0000
# 2 3.5406 74.8065 18.3296 0.0000 0.0000 0.0000
# 3 45.3977 18.3296 115.3588 0.0000 0.0000 0.0000
# 4 0.0000 0.0000 0.0000 29.1934 0.0000 0.0000
# 5 0.0000 0.0000 0.0000 0.0000 21.3726 0.0000
# 6 0.0000 0.0000 0.0000 0.0000 0.0000 11.9786
#
#
#
# Elastic Compliance Matrix: (Units=1/GPa)
#
#
# Indices 1 2 3 4 5 6 
#
# 1 0.014264 0.000729 -0.005729 0.000000 0.000000 0.000000
# 2 0.000729 0.013947 -0.002503 0.000000 0.000000 0.000000
# 3 -0.005729 -0.002503 0.011321 0.000000 0.000000 0.000000
# 4 0.000000 0.000000 0.000000 0.034254 0.000000 0.000000
# 5 0.000000 0.000000 0.000000 0.000000 0.046789 0.000000
# 6 0.000000 0.000000 0.000000 0.000000 0.000000 0.083482
#
#
# Mechanical properties :
#
#
# Convention : Reuss Voigt Hill
#
# Bulk Modulus (GPa) = 40.77484 45.87351 43.32418
# Shear Modulus (GPa) = 22.00335 26.57945 24.29140
#
# Velocity S-wave (km/s) = 3.30762 3.63533 3.47534
# Velocity P-wave (km/s) = 5.90431 6.35844 6.13558
#
# Compressibility (1/GPa) = 0.02452493
#
# Stress axis : x y z
#
# Youngs Moduli (GPa) = 70.10717 71.70223 88.33238
#
# Poissons Ratio (x) = -0.05225 0.50607
# Poissons Ratio (y) = -0.05108 0.22107
# Poissons Ratio (z) = 0.40165 0.17945
#
# Static dielectric constant tensor:
#      x y z
#    x 2.879050 0.000000 0.000000 
#    y 0.000000 4.180550 0.000000 
#    z 0.000000 0.000000 3.086280 
# 
# 
# High freq. dielectric constant tensor:
#      x y z
#    x 1.777650 0.000000 0.000000 
#    y 0.000000 1.783950 0.000000 
#    z 0.000000 0.000000 1.801950 
# 
# From -- ./inp_files/9564.got.cif
#   From: 2010.03.12/outbox.cif.g09.slc.cpg/sg59_5_cif.got.tgz:9564.got - 2010.04.16 16:29:54.
