data_PCOD8242381
_publ_section_title
;
Structure prediction by ZEFSAII (Michael W. Deem and Ramdas Pophale) SiO2 
 PCOD8242381
Probable space group: P M M N
;
_chemical_formula_sum "Si O2"
_cell_formula_units_Z 64
_cell_length_a 12.967728
_cell_length_b 13.564253
_cell_length_c 19.852255
_cell_angle_alpha 90.000000
_cell_angle_beta 90.000000
_cell_angle_gamma 90.000000
_cell_volume 3491.962886
_symmetry_space_group_name_H-M "P M M N"
_symmetry_group_IT_number 59
_space_group.IT_coordinate_system_code '2'
_symmetry_cell_setting 'orthorhombic'
loop_
_space_group_symop_operation_xyz
x,y,z
1/2-x,1/2-y,z
1/2+x,-y,-z
-x,1/2+y,-z
-x,-y,-z
1/2+x,1/2+y,-z
1/2-x,y,z
x,1/2-y,z
loop_
_atom_site_type_symbol
_atom_site_label
_atom_site_fract_x
_atom_site_fract_y
_atom_site_fract_z
Si Si1 0.629329 0.986368 0.082130
Si Si2 0.366098 0.864793 0.271098
Si Si3 0.637405 0.863401 0.864326
Si Si4 0.501556 0.362381 0.008867
Si Si5 0.633963 0.006086 0.598945
Si Si6 0.483628 0.517638 0.783085
Si Si7 0.130263 0.641602 0.516349
Si Si8 0.969180 0.365651 0.347184
O O1 0.750000 0.959161 0.075263
O O2 0.551807 0.898057 0.060453
O O3 0.605129 0.009410 0.160320
O O4 0.603450 0.077913 0.032024
O O5 0.250000 0.881773 0.240856
O O6 0.391829 0.750000 0.274959
O O7 0.370623 0.909262 0.345215
O O8 0.458093 0.913712 0.227513
O O9 0.750000 0.913191 0.867072
O O10 0.647306 0.750000 0.847587
O O11 0.573288 0.908019 0.803939
O O12 0.585386 0.881713 0.935800
O O13 0.535747 0.250000 0.001013
O O14 0.750000 0.970622 0.584987
O O15 0.583352 0.056612 0.532152
O O16 0.575623 0.907407 0.622109
O O17 0.434017 0.567480 0.716588
O O18 0.250000 0.646785 0.499571
O O19 0.080361 0.750000 0.501652
O O20 0.115932 0.616871 0.595166
O O21 0.980392 0.250000 0.327711
#
# Coordination Sequence:
#
# PCOD8242381 Si02
#       8
#     8   8   8   8   8   8   8   8
#     4  10  21  36  55  78 104 135 170 206 247 297
#     4   9  17  30  48  69  94 125 162 205 252 298
#     4   9  16  28  49  73  96 125 158 193 240 296
#     4   9  19  36  56  78 102 127 163 211 256 297
#     4   9  17  30  49  71  94 122 158 204 254 297
#     4  10  20  32  46  69 102 134 165 198 237 289
#     4   9  17  30  49  71  93 121 161 205 246 288
#     4  10  20  32  46  68  99 132 164 198 238 287
#
# _framework density 18.327801999999998
#
# number of rings (size 3 to 8) (size 9 to 14) (size 15 to 20)
#    0.000    2.625    0.000    1.875    0.000    4.750 
#    0.000    0.625    0.000    0.000    0.000    0.000 
#    0.000    0.000    0.000    0.000    0.000    0.000 
#
# Total GULP energy -793155.141053 kJ/mol
# GULP energy per Si atom -12393.049079 kJ/mol
# Density = 1.828609 g / cm^3
# Si number density = 18.327802 Si / 1000 Ang^3
#
#
#
# Elastic Constant Matrix: (Units=GPa)
#
#
# Indices 1 2 3 4 5 6 
#
# 1 48.0235 16.2556 12.8509 0.0000 0.0000 0.0000
# 2 16.2556 76.9482 25.4988 0.0000 0.0000 0.0000
# 3 12.8509 25.4988 74.5510 0.0000 0.0000 0.0000
# 4 0.0000 0.0000 0.0000 25.8407 0.0000 0.0000
# 5 0.0000 0.0000 0.0000 0.0000 19.5259 0.0000
# 6 0.0000 0.0000 0.0000 0.0000 0.0000 19.5114
#
#
#
# Elastic Compliance Matrix: (Units=1/GPa)
#
#
# Indices 1 2 3 4 5 6 
#
# 1 0.022859 -0.003974 -0.002581 0.000000 0.000000 0.000000
# 2 -0.003974 0.015348 -0.004564 0.000000 0.000000 0.000000
# 3 -0.002581 -0.004564 0.015420 0.000000 0.000000 0.000000
# 4 0.000000 0.000000 0.000000 0.038699 0.000000 0.000000
# 5 0.000000 0.000000 0.000000 0.000000 0.051214 0.000000
# 6 0.000000 0.000000 0.000000 0.000000 0.000000 0.051252
#
#
# Mechanical properties :
#
#
# Convention : Reuss Voigt Hill
#
# Bulk Modulus (GPa) = 31.85959 34.30371 33.08165
# Shear Modulus (GPa) = 21.97874 22.63675 22.30775
#
# Velocity S-wave (km/s) = 3.46671 3.51822 3.49256
# Velocity P-wave (km/s) = 5.78317 5.93811 5.86115
#
# Compressibility (1/GPa) = 0.03138773
#
# Stress axis : x y z
#
# Youngs Moduli (GPa) = 43.74661 65.15614 64.85179
#
# Poissons Ratio (x) = 0.25891 0.16740
# Poissons Ratio (y) = 0.17383 0.29601
# Poissons Ratio (z) = 0.11292 0.29740
#
# Static dielectric constant tensor:
#      x y z
#    x 3.429550 0.000000 0.000000 
#    y 0.000000 3.449760 0.000000 
#    z 0.000000 0.000000 3.452700 
# 
# 
# High freq. dielectric constant tensor:
#      x y z
#    x 1.687930 0.000000 0.000000 
#    y 0.000000 1.708940 0.000000 
#    z 0.000000 0.000000 1.713100 
# 
# From -- ./inp_files/27111.got.cif
#   From: 2010.03.12/outbox.cif.g09.slc.cpg/sg59_14_cif.got.tgz:27111.got - 2010.04.16 16:29:54.
