data_PCOD8242198
_publ_section_title
;
Structure prediction by ZEFSAII (Michael W. Deem and Ramdas Pophale) SiO2 
 PCOD8242198
Probable space group: P M M N
;
_chemical_formula_sum "Si O2"
_cell_formula_units_Z 48
_cell_length_a 8.889340
_cell_length_b 10.101094
_cell_length_c 29.004130
_cell_angle_alpha 90.000000
_cell_angle_beta 90.000000
_cell_angle_gamma 90.000000
_cell_volume 2604.340550
_symmetry_space_group_name_H-M "P M M N"
_symmetry_group_IT_number 59
_space_group.IT_coordinate_system_code '2'
_symmetry_cell_setting 'orthorhombic'
loop_
_space_group_symop_operation_xyz
x,y,z
1/2-x,1/2-y,z
1/2+x,-y,-z
-x,1/2+y,-z
-x,-y,-z
1/2+x,1/2+y,-z
1/2-x,y,z
x,1/2-y,z
loop_
_atom_site_type_symbol
_atom_site_label
_atom_site_fract_x
_atom_site_fract_y
_atom_site_fract_z
Si Si1 0.928122 0.250000 0.554008
Si Si2 0.427765 0.750000 0.549544
Si Si3 0.925201 0.096617 0.204201
Si Si4 0.073160 0.401403 0.963945
Si Si5 0.574248 0.098752 0.867143
Si Si6 0.426723 0.486938 0.397161
Si Si7 0.079795 0.097245 0.297788
O O1 0.750000 0.250000 0.551829
O O2 0.994954 0.250000 0.502349
O O3 0.985530 0.376053 0.582183
O O4 0.250000 0.750000 0.547949
O O5 0.482140 0.622465 0.576075
O O6 0.750000 0.069447 0.196489
O O7 0.966299 0.250000 0.193857
O O8 0.967296 0.060298 0.256619
O O9 0.020474 0.002067 0.171594
O O10 0.250000 0.424006 0.963924
O O11 0.031537 0.250000 0.976988
O O12 0.011797 0.437463 0.913765
O O13 0.000000 0.500000 0.000000
O O14 0.750000 0.078503 0.875931
O O15 0.538815 0.250000 0.851975
O O16 0.250000 0.461988 0.404766
O O17 0.464700 0.487138 0.342727
O O18 0.250000 0.065442 0.281656
O O19 0.064423 0.250000 0.312011
#
# Coordination Sequence:
#
# PCOD8242198 Si02
#       7
#     4   4   8   8   8   8   8
#     4   9  20  35  53  79 109 137 175 223 268 319
#     4  11  21  33  53  81 107 139 179 219 266 321
#     4  10  21  36  56  82 111 143 178 223 277 329
#     4  10  21  37  58  84 115 152 192 234 280 329
#     4  10  21  38  59  83 112 148 189 231 276 327
#     4  10  19  36  57  77 104 141 179 219 267 322
#     4   9  17  32  54  78 101 134 181 224 264 317
#
# _framework density 18.430769000000002
#
# number of rings (size 3 to 8) (size 9 to 14) (size 15 to 20)
#    0.000    2.167    0.833    2.250    0.000    4.333 
#    1.500    1.250    0.000    0.000    0.000    0.000 
#    0.000    0.000    0.000    0.000    0.000    0.000 
#
# Total GULP energy -595287.814117 kJ/mol
# GULP energy per Si atom -12401.829461 kJ/mol
# Density = 1.838882 g / cm^3
# Si number density = 18.430769 Si / 1000 Ang^3
#
#
#
# Elastic Constant Matrix: (Units=GPa)
#
#
# Indices 1 2 3 4 5 6 
#
# 1 61.8178 40.6551 43.2198 0.0000 0.0000 0.0000
# 2 40.6551 114.3341 71.2206 0.0000 0.0000 0.0000
# 3 43.2198 71.2206 120.4231 0.0000 0.0000 0.0000
# 4 0.0000 0.0000 0.0000 27.0744 0.0000 0.0000
# 5 0.0000 0.0000 0.0000 0.0000 33.5208 0.0000
# 6 0.0000 0.0000 0.0000 0.0000 0.0000 39.3220
#
#
#
# Elastic Compliance Matrix: (Units=1/GPa)
#
#
# Indices 1 2 3 4 5 6 
#
# 1 0.023174 -0.004844 -0.005452 0.000000 0.000000 0.000000
# 2 -0.004844 0.014860 -0.007050 0.000000 0.000000 0.000000
# 3 -0.005452 -0.007050 0.014431 0.000000 0.000000 0.000000
# 4 0.000000 0.000000 0.000000 0.036935 0.000000 0.000000
# 5 0.000000 0.000000 0.000000 0.000000 0.029832 0.000000
# 6 0.000000 0.000000 0.000000 0.000000 0.000000 0.025431
#
#
# Mechanical properties :
#
#
# Convention : Reuss Voigt Hill
#
# Bulk Modulus (GPa) = 56.26816 67.41845 61.84331
# Shear Modulus (GPa) = 26.98602 29.41542 28.20072
#
# Velocity S-wave (km/s) = 3.83062 3.99933 3.91588
# Velocity P-wave (km/s) = 7.08241 7.61478 7.35341
#
# Compressibility (1/GPa) = 0.01777204
#
# Stress axis : x y z
#
# Youngs Moduli (GPa) = 43.15127 67.29283 69.29716
#
# Poissons Ratio (x) = 0.32596 0.37784
# Poissons Ratio (y) = 0.20902 0.48856
# Poissons Ratio (z) = 0.23528 0.47443
#
# Static dielectric constant tensor:
#      x y z
#    x 3.413630 0.000000 0.000000 
#    y 0.000000 3.578770 0.000000 
#    z 0.000000 0.000000 3.316360 
# 
# 
# High freq. dielectric constant tensor:
#      x y z
#    x 1.712860 0.000000 0.000000 
#    y 0.000000 1.711870 0.000000 
#    z 0.000000 0.000000 1.723250 
# 
# From -- ./inp_files/32971.got.cif
#   From: 2010.03.12/outbox.cif.g09.slc.cpg/sg59_17_cif.got.tgz:32971.got - 2010.04.16 16:29:54.
