data_PCOD8242193
_publ_section_title
;
Structure prediction by ZEFSAII (Michael W. Deem and Ramdas Pophale) SiO2 
 PCOD8242193
Probable space group: P M M N
;
_chemical_formula_sum "Si O2"
_cell_formula_units_Z 48
_cell_length_a 15.948384
_cell_length_b 8.745137
_cell_length_c 16.965096
_cell_angle_alpha 90.000000
_cell_angle_beta 90.000000
_cell_angle_gamma 90.000000
_cell_volume 2366.135562
_symmetry_space_group_name_H-M "P M M N"
_symmetry_group_IT_number 59
_space_group.IT_coordinate_system_code '2'
_symmetry_cell_setting 'orthorhombic'
loop_
_space_group_symop_operation_xyz
x,y,z
1/2-x,1/2-y,z
1/2+x,-y,-z
-x,1/2+y,-z
-x,-y,-z
1/2+x,1/2+y,-z
1/2-x,y,z
x,1/2-y,z
loop_
_atom_site_type_symbol
_atom_site_label
_atom_site_fract_x
_atom_site_fract_y
_atom_site_fract_z
Si Si1 0.846201 0.574493 0.158728
Si Si2 0.841729 0.068846 0.836820
Si Si3 0.411841 0.568769 0.687590
Si Si4 0.750000 0.068079 0.585476
Si Si5 0.084264 0.931067 0.323911
Si Si6 0.750000 0.068317 0.407354
Si Si7 0.590920 0.431683 0.001746
O O1 0.750000 0.559016 0.185249
O O2 0.874177 0.750000 0.149726
O O3 0.904481 0.497236 0.224308
O O4 0.856726 0.491007 0.075665
O O5 0.750000 0.004590 0.815635
O O6 0.839245 0.250000 0.840574
O O7 0.904314 0.018541 0.767344
O O8 0.867495 0.004579 0.921789
O O9 0.412201 0.750000 0.691780
O O10 0.498156 0.510428 0.647375
O O11 0.333670 0.507516 0.635904
O O12 0.750000 0.250000 0.589854
O O13 0.664833 0.008110 0.627194
O O14 0.750000 0.005702 0.496377
O O15 0.074946 0.750000 0.334123
O O16 0.750000 0.250000 0.407148
O O17 0.588113 0.250000 0.004446
O O18 0.500000 0.500000 0.000000
#
# Coordination Sequence:
#
# PCOD8242193 Si02
#       7
#     8   8   8   4   8   4   8
#     4  11  23  39  59  83 114 152 203 259 305 354
#     4   9  17  32  54  80 108 145 192 237 279 338
#     4  11  22  38  60  85 119 160 200 244 300 363
#     4   9  18  36  63  90 119 156 196 241 295 359
#     4  10  19  35  62  91 118 152 198 245 292 350
#     4   9  20  38  59  86 119 156 198 243 297 363
#     4  11  22  35  54  81 118 157 200 247 295 351
#
# _framework density 20.286244
#
# number of rings (size 3 to 8) (size 9 to 14) (size 15 to 20)
#    0.000    1.833    1.667    3.000    0.000    3.667 
#    0.000    1.250    0.000    5.000    0.000    0.000 
#    0.000    0.000    0.000    0.000    0.000    0.000 
#
# Total GULP energy -595184.449516 kJ/mol
# GULP energy per Si atom -12399.676032 kJ/mol
# Density = 2.024007 g / cm^3
# Si number density = 20.286244 Si / 1000 Ang^3
#
#
#
# Elastic Constant Matrix: (Units=GPa)
#
#
# Indices 1 2 3 4 5 6 
#
# 1 161.8006 33.8751 59.6775 0.0000 0.0000 0.0000
# 2 33.8751 61.6127 27.2675 0.0000 0.0000 0.0000
# 3 59.6775 27.2675 136.8943 0.0000 0.0000 0.0000
# 4 0.0000 0.0000 0.0000 14.9118 0.0000 0.0000
# 5 0.0000 0.0000 0.0000 0.0000 24.7570 0.0000
# 6 0.0000 0.0000 0.0000 0.0000 0.0000 31.2614
#
#
#
# Elastic Compliance Matrix: (Units=1/GPa)
#
#
# Indices 1 2 3 4 5 6 
#
# 1 0.007863 -0.003077 -0.002815 0.000000 0.000000 0.000000
# 2 -0.003077 0.019004 -0.002444 0.000000 0.000000 0.000000
# 3 -0.002815 -0.002444 0.009019 0.000000 0.000000 0.000000
# 4 0.000000 0.000000 0.000000 0.067061 0.000000 0.000000
# 5 0.000000 0.000000 0.000000 0.000000 0.040393 0.000000
# 6 0.000000 0.000000 0.000000 0.000000 0.000000 0.031988
#
#
# Mechanical properties :
#
#
# Convention : Reuss Voigt Hill
#
# Bulk Modulus (GPa) = 52.04619 66.88310 59.46464
# Shear Modulus (GPa) = 25.20112 30.15186 27.67649
#
# Velocity S-wave (km/s) = 3.52842 3.85947 3.69765
# Velocity P-wave (km/s) = 6.50471 7.27337 6.89975
#
# Compressibility (1/GPa) = 0.01921370
#
# Stress axis : x y z
#
# Youngs Moduli (GPa) = 127.17925 52.62079 110.88022
#
# Poissons Ratio (x) = 0.16193 0.31210
# Poissons Ratio (y) = 0.39138 0.27097
# Poissons Ratio (z) = 0.35798 0.12859
#
# Static dielectric constant tensor:
#      x y z
#    x 3.880420 0.000000 0.000000 
#    y 0.000000 3.507030 0.000000 
#    z 0.000000 0.000000 4.061860 
# 
# 
# High freq. dielectric constant tensor:
#      x y z
#    x 1.810550 0.000000 0.000000 
#    y 0.000000 1.756860 0.000000 
#    z 0.000000 0.000000 1.794570 
# 
# From -- ./inp_files/27479.got.cif
#   From: 2010.03.12/outbox.cif.g09.slc.cpg/sg59_14_cif.got.tgz:27479.got - 2010.04.16 16:29:54.
