data_PCOD8242405
_publ_section_title
;
Structure prediction by ZEFSAII (Michael W. Deem and Ramdas Pophale) SiO2 
 PCOD8242405
Probable space group: P M M N
;
_chemical_formula_sum "Si O2"
_cell_formula_units_Z 48
_cell_length_a 9.342914
_cell_length_b 32.257925
_cell_length_c 9.031510
_cell_angle_alpha 90.000000
_cell_angle_beta 90.000000
_cell_angle_gamma 90.000000
_cell_volume 2721.943751
_symmetry_space_group_name_H-M "P M M N"
_symmetry_group_IT_number 59
_space_group.IT_coordinate_system_code '2'
_symmetry_cell_setting 'orthorhombic'
loop_
_space_group_symop_operation_xyz
x,y,z
1/2-x,1/2-y,z
1/2+x,-y,-z
-x,1/2+y,-z
-x,-y,-z
1/2+x,1/2+y,-z
1/2-x,y,z
x,1/2-y,z
loop_
_atom_site_type_symbol
_atom_site_label
_atom_site_fract_x
_atom_site_fract_y
_atom_site_fract_z
Si Si1 0.090994 0.839908 0.627871
Si Si2 0.918888 0.125965 0.906375
Si Si3 0.087066 0.463959 0.422884
Si Si4 0.086906 0.380243 0.608156
Si Si5 0.907589 0.423654 0.189278
Si Si6 0.579667 0.204053 0.087385
O O1 0.250000 0.826836 0.572051
O O2 0.102473 0.883290 0.710429
O O3 0.985854 0.843525 0.487649
O O4 0.026994 0.806841 0.745769
O O5 0.750000 0.127457 0.872901
O O6 0.974978 0.170520 0.967720
O O7 0.004149 0.114396 0.760687
O O8 0.955114 0.089898 0.024760
O O9 0.250000 0.478341 0.400321
O O10 0.077139 0.423479 0.523479
O O11 0.000000 0.500000 0.500000
O O12 0.020753 0.455543 0.259996
O O13 0.250000 0.367376 0.638434
O O14 0.750000 0.444669 0.184602
O O15 0.750000 0.201667 0.091105
O O16 0.524435 0.250000 0.043800
#
# Coordination Sequence:
#
# PCOD8242405 Si02
#       6
#     8   8   8   8   8   8
#     4   8  14  27  48  69  89 118 154 190 229 270
#     4   9  17  30  50  73  96 126 160 193 234 281
#     4  10  20  33  50  71  93 120 155 195 238 280
#     4  10  20  32  47  69  96 124 155 191 230 277
#     4   8  15  29  48  69  92 119 154 192 228 273
#     4   8  14  27  49  75  97 118 154 201 237 269
#
# _framework density 17.634457000000001
#
# number of rings (size 3 to 8) (size 9 to 14) (size 15 to 20)
#    0.000    3.167    0.000    3.000    0.000    2.667 
#    0.000    4.167    0.000    7.000    0.000    0.000 
#    0.000    0.000    0.000    0.000    0.000    0.000 
#
# Total GULP energy -594923.306897 kJ/mol
# GULP energy per Si atom -12394.235560 kJ/mol
# Density = 1.759432 g / cm^3
# Si number density = 17.634457 Si / 1000 Ang^3
#
#
#
# Elastic Constant Matrix: (Units=GPa)
#
#
# Indices 1 2 3 4 5 6 
#
# 1 85.9680 13.6702 42.1100 0.0000 0.0000 0.0000
# 2 13.6702 27.9439 -3.4141 0.0000 0.0000 0.0000
# 3 42.1100 -3.4141 90.0853 0.0000 0.0000 0.0000
# 4 0.0000 0.0000 0.0000 13.7540 0.0000 0.0000
# 5 0.0000 0.0000 0.0000 0.0000 26.0349 0.0000
# 6 0.0000 0.0000 0.0000 0.0000 0.0000 14.5920
#
#
#
# Elastic Compliance Matrix: (Units=1/GPa)
#
#
# Indices 1 2 3 4 5 6 
#
# 1 0.017270 -0.009479 -0.008432 0.000000 0.000000 0.000000
# 2 -0.009479 0.041155 0.005990 0.000000 0.000000 0.000000
# 3 -0.008432 0.005990 0.015269 0.000000 0.000000 0.000000
# 4 0.000000 0.000000 0.000000 0.072706 0.000000 0.000000
# 5 0.000000 0.000000 0.000000 0.000000 0.038410 0.000000
# 6 0.000000 0.000000 0.000000 0.000000 0.000000 0.068531
#
#
# Mechanical properties :
#
#
# Convention : Reuss Voigt Hill
#
# Bulk Modulus (GPa) = 20.05874 34.30325 27.18099
# Shear Modulus (GPa) = 17.01850 20.98493 19.00172
#
# Velocity S-wave (km/s) = 3.10993 3.45337 3.28614
# Velocity P-wave (km/s) = 4.92899 5.94943 5.46309
#
# Compressibility (1/GPa) = 0.04985359
#
# Stress axis : x y z
#
# Youngs Moduli (GPa) = 57.90497 24.29849 65.49190
#
# Poissons Ratio (x) = 0.23031 0.55222
# Poissons Ratio (y) = 0.54885 -0.39232
# Poissons Ratio (z) = 0.48825 -0.14556
#
# Static dielectric constant tensor:
#      x y z
#    x 3.474390 0.000000 0.000000 
#    y 0.000000 3.217430 0.000000 
#    z 0.000000 0.000000 3.303700 
# 
# 
# High freq. dielectric constant tensor:
#      x y z
#    x 1.665700 0.000000 0.000000 
#    y 0.000000 1.656700 0.000000 
#    z 0.000000 0.000000 1.678530 
# 
# From -- ./inp_files/6300.got.cif
#   From: 2010.03.12/outbox.cif.g09.slc.cpg/sg59_4_cif.got.tgz:6300.got - 2010.04.16 16:29:54.
