data_PCOD8242058
_publ_section_title
;
Structure prediction by ZEFSAII (Michael W. Deem and Ramdas Pophale) SiO2 
 PCOD8242058
Probable space group: P M M N
;
_chemical_formula_sum "Si O2"
_cell_formula_units_Z 64
_cell_length_a 12.563205
_cell_length_b 33.387078
_cell_length_c 8.147778
_cell_angle_alpha 90.000000
_cell_angle_beta 90.000000
_cell_angle_gamma 90.000000
_cell_volume 3417.574933
_symmetry_space_group_name_H-M "P M M N"
_symmetry_group_IT_number 59
_space_group.IT_coordinate_system_code '2'
_symmetry_cell_setting 'orthorhombic'
loop_
_space_group_symop_operation_xyz
x,y,z
1/2-x,1/2-y,z
1/2+x,-y,-z
-x,1/2+y,-z
-x,-y,-z
1/2+x,1/2+y,-z
1/2-x,y,z
x,1/2-y,z
loop_
_atom_site_type_symbol
_atom_site_label
_atom_site_fract_x
_atom_site_fract_y
_atom_site_fract_z
Si Si1 0.976435 0.409197 0.475138
Si Si2 0.126870 0.043974 0.683282
Si Si3 0.128150 0.862547 0.253122
Si Si4 0.127980 0.334263 0.429218
Si Si5 0.516681 0.590301 0.032983
Si Si6 0.032127 0.203502 0.738972
Si Si7 0.872894 0.834969 0.932861
Si Si8 0.873114 0.455019 0.192524
O O1 0.049851 0.446895 0.529708
O O2 0.054714 0.372745 0.444290
O O3 0.889937 0.396405 0.609797
O O4 0.903503 0.421134 0.323117
O O5 0.250000 0.050843 0.635858
O O6 0.095025 0.075041 0.825311
O O7 0.106991 0.998821 0.737768
O O8 0.250000 0.854414 0.220339
O O9 0.075847 0.879656 0.089347
O O10 0.076499 0.819978 0.300857
O O11 0.250000 0.348511 0.436480
O O12 0.109327 0.304138 0.582159
O O13 0.105448 0.314783 0.247451
O O14 0.588225 0.618556 0.916336
O O15 0.457541 0.552052 0.953643
O O16 0.006967 0.250000 0.752169
O O17 0.076261 0.188982 0.915067
O O18 0.750000 0.835287 0.974509
O O19 0.750000 0.449782 0.136677
#
# Coordination Sequence:
#
# PCOD8242058 Si02
#       8
#     8   8   8   8   8   8   8   8
#     4  10  19  35  54  75 107 139 181 230 268 320
#     4  10  21  34  51  76 108 144 181 225 283 333
#     4   9  19  35  57  79  99 139 185 220 264 317
#     4  10  20  35  57  82 108 142 181 219 267 325
#     4  10  19  35  54  75 107 139 181 230 268 320
#     4  10  22  37  56  83 115 143 172 217 272 330
#     4  10  20  35  57  82 108 142 181 219 267 325
#     4  11  21  33  51  77 107 143 182 228 280 325
#
# _framework density 18.726728999999999
#
# number of rings (size 3 to 8) (size 9 to 14) (size 15 to 20)
#    0.000    2.000    1.250    3.375    0.000    1.750 
#    0.000    1.250    0.000    6.000    0.000    3.500 
#    0.000    0.000    0.000    0.000    0.000    0.000 
#
# Total GULP energy -793126.799812 kJ/mol
# GULP energy per Si atom -12392.606247 kJ/mol
# Density = 1.868411 g / cm^3
# Si number density = 18.726729 Si / 1000 Ang^3
#
#
#
# Elastic Constant Matrix: (Units=GPa)
#
#
# Indices 1 2 3 4 5 6 
#
# 1 60.0057 24.0678 2.8645 0.0000 0.0000 0.0000
# 2 24.0678 76.4144 5.0576 0.0000 0.0000 0.0000
# 3 2.8645 5.0576 72.0017 0.0000 0.0000 0.0000
# 4 0.0000 0.0000 0.0000 17.6563 0.0000 0.0000
# 5 0.0000 0.0000 0.0000 0.0000 19.2943 0.0000
# 6 0.0000 0.0000 0.0000 0.0000 0.0000 18.1251
#
#
#
# Elastic Compliance Matrix: (Units=1/GPa)
#
#
# Indices 1 2 3 4 5 6 
#
# 1 0.019083 -0.005988 -0.000339 0.000000 0.000000 0.000000
# 2 -0.005988 0.015027 -0.000817 0.000000 0.000000 0.000000
# 3 -0.000339 -0.000817 0.013959 0.000000 0.000000 0.000000
# 4 0.000000 0.000000 0.000000 0.056637 0.000000 0.000000
# 5 0.000000 0.000000 0.000000 0.000000 0.051829 0.000000
# 6 0.000000 0.000000 0.000000 0.000000 0.000000 0.055172
#
#
# Mechanical properties :
#
#
# Convention : Reuss Voigt Hill
#
# Bulk Modulus (GPa) = 29.60220 30.26684 29.93452
# Shear Modulus (GPa) = 21.07437 22.77729 21.92583
#
# Velocity S-wave (km/s) = 3.35828 3.49133 3.42545
# Velocity P-wave (km/s) = 5.55691 5.69649 5.62713
#
# Compressibility (1/GPa) = 0.03378127
#
# Stress axis : x y z
#
# Youngs Moduli (GPa) = 52.40265 66.54844 71.63617
#
# Poissons Ratio (x) = 0.39850 0.02425
# Poissons Ratio (y) = 0.31379 0.05855
# Poissons Ratio (z) = 0.01774 0.05439
#
# Static dielectric constant tensor:
#      x y z
#    x 3.430660 0.000000 0.000000 
#    y 0.000000 3.298710 0.000000 
#    z 0.000000 0.000000 3.619530 
# 
# 
# High freq. dielectric constant tensor:
#      x y z
#    x 1.727920 0.000000 0.000000 
#    y 0.000000 1.713310 0.000000 
#    z 0.000000 0.000000 1.731880 
# 
# From -- ./inp_files/8027.got.cif
#   From: 2010.03.12/outbox.cif.g09.slc.cpg/sg59_5_cif.got.tgz:8027.got - 2010.04.16 16:29:54.
