data_PCOD8242535
_publ_section_title
;
Structure prediction by ZEFSAII (Michael W. Deem and Ramdas Pophale) SiO2 
 PCOD8242535
Probable space group: P M M N
;
_chemical_formula_sum "Si O2"
_cell_formula_units_Z 48
_cell_length_a 23.294714
_cell_length_b 9.477756
_cell_length_c 11.592702
_cell_angle_alpha 90.000000
_cell_angle_beta 90.000000
_cell_angle_gamma 90.000000
_cell_volume 2559.455474
_symmetry_space_group_name_H-M "P M M N"
_symmetry_group_IT_number 59
_space_group.IT_coordinate_system_code '2'
_symmetry_cell_setting 'orthorhombic'
loop_
_space_group_symop_operation_xyz
x,y,z
1/2-x,1/2-y,z
1/2+x,-y,-z
-x,1/2+y,-z
-x,-y,-z
1/2+x,1/2+y,-z
1/2-x,y,z
x,1/2-y,z
loop_
_atom_site_type_symbol
_atom_site_label
_atom_site_fract_x
_atom_site_fract_y
_atom_site_fract_z
Si Si1 0.640589 0.085221 0.121323
Si Si2 0.417665 0.585516 0.278744
Si Si3 0.684467 0.909276 0.326957
Si Si4 0.401500 0.587626 0.541331
Si Si5 0.524053 0.410318 0.239660
Si Si6 0.185784 0.916837 0.126096
O O1 0.654735 0.250000 0.142003
O O2 0.573244 0.056672 0.145312
O O3 0.678539 0.993972 0.208072
O O4 0.657250 0.034402 0.993920
O O5 0.425137 0.750000 0.252906
O O6 0.422157 0.549807 0.413534
O O7 0.469649 0.508237 0.213577
O O8 0.356387 0.532023 0.228639
O O9 0.750000 0.906143 0.365013
O O10 0.660669 0.750000 0.311171
O O11 0.651495 0.986883 0.430022
O O12 0.380933 0.750000 0.549590
O O13 0.452382 0.558546 0.631718
O O14 0.503187 0.250000 0.229719
O O15 0.250000 0.982272 0.141245
O O16 0.191182 0.750000 0.127697
#
# Coordination Sequence:
#
# PCOD8242535 Si02
#       6
#     8   8   8   8   8   8
#     4   9  18  34  55  76  99 132 172 208 249 303
#     4  10  20  33  52  78 103 132 171 209 249 300
#     4  10  20  32  49  76 105 131 166 215 264 304
#     4   9  19  34  51  73 102 137 175 210 248 301
#     4   9  18  32  50  74 102 132 168 210 255 301
#     4   9  18  33  53  76 102 133 170 211 249 290
#
# _framework density 18.753990000000002
#
# number of rings (size 3 to 8) (size 9 to 14) (size 15 to 20)
#    0.000    2.667    0.000    2.500    0.000    6.667 
#    0.000    2.500    0.000    1.500    0.000    0.000 
#    0.000    0.000    0.000    0.000    0.000    0.000 
#
# Total GULP energy -595144.680254 kJ/mol
# GULP energy per Si atom -12398.847505 kJ/mol
# Density = 1.871130 g / cm^3
# Si number density = 18.753990 Si / 1000 Ang^3
#
#
#
# Elastic Constant Matrix: (Units=GPa)
#
#
# Indices 1 2 3 4 5 6 
#
# 1 138.3492 46.2034 46.6834 0.0000 0.0000 0.0000
# 2 46.2034 65.0183 18.6586 0.0000 0.0000 0.0000
# 3 46.6834 18.6586 58.8767 0.0000 0.0000 0.0000
# 4 0.0000 0.0000 0.0000 10.9889 0.0000 0.0000
# 5 0.0000 0.0000 0.0000 0.0000 20.4539 0.0000
# 6 0.0000 0.0000 0.0000 0.0000 0.0000 33.1425
#
#
#
# Elastic Compliance Matrix: (Units=1/GPa)
#
#
# Indices 1 2 3 4 5 6 
#
# 1 0.011814 -0.006278 -0.007378 0.000000 0.000000 0.000000
# 2 -0.006278 0.020255 -0.001441 0.000000 0.000000 0.000000
# 3 -0.007378 -0.001441 0.023291 0.000000 0.000000 0.000000
# 4 0.000000 0.000000 0.000000 0.091001 0.000000 0.000000
# 5 0.000000 0.000000 0.000000 0.000000 0.048890 0.000000
# 6 0.000000 0.000000 0.000000 0.000000 0.000000 0.030173
#
#
# Mechanical properties :
#
#
# Convention : Reuss Voigt Hill
#
# Bulk Modulus (GPa) = 39.73554 53.92610 46.83082
# Shear Modulus (GPa) = 18.93880 22.96365 20.95123
#
# Velocity S-wave (km/s) = 3.18127 3.50304 3.34602
# Velocity P-wave (km/s) = 5.89302 6.72150 6.32085
#
# Compressibility (1/GPa) = 0.02516639
#
# Stress axis : x y z
#
# Youngs Moduli (GPa) = 84.64306 49.36986 42.93442
#
# Poissons Ratio (x) = 0.30995 0.31677
# Poissons Ratio (y) = 0.53141 0.06187
# Poissons Ratio (z) = 0.62449 0.07115
#
# Static dielectric constant tensor:
#      x y z
#    x 3.437390 0.000000 0.000000 
#    y 0.000000 3.281820 0.000000 
#    z 0.000000 0.000000 3.431670 
# 
# 
# High freq. dielectric constant tensor:
#      x y z
#    x 1.729780 0.000000 0.000000 
#    y 0.000000 1.707240 0.000000 
#    z 0.000000 0.000000 1.720810 
# 
# From -- ./inp_files/14301.got.cif
#   From: 2010.03.12/outbox.cif.g09.slc.cpg/sg59_8_cif.got.tgz:14301.got - 2010.04.16 16:29:54.
