data_PCOD8242177
_publ_section_title
;
Structure prediction by ZEFSAII (Michael W. Deem and Ramdas Pophale) SiO2 
 PCOD8242177
Probable space group: P M M N
;
_chemical_formula_sum "Si O2"
_cell_formula_units_Z 56
_cell_length_a 19.200588
_cell_length_b 15.134342
_cell_length_c 9.737064
_cell_angle_alpha 90.000000
_cell_angle_beta 90.000000
_cell_angle_gamma 90.000000
_cell_volume 2829.476538
_symmetry_space_group_name_H-M "P M M N"
_symmetry_group_IT_number 59
_space_group.IT_coordinate_system_code '2'
_symmetry_cell_setting 'orthorhombic'
loop_
_space_group_symop_operation_xyz
x,y,z
1/2-x,1/2-y,z
1/2+x,-y,-z
-x,1/2+y,-z
-x,-y,-z
1/2+x,1/2+y,-z
1/2-x,y,z
x,1/2-y,z
loop_
_atom_site_type_symbol
_atom_site_label
_atom_site_fract_x
_atom_site_fract_y
_atom_site_fract_z
Si Si1 0.915940 0.030488 0.753396
Si Si2 0.669458 0.473512 0.022044
Si Si3 0.610321 0.403207 0.298797
Si Si4 0.171014 0.848009 0.436091
Si Si5 0.671981 0.653473 0.160075
Si Si6 0.038733 0.348987 0.346299
Si Si7 0.058753 0.089132 0.650200
O O1 0.875307 0.077791 0.632457
O O2 0.994085 0.069932 0.753319
O O3 0.914439 0.924370 0.726310
O O4 0.879650 0.053849 0.896695
O O5 0.750000 0.454648 0.985717
O O6 0.647319 0.415163 0.152318
O O7 0.656256 0.577360 0.049904
O O8 0.661823 0.350492 0.398982
O O9 0.538212 0.350374 0.280718
O O10 0.596137 0.496098 0.375036
O O11 0.250000 0.868358 0.397595
O O12 0.149879 0.750000 0.384102
O O13 0.750000 0.638281 0.221817
O O14 0.667886 0.750000 0.088250
O O15 0.615002 0.653777 0.280971
O O16 0.069948 0.250000 0.323705
O O17 0.032198 0.369147 0.508639
#
# Coordination Sequence:
#
# PCOD8242177 Si02
#       7
#     8   8   8   8   8   8   8
#     4  11  22  40  59  90 124 160 197 252 309 362
#     4  10  22  39  60  84 121 166 202 247 304 360
#     4  10  19  37  60  86 114 157 204 251 299 355
#     4  11  22  37  61  88 115 157 209 255 304 360
#     4   9  19  35  56  84 118 160 207 246 291 361
#     4  11  21  36  61  93 125 157 198 253 308 362
#     4  10  19  35  60  88 120 157 199 255 306 352
#
# _framework density 19.791646
#
# number of rings (size 3 to 8) (size 9 to 14) (size 15 to 20)
#    0.000    1.714    2.857    2.571    0.000    6.857 
#    0.000    1.429    0.000    5.571    0.000    0.000 
#    0.000    0.000    0.000    0.000    0.000    0.000 
#
# Total GULP energy -694223.641804 kJ/mol
# GULP energy per Si atom -12396.850747 kJ/mol
# Density = 1.974660 g / cm^3
# Si number density = 19.791646 Si / 1000 Ang^3
#
#
#
# Elastic Constant Matrix: (Units=GPa)
#
#
# Indices 1 2 3 4 5 6 
#
# 1 95.8747 34.2447 40.5373 0.0000 0.0000 0.0000
# 2 34.2447 82.4317 20.9718 0.0000 0.0000 0.0000
# 3 40.5373 20.9718 88.7334 0.0000 0.0000 0.0000
# 4 0.0000 0.0000 0.0000 10.8412 0.0000 0.0000
# 5 0.0000 0.0000 0.0000 0.0000 24.4576 0.0000
# 6 0.0000 0.0000 0.0000 0.0000 0.0000 26.7038
#
#
#
# Elastic Compliance Matrix: (Units=1/GPa)
#
#
# Indices 1 2 3 4 5 6 
#
# 1 0.014388 -0.004580 -0.005490 0.000000 0.000000 0.000000
# 2 -0.004580 0.014365 -0.001303 0.000000 0.000000 0.000000
# 3 -0.005490 -0.001303 0.014086 0.000000 0.000000 0.000000
# 4 0.000000 0.000000 0.000000 0.092241 0.000000 0.000000
# 5 0.000000 0.000000 0.000000 0.000000 0.040887 0.000000
# 6 0.000000 0.000000 0.000000 0.000000 0.000000 0.037448
#
#
# Mechanical properties :
#
#
# Convention : Reuss Voigt Hill
#
# Bulk Modulus (GPa) = 49.77057 50.94972 50.36014
# Shear Modulus (GPa) = 20.58810 23.81960 22.20385
#
# Velocity S-wave (km/s) = 3.22878 3.47294 3.35308
# Velocity P-wave (km/s) = 6.25315 6.47153 6.36327
#
# Compressibility (1/GPa) = 0.02009220
#
# Stress axis : x y z
#
# Youngs Moduli (GPa) = 69.50387 69.61138 70.99310
#
# Poissons Ratio (x) = 0.31884 0.38978
# Poissons Ratio (y) = 0.31835 0.09249
# Poissons Ratio (z) = 0.38160 0.09069
#
# Static dielectric constant tensor:
#      x y z
#    x 3.665310 0.000000 0.000000 
#    y 0.000000 3.721170 0.000000 
#    z 0.000000 0.000000 3.305520 
# 
# 
# High freq. dielectric constant tensor:
#      x y z
#    x 1.775180 0.000000 0.000000 
#    y 0.000000 1.774530 0.000000 
#    z 0.000000 0.000000 1.745700 
# 
# From -- ./inp_files/11416.got.cif
#   From: 2010.03.12/outbox.cif.g09.slc.cpg/sg59_6_cif.got.tgz:11416.got - 2010.04.16 16:29:54.
