data_PCOD8242678
_publ_section_title
;
Structure prediction by ZEFSAII (Michael W. Deem and Ramdas Pophale) SiO2 
 PCOD8242678
Probable space group: P M M N
;
_chemical_formula_sum "Si O2"
_cell_formula_units_Z 64
_cell_length_a 23.032202
_cell_length_b 8.834949
_cell_length_c 18.237765
_cell_angle_alpha 90.000000
_cell_angle_beta 90.000000
_cell_angle_gamma 90.000000
_cell_volume 3711.172343
_symmetry_space_group_name_H-M "P M M N"
_symmetry_group_IT_number 59
_space_group.IT_coordinate_system_code '2'
_symmetry_cell_setting 'orthorhombic'
loop_
_space_group_symop_operation_xyz
x,y,z
1/2-x,1/2-y,z
1/2+x,-y,-z
-x,1/2+y,-z
-x,-y,-z
1/2+x,1/2+y,-z
1/2-x,y,z
x,1/2-y,z
loop_
_atom_site_type_symbol
_atom_site_label
_atom_site_fract_x
_atom_site_fract_y
_atom_site_fract_z
Si Si1 0.509334 0.424488 0.078232
Si Si2 0.617168 0.924667 0.873772
Si Si3 0.123693 0.428395 0.863226
Si Si4 0.180819 0.080039 0.580874
Si Si5 0.182184 0.574534 0.727624
Si Si6 0.684122 0.425883 0.003899
Si Si7 0.184032 0.429814 0.266925
Si Si8 0.185401 0.429766 0.424601
O O1 0.524995 0.250000 0.064878
O O2 0.452064 0.442319 0.128023
O O3 0.560741 0.502551 0.122293
O O4 0.500000 0.500000 0.000000
O O5 0.635301 0.750000 0.885867
O O6 0.643014 0.991538 0.797968
O O7 0.641642 0.022024 0.940194
O O8 0.118741 0.250000 0.868682
O O9 0.144909 0.475490 0.783148
O O10 0.170457 0.485635 0.921822
O O11 0.250000 0.082409 0.573472
O O12 0.158267 0.250000 0.597922
O O13 0.155383 0.018417 0.501779
O O14 0.161077 0.968916 0.645796
O O15 0.250000 0.536062 0.737874
O O16 0.169556 0.750000 0.741468
O O17 0.750000 0.460881 0.980504
O O18 0.674078 0.250000 0.019541
O O19 0.250000 0.490455 0.256009
O O20 0.184966 0.250000 0.264191
O O21 0.156966 0.481548 0.346551
O O22 0.250000 0.497007 0.421253
O O23 0.188006 0.250000 0.428131
#
# Coordination Sequence:
#
# PCOD8242678 Si02
#       8
#     8   8   8   8   8   8   8   8
#     4  11  22  37  55  74  96 126 166 212 255 295
#     4  10  20  33  52  75  97 127 167 206 245 290
#     4  12  24  37  54  73  93 125 166 208 251 293
#     4   8  13  23  41  66  96 130 165 194 224 275
#     4  10  20  33  49  72 103 133 159 195 246 298
#     4  11  23  36  51  72 100 131 159 194 245 300
#     4   8  13  23  42  71 104 131 158 197 239 281
#     4   7  10  18  36  64  97 130 160 191 229 273
#
# _framework density 17.245225000000001
#
# number of rings (size 3 to 8) (size 9 to 14) (size 15 to 20)
#    0.000    2.375    1.250    4.500    0.000    4.250 
#    0.000    0.000    0.000    0.750    0.000    4.375 
#    0.000    0.000    0.000    0.000    0.000    0.000 
#
# Total GULP energy -793123.845704 kJ/mol
# GULP energy per Si atom -12392.560089 kJ/mol
# Density = 1.720597 g / cm^3
# Si number density = 17.245225 Si / 1000 Ang^3
#
#
#
# Elastic Constant Matrix: (Units=GPa)
#
#
# Indices 1 2 3 4 5 6 
#
# 1 61.8520 31.5558 33.3499 0.0000 0.0000 0.0000
# 2 31.5558 79.4222 34.9371 0.0000 0.0000 0.0000
# 3 33.3499 34.9371 135.9242 0.0000 0.0000 0.0000
# 4 0.0000 0.0000 0.0000 9.7250 0.0000 0.0000
# 5 0.0000 0.0000 0.0000 0.0000 6.8517 0.0000
# 6 0.0000 0.0000 0.0000 0.0000 0.0000 19.0128
#
#
#
# Elastic Compliance Matrix: (Units=1/GPa)
#
#
# Indices 1 2 3 4 5 6 
#
# 1 0.021659 -0.007067 -0.003498 0.000000 0.000000 0.000000
# 2 -0.007067 0.016502 -0.002508 0.000000 0.000000 0.000000
# 3 -0.003498 -0.002508 0.008860 0.000000 0.000000 0.000000
# 4 0.000000 0.000000 0.000000 0.102828 0.000000 0.000000
# 5 0.000000 0.000000 0.000000 0.000000 0.145949 0.000000
# 6 0.000000 0.000000 0.000000 0.000000 0.000000 0.052596
#
#
# Mechanical properties :
#
#
# Convention : Reuss Voigt Hill
#
# Bulk Modulus (GPa) = 47.90167 52.98710 50.44439
# Shear Modulus (GPa) = 13.10630 18.94162 16.02396
#
# Velocity S-wave (km/s) = 2.75979 3.31776 3.05156
# Velocity P-wave (km/s) = 6.16379 6.74308 6.45993
#
# Compressibility (1/GPa) = 0.02087610
#
# Stress axis : x y z
#
# Youngs Moduli (GPa) = 46.17030 60.59942 112.86962
#
# Poissons Ratio (x) = 0.42825 0.39479
# Poissons Ratio (y) = 0.32628 0.28303
# Poissons Ratio (z) = 0.16149 0.15196
#
# Static dielectric constant tensor:
#      x y z
#    x 2.956640 0.000000 0.000000 
#    y 0.000000 3.075050 0.000000 
#    z 0.000000 0.000000 3.696870 
# 
# 
# High freq. dielectric constant tensor:
#      x y z
#    x 1.624220 0.000000 0.000000 
#    y 0.000000 1.649120 0.000000 
#    z 0.000000 0.000000 1.682760 
# 
# From -- ./inp_files/28406.got.cif
#   From: 2010.03.12/outbox.cif.g09.slc.cpg/sg59_15_cif.got.tgz:28406.got - 2010.04.16 16:29:54.
