data_PCOD8242551
_publ_section_title
;
Structure prediction by ZEFSAII (Michael W. Deem and Ramdas Pophale) SiO2 
 PCOD8242551
Probable space group: P M M N
;
_chemical_formula_sum "Si O2"
_cell_formula_units_Z 48
_cell_length_a 25.359005
_cell_length_b 8.985359
_cell_length_c 11.520704
_cell_angle_alpha 90.000000
_cell_angle_beta 90.000000
_cell_angle_gamma 90.000000
_cell_volume 2625.104892
_symmetry_space_group_name_H-M "P M M N"
_symmetry_group_IT_number 59
_space_group.IT_coordinate_system_code '2'
_symmetry_cell_setting 'orthorhombic'
loop_
_space_group_symop_operation_xyz
x,y,z
1/2-x,1/2-y,z
1/2+x,-y,-z
-x,1/2+y,-z
-x,-y,-z
1/2+x,1/2+y,-z
1/2-x,y,z
x,1/2-y,z
loop_
_atom_site_type_symbol
_atom_site_label
_atom_site_fract_x
_atom_site_fract_y
_atom_site_fract_z
Si Si1 0.189694 0.921661 0.861569
Si Si2 0.997648 0.072562 0.624670
Si Si3 0.897481 0.413558 0.769295
Si Si4 0.947411 0.086444 0.016801
Si Si5 0.902260 0.574448 0.225270
Si Si6 0.189859 0.078425 0.108349
O O1 0.250000 0.939804 0.822693
O O2 0.172558 0.750000 0.871731
O O3 0.155575 0.999815 0.756920
O O4 0.180433 0.991095 0.988806
O O5 0.997928 0.250000 0.616860
O O6 0.943574 0.017766 0.686839
O O7 0.050348 0.017448 0.692396
O O8 0.000000 0.000000 0.500000
O O9 0.880253 0.250000 0.721866
O O10 0.846514 0.519302 0.784552
O O11 0.921531 0.391320 0.894227
O O12 0.956922 0.250000 0.073101
O O13 0.911820 0.981340 0.095118
O O14 0.000000 0.000000 0.000000
O O15 0.897294 0.750000 0.232586
O O16 0.250000 0.058354 0.150148
O O17 0.176021 0.250000 0.085101
#
# Coordination Sequence:
#
# PCOD8242551 Si02
#       6
#     8   8   8   8   8   8
#     4  10  20  33  50  77 113 148 181 216 259 316
#     4  10  23  41  57  78 105 137 178 226 272 318
#     4  10  20  35  53  76 110 143 177 218 264 320
#     4  11  20  31  49  77 111 143 175 212 264 324
#     4  11  21  35  54  78 111 142 176 221 267 319
#     4  10  20  32  49  78 113 146 181 217 258 314
#
# _framework density 18.284983
#
# number of rings (size 3 to 8) (size 9 to 14) (size 15 to 20)
#    0.000    1.667    3.333    2.000    0.000    4.667 
#    0.000    0.000    0.000    1.000    0.000    0.000 
#    0.000    0.000    0.000    0.000    0.000    0.000 
#
# Total GULP energy -594748.049901 kJ/mol
# GULP energy per Si atom -12390.584373 kJ/mol
# Density = 1.824337 g / cm^3
# Si number density = 18.284983 Si / 1000 Ang^3
#
#
#
# Elastic Constant Matrix: (Units=GPa)
#
#
# Indices 1 2 3 4 5 6 
#
# 1 141.7763 64.2082 46.2700 0.0000 0.0000 0.0000
# 2 64.2082 89.0420 31.1344 0.0000 0.0000 0.0000
# 3 46.2700 31.1344 72.2175 0.0000 0.0000 0.0000
# 4 0.0000 0.0000 0.0000 24.8579 0.0000 0.0000
# 5 0.0000 0.0000 0.0000 0.0000 13.6435 0.0000
# 6 0.0000 0.0000 0.0000 0.0000 0.0000 32.2047
#
#
#
# Elastic Compliance Matrix: (Units=1/GPa)
#
#
# Indices 1 2 3 4 5 6 
#
# 1 0.011598 -0.006788 -0.004504 0.000000 0.000000 0.000000
# 2 -0.006788 0.017197 -0.003065 0.000000 0.000000 0.000000
# 3 -0.004504 -0.003065 0.018054 0.000000 0.000000 0.000000
# 4 0.000000 0.000000 0.000000 0.040229 0.000000 0.000000
# 5 0.000000 0.000000 0.000000 0.000000 0.073295 0.000000
# 6 0.000000 0.000000 0.000000 0.000000 0.000000 0.031051
#
#
# Mechanical properties :
#
#
# Convention : Reuss Voigt Hill
#
# Bulk Modulus (GPa) = 55.14273 65.14011 60.14142
# Shear Modulus (GPa) = 22.10597 24.90276 23.50436
#
# Velocity S-wave (km/s) = 3.48079 3.69443 3.58920
# Velocity P-wave (km/s) = 6.81010 7.34171 7.08089
#
# Compressibility (1/GPa) = 0.01813476
#
# Stress axis : x y z
#
# Youngs Moduli (GPa) = 86.22524 58.14890 55.38883
#
# Poissons Ratio (x) = 0.39472 0.24948
# Poissons Ratio (y) = 0.58530 0.16976
# Poissons Ratio (z) = 0.38837 0.17822
#
# Static dielectric constant tensor:
#      x y z
#    x 3.691760 0.000000 0.000000 
#    y 0.000000 3.676570 0.000000 
#    z 0.000000 0.000000 3.019050 
# 
# 
# High freq. dielectric constant tensor:
#      x y z
#    x 1.731060 0.000000 0.000000 
#    y 0.000000 1.718500 0.000000 
#    z 0.000000 0.000000 1.653230 
# 
# From -- ./inp_files/14507.got.cif
#   From: 2010.03.12/outbox.cif.g09.slc.cpg/sg59_8_cif.got.tgz:14507.got - 2010.04.16 16:29:54.
