data_PCOD8242253
_publ_section_title
;
Structure prediction by ZEFSAII (Michael W. Deem and Ramdas Pophale) SiO2 
 PCOD8242253
Probable space group: P M M N
;
_chemical_formula_sum "Si O2"
_cell_formula_units_Z 38
_cell_length_a 24.230488
_cell_length_b 7.568581
_cell_length_c 10.882629
_cell_angle_alpha 90.000000
_cell_angle_beta 90.000000
_cell_angle_gamma 90.000000
_cell_volume 1995.769806
_symmetry_space_group_name_H-M "P M M N"
_symmetry_group_IT_number 59
_space_group.IT_coordinate_system_code '2'
_symmetry_cell_setting 'orthorhombic'
loop_
_space_group_symop_operation_xyz
x,y,z
1/2-x,1/2-y,z
1/2+x,-y,-z
-x,1/2+y,-z
-x,-y,-z
1/2+x,1/2+y,-z
1/2-x,y,z
x,1/2-y,z
loop_
_atom_site_type_symbol
_atom_site_label
_atom_site_fract_x
_atom_site_fract_y
_atom_site_fract_z
Si Si1 0.315197 0.250000 0.014963
Si Si2 0.058470 0.457867 0.365528
Si Si3 0.250000 0.250000 0.589131
Si Si4 0.250000 0.954472 0.389702
Si Si5 0.155514 0.549401 0.201137
Si Si6 0.359545 0.250000 0.745526
Si Si7 0.567368 0.050437 0.364106
O O1 0.250000 0.250000 0.992279
O O2 0.333555 0.425320 0.085973
O O3 0.348331 0.250000 0.889237
O O4 0.064499 0.250000 0.380359
O O5 0.093345 0.527686 0.250293
O O6 0.081171 0.544095 0.490871
O O7 0.995381 0.513941 0.342395
O O8 0.250000 0.427814 0.510220
O O9 0.302960 0.250000 0.673451
O O10 0.250000 0.750000 0.430009
O O11 0.303596 0.004222 0.310777
O O12 0.166104 0.750000 0.158001
O O13 0.393177 0.425657 0.713445
O O14 0.576287 0.250000 0.316880
#
# Coordination Sequence:
#
# PCOD8242253 Si02
#       7
#     4   8   2   4   8   4   8
#     4  12  25  46  64  84 121 175 221 268 303 352
#     4  10  19  36  66  99 126 165 196 251 324 377
#     4  12  24  38  62  90 122 164 204 252 322 378
#     4  10  22  37  59  99 127 148 195 268 322 375
#     4  11  22  38  66  94 122 159 211 261 316 365
#     4  12  26  43  62  87 124 175 217 248 309 371
#     4  10  22  39  62  94 134 162 199 249 315 388
#
# _framework density 19.040272999999999
#
# number of rings (size 3 to 8) (size 9 to 14) (size 15 to 20)
#    0.000    1.263    3.684    2.526    2.947    3.368 
#    0.000    1.053    0.000    0.000    0.000    0.000 
#    0.000    0.000    0.000    0.000    0.000    0.000 
#
# Total GULP energy -471410.501331 kJ/mol
# GULP energy per Si atom -12405.539509 kJ/mol
# Density = 1.899694 g / cm^3
# Si number density = 19.040273 Si / 1000 Ang^3
#
#
#
# Elastic Constant Matrix: (Units=GPa)
#
#
# Indices 1 2 3 4 5 6 
#
# 1 111.2624 45.0017 59.0051 0.0000 0.0000 0.0000
# 2 45.0017 106.3395 48.3110 0.0000 0.0000 0.0000
# 3 59.0051 48.3110 91.4485 0.0000 0.0000 0.0000
# 4 0.0000 0.0000 0.0000 4.8429 0.0000 0.0000
# 5 0.0000 0.0000 0.0000 0.0000 50.6013 0.0000
# 6 0.0000 0.0000 0.0000 0.0000 0.0000 30.3126
#
#
#
# Elastic Compliance Matrix: (Units=1/GPa)
#
#
# Indices 1 2 3 4 5 6 
#
# 1 0.014120 -0.002416 -0.007834 0.000000 0.000000 0.000000
# 2 -0.002416 0.012787 -0.005196 0.000000 0.000000 0.000000
# 3 -0.007834 -0.005196 0.018735 0.000000 0.000000 0.000000
# 4 0.000000 0.000000 0.000000 0.206487 0.000000 0.000000
# 5 0.000000 0.000000 0.000000 0.000000 0.019762 0.000000
# 6 0.000000 0.000000 0.000000 0.000000 0.000000 0.032990
#
#
# Mechanical properties :
#
#
# Convention : Reuss Voigt Hill
#
# Bulk Modulus (GPa) = 67.80205 68.18735 67.99470
# Shear Modulus (GPa) = 14.67611 27.60020 21.13815
#
# Velocity S-wave (km/s) = 2.77933 3.81145 3.33555
# Velocity P-wave (km/s) = 6.78135 7.43367 7.11499
#
# Compressibility (1/GPa) = 0.01474882
#
# Stress axis : x y z
#
# Youngs Moduli (GPa) = 70.82390 78.20407 53.37655
#
# Poissons Ratio (x) = 0.18896 0.41814
# Poissons Ratio (y) = 0.17113 0.27736
# Poissons Ratio (z) = 0.55482 0.40636
#
# Static dielectric constant tensor:
#      x y z
#    x 3.772080 0.000000 0.000000 
#    y 0.000000 3.596540 0.000000 
#    z 0.000000 0.000000 3.202260 
# 
# 
# High freq. dielectric constant tensor:
#      x y z
#    x 1.753480 0.000000 0.000000 
#    y 0.000000 1.758490 0.000000 
#    z 0.000000 0.000000 1.709710 
# 
# From -- ./inp_files/11918.got.cif
#   From: 2010.03.12/outbox.cif.g09.slc.cpg/sg59_6_cif.got.tgz:11918.got - 2010.04.16 16:29:54.
