data_PCOD8242063
_publ_section_title
;
Structure prediction by ZEFSAII (Michael W. Deem and Ramdas Pophale) SiO2 
 PCOD8242063
Probable space group: P M M N
;
_chemical_formula_sum "Si O2"
_cell_formula_units_Z 56
_cell_length_a 19.034812
_cell_length_b 8.990779
_cell_length_c 17.765822
_cell_angle_alpha 90.000000
_cell_angle_beta 90.000000
_cell_angle_gamma 90.000000
_cell_volume 3040.403479
_symmetry_space_group_name_H-M "P M M N"
_symmetry_group_IT_number 59
_space_group.IT_coordinate_system_code '2'
_symmetry_cell_setting 'orthorhombic'
loop_
_space_group_symop_operation_xyz
x,y,z
1/2-x,1/2-y,z
1/2+x,-y,-z
-x,1/2+y,-z
-x,-y,-z
1/2+x,1/2+y,-z
1/2-x,y,z
x,1/2-y,z
loop_
_atom_site_type_symbol
_atom_site_label
_atom_site_fract_x
_atom_site_fract_y
_atom_site_fract_z
Si Si1 0.831802 0.921882 0.417916
Si Si2 0.908494 0.924776 0.264094
Si Si3 0.569914 0.426441 0.531302
Si Si4 0.564707 0.074016 0.700661
Si Si5 0.331077 0.924845 0.872495
Si Si6 0.669385 0.074443 0.827268
Si Si7 0.666516 0.582364 0.977545
O O1 0.750000 0.956696 0.411321
O O2 0.846939 0.750000 0.436744
O O3 0.867371 0.966714 0.339696
O O4 0.862797 0.022495 0.484169
O O5 0.902850 0.750000 0.246675
O O6 0.988233 0.980536 0.273043
O O7 0.875404 0.015625 0.196584
O O8 0.500000 0.500000 0.500000
O O9 0.561262 0.250000 0.527180
O O10 0.581379 0.482707 0.616700
O O11 0.565822 0.250000 0.700856
O O12 0.623881 0.012596 0.757443
O O13 0.250000 0.969469 0.859859
O O14 0.340488 0.750000 0.879866
O O15 0.361446 0.997842 0.948682
O O16 0.750000 0.029253 0.811976
O O17 0.661501 0.250000 0.837425
O O18 0.639021 0.999361 0.902729
O O19 0.750000 0.578352 0.977360
O O20 0.637404 0.750000 0.978525
#
# Coordination Sequence:
#
# PCOD8242063 Si02
#       7
#     8   8   8   8   8   8   8
#     4  10  21  37  57  82 112 146 185 230 280 330
#     4  10  19  35  55  75 105 145 184 219 265 324
#     4  11  21  37  59  81 109 146 188 229 275 331
#     4   9  19  35  56  79 105 141 182 220 265 327
#     4  10  20  33  51  78 109 138 175 223 269 315
#     4   9  17  32  55  80 105 134 172 222 273 315
#     4   9  17  31  52  77 105 139 177 215 262 320
#
# _framework density 18.418609
#
# number of rings (size 3 to 8) (size 9 to 14) (size 15 to 20)
#    0.000    2.286    1.429    1.714    0.000    4.571 
#    0.000    4.286    0.000    1.714    0.000    0.000 
#    0.000    0.000    0.000    0.000    0.000    0.000 
#
# Total GULP energy -694496.110137 kJ/mol
# GULP energy per Si atom -12401.716252 kJ/mol
# Density = 1.837669 g / cm^3
# Si number density = 18.418609 Si / 1000 Ang^3
#
#
#
# Elastic Constant Matrix: (Units=GPa)
#
#
# Indices 1 2 3 4 5 6 
#
# 1 101.6985 36.1195 76.5403 0.0000 0.0000 0.0000
# 2 36.1195 64.9901 60.2297 0.0000 0.0000 0.0000
# 3 76.5403 60.2297 182.0113 0.0000 0.0000 0.0000
# 4 0.0000 0.0000 0.0000 33.8293 0.0000 0.0000
# 5 0.0000 0.0000 0.0000 0.0000 19.4266 0.0000
# 6 0.0000 0.0000 0.0000 0.0000 0.0000 23.1531
#
#
#
# Elastic Compliance Matrix: (Units=1/GPa)
#
#
# Indices 1 2 3 4 5 6 
#
# 1 0.014942 -0.003578 -0.005099 0.000000 0.000000 0.000000
# 2 -0.003578 0.023050 -0.006123 0.000000 0.000000 0.000000
# 3 -0.005099 -0.006123 0.009665 0.000000 0.000000 0.000000
# 4 0.000000 0.000000 0.000000 0.029560 0.000000 0.000000
# 5 0.000000 0.000000 0.000000 0.000000 0.051476 0.000000
# 6 0.000000 0.000000 0.000000 0.000000 0.000000 0.043191
#
#
# Mechanical properties :
#
#
# Convention : Reuss Voigt Hill
#
# Bulk Modulus (GPa) = 55.38456 77.16433 66.27444
# Shear Modulus (GPa) = 24.09614 27.00248 25.54931
#
# Velocity S-wave (km/s) = 3.62090 3.83305 3.72848
# Velocity P-wave (km/s) = 6.90046 7.84700 7.38890
#
# Compressibility (1/GPa) = 0.01805557
#
# Stress axis : x y z
#
# Youngs Moduli (GPa) = 66.92684 43.38401 103.47063
#
# Poissons Ratio (x) = 0.15525 0.52762
# Poissons Ratio (y) = 0.23949 0.63352
# Poissons Ratio (z) = 0.34127 0.26563
#
# Static dielectric constant tensor:
#      x y z
#    x 3.390430 0.000000 0.000000 
#    y 0.000000 3.305390 0.000000 
#    z 0.000000 0.000000 3.702000 
# 
# 
# High freq. dielectric constant tensor:
#      x y z
#    x 1.700370 0.000000 0.000000 
#    y 0.000000 1.702020 0.000000 
#    z 0.000000 0.000000 1.729410 
# 
# From -- ./inp_files/24214.got.cif
#   From: 2010.03.12/outbox.cif.g09.slc.cpg/sg59_13_cif.got.tgz:24214.got - 2010.04.16 16:29:54.
