data_PCOD8242303
_publ_section_title
;
Structure prediction by ZEFSAII (Michael W. Deem and Ramdas Pophale) SiO2 
 PCOD8242303
Probable space group: P M M N
;
_chemical_formula_sum "Si O2"
_cell_formula_units_Z 56
_cell_length_a 18.744810
_cell_length_b 9.621696
_cell_length_c 18.040469
_cell_angle_alpha 90.000000
_cell_angle_beta 90.000000
_cell_angle_gamma 90.000000
_cell_volume 3253.722403
_symmetry_space_group_name_H-M "P M M N"
_symmetry_group_IT_number 59
_space_group.IT_coordinate_system_code '2'
_symmetry_cell_setting 'orthorhombic'
loop_
_space_group_symop_operation_xyz
x,y,z
1/2-x,1/2-y,z
1/2+x,-y,-z
-x,1/2+y,-z
-x,-y,-z
1/2+x,1/2+y,-z
1/2-x,y,z
x,1/2-y,z
loop_
_atom_site_type_symbol
_atom_site_label
_atom_site_fract_x
_atom_site_fract_y
_atom_site_fract_z
Si Si1 0.914109 0.414431 0.708343
Si Si2 0.834886 0.904638 0.990167
Si Si3 0.166961 0.910616 0.144092
Si Si4 0.170213 0.415604 0.847025
Si Si5 0.666370 0.590144 0.587720
Si Si6 0.076489 0.084581 0.712388
Si Si7 0.670975 0.914735 0.421012
O O1 0.908105 0.250000 0.695400
O O2 0.875108 0.460147 0.783531
O O3 0.877615 0.489692 0.640017
O O4 0.995339 0.466595 0.713345
O O5 0.750000 0.900147 0.988771
O O6 0.865544 0.750000 0.975792
O O7 0.863974 0.005735 0.926201
O O8 0.858289 0.960991 0.071429
O O9 0.250000 0.942039 0.157891
O O10 0.153089 0.750000 0.127115
O O11 0.250000 0.474110 0.832064
O O12 0.173031 0.250000 0.844545
O O13 0.116911 0.475271 0.784776
O O14 0.750000 0.569374 0.602283
O O15 0.644840 0.750000 0.602394
O O16 0.646706 0.544882 0.503870
O O17 0.079606 0.250000 0.713213
O O18 0.115101 0.024990 0.638716
O O19 0.750000 0.975311 0.404206
O O20 0.674917 0.750000 0.414779
#
# Coordination Sequence:
#
# PCOD8242303 Si02
#       7
#     8   8   8   8   8   8   8
#     4  10  20  31  44  66  94 121 150 183 219 263
#     4   8  14  25  43  67  88 106 139 187 227 256
#     4   9  17  29  43  58  81 115 150 181 216 261
#     4   8  13  23  42  67  91 114 144 184 225 262
#     4   9  18  32  49  68  89 115 149 187 224 262
#     4   9  16  26  42  65  93 122 148 177 219 267
#     4   8  14  26  45  68  91 115 147 185 221 261
#
# _framework density 17.211055000000002
#
# number of rings (size 3 to 8) (size 9 to 14) (size 15 to 20)
#    0.000    3.286    0.000    2.571    0.000    3.714 
#    0.000    2.143    0.000    0.857    0.000    0.000 
#    0.000    5.714    0.000    0.000    0.000    0.000 
#
# Total GULP energy -694126.912481 kJ/mol
# GULP energy per Si atom -12395.123437 kJ/mol
# Density = 1.717188 g / cm^3
# Si number density = 17.211055 Si / 1000 Ang^3
#
#
#
# Elastic Constant Matrix: (Units=GPa)
#
#
# Indices 1 2 3 4 5 6 
#
# 1 90.9437 28.7211 83.1697 0.0000 0.0000 0.0000
# 2 28.7211 30.4247 45.9676 0.0000 0.0000 0.0000
# 3 83.1697 45.9676 177.6191 0.0000 0.0000 0.0000
# 4 0.0000 0.0000 0.0000 17.4111 0.0000 0.0000
# 5 0.0000 0.0000 0.0000 0.0000 0.5792 0.0000
# 6 0.0000 0.0000 0.0000 0.0000 0.0000 13.4596
#
#
#
# Elastic Compliance Matrix: (Units=1/GPa)
#
#
# Indices 1 2 3 4 5 6 
#
# 1 0.020323 -0.007894 -0.007473 0.000000 0.000000 0.000000
# 2 -0.007894 0.057038 -0.011065 0.000000 0.000000 0.000000
# 3 -0.007473 -0.011065 0.011993 0.000000 0.000000 0.000000
# 4 0.000000 0.000000 0.000000 0.057434 0.000000 0.000000
# 5 0.000000 0.000000 0.000000 0.000000 1.726518 0.000000
# 6 0.000000 0.000000 0.000000 0.000000 0.000000 0.074296
#
#
# Mechanical properties :
#
#
# Convention : Reuss Voigt Hill
#
# Bulk Modulus (GPa) = 27.40530 68.30049 47.85289
# Shear Modulus (GPa) = 2.48431 15.69860 9.09145
#
# Velocity S-wave (km/s) = 1.20274 3.02341 2.30083
# Velocity P-wave (km/s) = 4.22923 7.20821 5.90951
#
# Compressibility (1/GPa) = 0.03648930
#
# Stress axis : x y z
#
# Youngs Moduli (GPa) = 49.20422 17.53224 83.38201
#
# Poissons Ratio (x) = 0.13840 0.62315
# Poissons Ratio (y) = 0.38843 0.92261
# Poissons Ratio (z) = 0.36772 0.19399
#
# Static dielectric constant tensor:
#      x y z
#    x 3.217890 0.000000 0.000000 
#    y 0.000000 2.808580 0.000000 
#    z 0.000000 0.000000 3.572140 
# 
# 
# High freq. dielectric constant tensor:
#      x y z
#    x 1.648020 0.000000 0.000000 
#    y 0.000000 1.611740 0.000000 
#    z 0.000000 0.000000 1.682030 
# 
# From -- ./inp_files/28099.got.cif
#   From: 2010.03.12/outbox.cif.g09.slc.cpg/sg59_15_cif.got.tgz:28099.got - 2010.04.16 16:29:54.
