data_PCOD8242010
_publ_section_title
;
Structure prediction by ZEFSAII (Michael W. Deem and Ramdas Pophale) SiO2 
 PCOD8242010
Probable space group: P M M N
;
_chemical_formula_sum "Si O2"
_cell_formula_units_Z 56
_cell_length_a 13.661893
_cell_length_b 16.795564
_cell_length_c 12.408915
_cell_angle_alpha 90.000000
_cell_angle_beta 90.000000
_cell_angle_gamma 90.000000
_cell_volume 2847.339687
_symmetry_space_group_name_H-M "P M M N"
_symmetry_group_IT_number 59
_space_group.IT_coordinate_system_code '2'
_symmetry_cell_setting 'orthorhombic'
loop_
_space_group_symop_operation_xyz
x,y,z
1/2-x,1/2-y,z
1/2+x,-y,-z
-x,1/2+y,-z
-x,-y,-z
1/2+x,1/2+y,-z
1/2-x,y,z
x,1/2-y,z
loop_
_atom_site_type_symbol
_atom_site_label
_atom_site_fract_x
_atom_site_fract_y
_atom_site_fract_z
Si Si1 0.432195 0.842101 0.083532
Si Si2 0.471134 0.562820 0.674728
Si Si3 0.364215 0.557890 0.289320
Si Si4 0.858456 0.908774 0.355596
Si Si5 0.362101 0.841427 0.852355
Si Si6 0.354961 0.159412 0.874009
Si Si7 0.034727 0.839985 0.463969
O O1 0.413504 0.750000 0.114431
O O2 0.396790 0.894726 0.182941
O O3 0.547928 0.857337 0.055812
O O4 0.372596 0.866163 0.977403
O O5 0.576685 0.525067 0.703094
O O6 0.400518 0.496424 0.622774
O O7 0.428737 0.600498 0.783084
O O8 0.477901 0.630832 0.585726
O O9 0.250000 0.537679 0.284502
O O10 0.386924 0.609909 0.395251
O O11 0.750000 0.901443 0.405151
O O12 0.858434 0.898028 0.227882
O O13 0.927627 0.843356 0.409911
O O14 0.250000 0.852523 0.816945
O O15 0.395956 0.750000 0.836924
O O16 0.250000 0.144106 0.935698
O O17 0.357221 0.250000 0.831805
O O18 0.072648 0.750000 0.466702
#
# Coordination Sequence:
#
# PCOD8242010 Si02
#       7
#     8   8   8   8   8   8   8
#     4  10  19  36  60  87 119 152 194 247 296 344
#     4  11  23  39  58  81 119 156 194 238 285 347
#     4  11  23  39  59  87 119 151 191 242 302 352
#     4  10  19  34  57  85 113 145 185 234 289 345
#     4  10  22  40  62  86 114 154 199 240 286 345
#     4   9  16  29  53  84 115 145 181 230 289 346
#     4  11  23  38  58  85 114 151 193 239 291 346
#
# _framework density 19.667480999999999
#
# number of rings (size 3 to 8) (size 9 to 14) (size 15 to 20)
#    0.000    1.714    2.857    3.857    0.000    6.000 
#    0.000    0.714    0.000    2.143    0.000    0.000 
#    0.000    0.000    0.000    0.000    0.000    0.000 
#
# Total GULP energy -694262.506430 kJ/mol
# GULP energy per Si atom -12397.544758 kJ/mol
# Density = 1.962272 g / cm^3
# Si number density = 19.667481 Si / 1000 Ang^3
#
#
#
# Elastic Constant Matrix: (Units=GPa)
#
#
# Indices 1 2 3 4 5 6 
#
# 1 136.8930 32.2340 30.3240 0.0000 0.0000 0.0000
# 2 32.2340 80.0774 37.9165 0.0000 0.0000 0.0000
# 3 30.3240 37.9165 84.0330 0.0000 0.0000 0.0000
# 4 0.0000 0.0000 0.0000 27.8732 0.0000 0.0000
# 5 0.0000 0.0000 0.0000 0.0000 18.1088 0.0000
# 6 0.0000 0.0000 0.0000 0.0000 0.0000 19.9749
#
#
#
# Elastic Compliance Matrix: (Units=1/GPa)
#
#
# Indices 1 2 3 4 5 6 
#
# 1 0.008300 -0.002445 -0.001892 0.000000 0.000000 0.000000
# 2 -0.002445 0.016601 -0.006608 0.000000 0.000000 0.000000
# 3 -0.001892 -0.006608 0.015564 0.000000 0.000000 0.000000
# 4 0.000000 0.000000 0.000000 0.035877 0.000000 0.000000
# 5 0.000000 0.000000 0.000000 0.000000 0.055222 0.000000
# 6 0.000000 0.000000 0.000000 0.000000 0.000000 0.050063
#
#
# Mechanical properties :
#
#
# Convention : Reuss Voigt Hill
#
# Bulk Modulus (GPa) = 53.83575 55.77250 54.80412
# Shear Modulus (GPa) = 23.84259 26.55999 25.20129
#
# Velocity S-wave (km/s) = 3.48557 3.67884 3.58350
# Velocity P-wave (km/s) = 6.60540 6.81648 6.71177
#
# Compressibility (1/GPa) = 0.01857502
#
# Stress axis : x y z
#
# Youngs Moduli (GPa) = 120.48487 60.23666 64.24909
#
# Poissons Ratio (x) = 0.14729 0.12154
# Poissons Ratio (y) = 0.29461 0.42457
# Poissons Ratio (z) = 0.22793 0.39806
#
# Static dielectric constant tensor:
#      x y z
#    x 3.936470 0.000000 0.000000 
#    y 0.000000 3.501120 0.000000 
#    z 0.000000 0.000000 3.357990 
# 
# 
# High freq. dielectric constant tensor:
#      x y z
#    x 1.775770 0.000000 0.000000 
#    y 0.000000 1.760520 0.000000 
#    z 0.000000 0.000000 1.746700 
# 
# From -- ./inp_files/16954.got.cif
#   From: 2010.03.12/outbox.cif.g09.slc.cpg/sg59_9_cif.got.tgz:16954.got - 2010.04.16 16:29:54.
