data_PCOD8242429
_publ_section_title
;
Structure prediction by ZEFSAII (Michael W. Deem and Ramdas Pophale) SiO2 
 PCOD8242429
Probable space group: P M M N
;
_chemical_formula_sum "Si O2"
_cell_formula_units_Z 64
_cell_length_a 15.923758
_cell_length_b 9.470472
_cell_length_c 23.524021
_cell_angle_alpha 90.000000
_cell_angle_beta 90.000000
_cell_angle_gamma 90.000000
_cell_volume 3547.551849
_symmetry_space_group_name_H-M "P M M N"
_symmetry_group_IT_number 59
_space_group.IT_coordinate_system_code '2'
_symmetry_cell_setting 'orthorhombic'
loop_
_space_group_symop_operation_xyz
x,y,z
1/2-x,1/2-y,z
1/2+x,-y,-z
-x,1/2+y,-z
-x,-y,-z
1/2+x,1/2+y,-z
1/2-x,y,z
x,1/2-y,z
loop_
_atom_site_type_symbol
_atom_site_label
_atom_site_fract_x
_atom_site_fract_y
_atom_site_fract_z
Si Si1 0.844896 0.585151 0.940767
Si Si2 0.345040 0.589252 0.323625
Si Si3 0.655071 0.415063 0.055356
Si Si4 0.002510 0.916709 0.867569
Si Si5 0.654018 0.594228 0.454797
Si Si6 0.099360 0.089032 0.425325
Si Si7 0.577701 0.406556 0.367490
Si Si8 0.979748 0.582605 0.740433
O O1 0.750000 0.557226 0.917257
O O2 0.857222 0.750000 0.954562
O O3 0.915008 0.531467 0.895978
O O4 0.860448 0.499201 0.997856
O O5 0.250000 0.589732 0.301707
O O6 0.379188 0.750000 0.328719
O O7 0.348091 0.514516 0.384980
O O8 0.396930 0.501846 0.277130
O O9 0.750000 0.442276 0.078566
O O10 0.641510 0.250000 0.042495
O O11 0.585960 0.472290 0.100223
O O12 0.004047 0.750000 0.867848
O O13 0.006614 0.970266 0.802759
O O14 0.750000 0.597724 0.472816
O O15 0.619314 0.750000 0.440954
O O16 0.605549 0.532514 0.509899
O O17 0.645650 0.505795 0.396871
O O18 0.134553 0.250000 0.421096
O O19 0.003483 0.085234 0.406969
O O20 0.615726 0.250000 0.365845
O O21 0.554998 0.454861 0.303329
O O22 0.959493 0.750000 0.737663
#
# Coordination Sequence:
#
# PCOD8242429 Si02
#       8
#     8   8   8   8   8   8   8   8
#     4   9  17  29  47  73 103 131 158 191 233 282
#     4  10  20  32  47  71 101 128 155 192 239 288
#     4   9  17  30  49  73 100 129 160 197 243 288
#     4   9  17  31  51  73  96 124 164 207 238 276
#     4  10  20  32  48  71  96 122 153 190 235 288
#     4   9  18  33  52  72  93 120 156 193 232 286
#     4   9  18  32  49  69  92 120 155 195 239 282
#     4   9  19  35  52  69  91 124 167 205 235 277
#
# _framework density 18.040610000000001
#
# number of rings (size 3 to 8) (size 9 to 14) (size 15 to 20)
#    0.000    2.750    0.000    2.250    0.000    4.750 
#    0.000    3.125    0.000    3.750    0.000    1.750 
#    0.000    0.000    0.000    0.000    0.000    0.000 
#
# Total GULP energy -793305.845565 kJ/mol
# GULP energy per Si atom -12395.403837 kJ/mol
# Density = 1.799955 g / cm^3
# Si number density = 18.040610 Si / 1000 Ang^3
#
#
#
# Elastic Constant Matrix: (Units=GPa)
#
#
# Indices 1 2 3 4 5 6 
#
# 1 77.3730 23.4019 59.9355 0.0000 0.0000 0.0000
# 2 23.4019 53.4560 41.1125 0.0000 0.0000 0.0000
# 3 59.9355 41.1125 146.7035 0.0000 0.0000 0.0000
# 4 0.0000 0.0000 0.0000 22.1276 0.0000 0.0000
# 5 0.0000 0.0000 0.0000 0.0000 18.1614 0.0000
# 6 0.0000 0.0000 0.0000 0.0000 0.0000 22.3406
#
#
#
# Elastic Compliance Matrix: (Units=1/GPa)
#
#
# Indices 1 2 3 4 5 6 
#
# 1 0.019288 -0.003038 -0.007029 0.000000 0.000000 0.000000
# 2 -0.003038 0.024325 -0.005576 0.000000 0.000000 0.000000
# 3 -0.007029 -0.005576 0.011251 0.000000 0.000000 0.000000
# 4 0.000000 0.000000 0.000000 0.045192 0.000000 0.000000
# 5 0.000000 0.000000 0.000000 0.000000 0.055062 0.000000
# 6 0.000000 0.000000 0.000000 0.000000 0.000000 0.044762
#
#
# Mechanical properties :
#
#
# Convention : Reuss Voigt Hill
#
# Bulk Modulus (GPa) = 42.41122 58.49249 50.45185
# Shear Modulus (GPa) = 20.91838 22.73142 21.82490
#
# Velocity S-wave (km/s) = 3.40886 3.55352 3.48194
# Velocity P-wave (km/s) = 6.24929 7.02351 6.64768
#
# Compressibility (1/GPa) = 0.02357867
#
# Stress axis : x y z
#
# Youngs Moduli (GPa) = 51.84593 41.10950 88.88449
#
# Poissons Ratio (x) = 0.12490 0.62474
# Poissons Ratio (y) = 0.15752 0.49559
# Poissons Ratio (z) = 0.36441 0.22921
#
# Static dielectric constant tensor:
#      x y z
#    x 3.330490 0.000000 0.000000 
#    y 0.000000 3.285750 0.000000 
#    z 0.000000 0.000000 3.412710 
# 
# 
# High freq. dielectric constant tensor:
#      x y z
#    x 1.693200 0.000000 0.000000 
#    y 0.000000 1.683530 0.000000 
#    z 0.000000 0.000000 1.689900 
# 
# From -- ./inp_files/29538.got.cif
#   From: 2010.03.12/outbox.cif.g09.slc.cpg/sg59_15_cif.got.tgz:29538.got - 2010.04.16 16:29:54.
