data_PCOD8242905
_publ_section_title
;
Structure prediction by ZEFSAII (Michael W. Deem and Ramdas Pophale) SiO2 
 PCOD8242905
Probable space group: P M M N
;
_chemical_formula_sum "Si O2"
_cell_formula_units_Z 64
_cell_length_a 14.054342
_cell_length_b 9.026160
_cell_length_c 27.532844
_cell_angle_alpha 90.000000
_cell_angle_beta 90.000000
_cell_angle_gamma 90.000000
_cell_volume 3492.726821
_symmetry_space_group_name_H-M "P M M N"
_symmetry_group_IT_number 59
_space_group.IT_coordinate_system_code '2'
_symmetry_cell_setting 'orthorhombic'
loop_
_space_group_symop_operation_xyz
x,y,z
1/2-x,1/2-y,z
1/2+x,-y,-z
-x,1/2+y,-z
-x,-y,-z
1/2+x,1/2+y,-z
1/2-x,y,z
x,1/2-y,z
loop_
_atom_site_type_symbol
_atom_site_label
_atom_site_fract_x
_atom_site_fract_y
_atom_site_fract_z
Si Si1 0.492270 0.423533 0.574296
Si Si2 0.641047 0.422663 0.234124
Si Si3 0.140439 0.078825 0.985206
Si Si4 0.489452 0.078013 0.076039
Si Si5 0.641255 0.921056 0.745285
Si Si6 0.980977 0.074520 0.823670
Si Si7 0.021357 0.919317 0.672974
Si Si8 0.357855 0.424147 0.487082
O O1 0.508885 0.250000 0.574728
O O2 0.461470 0.475576 0.627402
O O3 0.408719 0.469972 0.537259
O O4 0.590822 0.499489 0.558482
O O5 0.750000 0.472800 0.231048
O O6 0.627501 0.250000 0.221966
O O7 0.582732 0.515318 0.194670
O O8 0.603237 0.456328 0.288108
O O9 0.250000 0.031086 0.988022
O O10 0.128604 0.250000 0.970314
O O11 0.094009 0.048844 0.037473
O O12 0.090016 0.979767 0.944413
O O13 0.500305 0.250000 0.089069
O O14 0.459492 0.987355 0.123227
O O15 0.750000 0.961232 0.733990
O O16 0.628190 0.750000 0.760900
O O17 0.581545 0.952838 0.696560
O O18 0.604196 0.021752 0.789020
O O19 0.983439 0.250000 0.824970
O O20 0.027967 0.750000 0.655462
O O21 0.250000 0.481678 0.489655
O O22 0.362514 0.250000 0.478411
#
# Coordination Sequence:
#
# PCOD8242905 Si02
#       8
#     8   8   8   8   8   8   8   8
#     4  10  20  33  51  77 105 132 166 210 256 302
#     4   9  19  37  58  78 102 135 177 219 256 303
#     4   9  19  36  56  78 104 134 171 216 262 306
#     4  10  20  35  55  78 105 139 176 212 255 309
#     4   9  19  37  58  77 101 137 179 218 256 304
#     4  11  22  35  53  79 110 140 172 215 264 310
#     4   9  18  33  53  78 106 136 169 206 254 310
#     4   9  19  36  54  71  97 135 174 210 251 301
#
# _framework density 18.323792000000001
#
# number of rings (size 3 to 8) (size 9 to 14) (size 15 to 20)
#    0.000    2.500    0.000    2.625    0.000    6.000 
#    0.000    2.500    0.000    0.000    0.000    0.000 
#    0.000    0.000    0.000    0.000    0.000    0.000 
#
# Total GULP energy -793816.598990 kJ/mol
# GULP energy per Si atom -12403.384359 kJ/mol
# Density = 1.828209 g / cm^3
# Si number density = 18.323792 Si / 1000 Ang^3
#
#
#
# Elastic Constant Matrix: (Units=GPa)
#
#
# Indices 1 2 3 4 5 6 
#
# 1 73.8641 11.1940 -13.5836 0.0000 0.0000 0.0000
# 2 11.1940 64.4109 22.2347 0.0000 0.0000 0.0000
# 3 -13.5836 22.2347 55.9063 0.0000 0.0000 0.0000
# 4 0.0000 0.0000 0.0000 37.1380 0.0000 0.0000
# 5 0.0000 0.0000 0.0000 0.0000 12.9028 0.0000
# 6 0.0000 0.0000 0.0000 0.0000 0.0000 24.1832
#
#
#
# Elastic Compliance Matrix: (Units=1/GPa)
#
#
# Indices 1 2 3 4 5 6 
#
# 1 0.015242 -0.004552 0.005514 0.000000 0.000000 0.000000
# 2 -0.004552 0.019356 -0.008804 0.000000 0.000000 0.000000
# 3 0.005514 -0.008804 0.022728 0.000000 0.000000 0.000000
# 4 0.000000 0.000000 0.000000 0.026927 0.000000 0.000000
# 5 0.000000 0.000000 0.000000 0.000000 0.077503 0.000000
# 6 0.000000 0.000000 0.000000 0.000000 0.000000 0.041351
#
#
# Mechanical properties :
#
#
# Convention : Reuss Voigt Hill
#
# Bulk Modulus (GPa) = 24.01465 25.98573 25.00019
# Shear Modulus (GPa) = 21.48946 26.46719 23.97832
#
# Velocity S-wave (km/s) = 3.42828 3.80467 3.62137
# Velocity P-wave (km/s) = 5.36703 5.78903 5.58202
#
# Compressibility (1/GPa) = 0.04164124
#
# Stress axis : x y z
#
# Youngs Moduli (GPa) = 65.60687 51.66439 43.99792
#
# Poissons Ratio (x) = 0.23520 -0.24260
# Poissons Ratio (y) = 0.29867 0.38736
# Poissons Ratio (z) = -0.36176 0.45486
#
# Static dielectric constant tensor:
#      x y z
#    x 3.482270 0.000000 0.000000 
#    y 0.000000 3.314920 0.000000 
#    z 0.000000 0.000000 3.298400 
# 
# 
# High freq. dielectric constant tensor:
#      x y z
#    x 1.711730 0.000000 0.000000 
#    y 0.000000 1.708090 0.000000 
#    z 0.000000 0.000000 1.709190 
# 
# From -- ./inp_files/32226.got.cif
#   From: 2010.03.12/outbox.cif.g09.slc.cpg/sg59_17_cif.got.tgz:32226.got - 2010.04.16 16:29:54.
