data_PCOD8242004
_publ_section_title
;
Structure prediction by ZEFSAII (Michael W. Deem and Ramdas Pophale) SiO2 
 PCOD8242004
Probable space group: P M M N
;
_chemical_formula_sum "Si O2"
_cell_formula_units_Z 48
_cell_length_a 28.011169
_cell_length_b 8.789048
_cell_length_c 10.290218
_cell_angle_alpha 90.000000
_cell_angle_beta 90.000000
_cell_angle_gamma 90.000000
_cell_volume 2533.364296
_symmetry_space_group_name_H-M "P M M N"
_symmetry_group_IT_number 59
_space_group.IT_coordinate_system_code '2'
_symmetry_cell_setting 'orthorhombic'
loop_
_space_group_symop_operation_xyz
x,y,z
1/2-x,1/2-y,z
1/2+x,-y,-z
-x,1/2+y,-z
-x,-y,-z
1/2+x,1/2+y,-z
1/2-x,y,z
x,1/2-y,z
loop_
_atom_site_type_symbol
_atom_site_label
_atom_site_fract_x
_atom_site_fract_y
_atom_site_fract_z
Si Si1 0.549263 0.927424 0.856553
Si Si2 0.195756 0.431004 0.506603
Si Si3 0.859357 0.427967 0.254786
Si Si4 0.149953 0.430030 0.243561
Si Si5 0.451122 0.073542 0.841824
Si Si6 0.694246 0.575315 0.022273
O O1 0.538353 0.750000 0.836880
O O2 0.595220 0.983115 0.775313
O O3 0.504392 0.022032 0.804242
O O4 0.559399 0.962625 0.007533
O O5 0.250000 0.491251 0.515769
O O6 0.195076 0.250000 0.505193
O O7 0.166048 0.486998 0.628206
O O8 0.171729 0.498908 0.375653
O O9 0.857016 0.250000 0.280176
O O10 0.914224 0.480581 0.246682
O O11 0.832847 0.468226 0.121928
O O12 0.151735 0.250000 0.251129
O O13 0.182168 0.483553 0.122231
O O14 0.445182 0.250000 0.809901
O O15 0.750000 0.561478 0.048141
O O16 0.676765 0.750000 0.041075
#
# Coordination Sequence:
#
# PCOD8242004 Si02
#       6
#     8   8   8   8   8   8
#     4   9  17  32  56  86 118 144 175 226 287 339
#     4  10  21  38  60  83 110 149 192 231 278 335
#     4  12  24  37  54  79 114 152 191 232 280 331
#     4   9  17  34  59  87 113 142 183 232 281 333
#     4  10  19  34  57  84 114 146 186 230 279 335
#     4  10  19  34  58  85 111 141 184 235 283 334
#
# _framework density 18.947137999999999
#
# number of rings (size 3 to 8) (size 9 to 14) (size 15 to 20)
#    0.000    2.000    1.667    3.000    0.000    5.333 
#    0.000    2.500    0.000    2.000    0.000    0.000 
#    0.000    0.000    0.000    0.000    0.000    0.000 
#
# Total GULP energy -595306.440357 kJ/mol
# GULP energy per Si atom -12402.217507 kJ/mol
# Density = 1.890401 g / cm^3
# Si number density = 18.947138 Si / 1000 Ang^3
#
#
#
# Elastic Constant Matrix: (Units=GPa)
#
#
# Indices 1 2 3 4 5 6 
#
# 1 112.6160 20.6036 43.7406 0.0000 0.0000 0.0000
# 2 20.6036 21.7521 3.1588 0.0000 0.0000 0.0000
# 3 43.7406 3.1588 75.4241 0.0000 0.0000 0.0000
# 4 0.0000 0.0000 0.0000 0.4075 0.0000 0.0000
# 5 0.0000 0.0000 0.0000 0.0000 32.6177 0.0000
# 6 0.0000 0.0000 0.0000 0.0000 0.0000 27.2797
#
#
#
# Elastic Compliance Matrix: (Units=1/GPa)
#
#
# Indices 1 2 3 4 5 6 
#
# 1 0.014094 -0.012238 -0.007661 0.000000 0.000000 0.000000
# 2 -0.012238 0.056879 0.004715 0.000000 0.000000 0.000000
# 3 -0.007661 0.004715 0.017504 0.000000 0.000000 0.000000
# 4 0.000000 0.000000 0.000000 2.454182 0.000000 0.000000
# 5 0.000000 0.000000 0.000000 0.000000 0.030658 0.000000
# 6 0.000000 0.000000 0.000000 0.000000 0.000000 0.036657
#
#
# Mechanical properties :
#
#
# Convention : Reuss Voigt Hill
#
# Bulk Modulus (GPa) = 17.20887 38.31091 27.75989
# Shear Modulus (GPa) = 1.87990 21.54693 11.71341
#
# Velocity S-wave (km/s) = 0.99716 3.37592 2.48909
# Velocity P-wave (km/s) = 3.22925 5.95479 4.78997
#
# Compressibility (1/GPa) = 0.05810958
#
# Stress axis : x y z
#
# Youngs Moduli (GPa) = 70.95071 17.58107 57.13033
#
# Poissons Ratio (x) = 0.21515 0.43769
# Poissons Ratio (y) = 0.86827 -0.26936
# Poissons Ratio (z) = 0.54357 -0.08289
#
# Static dielectric constant tensor:
#      x y z
#    x 3.699330 0.000000 0.000000 
#    y 0.000000 3.212640 0.000000 
#    z 0.000000 0.000000 3.498200 
# 
# 
# High freq. dielectric constant tensor:
#      x y z
#    x 1.755210 0.000000 0.000000 
#    y 0.000000 1.709950 0.000000 
#    z 0.000000 0.000000 1.722950 
# 
# From -- ./inp_files/12964.got.cif
#   From: 2010.03.12/outbox.cif.g09.slc.cpg/sg59_7_cif.got.tgz:12964.got - 2010.04.16 16:29:54.
