data_PCOD8242413
_publ_section_title
;
Structure prediction by ZEFSAII (Michael W. Deem and Ramdas Pophale) SiO2 
 PCOD8242413
Probable space group: P M M N
;
_chemical_formula_sum "Si O2"
_cell_formula_units_Z 48
_cell_length_a 18.749649
_cell_length_b 9.432562
_cell_length_c 15.376843
_cell_angle_alpha 90.000000
_cell_angle_beta 90.000000
_cell_angle_gamma 90.000000
_cell_volume 2719.505808
_symmetry_space_group_name_H-M "P M M N"
_symmetry_group_IT_number 59
_space_group.IT_coordinate_system_code '2'
_symmetry_cell_setting 'orthorhombic'
loop_
_space_group_symop_operation_xyz
x,y,z
1/2-x,1/2-y,z
1/2+x,-y,-z
-x,1/2+y,-z
-x,-y,-z
1/2+x,1/2+y,-z
1/2-x,y,z
x,1/2-y,z
loop_
_atom_site_type_symbol
_atom_site_label
_atom_site_fract_x
_atom_site_fract_y
_atom_site_fract_z
Si Si1 0.667645 0.914195 0.081800
Si Si2 0.578573 0.081496 0.748653
Si Si3 0.083459 0.417832 0.748114
Si Si4 0.829077 0.418267 0.590953
Si Si5 0.667512 0.415254 0.913015
Si Si6 0.833377 0.086363 0.395665
O O1 0.750000 0.944413 0.103627
O O2 0.653942 0.750000 0.061417
O O3 0.621929 0.966485 0.163647
O O4 0.642127 0.002437 0.998627
O O5 0.581544 0.250000 0.746928
O O6 0.497659 0.027563 0.752538
O O7 0.615771 0.019219 0.661649
O O8 0.621067 0.026156 0.832905
O O9 0.088502 0.250000 0.735727
O O10 0.121051 0.488487 0.666645
O O11 0.750000 0.479373 0.610398
O O12 0.825610 0.250000 0.597710
O O13 0.853433 0.460439 0.493874
O O14 0.750000 0.446143 0.891618
O O15 0.653966 0.250000 0.929712
O O16 0.750000 0.061084 0.378327
O O17 0.853154 0.250000 0.379380
#
# Coordination Sequence:
#
# PCOD8242413 Si02
#       6
#     8   8   8   8   8   8
#     4   9  18  32  47  63  88 123 157 188 229 281
#     4   9  17  29  46  70  98 124 152 189 232 279
#     4  10  20  32  47  69  97 128 157 186 228 281
#     4   8  14  27  48  71  94 122 155 191 233 277
#     4   9  17  30  50  73  92 115 154 200 236 267
#     4   9  18  32  50  71  93 120 157 197 232 269
#
# _framework density 17.650265999999998
#
# number of rings (size 3 to 8) (size 9 to 14) (size 15 to 20)
#    0.000    3.000    0.000    2.000    0.000    5.000 
#    0.000    2.500    0.000    1.000    0.000    2.333 
#    0.000    0.000    0.000    0.000    0.000    0.000 
#
# Total GULP energy -595152.701680 kJ/mol
# GULP energy per Si atom -12399.014618 kJ/mol
# Density = 1.761009 g / cm^3
# Si number density = 17.650266 Si / 1000 Ang^3
#
#
#
# Elastic Constant Matrix: (Units=GPa)
#
#
# Indices 1 2 3 4 5 6 
#
# 1 114.7442 32.4215 100.3453 0.0000 0.0000 0.0000
# 2 32.4215 28.1271 44.5609 0.0000 0.0000 0.0000
# 3 100.3453 44.5609 179.5748 0.0000 0.0000 0.0000
# 4 0.0000 0.0000 0.0000 23.4281 0.0000 0.0000
# 5 0.0000 0.0000 0.0000 0.0000 5.5251 0.0000
# 6 0.0000 0.0000 0.0000 0.0000 0.0000 17.6644
#
#
#
# Elastic Compliance Matrix: (Units=1/GPa)
#
#
# Indices 1 2 3 4 5 6 
#
# 1 0.018064 -0.007959 -0.008119 0.000000 0.000000 0.000000
# 2 -0.007959 0.062091 -0.010960 0.000000 0.000000 0.000000
# 3 -0.008119 -0.010960 0.012825 0.000000 0.000000 0.000000
# 4 0.000000 0.000000 0.000000 0.042684 0.000000 0.000000
# 5 0.000000 0.000000 0.000000 0.000000 0.180991 0.000000
# 6 0.000000 0.000000 0.000000 0.000000 0.000000 0.056611
#
#
# Mechanical properties :
#
#
# Convention : Reuss Voigt Hill
#
# Bulk Modulus (GPa) = 25.70452 75.23351 50.46902
# Shear Modulus (GPa) = 11.35557 18.99807 15.17682
#
# Velocity S-wave (km/s) = 2.53922 3.28435 2.93552
# Velocity P-wave (km/s) = 4.81578 7.55644 6.33607
#
# Compressibility (1/GPa) = 0.03890366
#
# Stress axis : x y z
#
# Youngs Moduli (GPa) = 55.35788 16.10530 77.97082
#
# Poissons Ratio (x) = 0.12819 0.63305
# Poissons Ratio (y) = 0.44062 0.85456
# Poissons Ratio (z) = 0.44946 0.17652
#
# Static dielectric constant tensor:
#      x y z
#    x 3.440540 0.000000 0.000000 
#    y 0.000000 2.881050 0.000000 
#    z 0.000000 0.000000 3.468970 
# 
# 
# High freq. dielectric constant tensor:
#      x y z
#    x 1.682550 0.000000 0.000000 
#    y 0.000000 1.639830 0.000000 
#    z 0.000000 0.000000 1.696250 
# 
# From -- ./inp_files/15911.got.cif
#   From: 2010.03.12/outbox.cif.g09.slc.cpg/sg59_8_cif.got.tgz:15911.got - 2010.04.16 16:29:54.
