data_PCOD8242711
_publ_section_title
;
Structure prediction by ZEFSAII (Michael W. Deem and Ramdas Pophale) SiO2 
 PCOD8242711
Probable space group: P M M N
;
_chemical_formula_sum "Si O2"
_cell_formula_units_Z 40
_cell_length_a 9.154959
_cell_length_b 9.248074
_cell_length_c 26.013537
_cell_angle_alpha 90.000000
_cell_angle_beta 90.000000
_cell_angle_gamma 90.000000
_cell_volume 2202.455316
_symmetry_space_group_name_H-M "P M M N"
_symmetry_group_IT_number 59
_space_group.IT_coordinate_system_code '2'
_symmetry_cell_setting 'orthorhombic'
loop_
_space_group_symop_operation_xyz
x,y,z
1/2-x,1/2-y,z
1/2+x,-y,-z
-x,1/2+y,-z
-x,-y,-z
1/2+x,1/2+y,-z
1/2-x,y,z
x,1/2-y,z
loop_
_atom_site_type_symbol
_atom_site_label
_atom_site_fract_x
_atom_site_fract_y
_atom_site_fract_z
Si Si1 0.077408 0.583646 0.545435
Si Si2 0.576248 0.589027 0.356499
Si Si3 0.419237 0.079686 0.954342
Si Si4 0.087034 0.422235 0.756022
Si Si5 0.913787 0.422027 0.853214
O O1 0.250000 0.563194 0.539756
O O2 0.030739 0.750000 0.543290
O O3 0.020334 0.519216 0.599520
O O4 0.000000 0.500000 0.500000
O O5 0.750000 0.595797 0.355369
O O6 0.514147 0.750000 0.367949
O O7 0.524046 0.532878 0.300233
O O8 0.250000 0.036090 0.954125
O O9 0.440878 0.250000 0.961505
O O10 0.489610 0.025201 0.901098
O O11 0.500000 0.000000 0.000000
O O12 0.250000 0.485179 0.764508
O O13 0.093998 0.250000 0.758669
O O14 0.982933 0.484867 0.800610
O O15 0.750000 0.483511 0.859073
O O16 0.911861 0.250000 0.850986
#
# Coordination Sequence:
#
# PCOD8242711 Si02
#       5
#     8   8   8   8   8
#     4  10  20  33  50  72  97 127 163 201 241 286
#     4   8  14  26  45  67  91 120 153 191 236 285
#     4  10  20  33  50  72  98 129 165 205 247 290
#     4   8  13  23  41  63  85 113 152 194 235 281
#     4   9  16  26  42  66  95 124 155 195 241 286
#
# _framework density 18.161549000000001
#
# number of rings (size 3 to 8) (size 9 to 14) (size 15 to 20)
#    0.000    3.000    0.000    3.000    0.000    4.800 
#    0.000    1.000    0.000    4.800    0.000    2.800 
#    0.000    0.000    0.000    0.000    0.000    0.000 
#
# Total GULP energy -495836.410430 kJ/mol
# GULP energy per Si atom -12395.910261 kJ/mol
# Density = 1.812021 g / cm^3
# Si number density = 18.161549 Si / 1000 Ang^3
#
#
#
# Elastic Constant Matrix: (Units=GPa)
#
#
# Indices 1 2 3 4 5 6 
#
# 1 99.3219 33.3976 78.0877 0.0000 0.0000 0.0000
# 2 33.3976 58.9486 60.2602 0.0000 0.0000 0.0000
# 3 78.0877 60.2602 202.6284 0.0000 0.0000 0.0000
# 4 0.0000 0.0000 0.0000 26.1568 0.0000 0.0000
# 5 0.0000 0.0000 0.0000 0.0000 33.8852 0.0000
# 6 0.0000 0.0000 0.0000 0.0000 0.0000 17.0269
#
#
#
# Elastic Compliance Matrix: (Units=1/GPa)
#
#
# Indices 1 2 3 4 5 6 
#
# 1 0.014991 -0.003718 -0.004672 0.000000 0.000000 0.000000
# 2 -0.003718 0.025296 -0.006090 0.000000 0.000000 0.000000
# 3 -0.004672 -0.006090 0.008547 0.000000 0.000000 0.000000
# 4 0.000000 0.000000 0.000000 0.038231 0.000000 0.000000
# 5 0.000000 0.000000 0.000000 0.000000 0.029511 0.000000
# 6 0.000000 0.000000 0.000000 0.000000 0.000000 0.058731
#
#
# Mechanical properties :
#
#
# Convention : Reuss Voigt Hill
#
# Bulk Modulus (GPa) = 50.31508 78.26555 64.29031
# Shear Modulus (GPa) = 23.70899 28.02400 25.86650
#
# Velocity S-wave (km/s) = 3.61702 3.93242 3.77801
# Velocity P-wave (km/s) = 6.72370 7.98788 7.38290
#
# Compressibility (1/GPa) = 0.01987476
#
# Stress axis : x y z
#
# Youngs Moduli (GPa) = 66.70559 39.53221 117.00575
#
# Poissons Ratio (x) = 0.14697 0.54660
# Poissons Ratio (y) = 0.24800 0.71257
# Poissons Ratio (z) = 0.31162 0.24075
#
# Static dielectric constant tensor:
#      x y z
#    x 3.315640 0.000000 0.000000 
#    y 0.000000 2.780820 0.000000 
#    z 0.000000 0.000000 3.797370 
# 
# 
# High freq. dielectric constant tensor:
#      x y z
#    x 1.685430 0.000000 0.000000 
#    y 0.000000 1.653890 0.000000 
#    z 0.000000 0.000000 1.725670 
# 
# From -- ./inp_files/31122.got.cif
#   From: 2010.03.12/outbox.cif.g09.slc.cpg/sg59_16_cif.got.tgz:31122.got - 2010.04.16 16:29:54.
