data_PCOD8242591
_publ_section_title
;
Structure prediction by ZEFSAII (Michael W. Deem and Ramdas Pophale) SiO2 
 PCOD8242591
Probable space group: P M M N
;
_chemical_formula_sum "Si O2"
_cell_formula_units_Z 56
_cell_length_a 9.190597
_cell_length_b 19.862049
_cell_length_c 17.485989
_cell_angle_alpha 90.000000
_cell_angle_beta 90.000000
_cell_angle_gamma 90.000000
_cell_volume 3191.963914
_symmetry_space_group_name_H-M "P M M N"
_symmetry_group_IT_number 59
_space_group.IT_coordinate_system_code '2'
_symmetry_cell_setting 'orthorhombic'
loop_
_space_group_symop_operation_xyz
x,y,z
1/2-x,1/2-y,z
1/2+x,-y,-z
-x,1/2+y,-z
-x,-y,-z
1/2+x,1/2+y,-z
1/2-x,y,z
x,1/2-y,z
loop_
_atom_site_type_symbol
_atom_site_label
_atom_site_fract_x
_atom_site_fract_y
_atom_site_fract_z
Si Si1 0.080918 0.827568 0.440231
Si Si2 0.077542 0.939607 0.722838
Si Si3 0.415531 0.915950 0.051612
Si Si4 0.417616 0.826088 0.186860
Si Si5 0.420071 0.543212 0.890638
Si Si6 0.577673 0.909718 0.312849
Si Si7 0.576968 0.175641 0.386264
O O1 0.250000 0.845559 0.429604
O O2 0.053709 0.750000 0.416179
O O3 0.029059 0.839948 0.527017
O O4 0.985997 0.876978 0.388993
O O5 0.250000 0.933217 0.720636
O O6 0.018576 0.929039 0.809838
O O7 0.009024 0.880723 0.670011
O O8 0.029663 0.012219 0.690443
O O9 0.250000 0.942085 0.056860
O O10 0.435416 0.846410 0.097533
O O11 0.514766 0.970747 0.091917
O O12 0.456609 0.906369 0.961541
O O13 0.250000 0.833433 0.213032
O O14 0.471877 0.750000 0.195569
O O15 0.516471 0.873174 0.238361
O O16 0.250000 0.531473 0.880406
O O17 0.750000 0.901760 0.313230
O O18 0.750000 0.175296 0.382706
O O19 0.520128 0.250000 0.361893
#
# Coordination Sequence:
#
# PCOD8242591 Si02
#       7
#     8   8   8   8   8   8   8
#     4   9  18  33  51  69  92 125 163 198 231 278
#     4   9  17  29  46  71 100 123 151 197 242 279
#     4   9  17  29  47  68  90 123 163 193 227 277
#     4  10  20  33  47  66  97 132 165 202 238 277
#     4   9  16  29  48  69  95 123 150 190 238 278
#     4  11  21  31  46  71 100 127 157 196 242 288
#     4   8  15  30  51  71  92 123 159 192 236 292
#
# _framework density 17.544056999999999
#
# number of rings (size 3 to 8) (size 9 to 14) (size 15 to 20)
#    0.000    2.714    1.429    1.714    0.000    2.857 
#    0.000    0.714    0.000    6.000    0.000    0.000 
#    0.000    1.143    0.000    0.000    0.000    0.000 
#
# Total GULP energy -694069.708966 kJ/mol
# GULP energy per Si atom -12394.101946 kJ/mol
# Density = 1.750413 g / cm^3
# Si number density = 17.544057 Si / 1000 Ang^3
#
#
#
# Elastic Constant Matrix: (Units=GPa)
#
#
# Indices 1 2 3 4 5 6 
#
# 1 35.1646 32.4896 31.9292 0.0000 0.0000 0.0000
# 2 32.4896 127.3922 87.2381 0.0000 0.0000 0.0000
# 3 31.9292 87.2381 149.8989 0.0000 0.0000 0.0000
# 4 0.0000 0.0000 0.0000 25.3846 0.0000 0.0000
# 5 0.0000 0.0000 0.0000 0.0000 19.1493 0.0000
# 6 0.0000 0.0000 0.0000 0.0000 0.0000 17.6310
#
#
#
# Elastic Compliance Matrix: (Units=1/GPa)
#
#
# Indices 1 2 3 4 5 6 
#
# 1 0.038701 -0.007025 -0.004155 0.000000 0.000000 0.000000
# 2 -0.007025 0.014326 -0.006841 0.000000 0.000000 0.000000
# 3 -0.004155 -0.006841 0.011538 0.000000 0.000000 0.000000
# 4 0.000000 0.000000 0.000000 0.039394 0.000000 0.000000
# 5 0.000000 0.000000 0.000000 0.000000 0.052221 0.000000
# 6 0.000000 0.000000 0.000000 0.000000 0.000000 0.056718
#
#
# Mechanical properties :
#
#
# Convention : Reuss Voigt Hill
#
# Bulk Modulus (GPa) = 35.06003 68.41884 51.73943
# Shear Modulus (GPa) = 19.34623 23.15289 21.24956
#
# Velocity S-wave (km/s) = 3.32433 3.63671 3.48402
# Velocity P-wave (km/s) = 5.89595 7.53108 6.76311
#
# Compressibility (1/GPa) = 0.02852251
#
# Stress axis : x y z
#
# Youngs Moduli (GPa) = 25.83920 69.80219 86.67186
#
# Poissons Ratio (x) = 0.49033 0.36015
# Poissons Ratio (y) = 0.18151 0.59295
# Poissons Ratio (z) = 0.10737 0.47754
#
# Static dielectric constant tensor:
#      x y z
#    x 2.975430 0.000000 0.000000 
#    y 0.000000 3.339410 0.000000 
#    z 0.000000 0.000000 3.632910 
# 
# 
# High freq. dielectric constant tensor:
#      x y z
#    x 1.646070 0.000000 0.000000 
#    y 0.000000 1.664300 0.000000 
#    z 0.000000 0.000000 1.693280 
# 
# From -- ./inp_files/26130.got.cif
#   From: 2010.03.12/outbox.cif.g09.slc.cpg/sg59_14_cif.got.tgz:26130.got - 2010.04.16 16:29:54.
