data_PCOD8242211
_publ_section_title
;
Structure prediction by ZEFSAII (Michael W. Deem and Ramdas Pophale) SiO2 
 PCOD8242211
Probable space group: P M M N
;
_chemical_formula_sum "Si O2"
_cell_formula_units_Z 48
_cell_length_a 8.438429
_cell_length_b 17.090090
_cell_length_c 16.565419
_cell_angle_alpha 90.000000
_cell_angle_beta 90.000000
_cell_angle_gamma 90.000000
_cell_volume 2388.957236
_symmetry_space_group_name_H-M "P M M N"
_symmetry_group_IT_number 59
_space_group.IT_coordinate_system_code '2'
_symmetry_cell_setting 'orthorhombic'
loop_
_space_group_symop_operation_xyz
x,y,z
1/2-x,1/2-y,z
1/2+x,-y,-z
-x,1/2+y,-z
-x,-y,-z
1/2+x,1/2+y,-z
1/2-x,y,z
x,1/2-y,z
loop_
_atom_site_type_symbol
_atom_site_label
_atom_site_fract_x
_atom_site_fract_y
_atom_site_fract_z
Si Si1 0.938650 0.250000 0.480899
Si Si2 0.938597 0.552450 0.274665
Si Si3 0.061298 0.420194 0.544167
Si Si4 0.437967 0.605752 0.802422
Si Si5 0.561382 0.835810 0.137452
Si Si6 0.938470 0.250000 0.298237
Si Si7 0.936977 0.583817 0.977486
O O1 0.750000 0.250000 0.488568
O O2 0.000561 0.250000 0.389301
O O3 0.000070 0.333736 0.516420
O O4 0.750000 0.553077 0.274681
O O5 0.999949 0.571521 0.364016
O O6 0.004594 0.470015 0.243186
O O7 0.009358 0.613645 0.210527
O O8 0.250000 0.419908 0.537001
O O9 0.000000 0.500000 0.500000
O O10 0.250000 0.604760 0.804959
O O11 0.506309 0.675895 0.749197
O O12 0.496879 0.614616 0.893368
O O13 0.750000 0.841136 0.138786
O O14 0.497024 0.750000 0.154061
O O15 0.500642 0.860912 0.049289
O O16 0.750000 0.250000 0.298226
O O17 0.750000 0.582130 0.972584
O O18 0.000000 0.500000 0.000000
#
# Coordination Sequence:
#
# PCOD8242211 Si02
#       7
#     4   8   8   8   8   4   8
#     4  11  23  43  67  92 125 164 206 256 312 373
#     4   9  18  34  58  82 109 150 197 237 283 357
#     4  11  23  40  65  95 125 162 208 257 313 374
#     4  10  19  36  58  83 111 148 197 239 282 342
#     4   9  18  32  53  79 107 143 189 232 271 333
#     4   9  20  37  61  84 113 158 198 234 286 359
#     4  11  21  35  55  80 111 148 189 236 287 339
#
# _framework density 20.092448000000001
#
# number of rings (size 3 to 8) (size 9 to 14) (size 15 to 20)
#    0.000    2.000    1.667    2.250    2.333    2.667 
#    0.000    5.000    0.000    0.000    0.000    0.000 
#    0.000    0.000    0.000    0.000    0.000    0.000 
#
# Total GULP energy -594779.656146 kJ/mol
# GULP energy per Si atom -12391.242836 kJ/mol
# Density = 2.004672 g / cm^3
# Si number density = 20.092448 Si / 1000 Ang^3
#
#
#
# Elastic Constant Matrix: (Units=GPa)
#
#
# Indices 1 2 3 4 5 6 
#
# 1 39.9838 28.2648 26.2960 0.0000 0.0000 0.0000
# 2 28.2648 212.4147 115.8928 0.0000 0.0000 0.0000
# 3 26.2960 115.8928 221.8351 0.0000 0.0000 0.0000
# 4 0.0000 0.0000 0.0000 35.5342 0.0000 0.0000
# 5 0.0000 0.0000 0.0000 0.0000 29.8374 0.0000
# 6 0.0000 0.0000 0.0000 0.0000 0.0000 18.9947
#
#
#
# Elastic Compliance Matrix: (Units=1/GPa)
#
#
# Indices 1 2 3 4 5 6 
#
# 1 0.028187 -0.002696 -0.001933 0.000000 0.000000 0.000000
# 2 -0.002696 0.006843 -0.003255 0.000000 0.000000 0.000000
# 3 -0.001933 -0.003255 0.006438 0.000000 0.000000 0.000000
# 4 0.000000 0.000000 0.000000 0.028142 0.000000 0.000000
# 5 0.000000 0.000000 0.000000 0.000000 0.033515 0.000000
# 6 0.000000 0.000000 0.000000 0.000000 0.000000 0.052646
#
#
# Mechanical properties :
#
#
# Convention : Reuss Voigt Hill
#
# Bulk Modulus (GPa) = 38.91175 90.57117 64.74146
# Shear Modulus (GPa) = 27.76162 37.12528 32.44345
#
# Velocity S-wave (km/s) = 3.72115 4.30318 4.02270
# Velocity P-wave (km/s) = 6.15394 8.35852 7.33948
#
# Compressibility (1/GPa) = 0.02569918
#
# Stress axis : x y z
#
# Youngs Moduli (GPa) = 35.47709 146.14480 155.33953
#
# Poissons Ratio (x) = 0.39404 0.30022
# Poissons Ratio (y) = 0.09566 0.50565
# Poissons Ratio (z) = 0.06857 0.47572
#
# Static dielectric constant tensor:
#      x y z
#    x 3.364340 0.000000 0.000000 
#    y 0.000000 4.016220 0.000000 
#    z 0.000000 0.000000 3.709500 
# 
# 
# High freq. dielectric constant tensor:
#      x y z
#    x 1.746510 0.000000 0.000000 
#    y 0.000000 1.803100 0.000000 
#    z 0.000000 0.000000 1.804740 
# 
# From -- ./inp_files/20545.got.cif
#   From: 2010.03.12/outbox.cif.g09.slc.cpg/sg59_11_cif.got.tgz:20545.got - 2010.04.16 16:29:54.
