data_PCOD8242570
_publ_section_title
;
Structure prediction by ZEFSAII (Michael W. Deem and Ramdas Pophale) SiO2 
 PCOD8242570
Probable space group: P M M N
;
_chemical_formula_sum "Si O2"
_cell_formula_units_Z 48
_cell_length_a 13.683077
_cell_length_b 20.773078
_cell_length_c 8.944618
_cell_angle_alpha 90.000000
_cell_angle_beta 90.000000
_cell_angle_gamma 90.000000
_cell_volume 2542.414873
_symmetry_space_group_name_H-M "P M M N"
_symmetry_group_IT_number 59
_space_group.IT_coordinate_system_code '2'
_symmetry_cell_setting 'orthorhombic'
loop_
_space_group_symop_operation_xyz
x,y,z
1/2-x,1/2-y,z
1/2+x,-y,-z
-x,1/2+y,-z
-x,-y,-z
1/2+x,1/2+y,-z
1/2-x,y,z
x,1/2-y,z
loop_
_atom_site_type_symbol
_atom_site_label
_atom_site_fract_x
_atom_site_fract_y
_atom_site_fract_z
Si Si1 0.540608 0.821750 0.339382
Si Si2 0.512246 0.410239 0.402172
Si Si3 0.140238 0.639241 0.172152
Si Si4 0.043552 0.673744 0.871924
Si Si5 0.362608 0.517585 0.363335
Si Si6 0.356756 0.326040 0.950991
O O1 0.573563 0.750000 0.385582
O O2 0.548808 0.866545 0.482770
O O3 0.430920 0.817123 0.272475
O O4 0.609107 0.852918 0.210467
O O5 0.564049 0.364711 0.280106
O O6 0.432547 0.457310 0.327395
O O7 0.599195 0.448240 0.484947
O O8 0.250000 0.663088 0.203191
O O9 0.128040 0.564770 0.220917
O O10 0.117672 0.647728 0.996977
O O11 0.058401 0.750000 0.846916
O O12 0.932635 0.656124 0.919493
O O13 0.250000 0.496413 0.387697
O O14 0.250000 0.354382 0.991968
O O15 0.353435 0.250000 0.932949
#
# Coordination Sequence:
#
# PCOD8242570 Si02
#       6
#     8   8   8   8   8   8
#     4   9  17  30  50  75 102 135 171 206 253 310
#     4  10  20  34  53  76 105 133 166 215 260 298
#     4   9  18  34  54  74 100 136 176 212 247 300
#     4  10  20  32  51  81 110 132 159 205 265 315
#     4   9  20  38  55  71  96 137 182 214 244 291
#     4   8  15  29  46  66  98 136 168 197 235 294
#
# _framework density 18.879687000000001
#
# number of rings (size 3 to 8) (size 9 to 14) (size 15 to 20)
#    0.000    2.833    0.000    2.000    0.000    4.000 
#    0.000    0.000    0.000    8.000    0.000    0.000 
#    0.000    0.000    0.000    0.000    0.000    0.000 
#
# Total GULP energy -595028.970452 kJ/mol
# GULP energy per Si atom -12396.436884 kJ/mol
# Density = 1.883672 g / cm^3
# Si number density = 18.879687 Si / 1000 Ang^3
#
#
#
# Elastic Constant Matrix: (Units=GPa)
#
#
# Indices 1 2 3 4 5 6 
#
# 1 85.7689 17.4201 4.9944 0.0000 0.0000 0.0000
# 2 17.4201 74.7475 37.1561 0.0000 0.0000 0.0000
# 3 4.9944 37.1561 77.3369 0.0000 0.0000 0.0000
# 4 0.0000 0.0000 0.0000 30.5350 0.0000 0.0000
# 5 0.0000 0.0000 0.0000 0.0000 16.1222 0.0000
# 6 0.0000 0.0000 0.0000 0.0000 0.0000 20.1069
#
#
#
# Elastic Compliance Matrix: (Units=1/GPa)
#
#
# Indices 1 2 3 4 5 6 
#
# 1 0.012273 -0.003240 0.000764 0.000000 0.000000 0.000000
# 2 -0.003240 0.018431 -0.008646 0.000000 0.000000 0.000000
# 3 0.000764 -0.008646 0.017035 0.000000 0.000000 0.000000
# 4 0.000000 0.000000 0.000000 0.032749 0.000000 0.000000
# 5 0.000000 0.000000 0.000000 0.000000 0.062026 0.000000
# 6 0.000000 0.000000 0.000000 0.000000 0.000000 0.049734
#
#
# Mechanical properties :
#
#
# Convention : Reuss Voigt Hill
#
# Bulk Modulus (GPa) = 39.22298 39.66605 39.44452
# Shear Modulus (GPa) = 22.42240 25.23832 23.83036
#
# Velocity S-wave (km/s) = 3.44996 3.66019 3.55663
# Velocity P-wave (km/s) = 6.05723 6.23844 6.14850
#
# Compressibility (1/GPa) = 0.02549526
#
# Stress axis : x y z
#
# Youngs Moduli (GPa) = 81.48099 54.25557 58.70266
#
# Poissons Ratio (x) = 0.17579 -0.04485
# Poissons Ratio (y) = 0.26400 0.50754
# Poissons Ratio (z) = -0.06226 0.46909
#
# Static dielectric constant tensor:
#      x y z
#    x 3.605510 0.000000 0.000000 
#    y 0.000000 3.322940 0.000000 
#    z 0.000000 0.000000 3.299880 
# 
# 
# High freq. dielectric constant tensor:
#      x y z
#    x 1.728990 0.000000 0.000000 
#    y 0.000000 1.719740 0.000000 
#    z 0.000000 0.000000 1.722340 
# 
# From -- ./inp_files/9217.got.cif
#   From: 2010.03.12/outbox.cif.g09.slc.cpg/sg59_5_cif.got.tgz:9217.got - 2010.04.16 16:29:54.
