data_PCOD8242640
_publ_section_title
;
Structure prediction by ZEFSAII (Michael W. Deem and Ramdas Pophale) SiO2 
 PCOD8242640
Probable space group: P M M N
;
_chemical_formula_sum "Si O2"
_cell_formula_units_Z 64
_cell_length_a 8.789245
_cell_length_b 29.694896
_cell_length_c 14.749870
_cell_angle_alpha 90.000000
_cell_angle_beta 90.000000
_cell_angle_gamma 90.000000
_cell_volume 3849.652884
_symmetry_space_group_name_H-M "P M M N"
_symmetry_group_IT_number 59
_space_group.IT_coordinate_system_code '2'
_symmetry_cell_setting 'orthorhombic'
loop_
_space_group_symop_operation_xyz
x,y,z
1/2-x,1/2-y,z
1/2+x,-y,-z
-x,1/2+y,-z
-x,-y,-z
1/2+x,1/2+y,-z
1/2-x,y,z
x,1/2-y,z
loop_
_atom_site_type_symbol
_atom_site_label
_atom_site_fract_x
_atom_site_fract_y
_atom_site_fract_z
Si Si1 0.570087 0.113919 0.803064
Si Si2 0.572184 0.939319 0.356866
Si Si3 0.429687 0.800313 0.498371
Si Si4 0.075423 0.028075 0.136259
Si Si5 0.569612 0.201249 0.706001
Si Si6 0.574184 0.458613 0.323929
Si Si7 0.925206 0.941056 0.056146
Si Si8 0.928941 0.890869 0.540270
O O1 0.750000 0.113629 0.817923
O O2 0.525925 0.076885 0.728318
O O3 0.506796 0.162375 0.770901
O O4 0.484103 0.104907 0.897894
O O5 0.750000 0.930091 0.338339
O O6 0.513100 0.913731 0.446705
O O7 0.540481 0.992498 0.367215
O O8 0.250000 0.806485 0.503282
O O9 0.474117 0.750000 0.534576
O O10 0.491540 0.805624 0.395825
O O11 0.505893 0.840494 0.555336
O O12 0.250000 0.026337 0.168505
O O13 0.970776 0.043668 0.218552
O O14 0.053150 0.062684 0.052215
O O15 0.029669 0.979317 0.099929
O O16 0.750000 0.199052 0.701683
O O17 0.515740 0.250000 0.743311
O O18 0.750000 0.446165 0.332631
O O19 0.478717 0.421343 0.376198
O O20 0.750000 0.950885 0.080929
O O21 0.750000 0.887681 0.539770
#
# Coordination Sequence:
#
# PCOD8242640 Si02
#       8
#     8   8   8   8   8   8   8   8
#     4  11  19  28  50  75  97 131 169 203 240 292
#     4  10  21  34  46  67 100 136 168 203 243 286
#     4   9  17  32  52  71  95 128 166 206 248 294
#     4  10  20  34  51  71  94 126 166 204 243 288
#     4   8  15  28  46  70  98 127 161 202 244 286
#     4  11  22  35  51  69  97 135 171 209 251 291
#     4  10  20  33  49  70 100 129 157 199 246 293
#     4  11  22  34  49  71 101 134 169 207 246 297
#
# _framework density 16.624877000000001
#
# number of rings (size 3 to 8) (size 9 to 14) (size 15 to 20)
#    0.000    2.000    2.500    3.000    0.000    2.750 
#    0.000    0.000    0.000    1.500    0.000    0.875 
#    0.000    3.000    0.000    0.000    0.000    0.000 
#
# Total GULP energy -793513.601441 kJ/mol
# GULP energy per Si atom -12398.650023 kJ/mol
# Density = 1.658704 g / cm^3
# Si number density = 16.624877 Si / 1000 Ang^3
#
#
#
# Elastic Constant Matrix: (Units=GPa)
#
#
# Indices 1 2 3 4 5 6 
#
# 1 39.3673 26.2088 14.2718 0.0000 0.0000 0.0000
# 2 26.2088 110.4723 33.1746 0.0000 0.0000 0.0000
# 3 14.2718 33.1746 60.0256 0.0000 0.0000 0.0000
# 4 0.0000 0.0000 0.0000 23.8746 0.0000 0.0000
# 5 0.0000 0.0000 0.0000 0.0000 25.7964 0.0000
# 6 0.0000 0.0000 0.0000 0.0000 0.0000 22.8959
#
#
#
# Elastic Compliance Matrix: (Units=1/GPa)
#
#
# Indices 1 2 3 4 5 6 
#
# 1 0.030930 -0.006150 -0.003955 0.000000 0.000000 0.000000
# 2 -0.006150 0.012076 -0.005212 0.000000 0.000000 0.000000
# 3 -0.003955 -0.005212 0.020480 0.000000 0.000000 0.000000
# 4 0.000000 0.000000 0.000000 0.041885 0.000000 0.000000
# 5 0.000000 0.000000 0.000000 0.000000 0.038765 0.000000
# 6 0.000000 0.000000 0.000000 0.000000 0.000000 0.043676
#
#
# Mechanical properties :
#
#
# Convention : Reuss Voigt Hill
#
# Bulk Modulus (GPa) = 30.43909 39.68620 35.06265
# Shear Modulus (GPa) = 21.79612 23.59404 22.69508
#
# Velocity S-wave (km/s) = 3.62478 3.77132 3.69877
# Velocity P-wave (km/s) = 5.98897 6.54883 6.27515
#
# Compressibility (1/GPa) = 0.03285249
#
# Stress axis : x y z
#
# Youngs Moduli (GPa) = 32.33094 82.80686 48.82722
#
# Poissons Ratio (x) = 0.50929 0.19311
# Poissons Ratio (y) = 0.19885 0.25448
# Poissons Ratio (z) = 0.12787 0.43158
#
# Static dielectric constant tensor:
#      x y z
#    x 3.053010 0.000000 0.000000 
#    y 0.000000 3.316640 0.000000 
#    z 0.000000 0.000000 3.109400 
# 
# 
# High freq. dielectric constant tensor:
#      x y z
#    x 1.640970 0.000000 0.000000 
#    y 0.000000 1.629550 0.000000 
#    z 0.000000 0.000000 1.618680 
# 
# From -- ./inp_files/21890.got.cif
#   From: 2010.03.12/outbox.cif.g09.slc.cpg/sg59_11_cif.got.tgz:21890.got - 2010.04.16 16:29:54.
