data_PCOD8242478
_publ_section_title
;
Structure prediction by ZEFSAII (Michael W. Deem and Ramdas Pophale) SiO2 
 PCOD8242478
Probable space group: P M M N
;
_chemical_formula_sum "Si O2"
_cell_formula_units_Z 48
_cell_length_a 9.333280
_cell_length_b 9.683592
_cell_length_c 30.479713
_cell_angle_alpha 90.000000
_cell_angle_beta 90.000000
_cell_angle_gamma 90.000000
_cell_volume 2754.746572
_symmetry_space_group_name_H-M "P M M N"
_symmetry_group_IT_number 59
_space_group.IT_coordinate_system_code '2'
_symmetry_cell_setting 'orthorhombic'
loop_
_space_group_symop_operation_xyz
x,y,z
1/2-x,1/2-y,z
1/2+x,-y,-z
-x,1/2+y,-z
-x,-y,-z
1/2+x,1/2+y,-z
1/2-x,y,z
x,1/2-y,z
loop_
_atom_site_type_symbol
_atom_site_label
_atom_site_fract_x
_atom_site_fract_y
_atom_site_fract_z
Si Si1 0.089160 0.414226 0.286922
Si Si2 0.090728 0.585680 0.632201
Si Si3 0.415795 0.594554 0.033033
Si Si4 0.085792 0.588778 0.133351
Si Si5 0.917703 0.411041 0.201679
Si Si6 0.918543 0.407667 0.465512
O O1 0.250000 0.473695 0.282994
O O2 0.091688 0.250000 0.288948
O O3 0.017722 0.474150 0.331350
O O4 0.996775 0.463758 0.245469
O O5 0.250000 0.527346 0.641820
O O6 0.096743 0.750000 0.634494
O O7 0.039668 0.541514 0.583557
O O8 0.250000 0.584441 0.021125
O O9 0.471513 0.750000 0.026821
O O10 0.441872 0.547671 0.082971
O O11 0.500000 0.500000 0.000000
O O12 0.250000 0.555456 0.146352
O O13 0.053707 0.750000 0.141137
O O14 0.977456 0.497170 0.161150
O O15 0.750000 0.439841 0.207340
O O16 0.948600 0.250000 0.193008
O O17 0.750000 0.423089 0.472729
O O18 0.966992 0.250000 0.472375
O O19 0.000000 0.500000 0.500000
#
# Coordination Sequence:
#
# PCOD8242478 Si02
#       6
#     8   8   8   8   8   8
#     4   9  16  26  43  68  95 122 155 196 239 282
#     4   8  14  26  43  63  90 122 154 192 239 287
#     4   9  19  35  53  74 100 129 162 200 241 285
#     4   9  19  36  54  71  96 131 166 199 238 284
#     4  10  20  32  48  73 102 129 158 195 239 284
#     4   9  18  31  47  69  96 126 160 197 239 287
#
# _framework density 17.424469999999999
#
# number of rings (size 3 to 8) (size 9 to 14) (size 15 to 20)
#    0.000    3.000    0.000    3.000    0.000    6.000 
#    0.000    6.667    0.000    1.000    0.000    4.667 
#    0.000    0.000    0.000    0.000    0.000    0.000 
#
# Total GULP energy -595078.140412 kJ/mol
# GULP energy per Si atom -12397.461259 kJ/mol
# Density = 1.738481 g / cm^3
# Si number density = 17.424470 Si / 1000 Ang^3
#
#
#
# Elastic Constant Matrix: (Units=GPa)
#
#
# Indices 1 2 3 4 5 6 
#
# 1 109.7260 41.7993 81.1857 0.0000 0.0000 0.0000
# 2 41.7993 45.1017 51.3439 0.0000 0.0000 0.0000
# 3 81.1857 51.3439 137.8521 0.0000 0.0000 0.0000
# 4 0.0000 0.0000 0.0000 24.8975 0.0000 0.0000
# 5 0.0000 0.0000 0.0000 0.0000 41.1781 0.0000
# 6 0.0000 0.0000 0.0000 0.0000 0.0000 26.8378
#
#
#
# Elastic Compliance Matrix: (Units=1/GPa)
#
#
# Indices 1 2 3 4 5 6 
#
# 1 0.017616 -0.007840 -0.007455 0.000000 0.000000 0.000000
# 2 -0.007840 0.041983 -0.011020 0.000000 0.000000 0.000000
# 3 -0.007455 -0.011020 0.015749 0.000000 0.000000 0.000000
# 4 0.000000 0.000000 0.000000 0.040165 0.000000 0.000000
# 5 0.000000 0.000000 0.000000 0.000000 0.024285 0.000000
# 6 0.000000 0.000000 0.000000 0.000000 0.000000 0.037261
#
#
# Mechanical properties :
#
#
# Convention : Reuss Voigt Hill
#
# Bulk Modulus (GPa) = 44.01538 71.25974 57.63756
# Shear Modulus (GPa) = 21.07413 26.47273 23.77343
#
# Velocity S-wave (km/s) = 3.48150 3.90203 3.69775
# Velocity P-wave (km/s) = 6.44023 7.82855 7.16808
#
# Compressibility (1/GPa) = 0.02271933
#
# Stress axis : x y z
#
# Youngs Moduli (GPa) = 56.76789 23.81944 63.49717
#
# Poissons Ratio (x) = 0.18673 0.47334
# Poissons Ratio (y) = 0.44503 0.69972
# Poissons Ratio (z) = 0.42318 0.26248
#
# Static dielectric constant tensor:
#      x y z
#    x 3.360700 0.000000 0.000000 
#    y 0.000000 2.855450 0.000000 
#    z 0.000000 0.000000 3.408260 
# 
# 
# High freq. dielectric constant tensor:
#      x y z
#    x 1.676820 0.000000 0.000000 
#    y 0.000000 1.630850 0.000000 
#    z 0.000000 0.000000 1.685830 
# 
# From -- ./inp_files/32481.got.cif
#   From: 2010.03.12/outbox.cif.g09.slc.cpg/sg59_17_cif.got.tgz:32481.got - 2010.04.16 16:29:54.
