data_PCOD8242844
_publ_section_title
;
Structure prediction by ZEFSAII (Michael W. Deem and Ramdas Pophale) SiO2 
 PCOD8242844
Probable space group: P M M N
;
_chemical_formula_sum "Si O2"
_cell_formula_units_Z 48
_cell_length_a 9.378256
_cell_length_b 18.133677
_cell_length_c 15.541050
_cell_angle_alpha 90.000000
_cell_angle_beta 90.000000
_cell_angle_gamma 90.000000
_cell_volume 2642.946165
_symmetry_space_group_name_H-M "P M M N"
_symmetry_group_IT_number 59
_space_group.IT_coordinate_system_code '2'
_symmetry_cell_setting 'orthorhombic'
loop_
_space_group_symop_operation_xyz
x,y,z
1/2-x,1/2-y,z
1/2+x,-y,-z
-x,1/2+y,-z
-x,-y,-z
1/2+x,1/2+y,-z
1/2-x,y,z
x,1/2-y,z
loop_
_atom_site_type_symbol
_atom_site_label
_atom_site_fract_x
_atom_site_fract_y
_atom_site_fract_z
Si Si1 0.417172 0.922650 0.354956
Si Si2 0.414490 0.090904 0.327007
Si Si3 0.079856 0.834155 0.822145
Si Si4 0.084616 0.165432 0.503747
Si Si5 0.094230 0.837334 0.008207
Si Si6 0.079571 0.832844 0.192252
O O1 0.250000 0.907524 0.364625
O O2 0.492999 0.886311 0.435636
O O3 0.476339 0.886945 0.266560
O O4 0.454107 0.008537 0.355584
O O5 0.250000 0.096384 0.299110
O O6 0.510477 0.111819 0.246318
O O7 0.449504 0.145486 0.405245
O O8 0.250000 0.842051 0.819744
O O9 0.035143 0.750000 0.801689
O O10 0.019095 0.858205 0.917297
O O11 0.250000 0.151441 0.524023
O O12 0.041254 0.250000 0.519134
O O13 0.250000 0.874809 0.007348
O O14 0.113105 0.750000 0.009985
O O15 0.016503 0.859755 0.098539
O O16 0.250000 0.834139 0.185928
O O17 0.026777 0.750000 0.214082
#
# Coordination Sequence:
#
# PCOD8242844 Si02
#       6
#     8   8   8   8   8   8
#     4  10  20  33  51  75  99 125 161 201 237 280
#     4  10  21  35  49  69 101 135 159 187 239 298
#     4   9  17  30  50  74  95 121 164 208 237 271
#     4  10  21  36  52  69  92 126 163 197 242 296
#     4   7  11  22  42  68  95 121 153 196 241 279
#     4   8  13  24  45  71  96 122 155 198 243 280
#
# _framework density 18.161550999999999
#
# number of rings (size 3 to 8) (size 9 to 14) (size 15 to 20)
#    0.000    3.000    0.000    3.500    0.000    3.333 
#    0.000    0.833    0.000    1.000    0.000    2.333 
#    0.000    0.000    0.000    0.000    0.000    0.000 
#
# Total GULP energy -594778.962509 kJ/mol
# GULP energy per Si atom -12391.228386 kJ/mol
# Density = 1.812021 g / cm^3
# Si number density = 18.161551 Si / 1000 Ang^3
#
#
#
# Elastic Constant Matrix: (Units=GPa)
#
#
# Indices 1 2 3 4 5 6 
#
# 1 25.4108 20.3900 25.5121 0.0000 0.0000 0.0000
# 2 20.3900 58.4483 21.2222 0.0000 0.0000 0.0000
# 3 25.5121 21.2222 86.4870 0.0000 0.0000 0.0000
# 4 0.0000 0.0000 0.0000 15.3191 0.0000 0.0000
# 5 0.0000 0.0000 0.0000 0.0000 10.6472 0.0000
# 6 0.0000 0.0000 0.0000 0.0000 0.0000 11.3241
#
#
#
# Elastic Compliance Matrix: (Units=1/GPa)
#
#
# Indices 1 2 3 4 5 6 
#
# 1 0.070745 -0.018775 -0.016262 0.000000 0.000000 0.000000
# 2 -0.018775 0.023765 -0.000293 0.000000 0.000000 0.000000
# 3 -0.016262 -0.000293 0.016431 0.000000 0.000000 0.000000
# 4 0.000000 0.000000 0.000000 0.065278 0.000000 0.000000
# 5 0.000000 0.000000 0.000000 0.000000 0.093921 0.000000
# 6 0.000000 0.000000 0.000000 0.000000 0.000000 0.088307
#
#
# Mechanical properties :
#
#
# Convention : Reuss Voigt Hill
#
# Bulk Modulus (GPa) = 24.82503 33.84386 29.33445
# Shear Modulus (GPa) = 11.29852 14.33955 12.81904
#
# Velocity S-wave (km/s) = 2.49692 2.81295 2.65964
# Velocity P-wave (km/s) = 4.69164 5.40607 5.06148
#
# Compressibility (1/GPa) = 0.04028192
#
# Stress axis : x y z
#
# Youngs Moduli (GPa) = 14.13518 42.07784 60.85978
#
# Poissons Ratio (x) = 0.79003 0.98967
# Poissons Ratio (y) = 0.26539 0.01784
# Poissons Ratio (z) = 0.22986 0.01234
#
# Static dielectric constant tensor:
#      x y z
#    x 2.920800 0.000000 0.000000 
#    y 0.000000 3.251010 0.000000 
#    z 0.000000 0.000000 3.742920 
# 
# 
# High freq. dielectric constant tensor:
#      x y z
#    x 1.655520 0.000000 0.000000 
#    y 0.000000 1.687540 0.000000 
#    z 0.000000 0.000000 1.727730 
# 
# From -- ./inp_files/20431.got.cif
#   From: 2010.03.12/outbox.cif.g09.slc.cpg/sg59_11_cif.got.tgz:20431.got - 2010.04.16 16:29:54.
