data_PCOD8242450
_publ_section_title
;
Structure prediction by ZEFSAII (Michael W. Deem and Ramdas Pophale) SiO2 
 PCOD8242450
Probable space group: P M M N
;
_chemical_formula_sum "Si O2"
_cell_formula_units_Z 48
_cell_length_a 9.319378
_cell_length_b 9.335251
_cell_length_c 31.027027
_cell_angle_alpha 90.000000
_cell_angle_beta 90.000000
_cell_angle_gamma 90.000000
_cell_volume 2699.312031
_symmetry_space_group_name_H-M "P M M N"
_symmetry_group_IT_number 59
_space_group.IT_coordinate_system_code '2'
_symmetry_cell_setting 'orthorhombic'
loop_
_space_group_symop_operation_xyz
x,y,z
1/2-x,1/2-y,z
1/2+x,-y,-z
-x,1/2+y,-z
-x,-y,-z
1/2+x,1/2+y,-z
1/2-x,y,z
x,1/2-y,z
loop_
_atom_site_type_symbol
_atom_site_label
_atom_site_fract_x
_atom_site_fract_y
_atom_site_fract_z
Si Si1 0.585137 0.916815 0.621780
Si Si2 0.082681 0.584519 0.294537
Si Si3 0.910846 0.579829 0.118956
Si Si4 0.587840 0.919749 0.213665
Si Si5 0.583813 0.080871 0.962906
Si Si6 0.583676 0.081820 0.463061
O O1 0.750000 0.957291 0.610970
O O2 0.569529 0.750000 0.631803
O O3 0.485817 0.964153 0.582194
O O4 0.528115 0.001010 0.663443
O O5 0.250000 0.562179 0.287926
O O6 0.041140 0.750000 0.300902
O O7 0.009390 0.516847 0.251942
O O8 0.750000 0.523374 0.108477
O O9 0.908076 0.750000 0.119870
O O10 0.960681 0.523420 0.166271
O O11 0.021081 0.525540 0.082737
O O12 0.750000 0.968291 0.222560
O O13 0.573670 0.750000 0.213967
O O14 0.750000 0.038513 0.964772
O O15 0.560698 0.250000 0.968642
O O16 0.500000 0.000000 0.000000
O O17 0.750000 0.036463 0.463141
O O18 0.564732 0.250000 0.471054
O O19 0.500000 0.000000 0.500000
#
# Coordination Sequence:
#
# PCOD8242450 Si02
#       6
#     8   8   8   8   8   8
#     4   9  18  33  50  67  93 129 161 189 229 282
#     4   9  17  28  44  68  94 118 149 192 235 271
#     4   8  14  26  44  65  90 120 153 191 235 281
#     4   8  14  25  42  65  92 120 150 187 232 277
#     4  10  20  32  48  71  96 124 159 197 239 288
#     4  10  21  36  54  76 100 127 161 200 241 286
#
# _framework density 17.782306999999999
#
# number of rings (size 3 to 8) (size 9 to 14) (size 15 to 20)
#    0.000    3.000    0.000    2.000    0.000    4.000 
#    0.000    5.000    0.000    1.000    0.000    4.667 
#    0.000    0.000    0.000    0.000    0.000    0.000 
#
# Total GULP energy -595030.540352 kJ/mol
# GULP energy per Si atom -12396.469591 kJ/mol
# Density = 1.774183 g / cm^3
# Si number density = 17.782307 Si / 1000 Ang^3
#
#
#
# Elastic Constant Matrix: (Units=GPa)
#
#
# Indices 1 2 3 4 5 6 
#
# 1 117.5114 34.3798 104.1920 0.0000 0.0000 0.0000
# 2 34.3798 26.8951 48.8192 0.0000 0.0000 0.0000
# 3 104.1920 48.8192 198.5737 0.0000 0.0000 0.0000
# 4 0.0000 0.0000 0.0000 26.0124 0.0000 0.0000
# 5 0.0000 0.0000 0.0000 0.0000 41.9738 0.0000
# 6 0.0000 0.0000 0.0000 0.0000 0.0000 18.9567
#
#
#
# Elastic Compliance Matrix: (Units=1/GPa)
#
#
# Indices 1 2 3 4 5 6 
#
# 1 0.017336 -0.010202 -0.006588 0.000000 0.000000 0.000000
# 2 -0.010202 0.073149 -0.012631 0.000000 0.000000 0.000000
# 3 -0.006588 -0.012631 0.011598 0.000000 0.000000 0.000000
# 4 0.000000 0.000000 0.000000 0.038443 0.000000 0.000000
# 5 0.000000 0.000000 0.000000 0.000000 0.023824 0.000000
# 6 0.000000 0.000000 0.000000 0.000000 0.000000 0.052752
#
#
# Mechanical properties :
#
#
# Convention : Reuss Voigt Hill
#
# Bulk Modulus (GPa) = 23.12578 79.75135 51.43856
# Shear Modulus (GPa) = 17.22014 27.76119 22.49066
#
# Velocity S-wave (km/s) = 3.11527 3.95545 3.56023
# Velocity P-wave (km/s) = 5.09637 8.11214 6.77421
#
# Compressibility (1/GPa) = 0.04324178
#
# Stress axis : x y z
#
# Youngs Moduli (GPa) = 57.68399 13.67066 86.22240
#
# Poissons Ratio (x) = 0.13947 0.56803
# Poissons Ratio (y) = 0.58849 1.08905
# Poissons Ratio (z) = 0.38002 0.17267
#
# Static dielectric constant tensor:
#      x y z
#    x 3.518040 0.000000 0.000000 
#    y 0.000000 2.897380 0.000000 
#    z 0.000000 0.000000 3.784750 
# 
# 
# High freq. dielectric constant tensor:
#      x y z
#    x 1.688620 0.000000 0.000000 
#    y 0.000000 1.642390 0.000000 
#    z 0.000000 0.000000 1.705540 
# 
# From -- ./inp_files/31863.got.cif
#   From: 2010.03.12/outbox.cif.g09.slc.cpg/sg59_16_cif.got.tgz:31863.got - 2010.04.16 16:29:54.
