data_PCOD8242448
_publ_section_title
;
Structure prediction by ZEFSAII (Michael W. Deem and Ramdas Pophale) SiO2 
 PCOD8242448
Probable space group: P M M N
;
_chemical_formula_sum "Si O2"
_cell_formula_units_Z 64
_cell_length_a 8.983159
_cell_length_b 24.922657
_cell_length_c 15.764550
_cell_angle_alpha 90.000000
_cell_angle_beta 90.000000
_cell_angle_gamma 90.000000
_cell_volume 3529.433516
_symmetry_space_group_name_H-M "P M M N"
_symmetry_group_IT_number 59
_space_group.IT_coordinate_system_code '2'
_symmetry_cell_setting 'orthorhombic'
loop_
_space_group_symop_operation_xyz
x,y,z
1/2-x,1/2-y,z
1/2+x,-y,-z
-x,1/2+y,-z
-x,-y,-z
1/2+x,1/2+y,-z
1/2-x,y,z
x,1/2-y,z
loop_
_atom_site_type_symbol
_atom_site_label
_atom_site_fract_x
_atom_site_fract_y
_atom_site_fract_z
Si Si1 0.421230 0.981841 0.194226
Si Si2 0.076105 0.190769 0.602108
Si Si3 0.925360 0.849750 0.584119
Si Si4 0.071923 0.401956 0.136198
Si Si5 0.914693 0.096530 0.669070
Si Si6 0.576139 0.188577 0.249908
Si Si7 0.415520 0.553896 0.517480
Si Si8 0.422557 0.944168 0.016427
O O1 0.250000 0.994107 0.212263
O O2 0.491506 0.951970 0.276841
O O3 0.440240 0.938198 0.118038
O O4 0.488985 0.041381 0.176464
O O5 0.250000 0.186292 0.614102
O O6 0.016004 0.250000 0.622374
O O7 0.035652 0.178064 0.504709
O O8 0.006787 0.151525 0.672837
O O9 0.750000 0.852240 0.602751
O O10 0.006391 0.816166 0.656789
O O11 0.990268 0.910372 0.583732
O O12 0.250000 0.398959 0.133934
O O13 0.008547 0.351480 0.186828
O O14 0.008179 0.399144 0.039414
O O15 0.750000 0.106739 0.706943
O O16 0.904274 0.083290 0.571206
O O17 0.750000 0.173616 0.252985
O O18 0.553600 0.250000 0.218928
O O19 0.500000 0.500000 0.500000
O O20 0.250000 0.543360 0.554426
O O21 0.250000 0.945268 0.989522
O O22 0.500000 0.000000 0.000000
#
# Coordination Sequence:
#
# PCOD8242448 Si02
#       8
#     8   8   8   8   8   8   8   8
#     4   8  16  31  52  78 106 135 167 209 257 309
#     4   9  18  33  51  71  97 129 168 213 259 304
#     4  10  20  35  54  73  97 134 179 221 265 314
#     4  10  20  34  55  79 105 138 174 212 263 322
#     4   9  18  32  49  72 100 131 169 208 252 302
#     4  11  24  39  54  77 108 138 176 226 272 319
#     4  10  20  32  48  71 104 141 177 216 261 312
#     4   9  16  30  52  77 106 135 167 207 253 306
#
# _framework density 18.133220999999999
#
# number of rings (size 3 to 8) (size 9 to 14) (size 15 to 20)
#    0.000    2.500    0.000    3.000    1.750    2.750 
#    0.000    3.750    0.000    0.750    0.000    1.750 
#    0.000    0.000    0.000    0.000    0.000    0.000 
#
# Total GULP energy -793039.382946 kJ/mol
# GULP energy per Si atom -12391.240359 kJ/mol
# Density = 1.809195 g / cm^3
# Si number density = 18.133221 Si / 1000 Ang^3
#
#
#
# Elastic Constant Matrix: (Units=GPa)
#
#
# Indices 1 2 3 4 5 6 
#
# 1 90.9626 45.5031 34.2612 0.0000 0.0000 0.0000
# 2 45.5031 116.4399 32.8596 0.0000 0.0000 0.0000
# 3 34.2612 32.8596 50.4771 0.0000 0.0000 0.0000
# 4 0.0000 0.0000 0.0000 24.6150 0.0000 0.0000
# 5 0.0000 0.0000 0.0000 0.0000 26.5233 0.0000
# 6 0.0000 0.0000 0.0000 0.0000 0.0000 30.4646
#
#
#
# Elastic Compliance Matrix: (Units=1/GPa)
#
#
# Indices 1 2 3 4 5 6 
#
# 1 0.016117 -0.003934 -0.008379 0.000000 0.000000 0.000000
# 2 -0.003934 0.011481 -0.004804 0.000000 0.000000 0.000000
# 3 -0.008379 -0.004804 0.028625 0.000000 0.000000 0.000000
# 4 0.000000 0.000000 0.000000 0.040626 0.000000 0.000000
# 5 0.000000 0.000000 0.000000 0.000000 0.037703 0.000000
# 6 0.000000 0.000000 0.000000 0.000000 0.000000 0.032825
#
#
# Mechanical properties :
#
#
# Convention : Reuss Voigt Hill
#
# Bulk Modulus (GPa) = 45.47376 53.68082 49.57729
# Shear Modulus (GPa) = 23.93034 26.00430 24.96732
#
# Velocity S-wave (km/s) = 3.63670 3.79102 3.71466
# Velocity P-wave (km/s) = 6.53959 6.98787 6.76744
#
# Compressibility (1/GPa) = 0.02199071
#
# Stress axis : x y z
#
# Youngs Moduli (GPa) = 62.04528 87.09974 34.93437
#
# Poissons Ratio (x) = 0.34264 0.29270
# Poissons Ratio (y) = 0.24408 0.16782
# Poissons Ratio (z) = 0.51986 0.41841
#
# Static dielectric constant tensor:
#      x y z
#    x 3.503370 0.000000 0.000000 
#    y 0.000000 3.279560 0.000000 
#    z 0.000000 0.000000 3.568870 
# 
# 
# High freq. dielectric constant tensor:
#      x y z
#    x 1.703010 0.000000 0.000000 
#    y 0.000000 1.690420 0.000000 
#    z 0.000000 0.000000 1.686370 
# 
# From -- ./inp_files/21421.got.cif
#   From: 2010.03.12/outbox.cif.g09.slc.cpg/sg59_11_cif.got.tgz:21421.got - 2010.04.16 16:29:54.
