data_PCOD8242265
_publ_section_title
;
Structure prediction by ZEFSAII (Michael W. Deem and Ramdas Pophale) SiO2 
 PCOD8242265
Probable space group: P M M N
;
_chemical_formula_sum "Si O2"
_cell_formula_units_Z 56
_cell_length_a 14.941816
_cell_length_b 20.377039
_cell_length_c 8.962504
_cell_angle_alpha 90.000000
_cell_angle_beta 90.000000
_cell_angle_gamma 90.000000
_cell_volume 2728.813300
_symmetry_space_group_name_H-M "P M M N"
_symmetry_group_IT_number 59
_space_group.IT_coordinate_system_code '2'
_symmetry_cell_setting 'orthorhombic'
loop_
_space_group_symop_operation_xyz
x,y,z
1/2-x,1/2-y,z
1/2+x,-y,-z
-x,1/2+y,-z
-x,-y,-z
1/2+x,1/2+y,-z
1/2-x,y,z
x,1/2-y,z
loop_
_atom_site_type_symbol
_atom_site_label
_atom_site_fract_x
_atom_site_fract_y
_atom_site_fract_z
Si Si1 0.603363 0.172456 0.420649
Si Si2 0.564537 0.912292 0.605816
Si Si3 0.847228 0.174228 0.742383
Si Si4 0.851303 0.825271 0.839602
Si Si5 0.440756 0.473038 0.699946
Si Si6 0.504355 0.379129 0.952510
Si Si7 0.155045 0.914874 0.824815
O O1 0.604232 0.250000 0.419334
O O2 0.506216 0.146043 0.381947
O O3 0.632043 0.141943 0.581049
O O4 0.665663 0.146986 0.286637
O O5 0.642656 0.880772 0.708130
O O6 0.589056 0.923728 0.432653
O O7 0.528885 0.982721 0.665090
O O8 0.750000 0.147356 0.800624
O O9 0.837552 0.250000 0.710543
O O10 0.927678 0.165567 0.857897
O O11 0.750000 0.832170 0.904110
O O12 0.865559 0.750000 0.782410
O O13 0.924999 0.838333 0.969149
O O14 0.459481 0.432838 0.848922
O O15 0.355776 0.519814 0.725270
O O16 0.567101 0.413870 0.073687
O O17 0.250000 0.918808 0.913275
#
# Coordination Sequence:
#
# PCOD8242265 Si02
#       7
#     8   8   8   8   8   8   8
#     4  10  19  37  63  89 121 159 204 253 303 361
#     4  10  20  41  67  87 116 160 208 260 308 361
#     4  10  21  36  58  91 127 163 203 248 305 372
#     4  11  25  44  66  93 122 161 216 267 316 371
#     4  10  22  40  63  90 120 160 209 251 304 369
#     4  12  22  41  62  89 127 168 202 253 312 372
#     4  11  24  38  59  92 128 162 200 247 303 375
#
# _framework density 20.521740999999999
#
# number of rings (size 3 to 8) (size 9 to 14) (size 15 to 20)
#    0.000    1.429    4.286    2.143    0.000    2.571 
#    0.000    0.714    0.000    1.714    0.000    0.000 
#    0.000    0.000    0.000    0.000    0.000    0.000 
#
# Total GULP energy -693774.062195 kJ/mol
# GULP energy per Si atom -12388.822539 kJ/mol
# Density = 2.047503 g / cm^3
# Si number density = 20.521741 Si / 1000 Ang^3
#
#
#
# Elastic Constant Matrix: (Units=GPa)
#
#
# Indices 1 2 3 4 5 6 
#
# 1 112.3845 25.2704 34.0365 0.0000 0.0000 0.0000
# 2 25.2704 86.5031 40.0708 0.0000 0.0000 0.0000
# 3 34.0365 40.0708 118.1645 0.0000 0.0000 0.0000
# 4 0.0000 0.0000 0.0000 36.2726 0.0000 0.0000
# 5 0.0000 0.0000 0.0000 0.0000 -13.3380 0.0000
# 6 0.0000 0.0000 0.0000 0.0000 0.0000 4.6134
#
#
#
# Elastic Compliance Matrix: (Units=1/GPa)
#
#
# Indices 1 2 3 4 5 6 
#
# 1 0.010000 -0.001883 -0.002242 0.000000 0.000000 0.000000
# 2 -0.001883 0.014069 -0.004229 0.000000 0.000000 0.000000
# 3 -0.002242 -0.004229 0.010543 0.000000 0.000000 0.000000
# 4 0.000000 0.000000 0.000000 0.027569 0.000000 0.000000
# 5 0.000000 0.000000 0.000000 0.000000 -0.074974 0.000000
# 6 0.000000 0.000000 0.000000 0.000000 0.000000 0.216760
#
#
# Mechanical properties :
#
#
# Convention : Reuss Voigt Hill
#
# Bulk Modulus (GPa) = 55.85030 57.31195 56.58112
# Shear Modulus (GPa) = 22.06112 20.02123 21.04117
#
# Velocity S-wave (km/s) = 3.28229 3.12687 3.20552
# Velocity P-wave (km/s) = 6.45282 6.40503 6.42897
#
# Compressibility (1/GPa) = 0.01790501
#
# Stress axis : x y z
#
# Youngs Moduli (GPa) = 99.99575 71.07737 94.85351
#
# Poissons Ratio (x) = 0.13383 0.21267
# Poissons Ratio (y) = 0.18828 0.40110
# Poissons Ratio (z) = 0.22420 0.30056
#
# Static dielectric constant tensor:
#      x y z
#    x 3.748560 0.000000 0.000000 
#    y 0.000000 3.645150 0.000000 
#    z 0.000000 0.000000 3.913380 
# 
# 
# High freq. dielectric constant tensor:
#      x y z
#    x 1.794020 0.000000 0.000000 
#    y 0.000000 1.796910 0.000000 
#    z 0.000000 0.000000 1.805970 
# 
# From -- ./inp_files/9383.got.cif
#   From: 2010.03.12/outbox.cif.g09.slc.cpg/sg59_5_cif.got.tgz:9383.got - 2010.04.16 16:29:54.
