data_PCOD8242723
_publ_section_title
;
Structure prediction by ZEFSAII (Michael W. Deem and Ramdas Pophale) SiO2 
 PCOD8242723
Probable space group: P M M N
;
_chemical_formula_sum "Si O2"
_cell_formula_units_Z 64
_cell_length_a 18.669322
_cell_length_b 9.441072
_cell_length_c 20.491737
_cell_angle_alpha 90.000000
_cell_angle_beta 90.000000
_cell_angle_gamma 90.000000
_cell_volume 3611.841047
_symmetry_space_group_name_H-M "P M M N"
_symmetry_group_IT_number 59
_space_group.IT_coordinate_system_code '2'
_symmetry_cell_setting 'orthorhombic'
loop_
_space_group_symop_operation_xyz
x,y,z
1/2-x,1/2-y,z
1/2+x,-y,-z
-x,1/2+y,-z
-x,-y,-z
1/2+x,1/2+y,-z
1/2-x,y,z
x,1/2-y,z
loop_
_atom_site_type_symbol
_atom_site_label
_atom_site_fract_x
_atom_site_fract_y
_atom_site_fract_z
Si Si1 0.085019 0.584241 0.315232
Si Si2 0.665055 0.093217 0.056251
Si Si3 0.166647 0.414355 0.423835
Si Si4 0.829149 0.918016 0.430367
Si Si5 0.335349 0.409189 0.061998
Si Si6 0.166684 0.913916 0.185837
Si Si7 0.832418 0.416086 0.202965
Si Si8 0.919596 0.916878 0.309116
O O1 0.096080 0.750000 0.327122
O O2 0.118364 0.504567 0.376033
O O3 0.123781 0.535115 0.249181
O O4 0.002396 0.542346 0.309892
O O5 0.750000 0.100780 0.050293
O O6 0.633720 0.250000 0.042016
O O7 0.644507 0.044203 0.129126
O O8 0.633584 0.983837 0.003147
O O9 0.250000 0.441532 0.408891
O O10 0.147711 0.250000 0.414541
O O11 0.147781 0.466849 0.497174
O O12 0.750000 0.978190 0.413390
O O13 0.825669 0.750000 0.430328
O O14 0.885131 0.973502 0.376695
O O15 0.250000 0.408604 0.059975
O O16 0.365877 0.250000 0.065123
O O17 0.362055 0.494683 0.125209
O O18 0.250000 0.942157 0.199459
O O19 0.152195 0.750000 0.169521
O O20 0.750000 0.458603 0.215605
O O21 0.843459 0.250000 0.215742
O O22 0.882958 0.505957 0.249063
O O23 0.907454 0.750000 0.300559
#
# Coordination Sequence:
#
# PCOD8242723 Si02
#       8
#     8   8   8   8   8   8   8   8
#     4  10  21  34  48  71 101 130 163 203 244 288
#     4   8  14  26  44  66  94 126 155 187 236 293
#     4   9  18  33  53  74  95 124 163 202 241 291
#     4   8  15  30  51  73  97 126 160 197 240 291
#     4   9  16  25  41  69  98 118 147 197 244 281
#     4   9  17  30  47  64  88 126 162 192 237 293
#     4   9  18  32  50  73 100 129 163 202 241 285
#     4  10  20  33  50  72  99 132 167 201 239 287
#
# _framework density 17.719494000000001
#
# number of rings (size 3 to 8) (size 9 to 14) (size 15 to 20)
#    0.000    3.000    0.000    2.625    0.000    5.000 
#    0.000    3.125    0.000    1.500    0.000    0.000 
#    0.000    0.000    0.000    0.000    0.000    0.000 
#
# Total GULP energy -793463.253975 kJ/mol
# GULP energy per Si atom -12397.863343 kJ/mol
# Density = 1.767916 g / cm^3
# Si number density = 17.719494 Si / 1000 Ang^3
#
#
#
# Elastic Constant Matrix: (Units=GPa)
#
#
# Indices 1 2 3 4 5 6 
#
# 1 79.3388 42.5343 75.7352 0.0000 0.0000 0.0000
# 2 42.5343 68.7402 72.4481 0.0000 0.0000 0.0000
# 3 75.7352 72.4481 173.6162 0.0000 0.0000 0.0000
# 4 0.0000 0.0000 0.0000 30.3431 0.0000 0.0000
# 5 0.0000 0.0000 0.0000 0.0000 23.7180 0.0000
# 6 0.0000 0.0000 0.0000 0.0000 0.0000 15.2699
#
#
#
# Elastic Compliance Matrix: (Units=1/GPa)
#
#
# Indices 1 2 3 4 5 6 
#
# 1 0.023149 -0.006571 -0.007356 0.000000 0.000000 0.000000
# 2 -0.006571 0.027834 -0.008748 0.000000 0.000000 0.000000
# 3 -0.007356 -0.008748 0.012619 0.000000 0.000000 0.000000
# 4 0.000000 0.000000 0.000000 0.032956 0.000000 0.000000
# 5 0.000000 0.000000 0.000000 0.000000 0.042162 0.000000
# 6 0.000000 0.000000 0.000000 0.000000 0.000000 0.065488
#
#
# Mechanical properties :
#
#
# Convention : Reuss Voigt Hill
#
# Bulk Modulus (GPa) = 54.79100 78.12562 66.45831
# Shear Modulus (GPa) = 19.55856 22.59805 21.07831
#
# Velocity S-wave (km/s) = 3.32593 3.57504 3.45273
# Velocity P-wave (km/s) = 6.76296 7.82478 7.31316
#
# Compressibility (1/GPa) = 0.01825117
#
# Stress axis : x y z
#
# Youngs Moduli (GPa) = 43.19869 35.92786 79.24398
#
# Poissons Ratio (x) = 0.23608 0.58292
# Poissons Ratio (y) = 0.28386 0.69325
# Poissons Ratio (z) = 0.31777 0.31431
#
# Static dielectric constant tensor:
#      x y z
#    x 3.113380 0.000000 0.000000 
#    y 0.000000 3.200920 0.000000 
#    z 0.000000 0.000000 3.507770 
# 
# 
# High freq. dielectric constant tensor:
#      x y z
#    x 1.653300 0.000000 0.000000 
#    y 0.000000 1.670430 0.000000 
#    z 0.000000 0.000000 1.700670 
# 
# From -- ./inp_files/30688.got.cif
#   From: 2010.03.12/outbox.cif.g09.slc.cpg/sg59_16_cif.got.tgz:30688.got - 2010.04.16 16:29:54.
