data_PCOD8242690
_publ_section_title
;
Structure prediction by ZEFSAII (Michael W. Deem and Ramdas Pophale) SiO2 
 PCOD8242690
Probable space group: P M M N
;
_chemical_formula_sum "Si O2"
_cell_formula_units_Z 64
_cell_length_a 9.251141
_cell_length_b 17.285530
_cell_length_c 22.722193
_cell_angle_alpha 90.000000
_cell_angle_beta 90.000000
_cell_angle_gamma 90.000000
_cell_volume 3633.525771
_symmetry_space_group_name_H-M "P M M N"
_symmetry_group_IT_number 59
_space_group.IT_coordinate_system_code '2'
_symmetry_cell_setting 'orthorhombic'
loop_
_space_group_symop_operation_xyz
x,y,z
1/2-x,1/2-y,z
1/2+x,-y,-z
-x,1/2+y,-z
-x,-y,-z
1/2+x,1/2+y,-z
1/2-x,y,z
x,1/2-y,z
loop_
_atom_site_type_symbol
_atom_site_label
_atom_site_fract_x
_atom_site_fract_y
_atom_site_fract_z
Si Si1 0.419552 0.057658 0.863106
Si Si2 0.914258 0.021537 0.360421
Si Si3 0.084904 0.164925 0.175155
Si Si4 0.084779 0.069794 0.528247
Si Si5 0.917422 0.400350 0.072414
Si Si6 0.416796 0.840233 0.052139
Si Si7 0.579278 0.985324 0.757838
Si Si8 0.417279 0.837617 0.555905
O O1 0.250000 0.068321 0.851270
O O2 0.484975 0.134040 0.893013
O O3 0.453050 0.987387 0.907675
O O4 0.499488 0.045218 0.801028
O O5 0.750000 0.031959 0.337392
O O6 0.963029 0.100617 0.393880
O O7 0.022601 0.003908 0.307780
O O8 0.923668 0.944951 0.401693
O O9 0.250000 0.150587 0.157624
O O10 0.060372 0.250000 0.202869
O O11 0.036285 0.101776 0.222981
O O12 0.996715 0.159385 0.115025
O O13 0.250000 0.070142 0.506781
O O14 0.008002 0.147841 0.504475
O O15 0.000000 0.000000 0.500000
O O16 0.750000 0.380656 0.077791
O O17 0.969601 0.386598 0.005780
O O18 0.250000 0.859255 0.066494
O O19 0.440633 0.750000 0.041001
O O20 0.750000 0.000854 0.759757
O O21 0.250000 0.849952 0.540071
O O22 0.447771 0.750000 0.577862
#
# Coordination Sequence:
#
# PCOD8242690 Si02
#       8
#     8   8   8   8   8   8   8   8
#     4  10  20  34  52  72  96 127 164 204 243 289
#     4   9  18  32  49  71  99 130 166 205 242 283
#     4   9  18  31  45  65  96 129 159 196 241 286
#     4   9  17  30  49  72  99 131 165 201 239 281
#     4   9  18  32  50  72  96 125 160 195 237 292
#     4  10  20  33  50  73 100 126 154 195 247 299
#     4  10  20  33  50  70  94 128 168 206 243 284
#     4   9  18  32  50  75 108 139 164 197 242 288
#
# _framework density 17.613745000000002
#
# number of rings (size 3 to 8) (size 9 to 14) (size 15 to 20)
#    0.000    2.625    0.000    2.625    0.000    5.750 
#    0.000    0.000    0.000    0.750    0.000    3.500 
#    0.000    0.000    0.000    0.000    0.000    0.000 
#
# Total GULP energy -793435.125921 kJ/mol
# GULP energy per Si atom -12397.423843 kJ/mol
# Density = 1.757366 g / cm^3
# Si number density = 17.613745 Si / 1000 Ang^3
#
#
#
# Elastic Constant Matrix: (Units=GPa)
#
#
# Indices 1 2 3 4 5 6 
#
# 1 82.4091 24.7496 54.5891 0.0000 0.0000 0.0000
# 2 24.7496 40.7762 32.1933 0.0000 0.0000 0.0000
# 3 54.5891 32.1933 104.7527 0.0000 0.0000 0.0000
# 4 0.0000 0.0000 0.0000 18.0780 0.0000 0.0000
# 5 0.0000 0.0000 0.0000 0.0000 33.9089 0.0000
# 6 0.0000 0.0000 0.0000 0.0000 0.0000 25.6932
#
#
#
# Elastic Compliance Matrix: (Units=1/GPa)
#
#
# Indices 1 2 3 4 5 6 
#
# 1 0.019267 -0.004974 -0.008512 0.000000 0.000000 0.000000
# 2 -0.004974 0.033665 -0.007754 0.000000 0.000000 0.000000
# 3 -0.008512 -0.007754 0.016365 0.000000 0.000000 0.000000
# 4 0.000000 0.000000 0.000000 0.055316 0.000000 0.000000
# 5 0.000000 0.000000 0.000000 0.000000 0.029491 0.000000
# 6 0.000000 0.000000 0.000000 0.000000 0.000000 0.038921
#
#
# Mechanical properties :
#
#
# Convention : Reuss Voigt Hill
#
# Bulk Modulus (GPa) = 37.28960 50.11132 43.70046
# Shear Modulus (GPa) = 20.45469 23.29644 21.87556
#
# Velocity S-wave (km/s) = 3.41147 3.64074 3.52797
# Velocity P-wave (km/s) = 6.06087 6.79597 6.43892
#
# Compressibility (1/GPa) = 0.02681713
#
# Stress axis : x y z
#
# Youngs Moduli (GPa) = 51.90311 29.70436 61.10626
#
# Poissons Ratio (x) = 0.14775 0.52011
# Poissons Ratio (y) = 0.25817 0.47382
# Poissons Ratio (z) = 0.44178 0.23033
#
# Static dielectric constant tensor:
#      x y z
#    x 3.367460 0.000000 0.000000 
#    y 0.000000 3.444460 0.000000 
#    z 0.000000 0.000000 3.243230 
# 
# 
# High freq. dielectric constant tensor:
#      x y z
#    x 1.688050 0.000000 0.000000 
#    y 0.000000 1.663010 0.000000 
#    z 0.000000 0.000000 1.665320 
# 
# From -- ./inp_files/29435.got.cif
#   From: 2010.03.12/outbox.cif.g09.slc.cpg/sg59_15_cif.got.tgz:29435.got - 2010.04.16 16:29:54.
