data_PCOD8242404
_publ_section_title
;
Structure prediction by ZEFSAII (Michael W. Deem and Ramdas Pophale) SiO2 
 PCOD8242404
Probable space group: P M M N
;
_chemical_formula_sum "Si O2"
_cell_formula_units_Z 64
_cell_length_a 22.809233
_cell_length_b 9.302752
_cell_length_c 16.397306
_cell_angle_alpha 90.000000
_cell_angle_beta 90.000000
_cell_angle_gamma 90.000000
_cell_volume 3479.322026
_symmetry_space_group_name_H-M "P M M N"
_symmetry_group_IT_number 59
_space_group.IT_coordinate_system_code '2'
_symmetry_cell_setting 'orthorhombic'
loop_
_space_group_symop_operation_xyz
x,y,z
1/2-x,1/2-y,z
1/2+x,-y,-z
-x,1/2+y,-z
-x,-y,-z
1/2+x,1/2+y,-z
1/2-x,y,z
x,1/2-y,z
loop_
_atom_site_type_symbol
_atom_site_label
_atom_site_fract_x
_atom_site_fract_y
_atom_site_fract_z
Si Si1 0.418132 0.418217 0.055377
Si Si2 0.631723 0.917182 0.661112
Si Si3 0.182246 0.592913 0.477276
Si Si4 0.684617 0.587339 0.373848
Si Si5 0.028656 0.082465 0.887253
Si Si6 0.183988 0.080532 0.167535
Si Si7 0.571694 0.914408 0.287779
Si Si8 0.994667 0.919986 0.586560
O O1 0.426533 0.250000 0.072309
O O2 0.468340 0.497459 0.105977
O O3 0.354097 0.468398 0.088299
O O4 0.425541 0.456020 0.959759
O O5 0.645513 0.750000 0.649658
O O6 0.646100 0.966863 0.753352
O O7 0.566182 0.954725 0.632517
O O8 0.675729 0.006984 0.605919
O O9 0.250000 0.611782 0.495151
O O10 0.151760 0.750000 0.471788
O O11 0.155673 0.505657 0.553351
O O12 0.750000 0.536921 0.348159
O O13 0.686279 0.750000 0.406821
O O14 0.642160 0.573878 0.296159
O O15 0.013348 0.250000 0.889108
O O16 0.058089 0.034066 0.803234
O O17 0.250000 0.011843 0.165505
O O18 0.191506 0.250000 0.167719
O O19 0.550526 0.750000 0.303082
O O20 0.543715 0.020300 0.353283
O O21 0.002770 0.750000 0.572568
O O22 0.000000 0.000000 0.500000
#
# Coordination Sequence:
#
# PCOD8242404 Si02
#       8
#     8   8   8   8   8   8   8   8
#     4   9  17  32  53  76 101 129 164 202 244 299
#     4  10  20  33  49  69  95 130 170 205 243 297
#     4  10  20  32  47  69  95 123 160 205 246 283
#     4   9  18  33  51  68  90 124 162 197 236 287
#     4   9  18  32  52  77 103 130 161 203 251 295
#     4   9  17  30  50  75 101 130 166 208 250 296
#     4  10  20  34  51  73 100 129 163 202 246 295
#     4  11  23  36  51  74 103 136 172 212 257 302
#
# _framework density 18.394386999999998
#
# number of rings (size 3 to 8) (size 9 to 14) (size 15 to 20)
#    0.000    2.375    0.000    2.625    0.000    7.250 
#    0.000    1.250    0.000    4.875    0.000    0.000 
#    0.000    3.000    0.000    0.000    0.000    0.000 
#
# Total GULP energy -793304.506282 kJ/mol
# GULP energy per Si atom -12395.382911 kJ/mol
# Density = 1.835252 g / cm^3
# Si number density = 18.394387 Si / 1000 Ang^3
#
#
#
# Elastic Constant Matrix: (Units=GPa)
#
#
# Indices 1 2 3 4 5 6 
#
# 1 111.4478 35.9229 73.8944 0.0000 0.0000 0.0000
# 2 35.9229 55.4147 40.1407 0.0000 0.0000 0.0000
# 3 73.8944 40.1407 134.7957 0.0000 0.0000 0.0000
# 4 0.0000 0.0000 0.0000 20.6851 0.0000 0.0000
# 5 0.0000 0.0000 0.0000 0.0000 31.0425 0.0000
# 6 0.0000 0.0000 0.0000 0.0000 0.0000 22.7911
#
#
#
# Elastic Compliance Matrix: (Units=1/GPa)
#
#
# Indices 1 2 3 4 5 6 
#
# 1 0.015042 -0.004817 -0.006811 0.000000 0.000000 0.000000
# 2 -0.004817 0.024552 -0.004671 0.000000 0.000000 0.000000
# 3 -0.006811 -0.004671 0.012543 0.000000 0.000000 0.000000
# 4 0.000000 0.000000 0.000000 0.048344 0.000000 0.000000
# 5 0.000000 0.000000 0.000000 0.000000 0.032214 0.000000
# 6 0.000000 0.000000 0.000000 0.000000 0.000000 0.043877
#
#
# Mechanical properties :
#
#
# Convention : Reuss Voigt Hill
#
# Bulk Modulus (GPa) = 51.17975 66.84158 59.01067
# Shear Modulus (GPa) = 23.18228 25.01708 24.09968
#
# Velocity S-wave (km/s) = 3.55391 3.69187 3.62355
# Velocity P-wave (km/s) = 6.68763 7.38851 7.04679
#
# Compressibility (1/GPa) = 0.01953898
#
# Stress axis : x y z
#
# Youngs Moduli (GPa) = 66.48209 40.73057 79.72297
#
# Poissons Ratio (x) = 0.19620 0.54302
# Poissons Ratio (y) = 0.32024 0.37235
# Poissons Ratio (z) = 0.45283 0.19024
#
# Static dielectric constant tensor:
#      x y z
#    x 3.509980 0.000000 0.000000 
#    y 0.000000 3.419620 0.000000 
#    z 0.000000 0.000000 3.465610 
# 
# 
# High freq. dielectric constant tensor:
#      x y z
#    x 1.713640 0.000000 0.000000 
#    y 0.000000 1.700100 0.000000 
#    z 0.000000 0.000000 1.708320 
# 
# From -- ./inp_files/24761.got.cif
#   From: 2010.03.12/outbox.cif.g09.slc.cpg/sg59_13_cif.got.tgz:24761.got - 2010.04.16 16:29:54.
