data_PCOD8242440
_publ_section_title
;
Structure prediction by ZEFSAII (Michael W. Deem and Ramdas Pophale) SiO2 
 PCOD8242440
Probable space group: P M M N
;
_chemical_formula_sum "Si O2"
_cell_formula_units_Z 56
_cell_length_a 9.504247
_cell_length_b 15.425693
_cell_length_c 20.968196
_cell_angle_alpha 90.000000
_cell_angle_beta 90.000000
_cell_angle_gamma 90.000000
_cell_volume 3074.138753
_symmetry_space_group_name_H-M "P M M N"
_symmetry_group_IT_number 59
_space_group.IT_coordinate_system_code '2'
_symmetry_cell_setting 'orthorhombic'
loop_
_space_group_symop_operation_xyz
x,y,z
1/2-x,1/2-y,z
1/2+x,-y,-z
-x,1/2+y,-z
-x,-y,-z
1/2+x,1/2+y,-z
1/2-x,y,z
x,1/2-y,z
loop_
_atom_site_type_symbol
_atom_site_label
_atom_site_fract_x
_atom_site_fract_y
_atom_site_fract_z
Si Si1 0.582480 0.347087 0.380506
Si Si2 0.094496 0.852610 0.479430
Si Si3 0.409239 0.844806 0.074030
Si Si4 0.589656 0.992783 0.844755
Si Si5 0.413820 0.151073 0.639218
Si Si6 0.584625 0.011803 0.279701
Si Si7 0.087228 0.081163 0.024546
O O1 0.750000 0.344532 0.381151
O O2 0.524880 0.250000 0.364547
O O3 0.532837 0.378723 0.450989
O O4 0.526717 0.416416 0.329266
O O5 0.250000 0.892906 0.468207
O O6 0.106171 0.750000 0.477714
O O7 0.991541 0.884381 0.423704
O O8 0.250000 0.869094 0.052445
O O9 0.414126 0.750000 0.106275
O O10 0.460411 0.915166 0.125622
O O11 0.510120 0.839666 0.011340
O O12 0.750000 0.999679 0.820481
O O13 0.490191 0.968863 0.786687
O O14 0.575989 0.917011 0.898403
O O15 0.250000 0.146248 0.623220
O O16 0.457898 0.250000 0.657759
O O17 0.452238 0.085598 0.696596
O O18 0.750000 0.022744 0.269251
O O19 0.250000 0.076486 0.003513
O O20 0.000000 0.000000 0.000000
#
# Coordination Sequence:
#
# PCOD8242440 Si02
#       7
#     8   8   8   8   8   8   8
#     4   8  15  30  50  69  89 114 153 207 252 283
#     4   8  14  27  48  69  87 114 155 200 244 288
#     4   9  18  33  53  77 102 126 157 199 243 286
#     4   9  19  34  49  68  98 131 158 191 236 280
#     4   9  18  31  44  64  98 129 152 189 240 289
#     4  10  20  32  48  69  93 128 168 197 231 284
#     4   9  17  31  51  72  95 124 157 194 237 282
#
# _framework density 18.216484000000001
#
# number of rings (size 3 to 8) (size 9 to 14) (size 15 to 20)
#    0.000    3.143    0.000    2.143    0.000    4.857 
#    0.000    1.429    0.000    3.857    0.000    0.000 
#    0.000    0.000    0.000    0.000    0.000    0.000 
#
# Total GULP energy -693900.263872 kJ/mol
# GULP energy per Si atom -12391.076141 kJ/mol
# Density = 1.817502 g / cm^3
# Si number density = 18.216484 Si / 1000 Ang^3
#
#
#
# Elastic Constant Matrix: (Units=GPa)
#
#
# Indices 1 2 3 4 5 6 
#
# 1 57.4804 9.3647 39.9831 0.0000 0.0000 0.0000
# 2 9.3647 41.6315 11.6779 0.0000 0.0000 0.0000
# 3 39.9831 11.6779 94.1480 0.0000 0.0000 0.0000
# 4 0.0000 0.0000 0.0000 22.3861 0.0000 0.0000
# 5 0.0000 0.0000 0.0000 0.0000 36.2483 0.0000
# 6 0.0000 0.0000 0.0000 0.0000 0.0000 15.0240
#
#
#
# Elastic Compliance Matrix: (Units=1/GPa)
#
#
# Indices 1 2 3 4 5 6 
#
# 1 0.024989 -0.002740 -0.010273 0.000000 0.000000 0.000000
# 2 -0.002740 0.025186 -0.001961 0.000000 0.000000 0.000000
# 3 -0.010273 -0.001961 0.015227 0.000000 0.000000 0.000000
# 4 0.000000 0.000000 0.000000 0.044671 0.000000 0.000000
# 5 0.000000 0.000000 0.000000 0.000000 0.027588 0.000000
# 6 0.000000 0.000000 0.000000 0.000000 0.000000 0.066560
#
#
# Mechanical properties :
#
#
# Convention : Reuss Voigt Hill
#
# Bulk Modulus (GPa) = 28.20291 35.03459 31.61875
# Shear Modulus (GPa) = 20.32633 23.54728 21.93681
#
# Velocity S-wave (km/s) = 3.34401 3.59923 3.47396
# Velocity P-wave (km/s) = 5.51594 6.04538 5.78672
#
# Compressibility (1/GPa) = 0.03545734
#
# Stress axis : x y z
#
# Youngs Moduli (GPa) = 40.01726 39.70381 65.67104
#
# Poissons Ratio (x) = 0.10877 0.67462
# Poissons Ratio (y) = 0.10963 0.12876
# Poissons Ratio (z) = 0.41109 0.07784
#
# Static dielectric constant tensor:
#      x y z
#    x 3.499900 0.000000 0.000000 
#    y 0.000000 3.588730 0.000000 
#    z 0.000000 0.000000 3.446700 
# 
# 
# High freq. dielectric constant tensor:
#      x y z
#    x 1.690610 0.000000 0.000000 
#    y 0.000000 1.692410 0.000000 
#    z 0.000000 0.000000 1.694600 
# 
# From -- ./inp_files/29328.got.cif
#   From: 2010.03.12/outbox.cif.g09.slc.cpg/sg59_15_cif.got.tgz:29328.got - 2010.04.16 16:29:54.
