data_PCOD8242832
_publ_section_title
;
Structure prediction by ZEFSAII (Michael W. Deem and Ramdas Pophale) SiO2 
 PCOD8242832
Probable space group: P M M N
;
_chemical_formula_sum "Si O2"
_cell_formula_units_Z 48
_cell_length_a 9.182948
_cell_length_b 9.331704
_cell_length_c 30.724234
_cell_angle_alpha 90.000000
_cell_angle_beta 90.000000
_cell_angle_gamma 90.000000
_cell_volume 2632.838038
_symmetry_space_group_name_H-M "P M M N"
_symmetry_group_IT_number 59
_space_group.IT_coordinate_system_code '2'
_symmetry_cell_setting 'orthorhombic'
loop_
_space_group_symop_operation_xyz
x,y,z
1/2-x,1/2-y,z
1/2+x,-y,-z
-x,1/2+y,-z
-x,-y,-z
1/2+x,1/2+y,-z
1/2-x,y,z
x,1/2-y,z
loop_
_atom_site_type_symbol
_atom_site_label
_atom_site_fract_x
_atom_site_fract_y
_atom_site_fract_z
Si Si1 0.581628 0.083820 0.875275
Si Si2 0.419884 0.415651 0.716807
Si Si3 0.581461 0.917889 0.037828
Si Si4 0.422273 0.585168 0.537954
Si Si5 0.577254 0.908428 0.380380
Si Si6 0.578798 0.914624 0.790772
O O1 0.750000 0.050608 0.885709
O O2 0.557245 0.250000 0.864350
O O3 0.487187 0.034607 0.916391
O O4 0.524347 0.994299 0.834177
O O5 0.250000 0.448202 0.722022
O O6 0.453327 0.250000 0.727465
O O7 0.474643 0.453091 0.667920
O O8 0.506136 0.517561 0.748773
O O9 0.750000 0.961356 0.037770
O O10 0.558846 0.750000 0.030093
O O11 0.500000 0.000000 0.000000
O O12 0.500000 0.500000 0.500000
O O13 0.250000 0.566250 0.532836
O O14 0.469695 0.750000 0.535875
O O15 0.478156 0.522117 0.584044
O O16 0.750000 0.901696 0.379959
O O17 0.516387 0.750000 0.392275
O O18 0.750000 0.933776 0.785527
O O19 0.531976 0.750000 0.794380
#
# Coordination Sequence:
#
# PCOD8242832 Si02
#       6
#     8   8   8   8   8   8
#     4   9  18  34  54  73  98 136 177 212 249 297
#     4   9  18  33  54  78 101 129 168 210 251 300
#     4  10  21  36  55  80 108 137 170 210 255 302
#     4  10  20  33  51  75 101 131 168 208 252 303
#     4   8  15  30  51  73  98 129 165 206 252 300
#     4  10  21  35  51  75 107 139 170 207 253 302
#
# _framework density 18.231276999999999
#
# number of rings (size 3 to 8) (size 9 to 14) (size 15 to 20)
#    0.000    2.667    0.000    2.500    0.000    5.333 
#    0.000    5.833    0.000    1.000    0.000    0.000 
#    0.000    0.000    0.000    0.000    0.000    0.000 
#
# Total GULP energy -595213.877942 kJ/mol
# GULP energy per Si atom -12400.289124 kJ/mol
# Density = 1.818978 g / cm^3
# Si number density = 18.231277 Si / 1000 Ang^3
#
#
#
# Elastic Constant Matrix: (Units=GPa)
#
#
# Indices 1 2 3 4 5 6 
#
# 1 50.6791 45.7669 59.5130 0.0000 0.0000 0.0000
# 2 45.7669 121.2800 101.6346 0.0000 0.0000 0.0000
# 3 59.5130 101.6346 179.1862 0.0000 0.0000 0.0000
# 4 0.0000 0.0000 0.0000 40.2657 0.0000 0.0000
# 5 0.0000 0.0000 0.0000 0.0000 34.9363 0.0000
# 6 0.0000 0.0000 0.0000 0.0000 0.0000 26.8303
#
#
#
# Elastic Compliance Matrix: (Units=1/GPa)
#
#
# Indices 1 2 3 4 5 6 
#
# 1 0.034909 -0.006589 -0.007857 0.000000 0.000000 0.000000
# 2 -0.006589 0.016959 -0.007431 0.000000 0.000000 0.000000
# 3 -0.007857 -0.007431 0.012405 0.000000 0.000000 0.000000
# 4 0.000000 0.000000 0.000000 0.024835 0.000000 0.000000
# 5 0.000000 0.000000 0.000000 0.000000 0.028624 0.000000
# 6 0.000000 0.000000 0.000000 0.000000 0.000000 0.037271
#
#
# Mechanical properties :
#
#
# Convention : Reuss Voigt Hill
#
# Bulk Modulus (GPa) = 48.73453 84.99717 66.86585
# Shear Modulus (GPa) = 24.31952 30.02184 27.17068
#
# Velocity S-wave (km/s) = 3.65628 4.06238 3.86467
# Velocity P-wave (km/s) = 6.67936 8.29016 7.52797
#
# Compressibility (1/GPa) = 0.02051933
#
# Stress axis : x y z
#
# Youngs Moduli (GPa) = 28.64589 58.96592 80.61299
#
# Poissons Ratio (x) = 0.38854 0.63337
# Poissons Ratio (y) = 0.18876 0.59901
# Poissons Ratio (z) = 0.22507 0.43815
#
# Static dielectric constant tensor:
#      x y z
#    x 3.136160 0.000000 0.000000 
#    y 0.000000 1.783560 0.000000 
#    z 0.000000 0.000000 3.590090 
# 
# 
# High freq. dielectric constant tensor:
#      x y z
#    x 1.684330 0.000000 0.000000 
#    y 0.000000 1.707090 0.000000 
#    z 0.000000 0.000000 1.720890 
# 
# From -- ./inp_files/32910.got.cif
#   From: 2010.03.12/outbox.cif.g09.slc.cpg/sg59_17_cif.got.tgz:32910.got - 2010.04.16 16:29:54.
