data_PCOD8242283
_publ_section_title
;
Structure prediction by ZEFSAII (Michael W. Deem and Ramdas Pophale) SiO2 
 PCOD8242283
Probable space group: P M M N
;
_chemical_formula_sum "Si O2"
_cell_formula_units_Z 64
_cell_length_a 30.458964
_cell_length_b 9.202242
_cell_length_c 15.123267
_cell_angle_alpha 90.000000
_cell_angle_beta 90.000000
_cell_angle_gamma 90.000000
_cell_volume 4238.911968
_symmetry_space_group_name_H-M "P M M N"
_symmetry_group_IT_number 59
_space_group.IT_coordinate_system_code '2'
_symmetry_cell_setting 'orthorhombic'
loop_
_space_group_symop_operation_xyz
x,y,z
1/2-x,1/2-y,z
1/2+x,-y,-z
-x,1/2+y,-z
-x,-y,-z
1/2+x,1/2+y,-z
1/2-x,y,z
x,1/2-y,z
loop_
_atom_site_type_symbol
_atom_site_label
_atom_site_fract_x
_atom_site_fract_y
_atom_site_fract_z
Si Si1 0.954394 0.584847 0.924072
Si Si2 0.358482 0.084757 0.085303
Si Si3 0.302270 0.085749 0.393267
Si Si4 0.452237 0.916069 0.898318
Si Si5 0.197772 0.914025 0.562515
Si Si6 0.869414 0.581177 0.119299
Si Si7 0.800331 0.920114 0.263572
Si Si8 0.301297 0.918464 0.219830
O O1 0.956181 0.750000 0.964156
O O2 0.907769 0.568109 0.873538
O O3 0.997515 0.561937 0.861034
O O4 0.954950 0.465253 0.000271
O O5 0.341461 0.250000 0.096840
O O6 0.325898 0.975667 0.133431
O O7 0.358832 0.040659 0.981918
O O8 0.250000 0.085690 0.396534
O O9 0.320567 0.250000 0.393460
O O10 0.321278 0.000669 0.478180
O O11 0.318749 0.005212 0.305136
O O12 0.437543 0.750000 0.893243
O O13 0.414683 0.006122 0.847392
O O14 0.250000 0.913462 0.558135
O O15 0.179307 0.750000 0.561231
O O16 0.181987 0.993716 0.651318
O O17 0.877552 0.750000 0.130478
O O18 0.828982 0.529450 0.179774
O O19 0.750000 0.960153 0.241879
O O20 0.805252 0.750000 0.283930
O O21 0.250000 0.945338 0.204593
O O22 0.311861 0.750000 0.234518
#
# Coordination Sequence:
#
# PCOD8242283 Si02
#       8
#     8   8   8   8   8   8   8   8
#     4   8  15  27  41  58  79 102 130 167 209 249
#     4   9  17  29  43  58  79 109 144 176 204 239
#     4   9  16  27  44  62  78 101 134 168 204 248
#     4   9  15  24  41  61  79 101 130 166 210 254
#     4   9  16  26  41  61  83 104 128 166 214 252
#     4   9  18  30  42  58  82 111 143 178 209 238
#     4   9  17  29  43  58  79 111 148 178 203 237
#     4  10  20  31  41  57  83 111 139 173 209 242
#
# _framework density 15.098214
#
# number of rings (size 3 to 8) (size 9 to 14) (size 15 to 20)
#    0.000    3.000    0.000    2.250    0.000    7.250 
#    0.000    1.250    0.000    1.500    0.000    0.000 
#    0.000    1.000    0.000    3.000    0.000    4.875 
#
# Total GULP energy -793119.695470 kJ/mol
# GULP energy per Si atom -12392.495242 kJ/mol
# Density = 1.506385 g / cm^3
# Si number density = 15.098214 Si / 1000 Ang^3
#
#
#
# Elastic Constant Matrix: (Units=GPa)
#
#
# Indices 1 2 3 4 5 6 
#
# 1 61.6964 39.0543 39.8426 0.0000 0.0000 0.0000
# 2 39.0543 83.0518 45.4674 0.0000 0.0000 0.0000
# 3 39.8426 45.4674 75.7353 0.0000 0.0000 0.0000
# 4 0.0000 0.0000 0.0000 21.8070 0.0000 0.0000
# 5 0.0000 0.0000 0.0000 0.0000 1.3948 0.0000
# 6 0.0000 0.0000 0.0000 0.0000 0.0000 21.4727
#
#
#
# Elastic Compliance Matrix: (Units=1/GPa)
#
#
# Indices 1 2 3 4 5 6 
#
# 1 0.027302 -0.007411 -0.009914 0.000000 0.000000 0.000000
# 2 -0.007411 0.019947 -0.008076 0.000000 0.000000 0.000000
# 3 -0.009914 -0.008076 0.023268 0.000000 0.000000 0.000000
# 4 0.000000 0.000000 0.000000 0.045857 0.000000 0.000000
# 5 0.000000 0.000000 0.000000 0.000000 0.716943 0.000000
# 6 0.000000 0.000000 0.000000 0.000000 0.000000 0.046571
#
#
# Mechanical properties :
#
#
# Convention : Reuss Voigt Hill
#
# Bulk Modulus (GPa) = 50.72395 52.13469 51.42932
# Shear Modulus (GPa) = 5.33469 15.34283 10.33876
#
# Velocity S-wave (km/s) = 1.88175 3.19125 2.61964
# Velocity P-wave (km/s) = 6.19599 6.94148 6.57930
#
# Compressibility (1/GPa) = 0.01971455
#
# Stress axis : x y z
#
# Youngs Moduli (GPa) = 36.62771 50.13245 42.97776
#
# Poissons Ratio (x) = 0.37154 0.42606
# Poissons Ratio (y) = 0.27145 0.34711
# Poissons Ratio (z) = 0.36311 0.40489
#
# Static dielectric constant tensor:
#      x y z
#    x 2.964620 0.000000 0.000000 
#    y 0.000000 3.026480 0.000000 
#    z 0.000000 0.000000 2.730940 
# 
# 
# High freq. dielectric constant tensor:
#      x y z
#    x 1.554420 0.000000 0.000000 
#    y 0.000000 1.591120 0.000000 
#    z 0.000000 0.000000 1.542960 
# 
# From -- ./inp_files/25094.got.cif
#   From: 2010.03.12/outbox.cif.g09.slc.cpg/sg59_13_cif.got.tgz:25094.got - 2010.04.16 16:29:54.
