data_PCOD8242149
_publ_section_title
;
Structure prediction by ZEFSAII (Michael W. Deem and Ramdas Pophale) SiO2 
 PCOD8242149
Probable space group: P M M N
;
_chemical_formula_sum "Si O2"
_cell_formula_units_Z 64
_cell_length_a 9.016955
_cell_length_b 13.962362
_cell_length_c 26.764812
_cell_angle_alpha 90.000000
_cell_angle_beta 90.000000
_cell_angle_gamma 90.000000
_cell_volume 3369.636029
_symmetry_space_group_name_H-M "P M M N"
_symmetry_group_IT_number 59
_space_group.IT_coordinate_system_code '2'
_symmetry_cell_setting 'orthorhombic'
loop_
_space_group_symop_operation_xyz
x,y,z
1/2-x,1/2-y,z
1/2+x,-y,-z
-x,1/2+y,-z
-x,-y,-z
1/2+x,1/2+y,-z
1/2-x,y,z
x,1/2-y,z
loop_
_atom_site_type_symbol
_atom_site_label
_atom_site_fract_x
_atom_site_fract_y
_atom_site_fract_z
Si Si1 0.576047 0.003495 0.946877
Si Si2 0.575982 0.359942 0.475648
Si Si3 0.575877 0.028954 0.575116
Si Si4 0.576983 0.639925 0.337384
Si Si5 0.417744 0.354741 0.216982
Si Si6 0.914399 0.358063 0.116103
Si Si7 0.578861 0.440665 0.755806
Si Si8 0.925664 0.143102 0.861607
O O1 0.750000 0.011135 0.955264
O O2 0.535368 0.906456 0.918900
O O3 0.516392 0.090205 0.911674
O O4 0.500000 0.000000 0.000000
O O5 0.750000 0.369442 0.465786
O O6 0.522925 0.250000 0.471251
O O7 0.491560 0.423737 0.434694
O O8 0.534174 0.398356 0.530577
O O9 0.750000 0.017360 0.581701
O O10 0.510125 0.070805 0.625606
O O11 0.750000 0.617618 0.341527
O O12 0.542395 0.750000 0.350665
O O13 0.522928 0.618959 0.281506
O O14 0.250000 0.362982 0.195302
O O15 0.437888 0.250000 0.243776
O O16 0.534956 0.363567 0.173064
O O17 0.444047 0.444858 0.253922
O O18 0.750000 0.404928 0.111719
O O19 0.906474 0.250000 0.097367
O O20 0.750000 0.410929 0.747330
O O21 0.526202 0.415059 0.812051
O O22 0.750000 0.147537 0.863564
O O23 0.993619 0.250000 0.860131
#
# Coordination Sequence:
#
# PCOD8242149 Si02
#       8
#     8   8   8   8   8   8   8   8
#     4  11  22  37  55  79 109 142 179 221 272 327
#     4   9  18  34  57  85 118 155 195 241 294 345
#     4  10  20  35  57  85 116 153 198 243 286 340
#     4  11  24  39  55  80 114 151 191 239 292 338
#     4   9  17  32  56  84 109 133 168 216 267 320
#     4  10  20  34  54  79 105 136 173 214 262 316
#     4  10  19  35  59  84 108 142 185 226 275 335
#     4   9  18  34  56  80 106 137 175 219 269 327
#
# _framework density 18.993148999999999
#
# number of rings (size 3 to 8) (size 9 to 14) (size 15 to 20)
#    0.000    2.125    1.250    2.250    0.000    4.500 
#    0.000    1.875    0.000    4.125    0.000    0.000 
#    0.000    0.000    0.000    0.000    0.000    0.000 
#
# Total GULP energy -793462.827125 kJ/mol
# GULP energy per Si atom -12397.856674 kJ/mol
# Density = 1.894992 g / cm^3
# Si number density = 18.993149 Si / 1000 Ang^3
#
#
#
# Elastic Constant Matrix: (Units=GPa)
#
#
# Indices 1 2 3 4 5 6 
#
# 1 55.8665 42.0620 28.5551 0.0000 0.0000 0.0000
# 2 42.0620 130.7142 43.2137 0.0000 0.0000 0.0000
# 3 28.5551 43.2137 86.5196 0.0000 0.0000 0.0000
# 4 0.0000 0.0000 0.0000 25.0703 0.0000 0.0000
# 5 0.0000 0.0000 0.0000 0.0000 30.8799 0.0000
# 6 0.0000 0.0000 0.0000 0.0000 0.0000 27.1955
#
#
#
# Elastic Compliance Matrix: (Units=1/GPa)
#
#
# Indices 1 2 3 4 5 6 
#
# 1 0.025406 -0.006472 -0.005153 0.000000 0.000000 0.000000
# 2 -0.006472 0.010812 -0.003264 0.000000 0.000000 0.000000
# 3 -0.005153 -0.003264 0.014889 0.000000 0.000000 0.000000
# 4 0.000000 0.000000 0.000000 0.039888 0.000000 0.000000
# 5 0.000000 0.000000 0.000000 0.000000 0.032384 0.000000
# 6 0.000000 0.000000 0.000000 0.000000 0.000000 0.036771
#
#
# Mechanical properties :
#
#
# Convention : Reuss Voigt Hill
#
# Bulk Modulus (GPa) = 46.88295 55.64021 51.26158
# Shear Modulus (GPa) = 25.37598 27.24712 26.31155
#
# Velocity S-wave (km/s) = 3.65918 3.79169 3.72602
# Velocity P-wave (km/s) = 6.52614 6.96618 6.74975
#
# Compressibility (1/GPa) = 0.02132972
#
# Stress axis : x y z
#
# Youngs Moduli (GPa) = 39.36046 92.48984 67.16362
#
# Poissons Ratio (x) = 0.59859 0.34607
# Poissons Ratio (y) = 0.25474 0.21924
# Poissons Ratio (z) = 0.20281 0.30191
#
# Static dielectric constant tensor:
#      x y z
#    x 3.418820 0.000000 0.000000 
#    y 0.000000 3.937440 0.000000 
#    z 0.000000 0.000000 3.494700 
# 
# 
# High freq. dielectric constant tensor:
#      x y z
#    x 1.730250 0.000000 0.000000 
#    y 0.000000 1.751210 0.000000 
#    z 0.000000 0.000000 1.716870 
# 
# From -- ./inp_files/31617.got.cif
#   From: 2010.03.12/outbox.cif.g09.slc.cpg/sg59_16_cif.got.tgz:31617.got - 2010.04.16 16:29:54.
