data_PCOD8242072
_publ_section_title
;
Structure prediction by ZEFSAII (Michael W. Deem and Ramdas Pophale) SiO2 
 PCOD8242072
Probable space group: P M M N
;
_chemical_formula_sum "Si O2"
_cell_formula_units_Z 56
_cell_length_a 9.006799
_cell_length_b 18.988734
_cell_length_c 17.803246
_cell_angle_alpha 90.000000
_cell_angle_beta 90.000000
_cell_angle_gamma 90.000000
_cell_volume 3044.848401
_symmetry_space_group_name_H-M "P M M N"
_symmetry_group_IT_number 59
_space_group.IT_coordinate_system_code '2'
_symmetry_cell_setting 'orthorhombic'
loop_
_space_group_symop_operation_xyz
x,y,z
1/2-x,1/2-y,z
1/2+x,-y,-z
-x,1/2+y,-z
-x,-y,-z
1/2+x,1/2+y,-z
1/2-x,y,z
x,1/2-y,z
loop_
_atom_site_type_symbol
_atom_site_label
_atom_site_fract_x
_atom_site_fract_y
_atom_site_fract_z
Si Si1 0.923839 0.167860 0.371545
Si Si2 0.922386 0.432939 0.965338
Si Si3 0.425151 0.830997 0.328775
Si Si4 0.425277 0.092895 0.232910
Si Si5 0.921008 0.331486 0.097840
Si Si6 0.082788 0.333661 0.521203
Si Si7 0.425564 0.565431 0.201591
O O1 0.750000 0.153607 0.375719
O O2 0.959181 0.250000 0.359412
O O3 0.992391 0.125753 0.303198
O O4 0.996107 0.138627 0.448124
O O5 0.750000 0.451933 0.959790
O O6 0.986870 0.417976 0.881981
O O7 0.951287 0.364610 0.016166
O O8 0.000000 0.500000 0.000000
O O9 0.250000 0.839817 0.339426
O O10 0.468149 0.750000 0.313306
O O11 0.501409 0.860828 0.404028
O O12 0.488685 0.876724 0.259518
O O13 0.250000 0.100770 0.243773
O O14 0.471763 0.132803 0.157630
O O15 0.476236 0.012058 0.226860
O O16 0.750000 0.342687 0.122565
O O17 0.961766 0.250000 0.091973
O O18 0.250000 0.363314 0.519475
O O19 0.080931 0.250000 0.520968
O O20 0.250000 0.571089 0.201441
#
# Coordination Sequence:
#
# PCOD8242072 Si02
#       7
#     8   8   8   8   8   8   8
#     4  10  20  34  53  77 105 137 177 221 261 308
#     4  10  19  35  56  76 103 139 178 218 263 314
#     4   9  17  32  55  79 103 134 173 217 264 312
#     4  11  21  34  52  75 107 143 177 215 262 315
#     4  10  21  35  53  79 108 138 176 222 267 312
#     4   9  17  31  52  78 107 137 171 213 263 315
#     4   9  19  34  53  78 106 136 174 217 261 313
#
# _framework density 18.391721
#
# number of rings (size 3 to 8) (size 9 to 14) (size 15 to 20)
#    0.000    2.286    1.429    1.714    0.000    5.143 
#    0.000    5.714    0.000    0.000    0.000    2.000 
#    0.000    0.000    0.000    0.000    0.000    0.000 
#
# Total GULP energy -694450.832997 kJ/mol
# GULP energy per Si atom -12400.907732 kJ/mol
# Density = 1.834986 g / cm^3
# Si number density = 18.391721 Si / 1000 Ang^3
#
#
#
# Elastic Constant Matrix: (Units=GPa)
#
#
# Indices 1 2 3 4 5 6 
#
# 1 60.0143 37.5311 55.6841 0.0000 0.0000 0.0000
# 2 37.5311 93.3145 65.7555 0.0000 0.0000 0.0000
# 3 55.6841 65.7555 183.8368 0.0000 0.0000 0.0000
# 4 0.0000 0.0000 0.0000 69.0915 0.0000 0.0000
# 5 0.0000 0.0000 0.0000 0.0000 26.2731 0.0000
# 6 0.0000 0.0000 0.0000 0.0000 0.0000 18.0305
#
#
#
# Elastic Compliance Matrix: (Units=1/GPa)
#
#
# Indices 1 2 3 4 5 6 
#
# 1 0.025838 -0.006521 -0.005494 0.000000 0.000000 0.000000
# 2 -0.006521 0.015973 -0.003738 0.000000 0.000000 0.000000
# 3 -0.005494 -0.003738 0.008441 0.000000 0.000000 0.000000
# 4 0.000000 0.000000 0.000000 0.014474 0.000000 0.000000
# 5 0.000000 0.000000 0.000000 0.000000 0.038062 0.000000
# 6 0.000000 0.000000 0.000000 0.000000 0.000000 0.055461
#
#
# Mechanical properties :
#
#
# Convention : Reuss Voigt Hill
#
# Bulk Modulus (GPa) = 53.34369 72.78967 63.06668
# Shear Modulus (GPa) = 25.50971 34.55868 30.03419
#
# Velocity S-wave (km/s) = 3.72831 4.33949 4.04546
# Velocity P-wave (km/s) = 6.89934 8.04808 7.49575
#
# Compressibility (1/GPa) = 0.01874636
#
# Stress axis : x y z
#
# Youngs Moduli (GPa) = 38.70252 62.60445 118.47117
#
# Poissons Ratio (x) = 0.40822 0.65088
# Poissons Ratio (y) = 0.25237 0.44288
# Poissons Ratio (z) = 0.21263 0.23403
#
# Static dielectric constant tensor:
#      x y z
#    x 3.337030 0.000000 0.000000 
#    y 0.000000 3.395630 0.000000 
#    z 0.000000 0.000000 3.788010 
# 
# 
# High freq. dielectric constant tensor:
#      x y z
#    x 1.702270 0.000000 0.000000 
#    y 0.000000 1.696550 0.000000 
#    z 0.000000 0.000000 1.730450 
# 
# From -- ./inp_files/21080.got.cif
#   From: 2010.03.12/outbox.cif.g09.slc.cpg/sg59_11_cif.got.tgz:21080.got - 2010.04.16 16:29:54.
