data_PCOD8242424
_publ_section_title
;
Structure prediction by ZEFSAII (Michael W. Deem and Ramdas Pophale) SiO2 
 PCOD8242424
Probable space group: P M M N
;
_chemical_formula_sum "Si O2"
_cell_formula_units_Z 48
_cell_length_a 9.156332
_cell_length_b 15.065089
_cell_length_c 19.015038
_cell_angle_alpha 90.000000
_cell_angle_beta 90.000000
_cell_angle_gamma 90.000000
_cell_volume 2622.952529
_symmetry_space_group_name_H-M "P M M N"
_symmetry_group_IT_number 59
_space_group.IT_coordinate_system_code '2'
_symmetry_cell_setting 'orthorhombic'
loop_
_space_group_symop_operation_xyz
x,y,z
1/2-x,1/2-y,z
1/2+x,-y,-z
-x,1/2+y,-z
-x,-y,-z
1/2+x,1/2+y,-z
1/2-x,y,z
x,1/2-y,z
loop_
_atom_site_type_symbol
_atom_site_label
_atom_site_fract_x
_atom_site_fract_y
_atom_site_fract_z
Si Si1 0.420540 0.649360 0.321231
Si Si2 0.418325 0.646356 0.665835
Si Si3 0.576515 0.347678 0.175809
Si Si4 0.577624 0.500349 0.074040
Si Si5 0.077375 0.494959 0.425823
Si Si6 0.080112 0.149320 0.819233
O O1 0.250000 0.644308 0.306207
O O2 0.468537 0.750000 0.340965
O O3 0.466335 0.584336 0.384068
O O4 0.498603 0.616478 0.250428
O O5 0.250000 0.617313 0.655350
O O6 0.436201 0.750000 0.648182
O O7 0.472106 0.626559 0.745337
O O8 0.521653 0.591763 0.614384
O O9 0.750000 0.346190 0.174770
O O10 0.515698 0.250000 0.155695
O O11 0.516092 0.418152 0.119820
O O12 0.750000 0.492863 0.062408
O O13 0.533899 0.590246 0.114358
O O14 0.500000 0.500000 0.000000
O O15 0.250000 0.487536 0.436270
O O16 0.000000 0.500000 0.500000
O O17 0.250000 0.138128 0.802984
O O18 0.037421 0.250000 0.838233
#
# Coordination Sequence:
#
# PCOD8242424 Si02
#       6
#     8   8   8   8   8   8
#     4   9  19  36  56  77 101 131 170 215 259 303
#     4   9  18  35  59  81 101 131 172 217 264 312
#     4   8  15  30  52  74  94 123 166 208 245 293
#     4  10  20  32  47  70 101 133 164 201 245 295
#     4  11  23  36  52  77 109 142 174 211 257 308
#     4   9  18  33  53  75  98 127 165 209 255 302
#
# _framework density 18.299987000000002
#
# number of rings (size 3 to 8) (size 9 to 14) (size 15 to 20)
#    0.000    2.667    0.000    2.500    0.000    5.000 
#    0.000    2.500    0.000    1.000    0.000    0.000 
#    0.000    0.000    0.000    0.000    0.000    0.000 
#
# Total GULP energy -595195.031265 kJ/mol
# GULP energy per Si atom -12399.896485 kJ/mol
# Density = 1.825834 g / cm^3
# Si number density = 18.299987 Si / 1000 Ang^3
#
#
#
# Elastic Constant Matrix: (Units=GPa)
#
#
# Indices 1 2 3 4 5 6 
#
# 1 50.1884 46.3445 58.7965 0.0000 0.0000 0.0000
# 2 46.3445 119.6947 94.5064 0.0000 0.0000 0.0000
# 3 58.7965 94.5064 172.1122 0.0000 0.0000 0.0000
# 4 0.0000 0.0000 0.0000 21.1246 0.0000 0.0000
# 5 0.0000 0.0000 0.0000 0.0000 36.1216 0.0000
# 6 0.0000 0.0000 0.0000 0.0000 0.0000 24.0588
#
#
#
# Elastic Compliance Matrix: (Units=1/GPa)
#
#
# Indices 1 2 3 4 5 6 
#
# 1 0.036782 -0.007627 -0.008377 0.000000 0.000000 0.000000
# 2 -0.007627 0.016331 -0.006361 0.000000 0.000000 0.000000
# 3 -0.008377 -0.006361 0.012165 0.000000 0.000000 0.000000
# 4 0.000000 0.000000 0.000000 0.047338 0.000000 0.000000
# 5 0.000000 0.000000 0.000000 0.000000 0.027684 0.000000
# 6 0.000000 0.000000 0.000000 0.000000 0.000000 0.041565
#
#
# Mechanical properties :
#
#
# Convention : Reuss Voigt Hill
#
# Bulk Modulus (GPa) = 48.67192 82.36556 65.51874
# Shear Modulus (GPa) = 21.41826 25.75087 23.58456
#
# Velocity S-wave (km/s) = 3.42482 3.75527 3.59385
# Velocity P-wave (km/s) = 6.50335 7.99431 7.28706
#
# Compressibility (1/GPa) = 0.02054573
#
# Stress axis : x y z
#
# Youngs Moduli (GPa) = 27.18706 61.23495 82.20263
#
# Poissons Ratio (x) = 0.46705 0.68864
# Poissons Ratio (y) = 0.20736 0.52293
# Poissons Ratio (z) = 0.22776 0.38954
#
# Static dielectric constant tensor:
#      x y z
#    x 3.135870 0.000000 0.000000 
#    y 0.000000 3.777660 0.000000 
#    z 0.000000 0.000000 3.316630 
# 
# 
# High freq. dielectric constant tensor:
#      x y z
#    x 1.687130 0.000000 0.000000 
#    y 0.000000 1.723960 0.000000 
#    z 0.000000 0.000000 1.707340 
# 
# From -- ./inp_files/25445.got.cif
#   From: 2010.03.12/outbox.cif.g09.slc.cpg/sg59_13_cif.got.tgz:25445.got - 2010.04.16 16:29:54.
