data_PCOD8242277
_publ_section_title
;
Structure prediction by ZEFSAII (Michael W. Deem and Ramdas Pophale) SiO2 
 PCOD8242277
Probable space group: P M M N
;
_chemical_formula_sum "Si O2"
_cell_formula_units_Z 64
_cell_length_a 9.307217
_cell_length_b 18.529024
_cell_length_c 26.071193
_cell_angle_alpha 90.000000
_cell_angle_beta 90.000000
_cell_angle_gamma 90.000000
_cell_volume 4496.072319
_symmetry_space_group_name_H-M "P M M N"
_symmetry_group_IT_number 59
_space_group.IT_coordinate_system_code '2'
_symmetry_cell_setting 'orthorhombic'
loop_
_space_group_symop_operation_xyz
x,y,z
1/2-x,1/2-y,z
1/2+x,-y,-z
-x,1/2+y,-z
-x,-y,-z
1/2+x,1/2+y,-z
1/2-x,y,z
x,1/2-y,z
loop_
_atom_site_type_symbol
_atom_site_label
_atom_site_fract_x
_atom_site_fract_y
_atom_site_fract_z
Si Si1 0.582420 0.830362 0.010425
Si Si2 0.417201 0.666853 0.507498
Si Si3 0.418086 0.903291 0.103677
Si Si4 0.587240 0.096096 0.601227
Si Si5 0.085920 0.464803 0.044888
Si Si6 0.081727 0.166648 0.690937
Si Si7 0.583805 0.333724 0.792107
Si Si8 0.084441 0.458131 0.456617
O O1 0.750000 0.832080 0.024825
O O2 0.530473 0.750000 0.996766
O O3 0.497863 0.858423 0.059858
O O4 0.552218 0.878838 0.958653
O O5 0.250000 0.655496 0.519741
O O6 0.462977 0.750000 0.512713
O O7 0.453486 0.639443 0.450370
O O8 0.509002 0.620352 0.549123
O O9 0.250000 0.884761 0.099041
O O10 0.473323 0.879758 0.159532
O O11 0.448783 0.990348 0.097112
O O12 0.750000 0.116265 0.617363
O O13 0.477711 0.118492 0.645042
O O14 0.573889 0.009117 0.593679
O O15 0.250000 0.478273 0.031004
O O16 0.000000 0.500000 0.000000
O O17 0.250000 0.153337 0.696010
O O18 0.044776 0.250000 0.679652
O O19 0.008104 0.141167 0.743468
O O20 0.750000 0.349687 0.780060
O O21 0.558225 0.250000 0.804850
O O22 0.250000 0.447436 0.472667
O O23 0.000000 0.500000 0.500000
#
# Coordination Sequence:
#
# PCOD8242277 Si02
#       8
#     8   8   8   8   8   8   8   8
#     4   9  16  24  35  53  77 103 126 149 183 224
#     4   9  17  28  42  61  84 109 136 164 194 230
#     4   9  16  26  40  55  71  96 130 161 187 218
#     4   9  17  29  43  57  77 107 137 162 192 229
#     4   8  14  24  36  51  72  96 123 154 184 216
#     4  10  20  30  40  57  78  99 127 163 198 230
#     4   9  17  28  40  53  71  96 124 155 192 229
#     4   9  17  28  41  58  80 106 135 165 197 232
#
# _framework density 14.234647000000001
#
# number of rings (size 3 to 8) (size 9 to 14) (size 15 to 20)
#    0.000    3.000    0.000    2.250    0.000    5.250 
#    0.000    1.250    0.000    0.000    0.000    0.000 
#    0.000    1.000    0.000    7.500    0.000    1.875 
#
# Total GULP energy -792903.424145 kJ/mol
# GULP energy per Si atom -12389.116002 kJ/mol
# Density = 1.420225 g / cm^3
# Si number density = 14.234647 Si / 1000 Ang^3
#
#
#
# Elastic Constant Matrix: (Units=GPa)
#
#
# Indices 1 2 3 4 5 6 
#
# 1 56.3205 41.9582 35.7090 0.0000 0.0000 0.0000
# 2 41.9582 111.2997 49.2279 0.0000 0.0000 0.0000
# 3 35.7090 49.2279 67.9429 0.0000 0.0000 0.0000
# 4 0.0000 0.0000 0.0000 22.5719 0.0000 0.0000
# 5 0.0000 0.0000 0.0000 0.0000 18.9304 0.0000
# 6 0.0000 0.0000 0.0000 0.0000 0.0000 21.3402
#
#
#
# Elastic Compliance Matrix: (Units=1/GPa)
#
#
# Indices 1 2 3 4 5 6 
#
# 1 0.029298 -0.006231 -0.010884 0.000000 0.000000 0.000000
# 2 -0.006231 0.014547 -0.007265 0.000000 0.000000 0.000000
# 3 -0.010884 -0.007265 0.025702 0.000000 0.000000 0.000000
# 4 0.000000 0.000000 0.000000 0.044303 0.000000 0.000000
# 5 0.000000 0.000000 0.000000 0.000000 0.052825 0.000000
# 6 0.000000 0.000000 0.000000 0.000000 0.000000 0.046860
#
#
# Mechanical properties :
#
#
# Convention : Reuss Voigt Hill
#
# Bulk Modulus (GPa) = 48.10502 54.37260 51.23881
# Shear Modulus (GPa) = 18.57183 19.81304 19.19243
#
# Velocity S-wave (km/s) = 3.61597 3.73485 3.67589
# Velocity P-wave (km/s) = 7.16250 7.54182 7.35460
#
# Compressibility (1/GPa) = 0.02078785
#
# Stress axis : x y z
#
# Youngs Moduli (GPa) = 34.13172 68.74175 38.90688
#
# Poissons Ratio (x) = 0.42834 0.42345
# Poissons Ratio (y) = 0.21268 0.28267
# Poissons Ratio (z) = 0.37148 0.49942
#
# Static dielectric constant tensor:
#      x y z
#    x 2.834390 0.000000 0.000000 
#    y 0.000000 3.279970 0.000000 
#    z 0.000000 0.000000 2.608910 
# 
# 
# High freq. dielectric constant tensor:
#      x y z
#    x 1.552170 0.000000 0.000000 
#    y 0.000000 1.540110 0.000000 
#    z 0.000000 0.000000 1.504170 
# 
# From -- ./inp_files/31757.got.cif
#   From: 2010.03.12/outbox.cif.g09.slc.cpg/sg59_16_cif.got.tgz:31757.got - 2010.04.16 16:29:54.
