data_PCOD8242364
_publ_section_title
;
Structure prediction by ZEFSAII (Michael W. Deem and Ramdas Pophale) SiO2 
 PCOD8242364
Probable space group: P M M N
;
_chemical_formula_sum "Si O2"
_cell_formula_units_Z 56
_cell_length_a 9.302048
_cell_length_b 29.794643
_cell_length_c 12.479801
_cell_angle_alpha 90.000000
_cell_angle_beta 90.000000
_cell_angle_gamma 90.000000
_cell_volume 3458.791815
_symmetry_space_group_name_H-M "P M M N"
_symmetry_group_IT_number 59
_space_group.IT_coordinate_system_code '2'
_symmetry_cell_setting 'orthorhombic'
loop_
_space_group_symop_operation_xyz
x,y,z
1/2-x,1/2-y,z
1/2+x,-y,-z
-x,1/2+y,-z
-x,-y,-z
1/2+x,1/2+y,-z
1/2-x,y,z
x,1/2-y,z
loop_
_atom_site_type_symbol
_atom_site_label
_atom_site_fract_x
_atom_site_fract_y
_atom_site_fract_z
Si Si1 0.082348 0.640420 0.124951
Si Si2 0.583942 0.696986 0.292601
Si Si3 0.591622 0.459457 0.127167
Si Si4 0.086918 0.803363 0.499999
Si Si5 0.916059 0.803014 0.707397
Si Si6 0.091622 0.540543 0.127166
Si Si7 0.417652 0.640419 0.875047
O O1 0.250000 0.647233 0.153862
O O2 0.031492 0.589914 0.156302
O O3 0.983525 0.675198 0.187326
O O4 0.057201 0.649423 0.999999
O O5 0.750000 0.683042 0.304781
O O6 0.567602 0.750000 0.280433
O O7 0.497198 0.678925 0.395714
O O8 0.750000 0.464619 0.175860
O O9 0.500000 0.500000 0.178238
O O10 0.531492 0.410086 0.156303
O O11 0.597666 0.464083 0.000000
O O12 0.250000 0.822174 0.499999
O O13 0.087821 0.750000 0.499999
O O14 0.002802 0.821075 0.604284
O O15 0.750000 0.816957 0.695217
O O16 0.932400 0.750000 0.719564
O O17 0.983525 0.824802 0.812672
O O18 0.250000 0.535381 0.175859
O O19 0.250000 0.647232 0.846135
#
# Coordination Sequence:
#
# PCOD8242364 Si02
#       7
#     8   8   8   8   8   8   8
#     4   9  18  31  45  64  92 124 156 186 218 264
#     4  10  20  32  46  66  92 119 149 188 229 265
#     4   8  14  25  41  61  85 113 146 184 222 259
#     4   9  17  31  51  69  84 109 148 189 227 267
#     4  10  20  32  46  66  92 119 149 188 229 265
#     4   8  14  25  41  61  85 113 146 184 222 259
#     4   9  18  31  45  64  92 124 156 186 218 264
#
# _framework density 16.190624
#
# number of rings (size 3 to 8) (size 9 to 14) (size 15 to 20)
#    0.000    3.000    0.000    3.000    0.000    5.714 
#    0.000    5.714    0.000    0.000    0.000    1.000 
#    0.000    0.000    0.000    0.000    0.000    0.000 
#
# Total GULP energy -694136.125284 kJ/mol
# GULP energy per Si atom -12395.287952 kJ/mol
# Density = 1.615377 g / cm^3
# Si number density = 16.190624 Si / 1000 Ang^3
#
#
#
# Elastic Constant Matrix: (Units=GPa)
#
#
# Indices 1 2 3 4 5 6 
#
# 1 118.7516 49.7169 57.0472 0.0000 0.0000 0.0000
# 2 49.7169 52.7331 37.1119 0.0000 0.0000 0.0000
# 3 57.0472 37.1119 68.5231 0.0000 0.0000 0.0000
# 4 0.0000 0.0000 0.0000 1.2045 0.0000 0.0000
# 5 0.0000 0.0000 0.0000 0.0000 26.5647 0.0000
# 6 0.0000 0.0000 0.0000 0.0000 0.0000 30.4499
#
#
#
# Elastic Compliance Matrix: (Units=1/GPa)
#
#
# Indices 1 2 3 4 5 6 
#
# 1 0.016555 -0.009548 -0.008612 0.000000 0.000000 0.000000
# 2 -0.009548 0.036150 -0.011630 0.000000 0.000000 0.000000
# 3 -0.008612 -0.011630 0.028062 0.000000 0.000000 0.000000
# 4 0.000000 0.000000 0.000000 0.830201 0.000000 0.000000
# 5 0.000000 0.000000 0.000000 0.000000 0.037644 0.000000
# 6 0.000000 0.000000 0.000000 0.000000 0.000000 0.032841
#
#
# Mechanical properties :
#
#
# Convention : Reuss Voigt Hill
#
# Bulk Modulus (GPa) = 47.19597 58.63998 52.91798
# Shear Modulus (GPa) = 4.77057 18.05262 11.41160
#
# Velocity S-wave (km/s) = 1.71840 3.34279 2.65774
# Velocity P-wave (km/s) = 5.75766 7.15515 6.49410
#
# Compressibility (1/GPa) = 0.02118825
#
# Stress axis : x y z
#
# Youngs Moduli (GPa) = 60.40444 27.66270 35.63577
#
# Poissons Ratio (x) = 0.26411 0.30688
# Poissons Ratio (y) = 0.57672 0.41444
# Poissons Ratio (z) = 0.52018 0.32172
#
# Static dielectric constant tensor:
#      x y z
#    x 3.296080 0.000000 0.000000 
#    y 0.000000 3.024550 0.000000 
#    z 0.000000 0.000000 2.791060 
# 
# 
# High freq. dielectric constant tensor:
#      x y z
#    x 1.630770 0.000000 0.000000 
#    y 0.000000 1.608160 0.000000 
#    z 0.000000 0.000000 1.588890 
# 
# From -- ./inp_files/21721.got.cif
#   From: 2010.03.12/outbox.cif.g09.slc.cpg/sg59_11_cif.got.tgz:21721.got - 2010.04.16 16:29:54.
