data_PCOD8242826
_publ_section_title
;
Structure prediction by ZEFSAII (Michael W. Deem and Ramdas Pophale) SiO2 
 PCOD8242826
Probable space group: P M M N
;
_chemical_formula_sum "Si O2"
_cell_formula_units_Z 40
_cell_length_a 9.674069
_cell_length_b 9.389982
_cell_length_c 25.376993
_cell_angle_alpha 90.000000
_cell_angle_beta 90.000000
_cell_angle_gamma 90.000000
_cell_volume 2305.229137
_symmetry_space_group_name_H-M "P M M N"
_symmetry_group_IT_number 59
_space_group.IT_coordinate_system_code '2'
_symmetry_cell_setting 'orthorhombic'
loop_
_space_group_symop_operation_xyz
x,y,z
1/2-x,1/2-y,z
1/2+x,-y,-z
-x,1/2+y,-z
-x,-y,-z
1/2+x,1/2+y,-z
1/2-x,y,z
x,1/2-y,z
loop_
_atom_site_type_symbol
_atom_site_label
_atom_site_fract_x
_atom_site_fract_y
_atom_site_fract_z
Si Si1 0.587367 0.083695 0.542919
Si Si2 0.592796 0.584437 0.040203
Si Si3 0.593707 0.917814 0.759205
Si Si4 0.589769 0.913910 0.159751
Si Si5 0.086370 0.092504 0.357368
O O1 0.750000 0.057074 0.533124
O O2 0.550670 0.250000 0.540766
O O3 0.500000 0.000000 0.500000
O O4 0.539576 0.023177 0.599624
O O5 0.750000 0.534516 0.032525
O O6 0.577957 0.750000 0.027632
O O7 0.544972 0.552530 0.099862
O O8 0.500000 0.500000 0.000000
O O9 0.750000 0.974864 0.766102
O O10 0.589334 0.750000 0.767851
O O11 0.535631 0.955512 0.700683
O O12 0.498052 0.989423 0.801994
O O13 0.750000 0.950340 0.167750
O O14 0.560777 0.750000 0.173236
O O15 0.250000 0.104033 0.354996
O O16 0.026865 0.250000 0.371919
#
# Coordination Sequence:
#
# PCOD8242826 Si02
#       5
#     8   8   8   8   8
#     4  10  20  33  51  75 100 128 164 203 243 289
#     4   9  19  35  52  71  97 128 162 201 243 287
#     4   9  18  32  51  76 101 125 159 201 242 287
#     4   9  19  35  51  69  98 133 164 196 239 289
#     4   8  15  30  50  70  96 129 161 197 242 287
#
# _framework density 17.351853999999999
#
# number of rings (size 3 to 8) (size 9 to 14) (size 15 to 20)
#    0.000    3.000    0.000    3.000    0.000    4.800 
#    0.000    9.000    0.000    1.200    0.000    0.000 
#    0.000    0.000    0.000    0.000    0.000    0.000 
#
# Total GULP energy -495862.642486 kJ/mol
# GULP energy per Si atom -12396.566062 kJ/mol
# Density = 1.731236 g / cm^3
# Si number density = 17.351854 Si / 1000 Ang^3
#
#
#
# Elastic Constant Matrix: (Units=GPa)
#
#
# Indices 1 2 3 4 5 6 
#
# 1 52.1598 41.6512 57.6482 0.0000 0.0000 0.0000
# 2 41.6512 83.1711 71.8429 0.0000 0.0000 0.0000
# 3 57.6482 71.8429 135.7482 0.0000 0.0000 0.0000
# 4 0.0000 0.0000 0.0000 39.7352 0.0000 0.0000
# 5 0.0000 0.0000 0.0000 0.0000 30.4224 0.0000
# 6 0.0000 0.0000 0.0000 0.0000 0.0000 31.8067
#
#
#
# Elastic Compliance Matrix: (Units=1/GPa)
#
#
# Indices 1 2 3 4 5 6 
#
# 1 0.040114 -0.009899 -0.011796 0.000000 0.000000 0.000000
# 2 -0.009899 0.024592 -0.008811 0.000000 0.000000 0.000000
# 3 -0.011796 -0.008811 0.017039 0.000000 0.000000 0.000000
# 4 0.000000 0.000000 0.000000 0.025167 0.000000 0.000000
# 5 0.000000 0.000000 0.000000 0.000000 0.032871 0.000000
# 6 0.000000 0.000000 0.000000 0.000000 0.000000 0.031440
#
#
# Mechanical properties :
#
#
# Convention : Reuss Voigt Hill
#
# Bulk Modulus (GPa) = 48.23410 68.15154 58.19282
# Shear Modulus (GPa) = 20.90779 27.05531 23.98155
#
# Velocity S-wave (km/s) = 3.47498 3.95298 3.72166
# Velocity P-wave (km/s) = 6.63013 7.75862 7.21647
#
# Compressibility (1/GPa) = 0.02073222
#
# Stress axis : x y z
#
# Youngs Moduli (GPa) = 24.92892 40.66418 58.68840
#
# Poissons Ratio (x) = 0.40254 0.69230
# Poissons Ratio (y) = 0.24678 0.51710
# Poissons Ratio (z) = 0.29407 0.35829
#
# Static dielectric constant tensor:
#      x y z
#    x 3.066750 0.000000 0.000000 
#    y 0.000000 3.074700 0.000000 
#    z 0.000000 0.000000 3.389920 
# 
# 
# High freq. dielectric constant tensor:
#      x y z
#    x 1.646830 0.000000 0.000000 
#    y 0.000000 1.669920 0.000000 
#    z 0.000000 0.000000 1.682030 
# 
# From -- ./inp_files/28727.got.cif
#   From: 2010.03.12/outbox.cif.g09.slc.cpg/sg59_15_cif.got.tgz:28727.got - 2010.04.16 16:29:54.
