data_PCOD8242246
_publ_section_title
;
Structure prediction by ZEFSAII (Michael W. Deem and Ramdas Pophale) SiO2 
 PCOD8242246
Probable space group: P M M N
;
_chemical_formula_sum "Si O2"
_cell_formula_units_Z 64
_cell_length_a 8.966920
_cell_length_b 30.721922
_cell_length_c 12.065543
_cell_angle_alpha 90.000000
_cell_angle_beta 90.000000
_cell_angle_gamma 90.000000
_cell_volume 3323.828054
_symmetry_space_group_name_H-M "P M M N"
_symmetry_group_IT_number 59
_space_group.IT_coordinate_system_code '2'
_symmetry_cell_setting 'orthorhombic'
loop_
_space_group_symop_operation_xyz
x,y,z
1/2-x,1/2-y,z
1/2+x,-y,-z
-x,1/2+y,-z
-x,-y,-z
1/2+x,1/2+y,-z
1/2-x,y,z
x,1/2-y,z
loop_
_atom_site_type_symbol
_atom_site_label
_atom_site_fract_x
_atom_site_fract_y
_atom_site_fract_z
Si Si1 0.427102 0.623526 0.141831
Si Si2 0.424968 0.954171 0.982681
Si Si3 0.926858 0.625152 0.380081
Si Si4 0.926101 0.201194 0.012464
Si Si5 0.574812 0.544828 0.531708
Si Si6 0.080790 0.576543 0.743235
Si Si7 0.576506 0.298860 0.487247
Si Si8 0.418902 0.821306 0.749590
O O1 0.250000 0.626005 0.159184
O O2 0.507031 0.620713 0.258565
O O3 0.475605 0.580568 0.074737
O O4 0.487357 0.666163 0.075793
O O5 0.250000 0.960681 0.987979
O O6 0.475682 0.936565 0.864047
O O7 0.500000 0.000000 0.000000
O O8 0.750000 0.627190 0.373521
O O9 0.981012 0.583631 0.451539
O O10 0.984888 0.669473 0.434079
O O11 0.750000 0.193565 0.021843
O O12 0.965548 0.250000 0.971641
O O13 0.997766 0.193434 0.135274
O O14 0.500000 0.500000 0.500000
O O15 0.750000 0.539087 0.523239
O O16 0.530652 0.554917 0.657112
O O17 0.250000 0.560529 0.720959
O O18 0.070328 0.627713 0.733612
O O19 0.750000 0.313348 0.487646
O O20 0.557985 0.250000 0.533680
O O21 0.510458 0.300357 0.361444
O O22 0.250000 0.804592 0.756814
#
# Coordination Sequence:
#
# PCOD8242246 Si02
#       8
#     8   8   8   8   8   8   8   8
#     4  10  21  38  58  83 115 151 192 239 284 334
#     4  10  22  38  58  86 117 151 190 235 288 343
#     4  11  25  42  58  81 115 156 195 238 291 347
#     4   9  16  29  54  87 117 144 180 229 281 331
#     4  11  25  42  61  86 115 150 196 243 295 350
#     4  10  19  36  62  88 118 151 185 234 293 345
#     4  10  20  35  60  91 117 148 192 236 282 341
#     4   9  15  29  55  87 119 145 176 227 286 334
#
# _framework density 19.254905000000001
#
# number of rings (size 3 to 8) (size 9 to 14) (size 15 to 20)
#    0.000    2.000    2.500    1.125    1.750    4.750 
#    0.000    1.250    0.000    0.750    0.000    0.000 
#    0.000    0.000    0.000    0.000    0.000    0.000 
#
# Total GULP energy -793526.795480 kJ/mol
# GULP energy per Si atom -12398.856179 kJ/mol
# Density = 1.921108 g / cm^3
# Si number density = 19.254905 Si / 1000 Ang^3
#
#
#
# Elastic Constant Matrix: (Units=GPa)
#
#
# Indices 1 2 3 4 5 6 
#
# 1 40.2605 39.4662 43.1703 0.0000 0.0000 0.0000
# 2 39.4662 131.2893 63.3373 0.0000 0.0000 0.0000
# 3 43.1703 63.3373 137.5261 0.0000 0.0000 0.0000
# 4 0.0000 0.0000 0.0000 53.7635 0.0000 0.0000
# 5 0.0000 0.0000 0.0000 0.0000 22.6729 0.0000
# 6 0.0000 0.0000 0.0000 0.0000 0.0000 26.3583
#
#
#
# Elastic Compliance Matrix: (Units=1/GPa)
#
#
# Indices 1 2 3 4 5 6 
#
# 1 0.043567 -0.008355 -0.009828 0.000000 0.000000 0.000000
# 2 -0.008355 0.011395 -0.002625 0.000000 0.000000 0.000000
# 3 -0.009828 -0.002625 0.011565 0.000000 0.000000 0.000000
# 4 0.000000 0.000000 0.000000 0.018600 0.000000 0.000000
# 5 0.000000 0.000000 0.000000 0.000000 0.044105 0.000000
# 6 0.000000 0.000000 0.000000 0.000000 0.000000 0.037939
#
#
# Mechanical properties :
#
#
# Convention : Reuss Voigt Hill
#
# Bulk Modulus (GPa) = 40.14361 66.78039 53.46200
# Shear Modulus (GPa) = 23.03182 31.43242 27.23212
#
# Velocity S-wave (km/s) = 3.46230 4.04473 3.76479
# Velocity P-wave (km/s) = 6.07265 7.52135 6.83549
#
# Compressibility (1/GPa) = 0.02491056
#
# Stress axis : x y z
#
# Youngs Moduli (GPa) = 22.95327 87.75944 86.46486
#
# Poissons Ratio (x) = 0.73324 0.84977
# Poissons Ratio (y) = 0.19178 0.22698
# Poissons Ratio (z) = 0.22558 0.23038
#
# Static dielectric constant tensor:
#      x y z
#    x 3.231350 0.000000 0.000000 
#    y 0.000000 3.817860 0.000000 
#    z 0.000000 0.000000 3.179830 
# 
# 
# High freq. dielectric constant tensor:
#      x y z
#    x 1.707530 0.000000 0.000000 
#    y 0.000000 1.764730 0.000000 
#    z 0.000000 0.000000 1.762180 
# 
# From -- ./inp_files/14894.got.cif
#   From: 2010.03.12/outbox.cif.g09.slc.cpg/sg59_8_cif.got.tgz:14894.got - 2010.04.16 16:29:54.
