data_PCOD8242411
_publ_section_title
;
Structure prediction by ZEFSAII (Michael W. Deem and Ramdas Pophale) SiO2 
 PCOD8242411
Probable space group: P M M N
;
_chemical_formula_sum "Si O2"
_cell_formula_units_Z 40
_cell_length_a 9.221351
_cell_length_b 8.902012
_cell_length_c 26.308698
_cell_angle_alpha 90.000000
_cell_angle_beta 90.000000
_cell_angle_gamma 90.000000
_cell_volume 2159.643588
_symmetry_space_group_name_H-M "P M M N"
_symmetry_group_IT_number 59
_space_group.IT_coordinate_system_code '2'
_symmetry_cell_setting 'orthorhombic'
loop_
_space_group_symop_operation_xyz
x,y,z
1/2-x,1/2-y,z
1/2+x,-y,-z
-x,1/2+y,-z
-x,-y,-z
1/2+x,1/2+y,-z
1/2-x,y,z
x,1/2-y,z
loop_
_atom_site_type_symbol
_atom_site_label
_atom_site_fract_x
_atom_site_fract_y
_atom_site_fract_z
Si Si1 0.587081 0.070339 0.643297
Si Si2 0.578457 0.086036 0.751919
Si Si3 0.918963 0.425783 0.046716
Si Si4 0.416056 0.929285 0.137886
Si Si5 0.084373 0.072154 0.546164
O O1 0.750000 0.014417 0.630826
O O2 0.584564 0.250000 0.646707
O O3 0.532958 0.004655 0.698629
O O4 0.481986 0.011206 0.599075
O O5 0.750000 0.106645 0.749883
O O6 0.504298 0.250000 0.753055
O O7 0.539734 0.006472 0.805694
O O8 0.750000 0.462361 0.041842
O O9 0.950285 0.250000 0.045783
O O10 0.976207 0.493335 0.099054
O O11 0.000000 0.500000 0.000000
O O12 0.250000 0.972622 0.124710
O O13 0.433850 0.750000 0.135913
O O14 0.250000 0.019744 0.543766
O O15 0.068156 0.250000 0.542573
O O16 0.000000 0.000000 0.500000
#
# Coordination Sequence:
#
# PCOD8242411 Si02
#       5
#     8   8   8   8   8
#     4   8  13  24  44  68  94 125 159 196 239 284
#     4   7  11  22  43  71  99 125 155 192 233 279
#     4  11  24  39  54  74 100 130 165 204 244 287
#     4   9  17  31  53  80 106 130 159 196 237 284
#     4  10  20  32  47  69  96 126 162 204 248 294
#
# _framework density 18.521574999999999
#
# number of rings (size 3 to 8) (size 9 to 14) (size 15 to 20)
#    0.000    3.000    0.000    4.200    0.000    5.600 
#    0.000    1.000    0.000    4.800    0.000    2.800 
#    0.000    0.000    0.000    0.000    0.000    0.000 
#
# Total GULP energy -495534.230803 kJ/mol
# GULP energy per Si atom -12388.355770 kJ/mol
# Density = 1.847942 g / cm^3
# Si number density = 18.521575 Si / 1000 Ang^3
#
#
#
# Elastic Constant Matrix: (Units=GPa)
#
#
# Indices 1 2 3 4 5 6 
#
# 1 101.5922 37.3995 86.1651 0.0000 0.0000 0.0000
# 2 37.3995 33.5706 41.9315 0.0000 0.0000 0.0000
# 3 86.1651 41.9315 212.3391 0.0000 0.0000 0.0000
# 4 0.0000 0.0000 0.0000 20.8064 0.0000 0.0000
# 5 0.0000 0.0000 0.0000 0.0000 35.1381 0.0000
# 6 0.0000 0.0000 0.0000 0.0000 0.0000 21.6633
#
#
#
# Elastic Compliance Matrix: (Units=1/GPa)
#
#
# Indices 1 2 3 4 5 6 
#
# 1 0.019921 -0.016057 -0.004913 0.000000 0.000000 0.000000
# 2 -0.016057 0.052483 -0.003848 0.000000 0.000000 0.000000
# 3 -0.004913 -0.003848 0.007463 0.000000 0.000000 0.000000
# 4 0.000000 0.000000 0.000000 0.048062 0.000000 0.000000
# 5 0.000000 0.000000 0.000000 0.000000 0.028459 0.000000
# 6 0.000000 0.000000 0.000000 0.000000 0.000000 0.046161
#
#
# Mechanical properties :
#
#
# Convention : Reuss Voigt Hill
#
# Bulk Modulus (GPa) = 33.07870 75.38822 54.23346
# Shear Modulus (GPa) = 19.06484 27.65527 23.36006
#
# Velocity S-wave (km/s) = 3.21180 3.86831 3.55524
# Velocity P-wave (km/s) = 5.62606 7.79378 6.79689
#
# Compressibility (1/GPa) = 0.03023093
#
# Stress axis : x y z
#
# Youngs Moduli (GPa) = 50.19758 19.05386 133.99305
#
# Poissons Ratio (x) = 0.30594 0.65832
# Poissons Ratio (y) = 0.80601 0.51565
# Poissons Ratio (z) = 0.24662 0.07333
#
# Static dielectric constant tensor:
#      x y z
#    x 3.256400 0.000000 0.000000 
#    y 0.000000 2.951570 0.000000 
#    z 0.000000 0.000000 4.036290 
# 
# 
# High freq. dielectric constant tensor:
#      x y z
#    x 1.696940 0.000000 0.000000 
#    y 0.000000 1.664760 0.000000 
#    z 0.000000 0.000000 1.751250 
# 
# From -- ./inp_files/32374.got.cif
#   From: 2010.03.12/outbox.cif.g09.slc.cpg/sg59_17_cif.got.tgz:32374.got - 2010.04.16 16:29:54.
