data_PCOD8242824
_publ_section_title
;
Structure prediction by ZEFSAII (Michael W. Deem and Ramdas Pophale) SiO2 
 PCOD8242824
Probable space group: P M M N
;
_chemical_formula_sum "Si O2"
_cell_formula_units_Z 56
_cell_length_a 19.365987
_cell_length_b 9.165849
_cell_length_c 17.537345
_cell_angle_alpha 90.000000
_cell_angle_beta 90.000000
_cell_angle_gamma 90.000000
_cell_volume 3112.978921
_symmetry_space_group_name_H-M "P M M N"
_symmetry_group_IT_number 59
_space_group.IT_coordinate_system_code '2'
_symmetry_cell_setting 'orthorhombic'
loop_
_space_group_symop_operation_xyz
x,y,z
1/2-x,1/2-y,z
1/2+x,-y,-z
-x,1/2+y,-z
-x,-y,-z
1/2+x,1/2+y,-z
1/2-x,y,z
x,1/2-y,z
loop_
_atom_site_type_symbol
_atom_site_label
_atom_site_fract_x
_atom_site_fract_y
_atom_site_fract_z
Si Si1 0.069260 0.579511 0.629085
Si Si2 0.436123 0.919412 0.802540
Si Si3 0.668614 0.582518 0.918358
Si Si4 0.329114 0.918927 0.931025
Si Si5 0.575051 0.420958 0.802031
Si Si6 0.930120 0.420187 0.626869
Si Si7 0.673028 0.076936 0.498233
O O1 0.056946 0.750000 0.616790
O O2 0.087114 0.541932 0.716647
O O3 0.132607 0.523278 0.577285
O O4 0.999677 0.501164 0.602081
O O5 0.456366 0.750000 0.809798
O O6 0.372898 0.961654 0.856916
O O7 0.501644 0.014264 0.827641
O O8 0.750000 0.565197 0.909411
O O9 0.644912 0.750000 0.916682
O O10 0.635559 0.496808 0.848535
O O11 0.643700 0.513235 0.998012
O O12 0.250000 0.956117 0.911511
O O13 0.338302 0.750000 0.952780
O O14 0.575067 0.250000 0.819127
O O15 0.589778 0.456333 0.713704
O O16 0.944040 0.250000 0.615001
O O17 0.867669 0.475784 0.573656
O O18 0.750000 0.008091 0.498468
O O19 0.678753 0.250000 0.498068
#
# Coordination Sequence:
#
# PCOD8242824 Si02
#       7
#     8   8   8   8   8   8   8
#     4   9  17  30  50  73  97 128 162 197 239 286
#     4   9  18  32  50  74 102 129 160 201 246 289
#     4  10  21  36  53  73  98 128 161 199 246 296
#     4   9  18  33  52  73  98 129 164 200 240 290
#     4  10  20  33  51  74  98 128 167 206 243 287
#     4   9  18  32  50  71  96 129 165 200 239 284
#     4   9  17  29  47  73 101 127 160 201 241 282
#
# _framework density 17.9892
#
# number of rings (size 3 to 8) (size 9 to 14) (size 15 to 20)
#    0.000    2.714    0.000    1.286    0.000    3.714 
#    0.000    4.286    0.000    1.714    0.000    4.000 
#    0.000    0.000    0.000    0.000    0.000    0.000 
#
# Total GULP energy -694477.221036 kJ/mol
# GULP energy per Si atom -12401.378947 kJ/mol
# Density = 1.794826 g / cm^3
# Si number density = 17.989200 Si / 1000 Ang^3
#
#
#
# Elastic Constant Matrix: (Units=GPa)
#
#
# Indices 1 2 3 4 5 6 
#
# 1 118.9556 43.9859 78.6229 0.0000 0.0000 0.0000
# 2 43.9859 60.0255 44.2765 0.0000 0.0000 0.0000
# 3 78.6229 44.2765 115.7452 0.0000 0.0000 0.0000
# 4 0.0000 0.0000 0.0000 20.3684 0.0000 0.0000
# 5 0.0000 0.0000 0.0000 0.0000 38.0391 0.0000
# 6 0.0000 0.0000 0.0000 0.0000 0.0000 25.9816
#
#
#
# Elastic Compliance Matrix: (Units=1/GPa)
#
#
# Indices 1 2 3 4 5 6 
#
# 1 0.016378 -0.005287 -0.009102 0.000000 0.000000 0.000000
# 2 -0.005287 0.024915 -0.005939 0.000000 0.000000 0.000000
# 3 -0.009102 -0.005939 0.017095 0.000000 0.000000 0.000000
# 4 0.000000 0.000000 0.000000 0.049096 0.000000 0.000000
# 5 0.000000 0.000000 0.000000 0.000000 0.026289 0.000000
# 6 0.000000 0.000000 0.000000 0.000000 0.000000 0.038489
#
#
# Mechanical properties :
#
#
# Convention : Reuss Voigt Hill
#
# Bulk Modulus (GPa) = 56.40329 69.83298 63.11813
# Shear Modulus (GPa) = 22.84894 25.40057 24.12476
#
# Velocity S-wave (km/s) = 3.56778 3.76172 3.66603
# Velocity P-wave (km/s) = 6.95659 7.60073 7.28578
#
# Compressibility (1/GPa) = 0.01772946
#
# Stress axis : x y z
#
# Youngs Moduli (GPa) = 61.05844 40.13640 58.49730
#
# Poissons Ratio (x) = 0.21221 0.53247
# Poissons Ratio (y) = 0.32283 0.34744
# Poissons Ratio (z) = 0.55578 0.23839
#
# Static dielectric constant tensor:
#      x y z
#    x 3.406940 0.000000 0.000000 
#    y 0.000000 3.231370 0.000000 
#    z 0.000000 0.000000 3.465340 
# 
# 
# High freq. dielectric constant tensor:
#      x y z
#    x 1.693080 0.000000 0.000000 
#    y 0.000000 1.681330 0.000000 
#    z 0.000000 0.000000 1.705490 
# 
# From -- ./inp_files/24222.got.cif
#   From: 2010.03.12/outbox.cif.g09.slc.cpg/sg59_13_cif.got.tgz:24222.got - 2010.04.16 16:29:54.
