data_PCOD8242376
_publ_section_title
;
Structure prediction by ZEFSAII (Michael W. Deem and Ramdas Pophale) SiO2 
 PCOD8242376
Probable space group: P M M N
;
_chemical_formula_sum "Si O2"
_cell_formula_units_Z 64
_cell_length_a 17.573687
_cell_length_b 9.437679
_cell_length_c 21.251673
_cell_angle_alpha 90.000000
_cell_angle_beta 90.000000
_cell_angle_gamma 90.000000
_cell_volume 3524.692331
_symmetry_space_group_name_H-M "P M M N"
_symmetry_group_IT_number 59
_space_group.IT_coordinate_system_code '2'
_symmetry_cell_setting 'orthorhombic'
loop_
_space_group_symop_operation_xyz
x,y,z
1/2-x,1/2-y,z
1/2+x,-y,-z
-x,1/2+y,-z
-x,-y,-z
1/2+x,1/2+y,-z
1/2-x,y,z
x,1/2-y,z
loop_
_atom_site_type_symbol
_atom_site_label
_atom_site_fract_x
_atom_site_fract_y
_atom_site_fract_z
Si Si1 0.023632 0.917764 0.438290
Si Si2 0.549907 0.585207 0.309787
Si Si3 0.836844 0.911912 0.611955
Si Si4 0.571508 0.914547 0.083019
Si Si5 0.413694 0.410841 0.261026
Si Si6 0.835043 0.593905 0.863116
Si Si7 0.096954 0.586627 0.038604
Si Si8 0.164237 0.417262 0.793488
O O1 0.029903 0.750000 0.450692
O O2 0.959389 0.950740 0.384310
O O3 0.106603 0.977377 0.420857
O O4 0.000000 0.000000 0.500000
O O5 0.536760 0.750000 0.299389
O O6 0.484272 0.509412 0.272614
O O7 0.628935 0.538896 0.275288
O O8 0.750000 0.952334 0.595009
O O9 0.854551 0.750000 0.589893
O O10 0.848109 0.925402 0.686624
O O11 0.591496 0.750000 0.071180
O O12 0.480848 0.938834 0.078002
O O13 0.608507 0.967269 0.149290
O O14 0.605600 0.009668 0.027938
O O15 0.442943 0.250000 0.257858
O O16 0.382136 0.464760 0.195270
O O17 0.750000 0.607844 0.838973
O O18 0.864925 0.750000 0.884678
O O19 0.837810 0.482008 0.919250
O O20 0.113083 0.750000 0.026428
O O21 0.250000 0.482583 0.799201
O O22 0.170874 0.250000 0.797004
#
# Coordination Sequence:
#
# PCOD8242376 Si02
#       8
#     8   8   8   8   8   8   8   8
#     4  10  20  34  53  77 107 141 175 210 250 300
#     4   9  18  33  53  77 102 128 162 205 249 293
#     4   9  17  31  52  77 104 133 168 210 254 301
#     4   9  18  33  52  72  94 123 161 204 251 304
#     4   9  17  30  50  74  99 130 165 200 243 297
#     4  10  20  32  46  67  97 130 162 197 240 294
#     4  10  20  33  49  69  95 127 164 208 253 299
#     4   9  17  31  53  77  98 124 163 210 256 302
#
# _framework density 18.157613000000001
#
# number of rings (size 3 to 8) (size 9 to 14) (size 15 to 20)
#    0.000    2.625    0.000    1.875    0.000    5.000 
#    0.000    2.500    0.000    5.625    0.000    0.000 
#    0.000    0.000    0.000    0.000    0.000    0.000 
#
# Total GULP energy -793018.313376 kJ/mol
# GULP energy per Si atom -12390.911147 kJ/mol
# Density = 1.811629 g / cm^3
# Si number density = 18.157613 Si / 1000 Ang^3
#
#
#
# Elastic Constant Matrix: (Units=GPa)
#
#
# Indices 1 2 3 4 5 6 
#
# 1 81.4905 31.0874 54.1531 0.0000 0.0000 0.0000
# 2 31.0874 64.0697 56.4396 0.0000 0.0000 0.0000
# 3 54.1531 56.4396 127.0030 0.0000 0.0000 0.0000
# 4 0.0000 0.0000 0.0000 25.1457 0.0000 0.0000
# 5 0.0000 0.0000 0.0000 0.0000 19.3294 0.0000
# 6 0.0000 0.0000 0.0000 0.0000 0.0000 22.1481
#
#
#
# Elastic Compliance Matrix: (Units=1/GPa)
#
#
# Indices 1 2 3 4 5 6 
#
# 1 0.017502 -0.003152 -0.006062 0.000000 0.000000 0.000000
# 2 -0.003152 0.026216 -0.010306 0.000000 0.000000 0.000000
# 3 -0.006062 -0.010306 0.015039 0.000000 0.000000 0.000000
# 4 0.000000 0.000000 0.000000 0.039768 0.000000 0.000000
# 5 0.000000 0.000000 0.000000 0.000000 0.051735 0.000000
# 6 0.000000 0.000000 0.000000 0.000000 0.000000 0.045151
#
#
# Mechanical properties :
#
#
# Convention : Reuss Voigt Hill
#
# Bulk Modulus (GPa) = 50.71961 61.76926 56.24443
# Shear Modulus (GPa) = 20.74479 22.05019 21.39749
#
# Velocity S-wave (km/s) = 3.38373 3.48857 3.43655
# Velocity P-wave (km/s) = 6.57722 7.09359 6.84028
#
# Compressibility (1/GPa) = 0.01971624
#
# Stress axis : x y z
#
# Youngs Moduli (GPa) = 57.13532 38.14393 66.49487
#
# Poissons Ratio (x) = 0.12024 0.40309
# Poissons Ratio (y) = 0.18010 0.68532
# Poissons Ratio (z) = 0.34636 0.39313
#
# Static dielectric constant tensor:
#      x y z
#    x 3.464180 0.000000 0.000000 
#    y 0.000000 3.278030 0.000000 
#    z 0.000000 0.000000 3.445090 
# 
# 
# High freq. dielectric constant tensor:
#      x y z
#    x 1.691200 0.000000 0.000000 
#    y 0.000000 1.692970 0.000000 
#    z 0.000000 0.000000 1.702590 
# 
# From -- ./inp_files/30650.got.cif
#   From: 2010.03.12/outbox.cif.g09.slc.cpg/sg59_16_cif.got.tgz:30650.got - 2010.04.16 16:29:54.
