data_PCOD8242046
_publ_section_title
;
Structure prediction by ZEFSAII (Michael W. Deem and Ramdas Pophale) SiO2 
 PCOD8242046
Probable space group: P M M N
;
_chemical_formula_sum "Si O2"
_cell_formula_units_Z 56
_cell_length_a 21.570229
_cell_length_b 14.052757
_cell_length_c 9.779157
_cell_angle_alpha 90.000000
_cell_angle_beta 90.000000
_cell_angle_gamma 90.000000
_cell_volume 2964.269674
_symmetry_space_group_name_H-M "P M M N"
_symmetry_group_IT_number 59
_space_group.IT_coordinate_system_code '2'
_symmetry_cell_setting 'orthorhombic'
loop_
_space_group_symop_operation_xyz
x,y,z
1/2-x,1/2-y,z
1/2+x,-y,-z
-x,1/2+y,-z
-x,-y,-z
1/2+x,1/2+y,-z
1/2-x,y,z
x,1/2-y,z
loop_
_atom_site_type_symbol
_atom_site_label
_atom_site_fract_x
_atom_site_fract_y
_atom_site_fract_z
Si Si1 0.320937 0.512477 0.745272
Si Si2 0.895895 0.949591 0.501219
Si Si3 0.566791 0.140140 0.214447
Si Si4 0.498925 0.855811 0.067208
Si Si5 0.818165 0.861364 0.735157
Si Si6 0.641381 0.638567 0.031223
Si Si7 0.496312 0.967230 0.328289
O O1 0.250000 0.545397 0.748046
O O2 0.338462 0.485342 0.589172
O O3 0.362652 0.602526 0.787384
O O4 0.329610 0.422020 0.845264
O O5 0.869263 0.882956 0.619947
O O6 0.935253 0.033108 0.576938
O O7 0.947941 0.903769 0.397843
O O8 0.563329 0.250000 0.263840
O O9 0.523612 0.074914 0.311203
O O10 0.545231 0.128934 0.059821
O O11 0.493412 0.750000 0.126039
O O12 0.568518 0.878904 0.024260
O O13 0.476032 0.926587 0.183739
O O14 0.750000 0.900101 0.692290
O O15 0.817182 0.750000 0.751107
O O16 0.834205 0.901631 0.885701
O O17 0.658256 0.750000 0.054722
#
# Coordination Sequence:
#
# PCOD8242046 Si02
#       7
#     8   8   8   8   8   8   8
#     4  11  23  39  58  82 114 158 196 233 279 329
#     4  10  21  35  55  80 112 148 187 228 278 339
#     4  10  21  36  58  87 113 147 194 242 286 333
#     4  10  19  34  59  88 115 142 178 237 297 346
#     4  10  21  35  52  79 115 153 190 227 270 332
#     4  10  20  36  58  87 118 148 183 229 292 348
#     4  10  20  36  56  82 115 147 180 233 295 343
#
# _framework density 18.891669
#
# number of rings (size 3 to 8) (size 9 to 14) (size 15 to 20)
#    0.000    1.857    2.857    2.143    2.000    4.000 
#    0.000    5.714    0.000    0.000    0.000    0.000 
#    0.000    0.000    0.000    0.000    0.000    0.000 
#
# Total GULP energy -693959.081250 kJ/mol
# GULP energy per Si atom -12392.126451 kJ/mol
# Density = 1.884867 g / cm^3
# Si number density = 18.891669 Si / 1000 Ang^3
#
#
#
# Elastic Constant Matrix: (Units=GPa)
#
#
# Indices 1 2 3 4 5 6 
#
# 1 101.6506 26.4608 49.8178 0.0000 0.0000 0.0000
# 2 26.4608 60.9583 46.9177 0.0000 0.0000 0.0000
# 3 49.8178 46.9177 107.8524 0.0000 0.0000 0.0000
# 4 0.0000 0.0000 0.0000 15.6758 0.0000 0.0000
# 5 0.0000 0.0000 0.0000 0.0000 31.5348 0.0000
# 6 0.0000 0.0000 0.0000 0.0000 0.0000 13.4051
#
#
#
# Elastic Compliance Matrix: (Units=1/GPa)
#
#
# Indices 1 2 3 4 5 6 
#
# 1 0.012808 -0.001513 -0.005258 0.000000 0.000000 0.000000
# 2 -0.001513 0.024841 -0.010107 0.000000 0.000000 0.000000
# 3 -0.005258 -0.010107 0.016098 0.000000 0.000000 0.000000
# 4 0.000000 0.000000 0.000000 0.063793 0.000000 0.000000
# 5 0.000000 0.000000 0.000000 0.000000 0.031711 0.000000
# 6 0.000000 0.000000 0.000000 0.000000 0.000000 0.074598
#
#
# Mechanical properties :
#
#
# Convention : Reuss Voigt Hill
#
# Bulk Modulus (GPa) = 50.02509 57.42820 53.72664
# Shear Modulus (GPa) = 18.92015 21.94082 20.43048
#
# Velocity S-wave (km/s) = 3.16809 3.41163 3.29212
# Velocity P-wave (km/s) = 6.31822 6.78112 6.55376
#
# Compressibility (1/GPa) = 0.01998997
#
# Stress axis : x y z
#
# Youngs Moduli (GPa) = 78.07382 40.25659 62.12112
#
# Poissons Ratio (x) = 0.06090 0.32664
# Poissons Ratio (y) = 0.11811 0.62788
# Poissons Ratio (z) = 0.41053 0.40689
#
# Static dielectric constant tensor:
#      x y z
#    x 3.632260 0.000000 0.000000 
#    y 0.000000 3.330610 0.000000 
#    z 0.000000 0.000000 3.676790 
# 
# 
# High freq. dielectric constant tensor:
#      x y z
#    x 1.734570 0.000000 0.000000 
#    y 0.000000 1.698570 0.000000 
#    z 0.000000 0.000000 1.753100 
# 
# From -- ./inp_files/11404.got.cif
#   From: 2010.03.12/outbox.cif.g09.slc.cpg/sg59_6_cif.got.tgz:11404.got - 2010.04.16 16:29:54.
