data_PCOD8242257
_publ_section_title
;
Structure prediction by ZEFSAII (Michael W. Deem and Ramdas Pophale) SiO2 
 PCOD8242257
Probable space group: P M M N
;
_chemical_formula_sum "Si O2"
_cell_formula_units_Z 64
_cell_length_a 19.470993
_cell_length_b 18.069984
_cell_length_c 9.840246
_cell_angle_alpha 90.000000
_cell_angle_beta 90.000000
_cell_angle_gamma 90.000000
_cell_volume 3462.197387
_symmetry_space_group_name_H-M "P M M N"
_symmetry_group_IT_number 59
_space_group.IT_coordinate_system_code '2'
_symmetry_cell_setting 'orthorhombic'
loop_
_space_group_symop_operation_xyz
x,y,z
1/2-x,1/2-y,z
1/2+x,-y,-z
-x,1/2+y,-z
-x,-y,-z
1/2+x,1/2+y,-z
1/2-x,y,z
x,1/2-y,z
loop_
_atom_site_type_symbol
_atom_site_label
_atom_site_fract_x
_atom_site_fract_y
_atom_site_fract_z
Si Si1 0.444309 0.662616 0.247458
Si Si2 0.044283 0.166413 0.271050
Si Si3 0.829401 0.445636 0.838206
Si Si4 0.539728 0.423295 0.480170
Si Si5 0.826925 0.582752 0.650544
Si Si6 0.329443 0.457324 0.907115
Si Si7 0.437394 0.165609 0.962819
Si Si8 0.327520 0.505312 0.606828
O O1 0.432113 0.750000 0.261439
O O2 0.374339 0.626563 0.191934
O O3 0.468512 0.629341 0.390530
O O4 0.504186 0.642594 0.142609
O O5 0.029592 0.250000 0.314718
O O6 0.123085 0.148969 0.309797
O O7 0.992058 0.114231 0.348461
O O8 0.031284 0.154127 0.112037
O O9 0.750000 0.422566 0.824300
O O10 0.849280 0.508064 0.728449
O O11 0.845917 0.476297 0.988629
O O12 0.500000 0.500000 0.500000
O O13 0.620464 0.433472 0.450229
O O14 0.750000 0.605960 0.694242
O O15 0.831325 0.567322 0.489100
O O16 0.250000 0.434957 0.915311
O O17 0.370757 0.384383 0.945343
O O18 0.350401 0.483178 0.757321
O O19 0.413720 0.250000 0.940486
O O20 0.250000 0.538333 0.604379
#
# Coordination Sequence:
#
# PCOD8242257 Si02
#       8
#     8   8   8   8   8   8   8   8
#     4  11  24  40  57  84 118 151 190 237 292 348
#     4  11  23  38  56  83 116 152 192 234 286 346
#     4  10  20  37  61  86 111 143 190 241 282 334
#     4  12  22  38  61  87 112 153 193 239 290 341
#     4  10  19  37  59  85 116 144 187 237 282 339
#     4  10  21  37  59  88 116 148 191 236 283 342
#     4  10  23  39  56  82 119 156 190 235 286 342
#     4  10  21  37  59  86 115 145 190 242 287 337
#
# _framework density 18.48537
#
# number of rings (size 3 to 8) (size 9 to 14) (size 15 to 20)
#    0.000    1.500    3.750    1.125    1.750    1.250 
#    0.000    1.250    0.000    3.375    0.000    0.000 
#    0.000    0.000    0.000    0.000    0.000    0.000 
#
# Total GULP energy -793809.718018 kJ/mol
# GULP energy per Si atom -12403.276844 kJ/mol
# Density = 1.844330 g / cm^3
# Si number density = 18.485370 Si / 1000 Ang^3
#
#
#
# Elastic Constant Matrix: (Units=GPa)
#
#
# Indices 1 2 3 4 5 6 
#
# 1 89.4712 49.3105 27.1718 0.0000 0.0000 0.0000
# 2 49.3105 92.0536 44.3095 0.0000 0.0000 0.0000
# 3 27.1718 44.3095 113.0745 0.0000 0.0000 0.0000
# 4 0.0000 0.0000 0.0000 27.6276 0.0000 0.0000
# 5 0.0000 0.0000 0.0000 0.0000 30.0731 0.0000
# 6 0.0000 0.0000 0.0000 0.0000 0.0000 28.9188
#
#
#
# Elastic Compliance Matrix: (Units=1/GPa)
#
#
# Indices 1 2 3 4 5 6 
#
# 1 0.015891 -0.008226 -0.000595 0.000000 0.000000 0.000000
# 2 -0.008226 0.017647 -0.004938 0.000000 0.000000 0.000000
# 3 -0.000595 -0.004938 0.010922 0.000000 0.000000 0.000000
# 4 0.000000 0.000000 0.000000 0.036196 0.000000 0.000000
# 5 0.000000 0.000000 0.000000 0.000000 0.033252 0.000000
# 6 0.000000 0.000000 0.000000 0.000000 0.000000 0.034580
#
#
# Mechanical properties :
#
#
# Convention : Reuss Voigt Hill
#
# Bulk Modulus (GPa) = 59.02939 59.57588 59.30263
# Shear Modulus (GPa) = 27.52497 28.91106 28.21802
#
# Velocity S-wave (km/s) = 3.86296 3.95903 3.91129
# Velocity P-wave (km/s) = 7.20409 7.29364 7.24901
#
# Compressibility (1/GPa) = 0.01694071
#
# Stress axis : x y z
#
# Youngs Moduli (GPa) = 62.92819 56.66780 91.55901
#
# Poissons Ratio (x) = 0.46615 0.05450
# Poissons Ratio (y) = 0.51764 0.45215
# Poissons Ratio (z) = 0.03746 0.27985
#
# Static dielectric constant tensor:
#      x y z
#    x 3.447330 0.000000 0.000000 
#    y 0.000000 3.212250 0.000000 
#    z 0.000000 0.000000 3.718480 
# 
# 
# High freq. dielectric constant tensor:
#      x y z
#    x 1.723560 0.000000 0.000000 
#    y 0.000000 1.694470 0.000000 
#    z 0.000000 0.000000 1.739900 
# 
# From -- ./inp_files/11639.got.cif
#   From: 2010.03.12/outbox.cif.g09.slc.cpg/sg59_6_cif.got.tgz:11639.got - 2010.04.16 16:29:54.
