data_PCOD8242597
_publ_section_title
;
Structure prediction by ZEFSAII (Michael W. Deem and Ramdas Pophale) SiO2 
 PCOD8242597
Probable space group: P M M N
;
_chemical_formula_sum "Si O2"
_cell_formula_units_Z 64
_cell_length_a 9.055916
_cell_length_b 13.960122
_cell_length_c 31.257990
_cell_angle_alpha 90.000000
_cell_angle_beta 90.000000
_cell_angle_gamma 90.000000
_cell_volume 3951.687990
_symmetry_space_group_name_H-M "P M M N"
_symmetry_group_IT_number 59
_space_group.IT_coordinate_system_code '2'
_symmetry_cell_setting 'orthorhombic'
loop_
_space_group_symop_operation_xyz
x,y,z
1/2-x,1/2-y,z
1/2+x,-y,-z
-x,1/2+y,-z
-x,-y,-z
1/2+x,1/2+y,-z
1/2-x,y,z
x,1/2-y,z
loop_
_atom_site_type_symbol
_atom_site_label
_atom_site_fract_x
_atom_site_fract_y
_atom_site_fract_z
Si Si1 0.083665 0.136253 0.768507
Si Si2 0.075057 0.472331 0.606910
Si Si3 0.079304 0.361510 0.430568
Si Si4 0.576522 0.471410 0.937345
Si Si5 0.422982 0.860577 0.146874
Si Si6 0.425339 0.144292 0.525757
Si Si7 0.077601 0.637690 0.316538
Si Si8 0.575866 0.359083 0.021634
O O1 0.250000 0.095868 0.765295
O O2 0.083277 0.250000 0.769204
O O3 0.008548 0.098519 0.811932
O O4 0.989589 0.100097 0.728088
O O5 0.250000 0.468010 0.612050
O O6 0.016350 0.424572 0.562941
O O7 0.018238 0.581437 0.604207
O O8 0.003277 0.418616 0.646274
O O9 0.250000 0.389745 0.424900
O O10 0.055128 0.250000 0.421542
O O11 0.022319 0.388289 0.478510
O O12 0.750000 0.489212 0.937807
O O13 0.524411 0.423302 0.893295
O O14 0.498212 0.574424 0.942190
O O15 0.529434 0.399125 0.975173
O O16 0.250000 0.871709 0.155654
O O17 0.462823 0.750000 0.137541
O O18 0.250000 0.148294 0.525643
O O19 0.488555 0.250000 0.535584
O O20 0.250000 0.613999 0.316879
O O21 0.047035 0.750000 0.323004
O O22 0.750000 0.363173 0.027968
O O23 0.518186 0.250000 0.026012
#
# Coordination Sequence:
#
# PCOD8242597 Si02
#       8
#     8   8   8   8   8   8   8   8
#     4   9  17  29  45  66  92 119 146 179 220 264
#     4  11  20  29  46  70  94 119 148 185 226 266
#     4   9  18  33  49  63  85 119 156 191 224 260
#     4   9  17  28  43  64  88 117 155 193 226 264
#     4   9  16  27  44  65  90 120 151 182 219 265
#     4   8  15  28  45  65  90 120 150 180 218 262
#     4  10  20  33  48  67  93 123 152 180 214 265
#     4   9  17  29  43  60  87 122 156 191 231 269
#
# _framework density 16.195612000000001
#
# number of rings (size 3 to 8) (size 9 to 14) (size 15 to 20)
#    0.000    2.750    0.000    3.000    0.000    5.250 
#    0.000    0.625    0.000    3.750    0.000    0.875 
#    0.000    3.000    0.000    0.000    0.000    0.000 
#
# Total GULP energy -793490.311741 kJ/mol
# GULP energy per Si atom -12398.286121 kJ/mol
# Density = 1.615875 g / cm^3
# Si number density = 16.195612 Si / 1000 Ang^3
#
#
#
# Elastic Constant Matrix: (Units=GPa)
#
#
# Indices 1 2 3 4 5 6 
#
# 1 70.1718 43.2122 58.7185 0.0000 0.0000 0.0000
# 2 43.2122 86.9337 59.9863 0.0000 0.0000 0.0000
# 3 58.7185 59.9863 117.0357 0.0000 0.0000 0.0000
# 4 0.0000 0.0000 0.0000 23.6727 0.0000 0.0000
# 5 0.0000 0.0000 0.0000 0.0000 28.6404 0.0000
# 6 0.0000 0.0000 0.0000 0.0000 0.0000 23.3850
#
#
#
# Elastic Compliance Matrix: (Units=1/GPa)
#
#
# Indices 1 2 3 4 5 6 
#
# 1 0.026560 -0.006200 -0.010148 0.000000 0.000000 0.000000
# 2 -0.006200 0.019245 -0.006753 0.000000 0.000000 0.000000
# 3 -0.010148 -0.006753 0.017097 0.000000 0.000000 0.000000
# 4 0.000000 0.000000 0.000000 0.042243 0.000000 0.000000
# 5 0.000000 0.000000 0.000000 0.000000 0.034916 0.000000
# 6 0.000000 0.000000 0.000000 0.000000 0.000000 0.042762
#
#
# Mechanical properties :
#
#
# Convention : Reuss Voigt Hill
#
# Bulk Modulus (GPa) = 59.88065 66.44168 63.16116
# Shear Modulus (GPa) = 21.31362 22.62125 21.96743
#
# Velocity S-wave (km/s) = 3.63162 3.74137 3.68690
# Velocity P-wave (km/s) = 7.39179 7.73158 7.56359
#
# Compressibility (1/GPa) = 0.01669989
#
# Stress axis : x y z
#
# Youngs Moduli (GPa) = 37.65014 51.96219 58.48965
#
# Poissons Ratio (x) = 0.32217 0.59354
# Poissons Ratio (y) = 0.23343 0.39499
# Poissons Ratio (z) = 0.38207 0.35091
#
# Static dielectric constant tensor:
#      x y z
#    x 2.985800 0.000000 0.000000 
#    y 0.000000 2.941400 0.000000 
#    z 0.000000 0.000000 3.110480 
# 
# 
# High freq. dielectric constant tensor:
#      x y z
#    x 1.618770 0.000000 0.000000 
#    y 0.000000 1.599540 0.000000 
#    z 0.000000 0.000000 1.615030 
# 
# From -- ./inp_files/33218.got.cif
#   From: 2010.03.12/outbox.cif.g09.slc.cpg/sg59_17_cif.got.tgz:33218.got - 2010.04.16 16:29:54.
