data_PCOD8242321
_publ_section_title
;
Structure prediction by ZEFSAII (Michael W. Deem and Ramdas Pophale) SiO2 
 PCOD8242321
Probable space group: P M M N
;
_chemical_formula_sum "Si O2"
_cell_formula_units_Z 64
_cell_length_a 18.392776
_cell_length_b 9.547652
_cell_length_c 20.292471
_cell_angle_alpha 90.000000
_cell_angle_beta 90.000000
_cell_angle_gamma 90.000000
_cell_volume 3563.516687
_symmetry_space_group_name_H-M "P M M N"
_symmetry_group_IT_number 59
_space_group.IT_coordinate_system_code '2'
_symmetry_cell_setting 'orthorhombic'
loop_
_space_group_symop_operation_xyz
x,y,z
1/2-x,1/2-y,z
1/2+x,-y,-z
-x,1/2+y,-z
-x,-y,-z
1/2+x,1/2+y,-z
1/2-x,y,z
x,1/2-y,z
loop_
_atom_site_type_symbol
_atom_site_label
_atom_site_fract_x
_atom_site_fract_y
_atom_site_fract_z
Si Si1 0.666640 0.911345 0.995717
Si Si2 0.403066 0.588791 0.112724
Si Si3 0.331783 0.416580 0.623667
Si Si4 0.592358 0.411470 0.735098
Si Si5 0.432590 0.083787 0.887467
Si Si6 0.574150 0.584837 0.500828
Si Si7 0.928711 0.916871 0.257762
Si Si8 0.166851 0.089012 0.372346
O O1 0.750000 0.927585 0.016144
O O2 0.645913 0.750000 0.983047
O O3 0.619696 0.976439 0.055830
O O4 0.652097 0.995747 0.929099
O O5 0.393041 0.750000 0.092359
O O6 0.384664 0.567546 0.189248
O O7 0.485005 0.537525 0.097502
O O8 0.250000 0.477999 0.620836
O O9 0.328737 0.250000 0.626040
O O10 0.376541 0.466025 0.560104
O O11 0.371575 0.476224 0.689090
O O12 0.598913 0.250000 0.714460
O O13 0.510096 0.466073 0.723330
O O14 0.647633 0.499087 0.691365
O O15 0.427693 0.250000 0.885389
O O16 0.408222 0.026470 0.815345
O O17 0.500000 0.500000 0.500000
O O18 0.557561 0.750000 0.496302
O O19 0.616919 0.544310 0.566692
O O20 0.928240 0.750000 0.257031
O O21 0.250000 0.061364 0.392714
O O22 0.154088 0.250000 0.353884
#
# Coordination Sequence:
#
# PCOD8242321 Si02
#       8
#     8   8   8   8   8   8   8   8
#     4  10  20  31  45  69  99 126 153 192 241 288
#     4   9  18  33  52  70  91 124 163 200 236 279
#     4   9  16  26  44  71  99 125 153 188 233 282
#     4   9  18  33  52  73  95 122 161 204 240 278
#     4   8  15  29  47  67  93 124 157 193 234 280
#     4  10  20  34  52  73  98 128 163 201 236 275
#     4   8  14  26  46  71  96 121 153 195 237 277
#     4  10  21  35  50  71 101 133 161 195 243 292
#
# _framework density 17.959788
#
# number of rings (size 3 to 8) (size 9 to 14) (size 15 to 20)
#    0.000    2.875    0.000    3.000    0.000    5.000 
#    0.000    5.000    0.000    1.875    0.000    0.000 
#    0.000    0.000    0.000    0.000    0.000    0.000 
#
# Total GULP energy -793508.775952 kJ/mol
# GULP energy per Si atom -12398.574624 kJ/mol
# Density = 1.791891 g / cm^3
# Si number density = 17.959788 Si / 1000 Ang^3
#
#
#
# Elastic Constant Matrix: (Units=GPa)
#
#
# Indices 1 2 3 4 5 6 
#
# 1 101.2382 37.0981 58.4703 0.0000 0.0000 0.0000
# 2 37.0981 38.8969 40.9513 0.0000 0.0000 0.0000
# 3 58.4703 40.9513 111.5084 0.0000 0.0000 0.0000
# 4 0.0000 0.0000 0.0000 21.3033 0.0000 0.0000
# 5 0.0000 0.0000 0.0000 0.0000 27.5733 0.0000
# 6 0.0000 0.0000 0.0000 0.0000 0.0000 24.0770
#
#
#
# Elastic Compliance Matrix: (Units=1/GPa)
#
#
# Indices 1 2 3 4 5 6 
#
# 1 0.016571 -0.010853 -0.004704 0.000000 0.000000 0.000000
# 2 -0.010853 0.049023 -0.012313 0.000000 0.000000 0.000000
# 3 -0.004704 -0.012313 0.015956 0.000000 0.000000 0.000000
# 4 0.000000 0.000000 0.000000 0.046941 0.000000 0.000000
# 5 0.000000 0.000000 0.000000 0.000000 0.036267 0.000000
# 6 0.000000 0.000000 0.000000 0.000000 0.000000 0.041533
#
#
# Mechanical properties :
#
#
# Convention : Reuss Voigt Hill
#
# Bulk Modulus (GPa) = 38.74177 58.29808 48.51992
# Shear Modulus (GPa) = 18.47508 22.26564 20.37036
#
# Velocity S-wave (km/s) = 3.21080 3.52483 3.37147
# Velocity P-wave (km/s) = 5.94675 7.00690 6.49848
#
# Compressibility (1/GPa) = 0.02581193
#
# Stress axis : x y z
#
# Youngs Moduli (GPa) = 60.34554 20.39845 62.67178
#
# Poissons Ratio (x) = 0.22138 0.29478
# Poissons Ratio (y) = 0.65493 0.77167
# Poissons Ratio (z) = 0.28384 0.25116
#
# Static dielectric constant tensor:
#      x y z
#    x 3.385910 0.000000 0.000000 
#    y 0.000000 2.869100 0.000000 
#    z 0.000000 0.000000 3.545360 
# 
# 
# High freq. dielectric constant tensor:
#      x y z
#    x 1.699110 0.000000 0.000000 
#    y 0.000000 1.646130 0.000000 
#    z 0.000000 0.000000 1.708450 
# 
# From -- ./inp_files/30839.got.cif
#   From: 2010.03.12/outbox.cif.g09.slc.cpg/sg59_16_cif.got.tgz:30839.got - 2010.04.16 16:29:54.
