data_PCOD8242863
_publ_section_title
;
Structure prediction by ZEFSAII (Michael W. Deem and Ramdas Pophale) SiO2 
 PCOD8242863
Probable space group: P M M N
;
_chemical_formula_sum "Si O2"
_cell_formula_units_Z 64
_cell_length_a 19.522534
_cell_length_b 9.335359
_cell_length_c 20.027596
_cell_angle_alpha 90.000000
_cell_angle_beta 90.000000
_cell_angle_gamma 90.000000
_cell_volume 3650.026637
_symmetry_space_group_name_H-M "P M M N"
_symmetry_group_IT_number 59
_space_group.IT_coordinate_system_code '2'
_symmetry_cell_setting 'orthorhombic'
loop_
_space_group_symop_operation_xyz
x,y,z
1/2-x,1/2-y,z
1/2+x,-y,-z
-x,1/2+y,-z
-x,-y,-z
1/2+x,1/2+y,-z
1/2-x,y,z
x,1/2-y,z
loop_
_atom_site_type_symbol
_atom_site_label
_atom_site_fract_x
_atom_site_fract_y
_atom_site_fract_z
Si Si1 0.063220 0.090974 0.757278
Si Si2 0.325351 0.579506 0.151308
Si Si3 0.577178 0.085833 0.369140
Si Si4 0.830194 0.084079 0.492623
Si Si5 0.594399 0.410278 0.723819
Si Si6 0.075886 0.419795 0.403331
Si Si7 0.090527 0.583249 0.029931
Si Si8 0.444501 0.082223 0.907473
O O1 0.095878 0.250000 0.753847
O O2 0.071835 0.026755 0.832256
O O3 0.984001 0.101368 0.741810
O O4 0.096936 0.994697 0.699552
O O5 0.250000 0.519797 0.161430
O O6 0.330712 0.750000 0.152994
O O7 0.368985 0.518882 0.212582
O O8 0.350559 0.527423 0.079199
O O9 0.567441 0.250000 0.349116
O O10 0.641648 0.062295 0.417696
O O11 0.505173 0.035395 0.404111
O O12 0.750000 0.035962 0.496440
O O13 0.837184 0.250000 0.514063
O O14 0.880713 0.989021 0.537169
O O15 0.622244 0.250000 0.706190
O O16 0.609455 0.518379 0.663742
O O17 0.085135 0.250000 0.407251
O O18 0.094774 0.750000 0.012845
O O19 0.021512 0.546046 0.070231
O O20 0.102796 0.499615 0.960721
O O21 0.429950 0.250000 0.911126
#
# Coordination Sequence:
#
# PCOD8242863 Si02
#       8
#     8   8   8   8   8   8   8   8
#     4   9  16  28  48  71  96 124 155 194 240 288
#     4   9  16  27  45  66  90 123 161 196 227 270
#     4   9  19  34  52  76 102 126 159 203 248 292
#     4  10  21  37  55  73  96 129 167 204 242 289
#     4   9  16  29  47  68  95 126 160 194 230 278
#     4  10  20  33  51  76 104 130 157 198 247 292
#     4   9  16  27  43  66  92 118 153 194 233 272
#     4   9  16  27  44  67  94 120 149 192 239 278
#
# _framework density 17.534117999999999
#
# number of rings (size 3 to 8) (size 9 to 14) (size 15 to 20)
#    0.000    2.750    1.250    0.750    0.000    2.250 
#    0.000    1.875    0.000    1.875    0.000    5.250 
#    0.000    0.000    0.000    0.000    0.000    0.000 
#
# Total GULP energy -793106.442593 kJ/mol
# GULP energy per Si atom -12392.288166 kJ/mol
# Density = 1.749421 g / cm^3
# Si number density = 17.534118 Si / 1000 Ang^3
#
#
#
# Elastic Constant Matrix: (Units=GPa)
#
#
# Indices 1 2 3 4 5 6 
#
# 1 38.7710 19.2755 26.9944 0.0000 0.0000 0.0000
# 2 19.2755 46.8940 44.6363 0.0000 0.0000 0.0000
# 3 26.9944 44.6363 124.6201 0.0000 0.0000 0.0000
# 4 0.0000 0.0000 0.0000 33.0946 0.0000 0.0000
# 5 0.0000 0.0000 0.0000 0.0000 13.0233 0.0000
# 6 0.0000 0.0000 0.0000 0.0000 0.0000 13.5084
#
#
#
# Elastic Compliance Matrix: (Units=1/GPa)
#
#
# Indices 1 2 3 4 5 6 
#
# 1 0.033403 -0.010383 -0.003517 0.000000 0.000000 0.000000
# 2 -0.010383 0.035583 -0.010496 0.000000 0.000000 0.000000
# 3 -0.003517 -0.010496 0.012546 0.000000 0.000000 0.000000
# 4 0.000000 0.000000 0.000000 0.030216 0.000000 0.000000
# 5 0.000000 0.000000 0.000000 0.000000 0.076785 0.000000
# 6 0.000000 0.000000 0.000000 0.000000 0.000000 0.074028
#
#
# Mechanical properties :
#
#
# Convention : Reuss Voigt Hill
#
# Bulk Modulus (GPa) = 30.54298 43.56640 37.05469
# Shear Modulus (GPa) = 15.51510 19.88384 17.69947
#
# Velocity S-wave (km/s) = 2.97787 3.37116 3.18060
# Velocity P-wave (km/s) = 5.41116 6.32879 5.88788
#
# Compressibility (1/GPa) = 0.03274075
#
# Stress axis : x y z
#
# Youngs Moduli (GPa) = 29.93752 28.10309 79.70900
#
# Poissons Ratio (x) = 0.29179 0.28031
# Poissons Ratio (y) = 0.31083 0.83664
# Poissons Ratio (z) = 0.10528 0.29497
#
# Static dielectric constant tensor:
#      x y z
#    x 3.087710 0.000000 0.000000 
#    y 0.000000 3.232750 0.000000 
#    z 0.000000 0.000000 3.732110 
# 
# 
# High freq. dielectric constant tensor:
#      x y z
#    x 1.644760 0.000000 0.000000 
#    y 0.000000 1.658360 0.000000 
#    z 0.000000 0.000000 1.689710 
# 
# From -- ./inp_files/29800.got.cif
#   From: 2010.03.12/outbox.cif.g09.slc.cpg/sg59_15_cif.got.tgz:29800.got - 2010.04.16 16:29:54.
