data_PCOD8242691
_publ_section_title
;
Structure prediction by ZEFSAII (Michael W. Deem and Ramdas Pophale) SiO2 
 PCOD8242691
Probable space group: P M M N
;
_chemical_formula_sum "Si O2"
_cell_formula_units_Z 64
_cell_length_a 28.400740
_cell_length_b 8.952765
_cell_length_c 15.348367
_cell_angle_alpha 90.000000
_cell_angle_beta 90.000000
_cell_angle_gamma 90.000000
_cell_volume 3902.554854
_symmetry_space_group_name_H-M "P M M N"
_symmetry_group_IT_number 59
_space_group.IT_coordinate_system_code '2'
_symmetry_cell_setting 'orthorhombic'
loop_
_space_group_symop_operation_xyz
x,y,z
1/2-x,1/2-y,z
1/2+x,-y,-z
-x,1/2+y,-z
-x,-y,-z
1/2+x,1/2+y,-z
1/2-x,y,z
x,1/2-y,z
loop_
_atom_site_type_symbol
_atom_site_label
_atom_site_fract_x
_atom_site_fract_y
_atom_site_fract_z
Si Si1 0.800762 0.573079 0.589981
Si Si2 0.051082 0.424548 0.814729
Si Si3 0.396155 0.073913 0.330879
Si Si4 0.940673 0.080327 0.824367
Si Si5 0.950203 0.425488 0.514311
Si Si6 0.605872 0.075013 0.340981
Si Si7 0.549099 0.077533 0.015849
Si Si8 0.303294 0.075310 0.607117
O O1 0.750000 0.512578 0.624481
O O2 0.799116 0.750000 0.586632
O O3 0.842638 0.518086 0.652394
O O4 0.808973 0.516149 0.491681
O O5 0.061625 0.250000 0.816475
O O6 0.073978 0.495508 0.730216
O O7 0.074271 0.497111 0.902152
O O8 0.995598 0.460506 0.813504
O O9 0.401372 0.250000 0.345352
O O10 0.409504 0.031404 0.232771
O O11 0.430389 0.989784 0.396316
O O12 0.932418 0.250000 0.793174
O O13 0.922852 0.061132 0.924439
O O14 0.957378 0.250000 0.524169
O O15 0.915345 0.465427 0.435275
O O16 0.000000 0.500000 0.500000
O O17 0.605431 0.250000 0.322489
O O18 0.659363 0.014999 0.334433
O O19 0.541000 0.250000 0.039160
O O20 0.500000 0.000000 0.000000
O O21 0.250000 0.043631 0.640212
O O22 0.315053 0.250000 0.614069
#
# Coordination Sequence:
#
# PCOD8242691 Si02
#       8
#     8   8   8   8   8   8   8   8
#     4   8  15  29  48  69  92 120 157 199 240 280
#     4  10  20  33  50  70  95 129 164 200 239 286
#     4  11  20  30  49  72  94 125 162 198 236 280
#     4   9  19  33  48  69  99 131 159 193 239 286
#     4  11  23  35  46  63  93 131 166 198 231 275
#     4  11  22  33  47  70  98 128 161 200 243 287
#     4   9  17  31  50  70  94 125 159 199 243 285
#     4   9  17  32  53  71  91 123 161 201 243 287
#
# _framework density 16.399514
#
# number of rings (size 3 to 8) (size 9 to 14) (size 15 to 20)
#    0.000    2.250    1.250    4.125    0.000    6.750 
#    0.000    0.000    0.000    1.500    0.000    0.875 
#    0.000    3.000    0.000    0.000    0.000    0.000 
#
# Total GULP energy -793399.461790 kJ/mol
# GULP energy per Si atom -12396.866590 kJ/mol
# Density = 1.636219 g / cm^3
# Si number density = 16.399514 Si / 1000 Ang^3
#
#
#
# Elastic Constant Matrix: (Units=GPa)
#
#
# Indices 1 2 3 4 5 6 
#
# 1 76.9785 31.8047 16.3500 0.0000 0.0000 0.0000
# 2 31.8047 77.3485 33.4438 0.0000 0.0000 0.0000
# 3 16.3500 33.4438 65.0504 0.0000 0.0000 0.0000
# 4 0.0000 0.0000 0.0000 30.3026 0.0000 0.0000
# 5 0.0000 0.0000 0.0000 0.0000 7.6937 0.0000
# 6 0.0000 0.0000 0.0000 0.0000 0.0000 22.0546
#
#
#
# Elastic Compliance Matrix: (Units=1/GPa)
#
#
# Indices 1 2 3 4 5 6 
#
# 1 0.015682 -0.006100 -0.000805 0.000000 0.000000 0.000000
# 2 -0.006100 0.018997 -0.008233 0.000000 0.000000 0.000000
# 3 -0.000805 -0.008233 0.019808 0.000000 0.000000 0.000000
# 4 0.000000 0.000000 0.000000 0.033000 0.000000 0.000000
# 5 0.000000 0.000000 0.000000 0.000000 0.129976 0.000000
# 6 0.000000 0.000000 0.000000 0.000000 0.000000 0.045342
#
#
# Mechanical properties :
#
#
# Convention : Reuss Voigt Hill
#
# Bulk Modulus (GPa) = 41.30673 42.50828 41.90750
# Shear Modulus (GPa) = 16.60286 21.19544 18.89915
#
# Velocity S-wave (km/s) = 3.18527 3.59896 3.39842
# Velocity P-wave (km/s) = 6.22659 6.57622 6.40379
#
# Compressibility (1/GPa) = 0.02420913
#
# Stress axis : x y z
#
# Youngs Moduli (GPa) = 63.76732 52.64077 50.48441
#
# Poissons Ratio (x) = 0.32111 0.04066
# Poissons Ratio (y) = 0.38898 0.41566
# Poissons Ratio (z) = 0.05136 0.43341
#
# Static dielectric constant tensor:
#      x y z
#    x 2.980720 0.000000 0.000000 
#    y 0.000000 3.123470 0.000000 
#    z 0.000000 0.000000 3.245360 
# 
# 
# High freq. dielectric constant tensor:
#      x y z
#    x 1.609660 0.000000 0.000000 
#    y 0.000000 1.634680 0.000000 
#    z 0.000000 0.000000 1.621600 
# 
# From -- ./inp_files/21839.got.cif
#   From: 2010.03.12/outbox.cif.g09.slc.cpg/sg59_11_cif.got.tgz:21839.got - 2010.04.16 16:29:54.
