data_PCOD8242139
_publ_section_title
;
Structure prediction by ZEFSAII (Michael W. Deem and Ramdas Pophale) SiO2 
 PCOD8242139
Probable space group: P M M N
;
_chemical_formula_sum "Si O2"
_cell_formula_units_Z 48
_cell_length_a 27.694901
_cell_length_b 13.732362
_cell_length_c 6.618141
_cell_angle_alpha 90.000000
_cell_angle_beta 90.000000
_cell_angle_gamma 90.000000
_cell_volume 2516.987600
_symmetry_space_group_name_H-M "P M M N"
_symmetry_group_IT_number 59
_space_group.IT_coordinate_system_code '2'
_symmetry_cell_setting 'orthorhombic'
loop_
_space_group_symop_operation_xyz
x,y,z
1/2-x,1/2-y,z
1/2+x,-y,-z
-x,1/2+y,-z
-x,-y,-z
1/2+x,1/2+y,-z
1/2-x,y,z
x,1/2-y,z
loop_
_atom_site_type_symbol
_atom_site_label
_atom_site_fract_x
_atom_site_fract_y
_atom_site_fract_z
Si Si1 0.132635 0.363982 0.623370
Si Si2 0.442879 0.037437 0.325781
Si Si3 0.968946 0.142468 0.440898
Si Si4 0.638523 0.140149 0.312938
Si Si5 0.694359 0.500958 0.597964
Si Si6 0.138115 0.482124 0.009873
O O1 0.125087 0.250000 0.591891
O O2 0.089985 0.423857 0.512155
O O3 0.183032 0.399908 0.525195
O O4 0.135641 0.389726 0.860215
O O5 0.486900 0.112908 0.291396
O O6 0.413128 0.021318 0.122472
O O7 0.466611 0.933053 0.374889
O O8 0.978963 0.250000 0.529446
O O9 0.919052 0.141336 0.321535
O O10 0.659148 0.250000 0.297664
O O11 0.662169 0.088231 0.509128
O O12 0.650031 0.081139 0.110021
O O13 0.750000 0.473069 0.576174
O O14 0.681567 0.523407 0.830310
#
# Coordination Sequence:
#
# PCOD8242139 Si02
#       6
#     8   8   8   8   8   8
#     4  10  21  39  59  85 115 148 187 235 286 338
#     4  10  20  37  58  83 122 156 189 229 283 333
#     4  10  19  35  58  85 118 156 193 230 275 334
#     4  10  21  39  59  85 116 150 189 235 284 334
#     4  10  22  41  60  81 112 149 187 237 293 343
#     4  10  20  37  58  87 112 151 185 237 279 339
#
# _framework density 19.070415000000001
#
# number of rings (size 3 to 8) (size 9 to 14) (size 15 to 20)
#    0.000    2.000    5.000    0.500    0.000    8.667 
#    0.000    0.000    0.000    0.000    0.000    0.000 
#    0.000    0.000    0.000    0.000    0.000    0.000 
#
# Total GULP energy -594928.838147 kJ/mol
# GULP energy per Si atom -12394.350795 kJ/mol
# Density = 1.902701 g / cm^3
# Si number density = 19.070415 Si / 1000 Ang^3
#
#
#
# Elastic Constant Matrix: (Units=GPa)
#
#
# Indices 1 2 3 4 5 6 
#
# 1 90.2854 19.5752 15.6330 0.0000 0.0000 0.0000
# 2 19.5752 149.4543 32.7278 0.0000 0.0000 0.0000
# 3 15.6330 32.7278 98.5190 0.0000 0.0000 0.0000
# 4 0.0000 0.0000 0.0000 15.4288 0.0000 0.0000
# 5 0.0000 0.0000 0.0000 0.0000 11.8448 0.0000
# 6 0.0000 0.0000 0.0000 0.0000 0.0000 18.9014
#
#
#
# Elastic Compliance Matrix: (Units=1/GPa)
#
#
# Indices 1 2 3 4 5 6 
#
# 1 0.011586 -0.001202 -0.001439 0.000000 0.000000 0.000000
# 2 -0.001202 0.007341 -0.002248 0.000000 0.000000 0.000000
# 3 -0.001439 -0.002248 0.011125 0.000000 0.000000 0.000000
# 4 0.000000 0.000000 0.000000 0.064814 0.000000 0.000000
# 5 0.000000 0.000000 0.000000 0.000000 0.084425 0.000000
# 6 0.000000 0.000000 0.000000 0.000000 0.000000 0.052906
#
#
# Mechanical properties :
#
#
# Convention : Reuss Voigt Hill
#
# Bulk Modulus (GPa) = 49.32521 52.68119 51.00320
# Shear Modulus (GPa) = 20.10185 27.25652 23.67919
#
# Velocity S-wave (km/s) = 3.25019 3.78465 3.52756
# Velocity P-wave (km/s) = 6.32502 6.83979 6.58743
#
# Compressibility (1/GPa) = 0.02027361
#
# Stress axis : x y z
#
# Youngs Moduli (GPa) = 86.31218 136.22653 89.88463
#
# Poissons Ratio (x) = 0.16379 0.12935
# Poissons Ratio (y) = 0.10378 0.20204
# Poissons Ratio (z) = 0.12421 0.30621
#
# Static dielectric constant tensor:
#      x y z
#    x 3.510270 0.000000 0.000000 
#    y 0.000000 3.682500 0.000000 
#    z 0.000000 0.000000 3.294840 
# 
# 
# High freq. dielectric constant tensor:
#      x y z
#    x 1.738300 0.000000 0.000000 
#    y 0.000000 1.745300 0.000000 
#    z 0.000000 0.000000 1.725800 
# 
# From -- ./inp_files/4539.got.cif
#   From: 2010.03.12/outbox.cif.g09.slc.cpg/sg59_3_cif.got.tgz:4539.got - 2010.04.16 16:29:54.
