data_PCOD8242196
_publ_section_title
;
Structure prediction by ZEFSAII (Michael W. Deem and Ramdas Pophale) SiO2 
 PCOD8242196
Probable space group: P M M N
;
_chemical_formula_sum "Si O2"
_cell_formula_units_Z 48
_cell_length_a 10.091192
_cell_length_b 9.143628
_cell_length_c 29.111652
_cell_angle_alpha 90.000000
_cell_angle_beta 90.000000
_cell_angle_gamma 90.000000
_cell_volume 2686.135208
_symmetry_space_group_name_H-M "P M M N"
_symmetry_group_IT_number 59
_space_group.IT_coordinate_system_code '2'
_symmetry_cell_setting 'orthorhombic'
loop_
_space_group_symop_operation_xyz
x,y,z
1/2-x,1/2-y,z
1/2+x,-y,-z
-x,1/2+y,-z
-x,-y,-z
1/2+x,1/2+y,-z
1/2-x,y,z
x,1/2-y,z
loop_
_atom_site_type_symbol
_atom_site_label
_atom_site_fract_x
_atom_site_fract_y
_atom_site_fract_z
Si Si1 0.985455 0.078096 0.101491
Si Si2 0.402400 0.582691 0.799083
Si Si3 0.902323 0.921418 0.534841
Si Si4 0.250000 0.424053 0.949355
Si Si5 0.901289 0.419382 0.629292
Si Si6 0.900827 0.577785 0.291569
Si Si7 0.750000 0.922646 0.946891
O O1 0.957677 0.250000 0.093171
O O2 0.986905 0.043385 0.155802
O O3 0.123235 0.022287 0.080992
O O4 0.877540 0.983518 0.075915
O O5 0.250000 0.548133 0.810926
O O6 0.421851 0.750000 0.784753
O O7 0.452646 0.487357 0.756376
O O8 0.750000 0.952849 0.520549
O O9 0.932871 0.750000 0.534891
O O10 0.931562 0.983867 0.585045
O O11 0.000000 0.000000 0.500000
O O12 0.250000 0.250000 0.947703
O O13 0.250000 0.484991 0.001480
O O14 0.750000 0.441343 0.646145
O O15 0.928319 0.250000 0.617057
O O16 0.001086 0.476324 0.668467
O O17 0.750000 0.525473 0.302220
O O18 0.907405 0.750000 0.286822
O O19 0.750000 0.750000 0.949070
#
# Coordination Sequence:
#
# PCOD8242196 Si02
#       7
#     8   8   8   4   8   8   4
#     4  10  19  36  56  74 101 139 173 210 259 314
#     4   9  17  31  51  74  96 126 169 208 250 306
#     4  10  21  36  55  80 110 144 183 225 267 313
#     4  11  21  33  53  81 103 131 173 215 258 311
#     4   9  18  34  53  73 103 141 175 209 259 319
#     4   9  18  32  51  74  99 130 167 211 259 305
#     4   9  20  35  53  77 105 133 171 215 258 311
#
# _framework density 17.869540000000001
#
# number of rings (size 3 to 8) (size 9 to 14) (size 15 to 20)
#    0.000    2.500    0.833    1.250    0.000    3.000 
#    1.500    2.917    0.000    0.000    0.000    0.000 
#    0.000    0.000    0.000    0.000    0.000    0.000 
#
# Total GULP energy -595227.042499 kJ/mol
# GULP energy per Si atom -12400.563385 kJ/mol
# Density = 1.782887 g / cm^3
# Si number density = 17.869540 Si / 1000 Ang^3
#
#
#
# Elastic Constant Matrix: (Units=GPa)
#
#
# Indices 1 2 3 4 5 6 
#
# 1 122.0275 49.9732 89.6062 0.0000 0.0000 0.0000
# 2 49.9732 61.2580 61.9998 0.0000 0.0000 0.0000
# 3 89.6062 61.9998 153.0463 0.0000 0.0000 0.0000
# 4 0.0000 0.0000 0.0000 33.4546 0.0000 0.0000
# 5 0.0000 0.0000 0.0000 0.0000 31.9557 0.0000
# 6 0.0000 0.0000 0.0000 0.0000 0.0000 50.5359
#
#
#
# Elastic Compliance Matrix: (Units=1/GPa)
#
#
# Indices 1 2 3 4 5 6 
#
# 1 0.015530 -0.005875 -0.006712 0.000000 0.000000 0.000000
# 2 -0.005875 0.029892 -0.008669 0.000000 0.000000 0.000000
# 3 -0.006712 -0.008669 0.013976 0.000000 0.000000 0.000000
# 4 0.000000 0.000000 0.000000 0.029891 0.000000 0.000000
# 5 0.000000 0.000000 0.000000 0.000000 0.031293 0.000000
# 6 0.000000 0.000000 0.000000 0.000000 0.000000 0.019788
#
#
# Mechanical properties :
#
#
# Convention : Reuss Voigt Hill
#
# Bulk Modulus (GPa) = 59.22970 82.16559 70.69764
# Shear Modulus (GPa) = 26.52344 32.17274 29.34809
#
# Velocity S-wave (km/s) = 3.85682 4.24774 4.05699
# Velocity P-wave (km/s) = 7.28361 8.37487 7.84823
#
# Compressibility (1/GPa) = 0.01688342
#
# Stress axis : x y z
#
# Youngs Moduli (GPa) = 64.39145 33.45400 71.55121
#
# Poissons Ratio (x) = 0.19656 0.48028
# Poissons Ratio (y) = 0.37833 0.62030
# Poissons Ratio (z) = 0.43222 0.29003
#
# Static dielectric constant tensor:
#      x y z
#    x 3.346150 0.000000 0.000000 
#    y 0.000000 3.209570 0.000000 
#    z 0.000000 0.000000 3.427100 
# 
# 
# High freq. dielectric constant tensor:
#      x y z
#    x 1.688240 0.000000 0.000000 
#    y 0.000000 1.682240 0.000000 
#    z 0.000000 0.000000 1.698740 
# 
# From -- ./inp_files/33084.got.cif
#   From: 2010.03.12/outbox.cif.g09.slc.cpg/sg59_17_cif.got.tgz:33084.got - 2010.04.16 16:29:54.
