data_PCOD8242081
_publ_section_title
;
Structure prediction by ZEFSAII (Michael W. Deem and Ramdas Pophale) SiO2 
 PCOD8242081
Probable space group: P M M N
;
_chemical_formula_sum "Si O2"
_cell_formula_units_Z 48
_cell_length_a 27.973023
_cell_length_b 9.295217
_cell_length_c 10.252762
_cell_angle_alpha 90.000000
_cell_angle_beta 90.000000
_cell_angle_gamma 90.000000
_cell_volume 2665.875181
_symmetry_space_group_name_H-M "P M M N"
_symmetry_group_IT_number 59
_space_group.IT_coordinate_system_code '2'
_symmetry_cell_setting 'orthorhombic'
loop_
_space_group_symop_operation_xyz
x,y,z
1/2-x,1/2-y,z
1/2+x,-y,-z
-x,1/2+y,-z
-x,-y,-z
1/2+x,1/2+y,-z
1/2-x,y,z
x,1/2-y,z
loop_
_atom_site_type_symbol
_atom_site_label
_atom_site_fract_x
_atom_site_fract_y
_atom_site_fract_z
Si Si1 0.549209 0.917139 0.855855
Si Si2 0.196306 0.420517 0.505132
Si Si3 0.855536 0.581908 0.235501
Si Si4 0.152724 0.420271 0.233423
Si Si5 0.458664 0.085284 0.845899
Si Si6 0.694604 0.415885 0.004482
O O1 0.539722 0.750000 0.839182
O O2 0.597316 0.963916 0.781913
O O3 0.503670 0.996013 0.791766
O O4 0.554807 0.961928 0.006968
O O5 0.250000 0.484353 0.508018
O O6 0.198270 0.250000 0.507376
O O7 0.167423 0.476173 0.630852
O O8 0.169216 0.472553 0.375741
O O9 0.843991 0.750000 0.210035
O O10 0.912585 0.557557 0.244625
O O11 0.835188 0.490847 0.117384
O O12 0.160065 0.250000 0.211518
O O13 0.185251 0.504021 0.131009
O O14 0.474417 0.250000 0.843108
O O15 0.750000 0.429686 0.040054
O O16 0.678814 0.250000 0.992410
#
# Coordination Sequence:
#
# PCOD8242081 Si02
#       6
#     8   8   8   8   8   8
#     4   9  17  30  49  75 104 135 170 211 262 311
#     4   9  18  32  54  81 105 135 175 219 266 309
#     4  10  19  35  56  79 105 136 178 220 260 310
#     4  10  19  35  56  79 105 136 178 220 260 310
#     4   9  17  30  49  75 104 135 170 211 262 311
#     4  11  23  35  50  77 108 137 174 219 266 313
#
# _framework density 18.005343
#
# number of rings (size 3 to 8) (size 9 to 14) (size 15 to 20)
#    0.000    2.333    1.667    1.500    0.000    4.000 
#    0.000    1.667    0.000    3.000    0.000    0.000 
#    0.000    0.000    0.000    0.000    0.000    0.000 
#
# Total GULP energy -595247.867223 kJ/mol
# GULP energy per Si atom -12400.997234 kJ/mol
# Density = 1.796436 g / cm^3
# Si number density = 18.005343 Si / 1000 Ang^3
#
#
#
# Elastic Constant Matrix: (Units=GPa)
#
#
# Indices 1 2 3 4 5 6 
#
# 1 124.6620 32.5623 41.1315 0.0000 0.0000 0.0000
# 2 32.5623 46.9504 23.2598 0.0000 0.0000 0.0000
# 3 41.1315 23.2598 92.9825 0.0000 0.0000 0.0000
# 4 0.0000 0.0000 0.0000 3.4100 0.0000 0.0000
# 5 0.0000 0.0000 0.0000 0.0000 32.5268 0.0000
# 6 0.0000 0.0000 0.0000 0.0000 0.0000 30.1298
#
#
#
# Elastic Compliance Matrix: (Units=1/GPa)
#
#
# Indices 1 2 3 4 5 6 
#
# 1 0.010593 -0.005736 -0.003251 0.000000 0.000000 0.000000
# 2 -0.005736 0.027418 -0.004321 0.000000 0.000000 0.000000
# 3 -0.003251 -0.004321 0.013274 0.000000 0.000000 0.000000
# 4 0.000000 0.000000 0.000000 0.293258 0.000000 0.000000
# 5 0.000000 0.000000 0.000000 0.000000 0.030744 0.000000
# 6 0.000000 0.000000 0.000000 0.000000 0.000000 0.033190
#
#
# Mechanical properties :
#
#
# Convention : Reuss Voigt Hill
#
# Bulk Modulus (GPa) = 40.53818 50.94467 45.74143
# Shear Modulus (GPa) = 11.27867 24.38941 17.83404
#
# Velocity S-wave (km/s) = 2.50553 3.68443 3.15061
# Velocity P-wave (km/s) = 5.56180 6.81584 6.22050
#
# Compressibility (1/GPa) = 0.02466810
#
# Stress axis : x y z
#
# Youngs Moduli (GPa) = 94.40624 36.47233 75.33666
#
# Poissons Ratio (x) = 0.20920 0.24491
# Poissons Ratio (y) = 0.54150 0.32556
# Poissons Ratio (z) = 0.30690 0.15761
#
# Static dielectric constant tensor:
#      x y z
#    x 3.558010 0.000000 0.000000 
#    y 0.000000 3.155000 0.000000 
#    z 0.000000 0.000000 3.318030 
# 
# 
# High freq. dielectric constant tensor:
#      x y z
#    x 1.712410 0.000000 0.000000 
#    y 0.000000 1.674690 0.000000 
#    z 0.000000 0.000000 1.679690 
# 
# From -- ./inp_files/12965.got.cif
#   From: 2010.03.12/outbox.cif.g09.slc.cpg/sg59_7_cif.got.tgz:12965.got - 2010.04.16 16:29:54.
