data_PCOD8242008
_publ_section_title
;
Structure prediction by ZEFSAII (Michael W. Deem and Ramdas Pophale) SiO2 
 PCOD8242008
Probable space group: P M M N
;
_chemical_formula_sum "Si O2"
_cell_formula_units_Z 48
_cell_length_a 8.494405
_cell_length_b 16.193515
_cell_length_c 17.081409
_cell_angle_alpha 90.000000
_cell_angle_beta 90.000000
_cell_angle_gamma 90.000000
_cell_volume 2349.620827
_symmetry_space_group_name_H-M "P M M N"
_symmetry_group_IT_number 59
_space_group.IT_coordinate_system_code '2'
_symmetry_cell_setting 'orthorhombic'
loop_
_space_group_symop_operation_xyz
x,y,z
1/2-x,1/2-y,z
1/2+x,-y,-z
-x,1/2+y,-z
-x,-y,-z
1/2+x,1/2+y,-z
1/2-x,y,z
x,1/2-y,z
loop_
_atom_site_type_symbol
_atom_site_label
_atom_site_fract_x
_atom_site_fract_y
_atom_site_fract_z
Si Si1 0.567172 0.381215 0.657892
Si Si2 0.569120 0.750000 0.229479
Si Si3 0.563981 0.589112 0.975287
Si Si4 0.436533 0.068726 0.341044
Si Si5 0.433094 0.750000 0.061233
Si Si6 0.071778 0.343895 0.494368
Si Si7 0.562692 0.657558 0.811763
O O1 0.750000 0.367955 0.677583
O O2 0.463713 0.330098 0.718380
O O3 0.512329 0.474735 0.668536
O O4 0.538204 0.353329 0.569333
O O5 0.750000 0.750000 0.202844
O O6 0.459076 0.750000 0.153984
O O7 0.750000 0.587119 0.982437
O O8 0.507718 0.604057 0.886179
O O9 0.500000 0.500000 0.000000
O O10 0.505628 0.665584 0.027516
O O11 0.250000 0.079441 0.342646
O O12 0.502465 0.102944 0.423385
O O13 0.508202 0.118095 0.267331
O O14 0.250000 0.750000 0.042161
O O15 0.250000 0.372299 0.515129
O O16 0.071967 0.250000 0.465468
O O17 0.750000 0.659142 0.807640
O O18 0.495754 0.750000 0.820813
#
# Coordination Sequence:
#
# PCOD8242008 Si02
#       7
#     8   4   8   8   4   8   8
#     4  11  22  37  58  86 121 157 200 249 306 369
#     4  12  26  44  64  87 118 155 204 257 312 375
#     4  11  23  41  66  99 133 170 215 264 323 390
#     4   9  19  33  55  88 120 156 203 250 297 360
#     4  12  26  46  70  95 128 169 214 269 330 391
#     4  10  19  34  57  84 118 159 204 246 294 352
#     4   9  17  34  60  89 122 158 203 255 304 362
#
# _framework density 20.428827999999999
#
# number of rings (size 3 to 8) (size 9 to 14) (size 15 to 20)
#    0.000    1.667    1.667    3.500    2.333    2.000 
#    0.000    0.833    0.000    2.000    0.000    0.000 
#    0.000    0.000    0.000    0.000    0.000    0.000 
#
# Total GULP energy -595261.759165 kJ/mol
# GULP energy per Si atom -12401.286649 kJ/mol
# Density = 2.038233 g / cm^3
# Si number density = 20.428828 Si / 1000 Ang^3
#
#
#
# Elastic Constant Matrix: (Units=GPa)
#
#
# Indices 1 2 3 4 5 6 
#
# 1 54.0439 26.3463 14.1165 0.0000 0.0000 0.0000
# 2 26.3463 152.6256 56.6675 0.0000 0.0000 0.0000
# 3 14.1165 56.6675 134.0822 0.0000 0.0000 0.0000
# 4 0.0000 0.0000 0.0000 63.4756 0.0000 0.0000
# 5 0.0000 0.0000 0.0000 0.0000 21.5389 0.0000
# 6 0.0000 0.0000 0.0000 0.0000 0.0000 18.7698
#
#
#
# Elastic Compliance Matrix: (Units=1/GPa)
#
#
# Indices 1 2 3 4 5 6 
#
# 1 0.020272 -0.003211 -0.000777 0.000000 0.000000 0.000000
# 2 -0.003211 0.008280 -0.003161 0.000000 0.000000 0.000000
# 3 -0.000777 -0.003161 0.008876 0.000000 0.000000 0.000000
# 4 0.000000 0.000000 0.000000 0.015754 0.000000 0.000000
# 5 0.000000 0.000000 0.000000 0.000000 0.046428 0.000000
# 6 0.000000 0.000000 0.000000 0.000000 0.000000 0.053277
#
#
# Mechanical properties :
#
#
# Convention : Reuss Voigt Hill
#
# Bulk Modulus (GPa) = 43.23578 59.44580 51.34079
# Shear Modulus (GPa) = 28.58861 36.99829 32.79345
#
# Velocity S-wave (km/s) = 3.74495 4.26030 4.01091
# Velocity P-wave (km/s) = 6.31740 7.30495 6.82905
#
# Compressibility (1/GPa) = 0.02312899
#
# Stress axis : x y z
#
# Youngs Moduli (GPa) = 49.32983 120.77328 112.66293
#
# Poissons Ratio (x) = 0.38777 0.08757
# Poissons Ratio (y) = 0.15838 0.35617
# Poissons Ratio (z) = 0.03834 0.38181
#
# Static dielectric constant tensor:
#      x y z
#    x 3.399500 0.000000 0.000000 
#    y 0.000000 3.894710 0.000000 
#    z 0.000000 0.000000 3.886140 
# 
# 
# High freq. dielectric constant tensor:
#      x y z
#    x 1.767090 0.000000 0.000000 
#    y 0.000000 1.814380 0.000000 
#    z 0.000000 0.000000 1.811460 
# 
# From -- ./inp_files/25558.got.cif
#   From: 2010.03.12/outbox.cif.g09.slc.cpg/sg59_13_cif.got.tgz:25558.got - 2010.04.16 16:29:54.
