data_PCOD8242244
_publ_section_title
;
Structure prediction by ZEFSAII (Michael W. Deem and Ramdas Pophale) SiO2 
 PCOD8242244
Probable space group: P M M N
;
_chemical_formula_sum "Si O2"
_cell_formula_units_Z 56
_cell_length_a 22.035103
_cell_length_b 8.732023
_cell_length_c 14.787533
_cell_angle_alpha 90.000000
_cell_angle_beta 90.000000
_cell_angle_gamma 90.000000
_cell_volume 2845.284400
_symmetry_space_group_name_H-M "P M M N"
_symmetry_group_IT_number 59
_space_group.IT_coordinate_system_code '2'
_symmetry_cell_setting 'orthorhombic'
loop_
_space_group_symop_operation_xyz
x,y,z
1/2-x,1/2-y,z
1/2+x,-y,-z
-x,1/2+y,-z
-x,-y,-z
1/2+x,1/2+y,-z
1/2-x,y,z
x,1/2-y,z
loop_
_atom_site_type_symbol
_atom_site_label
_atom_site_fract_x
_atom_site_fract_y
_atom_site_fract_z
Si Si1 0.625668 0.929431 0.126049
Si Si2 0.579341 0.930831 0.770184
Si Si3 0.958081 0.568953 0.296049
Si Si4 0.061491 0.570511 0.035504
Si Si5 0.250000 0.918192 0.836514
Si Si6 0.365692 0.069188 0.556258
Si Si7 0.750000 0.415310 0.369328
Si Si8 0.319252 0.068550 0.366755
O O1 0.618773 0.750000 0.105917
O O2 0.582746 0.978168 0.209652
O O3 0.694093 0.972612 0.143674
O O4 0.611692 0.027333 0.037072
O O5 0.575150 0.750000 0.781204
O O6 0.642227 0.980252 0.721119
O O7 0.522484 0.985319 0.710145
O O8 0.580213 0.006959 0.867522
O O9 0.968694 0.750000 0.296833
O O10 0.925755 0.511758 0.389569
O O11 0.053018 0.750000 0.045153
O O12 0.000000 0.500000 0.000000
O O13 0.250000 0.750000 0.887233
O O14 0.250000 0.873958 0.733713
O O15 0.367013 0.250000 0.557413
O O16 0.357516 0.006766 0.453763
O O17 0.307991 0.016380 0.611220
O O18 0.750000 0.250000 0.421550
O O19 0.250000 0.001111 0.363755
O O20 0.314435 0.250000 0.373602
#
# Coordination Sequence:
#
# PCOD8242244 Si02
#       8
#     8   8   8   8   4   8   4   8
#     4  11  22  38  61  90 122 160 204 250 304 368
#     4  11  23  39  62  90 120 156 200 252 306 360
#     4  10  21  35  58  91 124 157 197 244 300 361
#     4  12  24  41  65  89 117 156 200 252 308 369
#     4  11  23  37  55  86 129 166 199 249 308 362
#     4  10  19  36  62  86 115 159 205 241 285 354
#     4  11  21  31  51  86 123 156 195 243 296 346
#     4   9  19  38  65  90 115 156 209 252 289 345
#
# _framework density 19.681688999999999
#
# number of rings (size 3 to 8) (size 9 to 14) (size 15 to 20)
#    0.000    1.429    3.571    2.571    0.000    2.286 
#    1.286    1.429    0.000    0.000    0.000    0.000 
#    0.000    0.000    0.000    0.000    0.000    0.000 
#
# Total GULP energy -694133.518965 kJ/mol
# GULP energy per Si atom -12395.241410 kJ/mol
# Density = 1.963689 g / cm^3
# Si number density = 19.681689 Si / 1000 Ang^3
#
#
#
# Elastic Constant Matrix: (Units=GPa)
#
#
# Indices 1 2 3 4 5 6 
#
# 1 116.0937 35.3270 68.0199 0.0000 0.0000 0.0000
# 2 35.3270 52.2678 45.7731 0.0000 0.0000 0.0000
# 3 68.0199 45.7731 147.4277 0.0000 0.0000 0.0000
# 4 0.0000 0.0000 0.0000 22.0352 0.0000 0.0000
# 5 0.0000 0.0000 0.0000 0.0000 19.8866 0.0000
# 6 0.0000 0.0000 0.0000 0.0000 0.0000 27.2068
#
#
#
# Elastic Compliance Matrix: (Units=1/GPa)
#
#
# Indices 1 2 3 4 5 6 
#
# 1 0.012593 -0.004702 -0.004351 0.000000 0.000000 0.000000
# 2 -0.004702 0.028032 -0.006534 0.000000 0.000000 0.000000
# 3 -0.004351 -0.006534 0.010819 0.000000 0.000000 0.000000
# 4 0.000000 0.000000 0.000000 0.045382 0.000000 0.000000
# 5 0.000000 0.000000 0.000000 0.000000 0.050285 0.000000
# 6 0.000000 0.000000 0.000000 0.000000 0.000000 0.036756
#
#
# Mechanical properties :
#
#
# Convention : Reuss Voigt Hill
#
# Bulk Modulus (GPa) = 49.32957 68.22548 58.77753
# Shear Modulus (GPa) = 22.54307 24.93699 23.74003
#
# Velocity S-wave (km/s) = 3.38802 3.56338 3.47680
# Velocity P-wave (km/s) = 6.35791 7.18818 6.78575
#
# Compressibility (1/GPa) = 0.02027182
#
# Stress axis : x y z
#
# Youngs Moduli (GPa) = 79.40612 35.67309 92.43044
#
# Poissons Ratio (x) = 0.16773 0.40212
# Poissons Ratio (y) = 0.37335 0.60395
# Poissons Ratio (z) = 0.34546 0.23309
#
# Static dielectric constant tensor:
#      x y z
#    x 3.617720 0.000000 0.000000 
#    y 0.000000 1.844410 0.000000 
#    z 0.000000 0.000000 4.218320 
# 
# 
# High freq. dielectric constant tensor:
#      x y z
#    x 1.769050 0.000000 0.000000 
#    y 0.000000 1.759590 0.000000 
#    z 0.000000 0.000000 1.769020 
# 
# From -- ./inp_files/24403.got.cif
#   From: 2010.03.12/outbox.cif.g09.slc.cpg/sg59_13_cif.got.tgz:24403.got - 2010.04.16 16:29:54.
