data_PCOD8242601
_publ_section_title
;
Structure prediction by ZEFSAII (Michael W. Deem and Ramdas Pophale) SiO2 
 PCOD8242601
Probable space group: P M M N
;
_chemical_formula_sum "Si O2"
_cell_formula_units_Z 64
_cell_length_a 13.630952
_cell_length_b 9.467246
_cell_length_c 30.644648
_cell_angle_alpha 90.000000
_cell_angle_beta 90.000000
_cell_angle_gamma 90.000000
_cell_volume 3954.617536
_symmetry_space_group_name_H-M "P M M N"
_symmetry_group_IT_number 59
_space_group.IT_coordinate_system_code '2'
_symmetry_cell_setting 'orthorhombic'
loop_
_space_group_symop_operation_xyz
x,y,z
1/2-x,1/2-y,z
1/2+x,-y,-z
-x,1/2+y,-z
-x,-y,-z
1/2+x,1/2+y,-z
1/2-x,y,z
x,1/2-y,z
loop_
_atom_site_type_symbol
_atom_site_label
_atom_site_fract_x
_atom_site_fract_y
_atom_site_fract_z
Si Si1 0.974008 0.086714 0.957192
Si Si2 0.637246 0.585370 0.886175
Si Si3 0.449928 0.085397 0.562410
Si Si4 0.641641 0.905194 0.109847
Si Si5 0.640482 0.087657 0.512853
Si Si6 0.362924 0.915103 0.737268
Si Si7 0.535721 0.085486 0.175852
Si Si8 0.636755 0.587058 0.347193
O O1 0.942426 0.250000 0.966885
O O2 0.074933 0.080265 0.931920
O O3 0.890618 0.009259 0.928180
O O4 0.000000 0.000000 0.000000
O O5 0.750000 0.555450 0.873783
O O6 0.620542 0.750000 0.898171
O O7 0.571856 0.543123 0.843374
O O8 0.425907 0.250000 0.556968
O O9 0.563233 0.049450 0.551075
O O10 0.428770 0.037321 0.611814
O O11 0.377765 0.004115 0.530026
O O12 0.750000 0.931803 0.091983
O O13 0.629609 0.750000 0.131116
O O14 0.619412 0.018357 0.146492
O O15 0.750000 0.057092 0.530660
O O16 0.628033 0.250000 0.498882
O O17 0.250000 0.954027 0.750094
O O18 0.371456 0.750000 0.727515
O O19 0.441108 0.962446 0.774612
O O20 0.396814 0.996727 0.694206
O O21 0.552182 0.250000 0.172310
O O22 0.750000 0.559046 0.358915
O O23 0.618070 0.750000 0.335809
#
# Coordination Sequence:
#
# PCOD8242601 Si02
#       8
#     8   8   8   8   8   8   8   8
#     4  10  20  33  48  68  94 122 152 185 221 262
#     4   9  18  33  52  71  91 119 154 190 228 267
#     4   9  17  29  44  62  86 116 148 183 222 263
#     4   9  18  31  46  65  89 116 143 173 213 258
#     4   9  17  28  43  64  87 112 145 184 225 267
#     4   9  17  28  43  65  91 116 141 174 220 269
#     4   9  17  30  48  69  91 114 143 180 219 261
#     4   9  17  28  42  61  85 114 147 179 213 259
#
# _framework density 16.183612
#
# number of rings (size 3 to 8) (size 9 to 14) (size 15 to 20)
#    0.000    2.875    0.000    1.125    0.000    3.750 
#    0.000    3.750    0.000    0.750    0.000    0.000 
#    0.000    0.000    0.000    0.000    0.000    0.000 
#
# Total GULP energy -793268.801806 kJ/mol
# GULP energy per Si atom -12394.825028 kJ/mol
# Density = 1.614678 g / cm^3
# Si number density = 16.183612 Si / 1000 Ang^3
#
#
#
# Elastic Constant Matrix: (Units=GPa)
#
#
# Indices 1 2 3 4 5 6 
#
# 1 98.3190 36.5854 58.6603 0.0000 0.0000 0.0000
# 2 36.5854 48.6191 53.0201 0.0000 0.0000 0.0000
# 3 58.6603 53.0201 127.8825 0.0000 0.0000 0.0000
# 4 0.0000 0.0000 0.0000 29.8340 0.0000 0.0000
# 5 0.0000 0.0000 0.0000 0.0000 17.5336 0.0000
# 6 0.0000 0.0000 0.0000 0.0000 0.0000 19.7777
#
#
#
# Elastic Compliance Matrix: (Units=1/GPa)
#
#
# Indices 1 2 3 4 5 6 
#
# 1 0.015206 -0.007001 -0.004072 0.000000 0.000000 0.000000
# 2 -0.007001 0.040766 -0.013690 0.000000 0.000000 0.000000
# 3 -0.004072 -0.013690 0.015363 0.000000 0.000000 0.000000
# 4 0.000000 0.000000 0.000000 0.033519 0.000000 0.000000
# 5 0.000000 0.000000 0.000000 0.000000 0.057033 0.000000
# 6 0.000000 0.000000 0.000000 0.000000 0.000000 0.050562
#
#
# Mechanical properties :
#
#
# Convention : Reuss Voigt Hill
#
# Bulk Modulus (GPa) = 45.85484 63.48357 54.66920
# Shear Modulus (GPa) = 18.57041 21.86603 20.21822
#
# Velocity S-wave (km/s) = 3.39113 3.67975 3.53838
# Velocity P-wave (km/s) = 6.61276 7.57405 7.10967
#
# Compressibility (1/GPa) = 0.02180795
#
# Stress axis : x y z
#
# Youngs Moduli (GPa) = 65.76402 24.53047 65.08973
#
# Poissons Ratio (x) = 0.17175 0.26506
# Poissons Ratio (y) = 0.46045 0.89107
# Poissons Ratio (z) = 0.26780 0.33582
#
# Static dielectric constant tensor:
#      x y z
#    x 3.213160 0.000000 0.000000 
#    y 0.000000 3.195860 0.000000 
#    z 0.000000 0.000000 3.039890 
# 
# 
# High freq. dielectric constant tensor:
#      x y z
#    x 1.613660 0.000000 0.000000 
#    y 0.000000 1.627100 0.000000 
#    z 0.000000 0.000000 1.609810 
# 
# From -- ./inp_files/33338.got.cif
#   From: 2010.03.12/outbox.cif.g09.slc.cpg/sg59_17_cif.got.tgz:33338.got - 2010.04.16 16:29:54.
