data_PCOD8242767
_publ_section_title
;
Structure prediction by ZEFSAII (Michael W. Deem and Ramdas Pophale) SiO2 
 PCOD8242767
Probable space group: P M M N
;
_chemical_formula_sum "Si O2"
_cell_formula_units_Z 64
_cell_length_a 19.662586
_cell_length_b 9.116660
_cell_length_c 20.057955
_cell_angle_alpha 90.000000
_cell_angle_beta 90.000000
_cell_angle_gamma 90.000000
_cell_volume 3595.531072
_symmetry_space_group_name_H-M "P M M N"
_symmetry_group_IT_number 59
_space_group.IT_coordinate_system_code '2'
_symmetry_cell_setting 'orthorhombic'
loop_
_space_group_symop_operation_xyz
x,y,z
1/2-x,1/2-y,z
1/2+x,-y,-z
-x,1/2+y,-z
-x,-y,-z
1/2+x,1/2+y,-z
1/2-x,y,z
x,1/2-y,z
loop_
_atom_site_type_symbol
_atom_site_label
_atom_site_fract_x
_atom_site_fract_y
_atom_site_fract_z
Si Si1 0.829236 0.920886 0.677639
Si Si2 0.418368 0.578861 0.432284
Si Si3 0.071205 0.578078 0.925667
Si Si4 0.564826 0.421177 0.922205
Si Si5 0.329816 0.083476 0.831366
Si Si6 0.924922 0.578778 0.431605
Si Si7 0.827833 0.080051 0.812241
Si Si8 0.174651 0.424266 0.682776
O O1 0.750000 0.950502 0.663830
O O2 0.846890 0.750000 0.676504
O O3 0.871576 0.001549 0.621391
O O4 0.850758 0.984988 0.749055
O O5 0.401134 0.750000 0.434039
O O6 0.401778 0.511130 0.504037
O O7 0.496749 0.549741 0.413339
O O8 0.064769 0.750000 0.916204
O O9 0.134702 0.521105 0.884138
O O10 0.002166 0.506036 0.898280
O O11 0.084068 0.534156 0.002529
O O12 0.548933 0.250000 0.916580
O O13 0.627132 0.467937 0.875186
O O14 0.250000 0.075241 0.844494
O O15 0.356004 0.250000 0.840475
O O16 0.346822 0.024843 0.756906
O O17 0.911542 0.750000 0.445696
O O18 0.880055 0.517754 0.370394
O O19 0.750000 0.047726 0.831806
O O20 0.838746 0.250000 0.793884
O O21 0.250000 0.484964 0.664645
O O22 0.177003 0.250000 0.682545
#
# Coordination Sequence:
#
# PCOD8242767 Si02
#       8
#     8   8   8   8   8   8   8   8
#     4  10  21  36  53  74 101 132 166 207 254 303
#     4  10  20  33  50  74 104 135 167 205 248 297
#     4  10  20  33  51  76 104 134 170 212 253 295
#     4   9  19  35  53  73 101 136 170 206 251 303
#     4   9  18  33  52  74 101 133 168 207 254 307
#     4   9  18  33  52  74 100 131 168 208 249 293
#     4   9  18  34  55  76  98 128 168 211 254 303
#     4   8  15  30  52  74  95 124 165 207 243 288
#
# _framework density 17.799875
#
# number of rings (size 3 to 8) (size 9 to 14) (size 15 to 20)
#    0.000    2.750    0.000    1.875    0.000    4.500 
#    0.000    5.625    0.000    2.250    0.000    0.000 
#    0.000    0.000    0.000    0.000    0.000    0.000 
#
# Total GULP energy -793672.335935 kJ/mol
# GULP energy per Si atom -12401.130249 kJ/mol
# Density = 1.775936 g / cm^3
# Si number density = 17.799875 Si / 1000 Ang^3
#
#
#
# Elastic Constant Matrix: (Units=GPa)
#
#
# Indices 1 2 3 4 5 6 
#
# 1 87.8077 46.5582 80.0348 0.0000 0.0000 0.0000
# 2 46.5582 68.0948 57.2118 0.0000 0.0000 0.0000
# 3 80.0348 57.2118 128.0728 0.0000 0.0000 0.0000
# 4 0.0000 0.0000 0.0000 31.4913 0.0000 0.0000
# 5 0.0000 0.0000 0.0000 0.0000 36.6685 0.0000
# 6 0.0000 0.0000 0.0000 0.0000 0.0000 27.3715
#
#
#
# Elastic Compliance Matrix: (Units=1/GPa)
#
#
# Indices 1 2 3 4 5 6 
#
# 1 0.028533 -0.007248 -0.014593 0.000000 0.000000 0.000000
# 2 -0.007248 0.025350 -0.006795 0.000000 0.000000 0.000000
# 3 -0.014593 -0.006795 0.019963 0.000000 0.000000 0.000000
# 4 0.000000 0.000000 0.000000 0.031755 0.000000 0.000000
# 5 0.000000 0.000000 0.000000 0.000000 0.027271 0.000000
# 6 0.000000 0.000000 0.000000 0.000000 0.000000 0.036534
#
#
# Mechanical properties :
#
#
# Convention : Reuss Voigt Hill
#
# Bulk Modulus (GPa) = 60.33494 72.39832 66.36663
# Shear Modulus (GPa) = 21.53308 25.78429 23.65869
#
# Velocity S-wave (km/s) = 3.48189 3.81013 3.64970
# Velocity P-wave (km/s) = 7.08058 7.75358 7.42471
#
# Compressibility (1/GPa) = 0.01657414
#
# Stress axis : x y z
#
# Youngs Moduli (GPa) = 35.04774 39.44799 50.09384
#
# Poissons Ratio (x) = 0.28592 0.73100
# Poissons Ratio (y) = 0.25403 0.34037
# Poissons Ratio (z) = 0.51144 0.26804
#
# Static dielectric constant tensor:
#      x y z
#    x 3.360720 0.000000 0.000000 
#    y 0.000000 3.222080 0.000000 
#    z 0.000000 0.000000 3.431530 
# 
# 
# High freq. dielectric constant tensor:
#      x y z
#    x 1.689040 0.000000 0.000000 
#    y 0.000000 1.678440 0.000000 
#    z 0.000000 0.000000 1.692800 
# 
# From -- ./inp_files/28225.got.cif
#   From: 2010.03.12/outbox.cif.g09.slc.cpg/sg59_15_cif.got.tgz:28225.got - 2010.04.16 16:29:54.
