data_PCOD8242458
_publ_section_title
;
Structure prediction by ZEFSAII (Michael W. Deem and Ramdas Pophale) SiO2 
 PCOD8242458
Probable space group: P M M N
;
_chemical_formula_sum "Si O2"
_cell_formula_units_Z 48
_cell_length_a 9.038188
_cell_length_b 24.741260
_cell_length_c 12.423140
_cell_angle_alpha 90.000000
_cell_angle_beta 90.000000
_cell_angle_gamma 90.000000
_cell_volume 2778.014852
_symmetry_space_group_name_H-M "P M M N"
_symmetry_group_IT_number 59
_space_group.IT_coordinate_system_code '2'
_symmetry_cell_setting 'orthorhombic'
loop_
_space_group_symop_operation_xyz
x,y,z
1/2-x,1/2-y,z
1/2+x,-y,-z
-x,1/2+y,-z
-x,-y,-z
1/2+x,1/2+y,-z
1/2-x,y,z
x,1/2-y,z
loop_
_atom_site_type_symbol
_atom_site_label
_atom_site_fract_x
_atom_site_fract_y
_atom_site_fract_z
Si Si1 0.082415 0.885667 0.878494
Si Si2 0.078783 0.005092 0.887162
Si Si3 0.422587 0.890902 0.131517
Si Si4 0.922353 0.812426 0.715888
Si Si5 0.579238 0.813825 0.289572
Si Si6 0.916904 0.314252 0.497379
O O1 0.250000 0.865686 0.858626
O O2 0.970018 0.845657 0.820438
O O3 0.062806 0.946478 0.830253
O O4 0.046192 0.884478 0.005008
O O5 0.250000 0.019872 0.904340
O O6 0.998504 0.053831 0.823192
O O7 0.000000 0.000000 0.000000
O O8 0.250000 0.893591 0.157901
O O9 0.494548 0.839815 0.189531
O O10 0.750000 0.820357 0.694461
O O11 0.961755 0.750000 0.737036
O O12 0.007885 0.835526 0.611884
O O13 0.750000 0.830871 0.288207
O O14 0.559115 0.750000 0.278511
O O15 0.508279 0.835781 0.400361
O O16 0.750000 0.336683 0.503629
O O17 0.919450 0.250000 0.497316
#
# Coordination Sequence:
#
# PCOD8242458 Si02
#       6
#     8   8   8   8   8   8
#     4   9  19  33  49  71  98 129 163 199 240 287
#     4   9  17  31  50  71  95 125 164 205 243 287
#     4  10  20  33  50  73 100 131 166 202 243 291
#     4  10  20  32  48  72 100 129 162 200 241 286
#     4  10  20  33  50  73 101 131 163 201 244 289
#     4   9  17  31  51  71  93 125 164 202 239 284
#
# _framework density 17.278524999999998
#
# number of rings (size 3 to 8) (size 9 to 14) (size 15 to 20)
#    0.000    2.500    0.000    3.500    0.000    8.667 
#    0.000    3.333    0.000    1.000    0.000    0.000 
#    0.000    0.000    0.000    0.000    0.000    0.000 
#
# Total GULP energy -595116.664367 kJ/mol
# GULP energy per Si atom -12398.263841 kJ/mol
# Density = 1.723920 g / cm^3
# Si number density = 17.278525 Si / 1000 Ang^3
#
#
#
# Elastic Constant Matrix: (Units=GPa)
#
#
# Indices 1 2 3 4 5 6 
#
# 1 137.5025 53.5394 53.6296 0.0000 0.0000 0.0000
# 2 53.5394 63.8241 41.0761 0.0000 0.0000 0.0000
# 3 53.6296 41.0761 75.8927 0.0000 0.0000 0.0000
# 4 0.0000 0.0000 0.0000 4.0717 0.0000 0.0000
# 5 0.0000 0.0000 0.0000 0.0000 34.0277 0.0000
# 6 0.0000 0.0000 0.0000 0.0000 0.0000 31.4417
#
#
#
# Elastic Compliance Matrix: (Units=1/GPa)
#
#
# Indices 1 2 3 4 5 6 
#
# 1 0.011743 -0.006921 -0.004552 0.000000 0.000000 0.000000
# 2 -0.006921 0.028122 -0.010330 0.000000 0.000000 0.000000
# 3 -0.004552 -0.010330 0.021984 0.000000 0.000000 0.000000
# 4 0.000000 0.000000 0.000000 0.245600 0.000000 0.000000
# 5 0.000000 0.000000 0.000000 0.000000 0.029388 0.000000
# 6 0.000000 0.000000 0.000000 0.000000 0.000000 0.031805
#
#
# Mechanical properties :
#
#
# Convention : Reuss Voigt Hill
#
# Bulk Modulus (GPa) = 54.81609 63.74549 59.28079
# Shear Modulus (GPa) = 11.95230 22.50651 17.22941
#
# Velocity S-wave (km/s) = 2.63295 3.61303 3.16121
# Velocity P-wave (km/s) = 6.40602 7.37417 6.90708
#
# Compressibility (1/GPa) = 0.01824282
#
# Stress axis : x y z
#
# Youngs Moduli (GPa) = 85.15809 35.55946 45.48679
#
# Poissons Ratio (x) = 0.24610 0.20707
# Poissons Ratio (y) = 0.58936 0.46988
# Poissons Ratio (z) = 0.38766 0.36733
#
# Static dielectric constant tensor:
#      x y z
#    x 3.468790 0.000000 0.000000 
#    y 0.000000 3.244050 0.000000 
#    z 0.000000 0.000000 3.050470 
# 
# 
# High freq. dielectric constant tensor:
#      x y z
#    x 1.687000 0.000000 0.000000 
#    y 0.000000 1.649680 0.000000 
#    z 0.000000 0.000000 1.645550 
# 
# From -- ./inp_files/14291.got.cif
#   From: 2010.03.12/outbox.cif.g09.slc.cpg/sg59_8_cif.got.tgz:14291.got - 2010.04.16 16:29:54.
