data_PCOD8242455
_publ_section_title
;
Structure prediction by ZEFSAII (Michael W. Deem and Ramdas Pophale) SiO2 
 PCOD8242455
Probable space group: P M M N
;
_chemical_formula_sum "Si O2"
_cell_formula_units_Z 48
_cell_length_a 7.816295
_cell_length_b 30.619120
_cell_length_c 11.352098
_cell_angle_alpha 90.000000
_cell_angle_beta 90.000000
_cell_angle_gamma 90.000000
_cell_volume 2716.875757
_symmetry_space_group_name_H-M "P M M N"
_symmetry_group_IT_number 59
_space_group.IT_coordinate_system_code '2'
_symmetry_cell_setting 'orthorhombic'
loop_
_space_group_symop_operation_xyz
x,y,z
1/2-x,1/2-y,z
1/2+x,-y,-z
-x,1/2+y,-z
-x,-y,-z
1/2+x,1/2+y,-z
1/2-x,y,z
x,1/2-y,z
loop_
_atom_site_type_symbol
_atom_site_label
_atom_site_fract_x
_atom_site_fract_y
_atom_site_fract_z
Si Si1 0.058848 0.956251 0.435300
Si Si2 0.555015 0.525962 0.180461
Si Si3 0.557004 0.356267 0.199092
Si Si4 0.949377 0.364515 0.475023
Si Si5 0.750000 0.702380 0.795423
Si Si6 0.549985 0.059560 0.051955
Si Si7 0.750000 0.700155 0.516517
O O1 0.250000 0.949807 0.477501
O O2 0.972825 0.910449 0.475510
O O3 0.049919 0.960519 0.294994
O O4 0.000000 0.000000 0.500000
O O5 0.750000 0.520664 0.221409
O O6 0.478142 0.481024 0.128149
O O7 0.537824 0.562011 0.076880
O O8 0.750000 0.340438 0.170928
O O9 0.538328 0.368578 0.334952
O O10 0.423935 0.319630 0.159251
O O11 0.503792 0.397629 0.122810
O O12 0.750000 0.354968 0.513014
O O13 0.076093 0.325886 0.521914
O O14 0.750000 0.750000 0.851858
O O15 0.750000 0.703889 0.655719
O O16 0.750000 0.053096 0.032540
O O17 0.750000 0.750000 0.463621
#
# Coordination Sequence:
#
# PCOD8242455 Si02
#       7
#     8   8   8   8   4   8   4
#     4  11  22  34  49  71 102 139 172 207 253 301
#     4  10  20  32  48  71  98 130 168 207 245 288
#     4   9  17  31  50  70  98 133 163 200 249 296
#     4   9  19  33  49  74 105 134 169 210 253 309
#     4   9  18  30  46  75 103 125 165 204 247 310
#     4   9  18  33  48  68  98 129 168 205 240 292
#     4   9  18  32  52  75 101 135 171 214 260 304
#
# _framework density 17.667351
#
# number of rings (size 3 to 8) (size 9 to 14) (size 15 to 20)
#    0.000    2.500    0.000    2.000    3.500    4.000 
#    3.000    3.333    0.000    0.000    0.000    2.333 
#    0.000    5.333    0.000    0.000    0.000    0.000 
#
# Total GULP energy -594887.564160 kJ/mol
# GULP energy per Si atom -12393.490920 kJ/mol
# Density = 1.762714 g / cm^3
# Si number density = 17.667351 Si / 1000 Ang^3
#
#
#
# Elastic Constant Matrix: (Units=GPa)
#
#
# Indices 1 2 3 4 5 6 
#
# 1 81.1294 60.3367 21.3854 0.0000 0.0000 0.0000
# 2 60.3367 144.7011 42.5941 0.0000 0.0000 0.0000
# 3 21.3854 42.5941 65.3961 0.0000 0.0000 0.0000
# 4 0.0000 0.0000 0.0000 19.3863 0.0000 0.0000
# 5 0.0000 0.0000 0.0000 0.0000 19.5046 0.0000
# 6 0.0000 0.0000 0.0000 0.0000 0.0000 27.7693
#
#
#
# Elastic Compliance Matrix: (Units=1/GPa)
#
#
# Indices 1 2 3 4 5 6 
#
# 1 0.017946 -0.007121 -0.001231 0.000000 0.000000 0.000000
# 2 -0.007121 0.011376 -0.005081 0.000000 0.000000 0.000000
# 3 -0.001231 -0.005081 0.019003 0.000000 0.000000 0.000000
# 4 0.000000 0.000000 0.000000 0.051583 0.000000 0.000000
# 5 0.000000 0.000000 0.000000 0.000000 0.051270 0.000000
# 6 0.000000 0.000000 0.000000 0.000000 0.000000 0.036011
#
#
# Mechanical properties :
#
#
# Convention : Reuss Voigt Hill
#
# Bulk Modulus (GPa) = 46.59707 59.98433 53.29070
# Shear Modulus (GPa) = 22.60332 24.45938 23.53135
#
# Velocity S-wave (km/s) = 3.58073 3.72484 3.65350
# Velocity P-wave (km/s) = 6.59753 7.24742 6.93010
#
# Compressibility (1/GPa) = 0.02146058
#
# Stress axis : x y z
#
# Youngs Moduli (GPa) = 55.72196 87.90804 52.62340
#
# Poissons Ratio (x) = 0.62598 0.06476
# Poissons Ratio (y) = 0.39679 0.26736
# Poissons Ratio (z) = 0.06857 0.44662
#
# Static dielectric constant tensor:
#      x y z
#    x 3.473890 0.000000 0.000000 
#    y 0.000000 3.537700 0.000000 
#    z 0.000000 0.000000 3.054620 
# 
# 
# High freq. dielectric constant tensor:
#      x y z
#    x 1.694080 0.000000 0.000000 
#    y 0.000000 1.669710 0.000000 
#    z 0.000000 0.000000 1.653300 
# 
# From -- ./inp_files/6418.got.cif
#   From: 2010.03.12/outbox.cif.g09.slc.cpg/sg59_4_cif.got.tgz:6418.got - 2010.04.16 16:29:54.
