data_PCOD8242276
_publ_section_title
;
Structure prediction by ZEFSAII (Michael W. Deem and Ramdas Pophale) SiO2 
 PCOD8242276
Probable space group: P M M N
;
_chemical_formula_sum "Si O2"
_cell_formula_units_Z 64
_cell_length_a 18.428436
_cell_length_b 9.216303
_cell_length_c 25.996035
_cell_angle_alpha 90.000000
_cell_angle_beta 90.000000
_cell_angle_gamma 90.000000
_cell_volume 4415.219876
_symmetry_space_group_name_H-M "P M M N"
_symmetry_group_IT_number 59
_space_group.IT_coordinate_system_code '2'
_symmetry_cell_setting 'orthorhombic'
loop_
_space_group_symop_operation_xyz
x,y,z
1/2-x,1/2-y,z
1/2+x,-y,-z
-x,1/2+y,-z
-x,-y,-z
1/2+x,1/2+y,-z
1/2-x,y,z
x,1/2-y,z
loop_
_atom_site_type_symbol
_atom_site_label
_atom_site_fract_x
_atom_site_fract_y
_atom_site_fract_z
Si Si1 0.957572 0.419045 0.544550
Si Si2 0.904581 0.582372 0.398757
Si Si3 0.166867 0.080878 0.005773
Si Si4 0.833676 0.579347 0.503622
Si Si5 0.666432 0.079955 0.194044
Si Si6 0.834643 0.918094 0.296304
Si Si7 0.541879 0.083163 0.955960
Si Si8 0.595731 0.585181 0.102853
O O1 0.948181 0.250000 0.531353
O O2 0.878683 0.495469 0.548628
O O3 0.000000 0.500000 0.500000
O O4 0.008063 0.439047 0.595333
O O5 0.883054 0.750000 0.396063
O O6 0.860751 0.519589 0.448054
O O7 0.877655 0.513320 0.345155
O O8 0.250000 0.033046 0.010969
O O9 0.155900 0.250000 0.016874
O O10 0.120928 0.992149 0.048909
O O11 0.139039 0.041470 0.948744
O O12 0.750000 0.540652 0.511225
O O13 0.848887 0.750000 0.508982
O O14 0.750000 0.039507 0.183009
O O15 0.654812 0.250000 0.199616
O O16 0.639575 0.005778 0.246457
O O17 0.617866 0.023061 0.147599
O O18 0.750000 0.940594 0.307250
O O19 0.853744 0.750000 0.286925
O O20 0.552211 0.250000 0.971818
O O21 0.491602 0.070855 0.905086
O O22 0.500000 0.000000 0.000000
O O23 0.616096 0.750000 0.118225
#
# Coordination Sequence:
#
# PCOD8242276 Si02
#       8
#     8   8   8   8   8   8   8   8
#     4   9  16  26  39  56  79 104 132 165 198 234
#     4   8  14  25  41  58  75 101 136 167 194 228
#     4   9  17  28  42  61  84 108 135 166 197 232
#     4   9  16  26  40  58  81 107 135 166 197 232
#     4  10  20  30  39  56  81 104 129 165 204 236
#     4   9  16  27  43  58  73  99 134 166 195 230
#     4   9  17  28  41  58  80 105 134 167 200 234
#     4   9  17  29  43  57  76 106 140 167 192 227
#
# _framework density 14.495314
#
# number of rings (size 3 to 8) (size 9 to 14) (size 15 to 20)
#    0.000    3.000    0.000    3.375    0.000    5.750 
#    0.000    3.125    0.000    3.000    0.000    0.000 
#    0.000    1.000    0.000    9.500    0.000    5.500 
#
# Total GULP energy -793134.204421 kJ/mol
# GULP energy per Si atom -12392.721944 kJ/mol
# Density = 1.446232 g / cm^3
# Si number density = 14.495314 Si / 1000 Ang^3
#
#
#
# Elastic Constant Matrix: (Units=GPa)
#
#
# Indices 1 2 3 4 5 6 
#
# 1 109.0803 47.4063 43.3222 0.0000 0.0000 0.0000
# 2 47.4063 65.3471 35.2462 0.0000 0.0000 0.0000
# 3 43.3222 35.2462 62.3275 0.0000 0.0000 0.0000
# 4 0.0000 0.0000 0.0000 16.9815 0.0000 0.0000
# 5 0.0000 0.0000 0.0000 0.0000 21.9866 0.0000
# 6 0.0000 0.0000 0.0000 0.0000 0.0000 26.5837
#
#
#
# Elastic Compliance Matrix: (Units=1/GPa)
#
#
# Indices 1 2 3 4 5 6 
#
# 1 0.014834 -0.007482 -0.006079 0.000000 0.000000 0.000000
# 2 -0.007482 0.025793 -0.009385 0.000000 0.000000 0.000000
# 3 -0.006079 -0.009385 0.025577 0.000000 0.000000 0.000000
# 4 0.000000 0.000000 0.000000 0.058888 0.000000 0.000000
# 5 0.000000 0.000000 0.000000 0.000000 0.045482 0.000000
# 6 0.000000 0.000000 0.000000 0.000000 0.000000 0.037617
#
#
# Mechanical properties :
#
#
# Convention : Reuss Voigt Hill
#
# Bulk Modulus (GPa) = 49.23595 54.30047 51.76821
# Shear Modulus (GPa) = 19.16776 20.49572 19.83174
#
# Velocity S-wave (km/s) = 3.64035 3.76434 3.70286
# Velocity P-wave (km/s) = 7.19097 7.51237 7.35343
#
# Compressibility (1/GPa) = 0.02031036
#
# Stress axis : x y z
#
# Youngs Moduli (GPa) = 67.41357 38.77020 39.09718
#
# Poissons Ratio (x) = 0.29009 0.23769
# Poissons Ratio (y) = 0.50440 0.36694
# Poissons Ratio (z) = 0.40984 0.36387
#
# Static dielectric constant tensor:
#      x y z
#    x 3.259340 0.000000 0.000000 
#    y 0.000000 2.874340 0.000000 
#    z 0.000000 0.000000 2.711210 
# 
# 
# High freq. dielectric constant tensor:
#      x y z
#    x 1.548910 0.000000 0.000000 
#    y 0.000000 1.553520 0.000000 
#    z 0.000000 0.000000 1.515110 
# 
# From -- ./inp_files/32315.got.cif
#   From: 2010.03.12/outbox.cif.g09.slc.cpg/sg59_17_cif.got.tgz:32315.got - 2010.04.16 16:29:54.
