data_PCOD8242115
_publ_section_title
;
Structure prediction by ZEFSAII (Michael W. Deem and Ramdas Pophale) SiO2 
 PCOD8242115
Probable space group: P M M N
;
_chemical_formula_sum "Si O2"
_cell_formula_units_Z 48
_cell_length_a 17.349693
_cell_length_b 15.009184
_cell_length_c 10.047367
_cell_angle_alpha 90.000000
_cell_angle_beta 90.000000
_cell_angle_gamma 90.000000
_cell_volume 2616.381937
_symmetry_space_group_name_H-M "P M M N"
_symmetry_group_IT_number 59
_space_group.IT_coordinate_system_code '2'
_symmetry_cell_setting 'orthorhombic'
loop_
_space_group_symop_operation_xyz
x,y,z
1/2-x,1/2-y,z
1/2+x,-y,-z
-x,1/2+y,-z
-x,-y,-z
1/2+x,1/2+y,-z
1/2-x,y,z
x,1/2-y,z
loop_
_atom_site_type_symbol
_atom_site_label
_atom_site_fract_x
_atom_site_fract_y
_atom_site_fract_z
Si Si1 0.955659 0.353218 0.850905
Si Si2 0.662045 0.003670 0.478267
Si Si3 0.449768 0.650080 0.627954
Si Si4 0.044680 0.353399 0.119681
Si Si5 0.340004 0.002171 0.208031
Si Si6 0.564486 0.849673 0.390957
O O1 0.930074 0.250000 0.847200
O O2 0.878602 0.412464 0.850228
O O3 0.005672 0.379981 0.722951
O O4 0.008036 0.374966 0.977548
O O5 0.750000 0.020914 0.445034
O O6 0.647384 0.992413 0.634378
O O7 0.636678 0.915579 0.398089
O O8 0.618023 0.088213 0.421673
O O9 0.416234 0.750000 0.631150
O O10 0.479663 0.620476 0.772659
O O11 0.522429 0.643815 0.531452
O O12 0.068670 0.250000 0.133544
O O13 0.121342 0.411752 0.139648
O O14 0.250000 0.000915 0.170195
O O15 0.595279 0.750000 0.362786
#
# Coordination Sequence:
#
# PCOD8242115 Si02
#       6
#     8   8   8   8   8   8
#     4  10  21  38  59  82 108 143 186 227 266 317
#     4  11  22  34  53  83 116 143 175 228 280 321
#     4  10  19  35  58  79 104 142 185 223 263 318
#     4  10  21  38  59  82 108 143 186 227 266 317
#     4  11  22  35  55  84 114 143 177 222 276 329
#     4  10  19  35  58  79 104 142 185 223 263 318
#
# _framework density 18.345945
#
# number of rings (size 3 to 8) (size 9 to 14) (size 15 to 20)
#    0.000    1.667    3.333    2.000    0.000    1.333 
#    0.000    6.667    0.000    6.000    0.000    0.000 
#    0.000    0.000    0.000    0.000    0.000    0.000 
#
# Total GULP energy -595328.161200 kJ/mol
# GULP energy per Si atom -12402.670025 kJ/mol
# Density = 1.830419 g / cm^3
# Si number density = 18.345945 Si / 1000 Ang^3
#
#
#
# Elastic Constant Matrix: (Units=GPa)
#
#
# Indices 1 2 3 4 5 6 
#
# 1 109.1121 70.9135 31.0733 0.0000 0.0000 0.0000
# 2 70.9135 106.8659 29.8736 0.0000 0.0000 0.0000
# 3 31.0733 29.8736 58.6982 0.0000 0.0000 0.0000
# 4 0.0000 0.0000 0.0000 24.7752 0.0000 0.0000
# 5 0.0000 0.0000 0.0000 0.0000 24.0198 0.0000
# 6 0.0000 0.0000 0.0000 0.0000 0.0000 11.8440
#
#
#
# Elastic Compliance Matrix: (Units=1/GPa)
#
#
# Indices 1 2 3 4 5 6 
#
# 1 0.016795 -0.010096 -0.003753 0.000000 0.000000 0.000000
# 2 -0.010096 0.016978 -0.003296 0.000000 0.000000 0.000000
# 3 -0.003753 -0.003296 0.020701 0.000000 0.000000 0.000000
# 4 0.000000 0.000000 0.000000 0.040363 0.000000 0.000000
# 5 0.000000 0.000000 0.000000 0.000000 0.041632 0.000000
# 6 0.000000 0.000000 0.000000 0.000000 0.000000 0.084431
#
#
# Mechanical properties :
#
#
# Convention : Reuss Voigt Hill
#
# Bulk Modulus (GPa) = 49.54413 59.82189 54.68301
# Shear Modulus (GPa) = 19.08995 21.64883 20.36939
#
# Velocity S-wave (km/s) = 3.22926 3.43889 3.33572
# Velocity P-wave (km/s) = 6.40065 6.96035 6.68636
#
# Compressibility (1/GPa) = 0.02018403
#
# Stress axis : x y z
#
# Youngs Moduli (GPa) = 59.54200 58.89904 48.30781
#
# Poissons Ratio (x) = 0.59462 0.18129
# Poissons Ratio (y) = 0.60111 0.15925
# Poissons Ratio (z) = 0.22345 0.19416
#
# Static dielectric constant tensor:
#      x y z
#    x 3.120790 0.000000 0.000000 
#    y 0.000000 3.618920 0.000000 
#    z 0.000000 0.000000 3.490180 
# 
# 
# High freq. dielectric constant tensor:
#      x y z
#    x 1.688070 0.000000 0.000000 
#    y 0.000000 1.728100 0.000000 
#    z 0.000000 0.000000 1.716540 
# 
# From -- ./inp_files/9006.got.cif
#   From: 2010.03.12/outbox.cif.g09.slc.cpg/sg59_5_cif.got.tgz:9006.got - 2010.04.16 16:29:54.
