data_PCOD8242625
_publ_section_title
;
Structure prediction by ZEFSAII (Michael W. Deem and Ramdas Pophale) SiO2 
 PCOD8242625
Probable space group: P M M N
;
_chemical_formula_sum "Si O2"
_cell_formula_units_Z 64
_cell_length_a 19.353007
_cell_length_b 9.202679
_cell_length_c 20.227096
_cell_angle_alpha 90.000000
_cell_angle_beta 90.000000
_cell_angle_gamma 90.000000
_cell_volume 3602.435909
_symmetry_space_group_name_H-M "P M M N"
_symmetry_group_IT_number 59
_space_group.IT_coordinate_system_code '2'
_symmetry_cell_setting 'orthorhombic'
loop_
_space_group_symop_operation_xyz
x,y,z
1/2-x,1/2-y,z
1/2+x,-y,-z
-x,1/2+y,-z
-x,-y,-z
1/2+x,1/2+y,-z
1/2-x,y,z
x,1/2-y,z
loop_
_atom_site_type_symbol
_atom_site_label
_atom_site_fract_x
_atom_site_fract_y
_atom_site_fract_z
Si Si1 0.567488 0.580600 0.613406
Si Si2 0.827028 0.922315 0.504272
Si Si3 0.428597 0.080611 0.608608
Si Si4 0.578709 0.920405 0.239795
Si Si5 0.832144 0.911699 0.013345
Si Si6 0.561261 0.579486 0.764381
Si Si7 0.832017 0.085337 0.138670
Si Si8 0.173306 0.422814 0.132052
O O1 0.553962 0.750000 0.602144
O O2 0.631982 0.525735 0.569662
O O3 0.498851 0.500066 0.589218
O O4 0.584637 0.545460 0.689578
O O5 0.750000 0.991008 0.504876
O O6 0.821128 0.750000 0.503665
O O7 0.867393 0.975822 0.438835
O O8 0.442704 0.250000 0.597893
O O9 0.406502 0.045927 0.683476
O O10 0.575356 0.750000 0.225335
O O11 0.507360 0.992580 0.216783
O O12 0.641071 0.990903 0.199593
O O13 0.750000 0.903908 0.015496
O O14 0.862438 0.750000 0.026071
O O15 0.860590 0.019355 0.069722
O O16 0.854047 0.970699 0.940703
O O17 0.547140 0.750000 0.774840
O O18 0.621443 0.519546 0.811992
O O19 0.750000 0.078502 0.140953
O O20 0.859089 0.250000 0.144218
O O21 0.250000 0.486959 0.145948
O O22 0.177429 0.250000 0.133798
#
# Coordination Sequence:
#
# PCOD8242625 Si02
#       8
#     8   8   8   8   8   8   8   8
#     4   9  17  29  48  71  94 124 157 190 230 277
#     4   9  17  29  46  71  99 122 151 194 237 274
#     4   9  18  32  50  68  89 124 163 196 229 271
#     4  10  20  33  49  69  93 124 163 200 234 278
#     4   8  14  27  47  69  93 122 156 191 227 274
#     4   9  17  30  48  71  99 127 156 193 236 279
#     4  10  20  33  50  72  96 121 151 192 241 287
#     4   8  14  26  47  73  97 123 157 195 233 276
#
# _framework density 17.765757000000001
#
# number of rings (size 3 to 8) (size 9 to 14) (size 15 to 20)
#    0.000    3.000    0.000    1.875    0.000    2.250 
#    0.000    5.000    0.000    2.625    0.000    3.500 
#    0.000    0.000    0.000    0.000    0.000    0.000 
#
# Total GULP energy -793454.231332 kJ/mol
# GULP energy per Si atom -12397.722365 kJ/mol
# Density = 1.772532 g / cm^3
# Si number density = 17.765757 Si / 1000 Ang^3
#
#
#
# Elastic Constant Matrix: (Units=GPa)
#
#
# Indices 1 2 3 4 5 6 
#
# 1 94.5146 34.7507 66.2855 0.0000 0.0000 0.0000
# 2 34.7507 54.5085 38.2405 0.0000 0.0000 0.0000
# 3 66.2855 38.2405 117.5379 0.0000 0.0000 0.0000
# 4 0.0000 0.0000 0.0000 18.6069 0.0000 0.0000
# 5 0.0000 0.0000 0.0000 0.0000 28.0186 0.0000
# 6 0.0000 0.0000 0.0000 0.0000 0.0000 20.9217
#
#
#
# Elastic Compliance Matrix: (Units=1/GPa)
#
#
# Indices 1 2 3 4 5 6 
#
# 1 0.018868 -0.005914 -0.008716 0.000000 0.000000 0.000000
# 2 -0.005914 0.025625 -0.005002 0.000000 0.000000 0.000000
# 3 -0.008716 -0.005002 0.015051 0.000000 0.000000 0.000000
# 4 0.000000 0.000000 0.000000 0.053743 0.000000 0.000000
# 5 0.000000 0.000000 0.000000 0.000000 0.035691 0.000000
# 6 0.000000 0.000000 0.000000 0.000000 0.000000 0.047797
#
#
# Mechanical properties :
#
#
# Convention : Reuss Voigt Hill
#
# Bulk Modulus (GPa) = 49.31099 60.56828 54.93963
# Shear Modulus (GPa) = 20.59315 21.99508 21.29411
#
# Velocity S-wave (km/s) = 3.40832 3.52243 3.46584
# Velocity P-wave (km/s) = 6.58068 7.12110 6.85621
#
# Compressibility (1/GPa) = 0.02027945
#
# Stress axis : x y z
#
# Youngs Moduli (GPa) = 53.00042 39.02427 66.44105
#
# Poissons Ratio (x) = 0.23078 0.57913
# Poissons Ratio (y) = 0.31343 0.33234
# Poissons Ratio (z) = 0.46198 0.19520
#
# Static dielectric constant tensor:
#      x y z
#    x 3.296040 0.000000 0.000000 
#    y 0.000000 3.137920 0.000000 
#    z 0.000000 0.000000 3.561880 
# 
# 
# High freq. dielectric constant tensor:
#      x y z
#    x 1.670120 0.000000 0.000000 
#    y 0.000000 1.660440 0.000000 
#    z 0.000000 0.000000 1.700010 
# 
# From -- ./inp_files/30715.got.cif
#   From: 2010.03.12/outbox.cif.g09.slc.cpg/sg59_16_cif.got.tgz:30715.got - 2010.04.16 16:29:54.
