data_PCOD8242307
_publ_section_title
;
Structure prediction by ZEFSAII (Michael W. Deem and Ramdas Pophale) SiO2 
 PCOD8242307
Probable space group: P M M N
;
_chemical_formula_sum "Si O2"
_cell_formula_units_Z 64
_cell_length_a 23.468784
_cell_length_b 9.422374
_cell_length_c 16.780175
_cell_angle_alpha 90.000000
_cell_angle_beta 90.000000
_cell_angle_gamma 90.000000
_cell_volume 3710.627956
_symmetry_space_group_name_H-M "P M M N"
_symmetry_group_IT_number 59
_space_group.IT_coordinate_system_code '2'
_symmetry_cell_setting 'orthorhombic'
loop_
_space_group_symop_operation_xyz
x,y,z
1/2-x,1/2-y,z
1/2+x,-y,-z
-x,1/2+y,-z
-x,-y,-z
1/2+x,1/2+y,-z
1/2-x,y,z
x,1/2-y,z
loop_
_atom_site_type_symbol
_atom_site_label
_atom_site_fract_x
_atom_site_fract_y
_atom_site_fract_z
Si Si1 0.899874 0.415019 0.966900
Si Si2 0.184825 0.585756 0.739019
Si Si3 0.416003 0.914488 0.853471
Si Si4 0.817655 0.910080 0.412780
Si Si5 0.978555 0.411605 0.820516
Si Si6 0.315910 0.586549 0.436969
Si Si7 0.366294 0.914432 0.268952
Si Si8 0.315788 0.089243 0.132116
O O1 0.881885 0.250000 0.965592
O O2 0.952556 0.443292 0.907819
O O3 0.846533 0.507676 0.939407
O O4 0.915915 0.465991 0.055229
O O5 0.250000 0.546404 0.761640
O O6 0.180440 0.750000 0.713841
O O7 0.145309 0.551139 0.814764
O O8 0.161535 0.492960 0.665494
O O9 0.430519 0.750000 0.847656
O O10 0.465903 0.993943 0.805917
O O11 0.750000 0.910533 0.414323
O O12 0.841965 0.750000 0.411520
O O13 0.839917 0.990125 0.491520
O O14 0.998265 0.250000 0.813830
O O15 0.931988 0.447991 0.752550
O O16 0.250000 0.552585 0.416902
O O17 0.322610 0.750000 0.462444
O O18 0.354628 0.550025 0.360798
O O19 0.352382 0.750000 0.249626
O O20 0.325164 0.010918 0.215987
O O21 0.250000 0.088762 0.110511
O O22 0.339177 0.250000 0.138565
#
# Coordination Sequence:
#
# PCOD8242307 Si02
#       8
#     8   8   8   8   8   8   8   8
#     4   9  19  34  50  69  93 125 165 202 238 283
#     4   9  18  33  51  71  96 123 153 192 237 285
#     4  10  20  33  52  75  93 117 158 202 241 284
#     4   9  17  29  46  70  99 127 154 187 231 282
#     4   9  18  32  49  70  97 127 158 195 238 282
#     4   9  16  27  47  73  98 126 159 193 229 271
#     4   9  18  32  49  70  96 129 167 198 229 277
#     4  10  20  31  44  67  99 131 161 196 241 286
#
# _framework density 17.247755999999999
#
# number of rings (size 3 to 8) (size 9 to 14) (size 15 to 20)
#    0.000    2.750    0.000    2.250    0.000    7.000 
#    0.000    2.500    0.000    2.250    0.000    0.000 
#    0.000    0.000    0.000    0.000    0.000    0.000 
#
# Total GULP energy -793619.472537 kJ/mol
# GULP energy per Si atom -12400.304258 kJ/mol
# Density = 1.720850 g / cm^3
# Si number density = 17.247756 Si / 1000 Ang^3
#
#
#
# Elastic Constant Matrix: (Units=GPa)
#
#
# Indices 1 2 3 4 5 6 
#
# 1 77.9165 41.2185 39.6103 0.0000 0.0000 0.0000
# 2 41.2185 78.1178 39.3590 0.0000 0.0000 0.0000
# 3 39.6103 39.3590 93.6647 0.0000 0.0000 0.0000
# 4 0.0000 0.0000 0.0000 17.8015 0.0000 0.0000
# 5 0.0000 0.0000 0.0000 0.0000 16.4788 0.0000
# 6 0.0000 0.0000 0.0000 0.0000 0.0000 27.6660
#
#
#
# Elastic Compliance Matrix: (Units=1/GPa)
#
#
# Indices 1 2 3 4 5 6 
#
# 1 0.019471 -0.007770 -0.004969 0.000000 0.000000 0.000000
# 2 -0.007770 0.019340 -0.004841 0.000000 0.000000 0.000000
# 3 -0.004969 -0.004841 0.014812 0.000000 0.000000 0.000000
# 4 0.000000 0.000000 0.000000 0.056175 0.000000 0.000000
# 5 0.000000 0.000000 0.000000 0.000000 0.060684 0.000000
# 6 0.000000 0.000000 0.000000 0.000000 0.000000 0.036145
#
#
# Mechanical properties :
#
#
# Convention : Reuss Voigt Hill
#
# Bulk Modulus (GPa) = 54.16328 54.45273 54.30800
# Shear Modulus (GPa) = 20.16601 21.02334 20.59467
#
# Velocity S-wave (km/s) = 3.42306 3.49507 3.45925
# Velocity P-wave (km/s) = 6.86253 6.92292 6.89279
#
# Compressibility (1/GPa) = 0.01846269
#
# Stress axis : x y z
#
# Youngs Moduli (GPa) = 51.35906 51.70591 67.51289
#
# Poissons Ratio (x) = 0.40176 0.33547
# Poissons Ratio (y) = 0.39906 0.32683
# Poissons Ratio (z) = 0.25520 0.25031
#
# Static dielectric constant tensor:
#      x y z
#    x 2.963980 0.000000 0.000000 
#    y 0.000000 3.302670 0.000000 
#    z 0.000000 0.000000 3.225950 
# 
# 
# High freq. dielectric constant tensor:
#      x y z
#    x 1.641290 0.000000 0.000000 
#    y 0.000000 1.669190 0.000000 
#    z 0.000000 0.000000 1.660040 
# 
# From -- ./inp_files/28475.got.cif
#   From: 2010.03.12/outbox.cif.g09.slc.cpg/sg59_15_cif.got.tgz:28475.got - 2010.04.16 16:29:54.
