data_PCOD8242208
_publ_section_title
;
Structure prediction by ZEFSAII (Michael W. Deem and Ramdas Pophale) SiO2 
 PCOD8242208
Probable space group: P M M N
;
_chemical_formula_sum "Si O2"
_cell_formula_units_Z 48
_cell_length_a 19.141046
_cell_length_b 8.872549
_cell_length_c 15.115797
_cell_angle_alpha 90.000000
_cell_angle_beta 90.000000
_cell_angle_gamma 90.000000
_cell_volume 2567.113817
_symmetry_space_group_name_H-M "P M M N"
_symmetry_group_IT_number 59
_space_group.IT_coordinate_system_code '2'
_symmetry_cell_setting 'orthorhombic'
loop_
_space_group_symop_operation_xyz
x,y,z
1/2-x,1/2-y,z
1/2+x,-y,-z
-x,1/2+y,-z
-x,-y,-z
1/2+x,1/2+y,-z
1/2-x,y,z
x,1/2-y,z
loop_
_atom_site_type_symbol
_atom_site_label
_atom_site_fract_x
_atom_site_fract_y
_atom_site_fract_z
Si Si1 0.073410 0.072096 0.476242
Si Si2 0.925374 0.571544 0.721829
Si Si3 0.330927 0.925144 0.618686
Si Si4 0.571844 0.571863 0.031387
Si Si5 0.827918 0.929066 0.875522
Si Si6 0.923978 0.427121 0.216024
O O1 0.064497 0.250000 0.482075
O O2 0.094105 0.020163 0.377164
O O3 0.134657 0.019906 0.540501
O O4 0.000000 0.000000 0.500000
O O5 0.926781 0.750000 0.728612
O O6 0.868370 0.504944 0.789818
O O7 0.002077 0.511585 0.747828
O O8 0.250000 0.968250 0.623860
O O9 0.343053 0.750000 0.597665
O O10 0.365218 0.967657 0.712227
O O11 0.562280 0.750000 0.032194
O O12 0.595481 0.514108 0.126948
O O13 0.500000 0.500000 0.000000
O O14 0.632192 0.520589 0.963913
O O15 0.750000 0.997759 0.877147
O O16 0.824780 0.750000 0.869388
O O17 0.926782 0.250000 0.195661
#
# Coordination Sequence:
#
# PCOD8242208 Si02
#       6
#     8   8   8   8   8   8
#     4  11  21  35  59  88 115 148 192 242 287 341
#     4   9  17  32  55  81 107 140 182 226 276 334
#     4  10  22  40  59  81 116 158 193 235 296 353
#     4  11  21  34  56  85 111 145 186 230 279 335
#     4   9  18  33  53  78 108 140 176 223 278 329
#     4  10  19  36  58  81 109 145 189 232 277 338
#
# _framework density 18.698042000000001
#
# number of rings (size 3 to 8) (size 9 to 14) (size 15 to 20)
#    0.000    2.000    3.333    1.000    0.000    2.333 
#    0.000    1.667    0.000    1.500    0.000    0.000 
#    0.000    0.000    0.000    0.000    0.000    0.000 
#
# Total GULP energy -595263.337057 kJ/mol
# GULP energy per Si atom -12401.319522 kJ/mol
# Density = 1.865548 g / cm^3
# Si number density = 18.698042 Si / 1000 Ang^3
#
#
#
# Elastic Constant Matrix: (Units=GPa)
#
#
# Indices 1 2 3 4 5 6 
#
# 1 169.0450 38.6311 94.5227 0.0000 0.0000 0.0000
# 2 38.6311 47.1193 52.4366 0.0000 0.0000 0.0000
# 3 94.5227 52.4366 192.7169 0.0000 0.0000 0.0000
# 4 0.0000 0.0000 0.0000 32.4051 0.0000 0.0000
# 5 0.0000 0.0000 0.0000 0.0000 36.4808 0.0000
# 6 0.0000 0.0000 0.0000 0.0000 0.0000 21.0242
#
#
#
# Elastic Compliance Matrix: (Units=1/GPa)
#
#
# Indices 1 2 3 4 5 6 
#
# 1 0.008503 -0.003342 -0.003261 0.000000 0.000000 0.000000
# 2 -0.003342 0.031753 -0.007001 0.000000 0.000000 0.000000
# 3 -0.003261 -0.007001 0.008693 0.000000 0.000000 0.000000
# 4 0.000000 0.000000 0.000000 0.030859 0.000000 0.000000
# 5 0.000000 0.000000 0.000000 0.000000 0.027412 0.000000
# 6 0.000000 0.000000 0.000000 0.000000 0.000000 0.047564
#
#
# Mechanical properties :
#
#
# Convention : Reuss Voigt Hill
#
# Bulk Modulus (GPa) = 45.99403 86.67357 66.33380
# Shear Modulus (GPa) = 26.42156 32.86807 29.64482
#
# Velocity S-wave (km/s) = 3.76315 4.19720 3.98609
# Velocity P-wave (km/s) = 6.59799 8.36323 7.53250
#
# Compressibility (1/GPa) = 0.02174195
#
# Stress axis : x y z
#
# Youngs Moduli (GPa) = 117.60891 31.49272 115.03190
#
# Poissons Ratio (x) = 0.10525 0.37513
# Poissons Ratio (y) = 0.39305 0.80530
# Poissons Ratio (z) = 0.38353 0.22047
#
# Static dielectric constant tensor:
#      x y z
#    x 3.633780 0.000000 0.000000 
#    y 0.000000 3.145130 0.000000 
#    z 0.000000 0.000000 3.826160 
# 
# 
# High freq. dielectric constant tensor:
#      x y z
#    x 1.727930 0.000000 0.000000 
#    y 0.000000 1.693740 0.000000 
#    z 0.000000 0.000000 1.744360 
# 
# From -- ./inp_files/20444.got.cif
#   From: 2010.03.12/outbox.cif.g09.slc.cpg/sg59_11_cif.got.tgz:20444.got - 2010.04.16 16:29:54.
