data_PCOD8242665
_publ_section_title
;
Structure prediction by ZEFSAII (Michael W. Deem and Ramdas Pophale) SiO2 
 PCOD8242665
Probable space group: P M M N
;
_chemical_formula_sum "Si O2"
_cell_formula_units_Z 64
_cell_length_a 17.233553
_cell_length_b 9.245058
_cell_length_c 22.734784
_cell_angle_alpha 90.000000
_cell_angle_beta 90.000000
_cell_angle_gamma 90.000000
_cell_volume 3622.223940
_symmetry_space_group_name_H-M "P M M N"
_symmetry_group_IT_number 59
_space_group.IT_coordinate_system_code '2'
_symmetry_cell_setting 'orthorhombic'
loop_
_space_group_symop_operation_xyz
x,y,z
1/2-x,1/2-y,z
1/2+x,-y,-z
-x,1/2+y,-z
-x,-y,-z
1/2+x,1/2+y,-z
1/2-x,y,z
x,1/2-y,z
loop_
_atom_site_type_symbol
_atom_site_label
_atom_site_fract_x
_atom_site_fract_y
_atom_site_fract_z
Si Si1 0.558981 0.418345 0.365045
Si Si2 0.507824 0.420890 0.742737
Si Si3 0.662369 0.416689 0.053235
Si Si4 0.475558 0.914821 0.859836
Si Si5 0.103368 0.083102 0.422810
Si Si6 0.835620 0.083215 0.683699
Si Si7 0.568943 0.915890 0.969841
Si Si8 0.341059 0.415529 0.548310
O O1 0.572715 0.250000 0.351659
O O2 0.548019 0.501311 0.303777
O O3 0.485982 0.445097 0.407455
O O4 0.633282 0.484502 0.397548
O O5 0.494513 0.250000 0.739256
O O6 0.484908 0.475217 0.806782
O O7 0.597616 0.464659 0.729666
O O8 0.750000 0.446308 0.075198
O O9 0.649524 0.250000 0.036425
O O10 0.602164 0.460729 0.104562
O O11 0.647751 0.508969 0.993291
O O12 0.467117 0.750000 0.836954
O O13 0.553485 0.927766 0.899909
O O14 0.126485 0.250000 0.417925
O O15 0.118640 0.026871 0.488642
O O16 0.158334 0.000595 0.377472
O O17 0.750000 0.053434 0.711137
O O18 0.846979 0.250000 0.667940
O O19 0.568818 0.750000 0.990158
O O20 0.500000 0.000000 0.000000
O O21 0.250000 0.430531 0.540423
O O22 0.365645 0.250000 0.561171
#
# Coordination Sequence:
#
# PCOD8242665 Si02
#       8
#     8   8   8   8   8   8   8   8
#     4  10  20  34  52  72  96 128 166 205 245 296
#     4  10  20  34  53  73  96 131 172 210 248 293
#     4   9  18  33  53  78 107 136 167 208 256 298
#     4   9  18  33  52  74 101 133 170 209 247 292
#     4   9  18  32  51  74  97 124 158 196 245 304
#     4   9  18  32  49  71  98 125 157 202 252 299
#     4   9  17  30  50  75 103 133 163 198 241 290
#     4  10  20  33  49  71 100 129 158 199 250 300
#
# _framework density 17.668703000000001
#
# number of rings (size 3 to 8) (size 9 to 14) (size 15 to 20)
#    0.000    2.625    0.000    2.625    0.000    5.250 
#    0.000    1.250    0.000    4.500    0.000    0.000 
#    0.000    0.000    0.000    0.000    0.000    0.000 
#
# Total GULP energy -793450.260160 kJ/mol
# GULP energy per Si atom -12397.660315 kJ/mol
# Density = 1.762849 g / cm^3
# Si number density = 17.668703 Si / 1000 Ang^3
#
#
#
# Elastic Constant Matrix: (Units=GPa)
#
#
# Indices 1 2 3 4 5 6 
#
# 1 64.4126 34.4987 43.7297 0.0000 0.0000 0.0000
# 2 34.4987 87.0108 57.9282 0.0000 0.0000 0.0000
# 3 43.7297 57.9282 108.6657 0.0000 0.0000 0.0000
# 4 0.0000 0.0000 0.0000 33.9292 0.0000 0.0000
# 5 0.0000 0.0000 0.0000 0.0000 18.6979 0.0000
# 6 0.0000 0.0000 0.0000 0.0000 0.0000 25.2356
#
#
#
# Elastic Compliance Matrix: (Units=1/GPa)
#
#
# Indices 1 2 3 4 5 6 
#
# 1 0.022429 -0.004470 -0.006643 0.000000 0.000000 0.000000
# 2 -0.004470 0.018707 -0.008173 0.000000 0.000000 0.000000
# 3 -0.006643 -0.008173 0.016233 0.000000 0.000000 0.000000
# 4 0.000000 0.000000 0.000000 0.029473 0.000000 0.000000
# 5 0.000000 0.000000 0.000000 0.000000 0.053482 0.000000
# 6 0.000000 0.000000 0.000000 0.000000 0.000000 0.039627
#
#
# Mechanical properties :
#
#
# Convention : Reuss Voigt Hill
#
# Bulk Modulus (GPa) = 53.20406 59.15582 56.17994
# Shear Modulus (GPa) = 22.24311 23.83470 23.03891
#
# Velocity S-wave (km/s) = 3.55195 3.67683 3.61493
# Velocity P-wave (km/s) = 6.85559 7.18183 7.02061
#
# Compressibility (1/GPa) = 0.01879556
#
# Stress axis : x y z
#
# Youngs Moduli (GPa) = 44.58508 53.45673 61.60312
#
# Poissons Ratio (x) = 0.23896 0.40923
# Poissons Ratio (y) = 0.19931 0.50351
# Poissons Ratio (z) = 0.29618 0.43692
#
# Static dielectric constant tensor:
#      x y z
#    x 3.553090 0.000000 0.000000 
#    y 0.000000 3.395410 0.000000 
#    z 0.000000 0.000000 3.246730 
# 
# 
# High freq. dielectric constant tensor:
#      x y z
#    x 1.674370 0.000000 0.000000 
#    y 0.000000 1.689390 0.000000 
#    z 0.000000 0.000000 1.667020 
# 
# From -- ./inp_files/30770.got.cif
#   From: 2010.03.12/outbox.cif.g09.slc.cpg/sg59_16_cif.got.tgz:30770.got - 2010.04.16 16:29:54.
