data_PCOD8242224
_publ_section_title
;
Structure prediction by ZEFSAII (Michael W. Deem and Ramdas Pophale) SiO2 
 PCOD8242224
Probable space group: P M M N
;
_chemical_formula_sum "Si O2"
_cell_formula_units_Z 40
_cell_length_a 8.949649
_cell_length_b 25.851520
_cell_length_c 9.130249
_cell_angle_alpha 90.000000
_cell_angle_beta 90.000000
_cell_angle_gamma 90.000000
_cell_volume 2112.392944
_symmetry_space_group_name_H-M "P M M N"
_symmetry_group_IT_number 59
_space_group.IT_coordinate_system_code '2'
_symmetry_cell_setting 'orthorhombic'
loop_
_space_group_symop_operation_xyz
x,y,z
1/2-x,1/2-y,z
1/2+x,-y,-z
-x,1/2+y,-z
-x,-y,-z
1/2+x,1/2+y,-z
1/2-x,y,z
x,1/2-y,z
loop_
_atom_site_type_symbol
_atom_site_label
_atom_site_fract_x
_atom_site_fract_y
_atom_site_fract_z
Si Si1 0.572590 0.750000 0.159682
Si Si2 0.926322 0.052051 0.170538
Si Si3 0.072164 0.750000 0.843670
Si Si4 0.424474 0.552192 0.163798
Si Si5 0.926684 0.156155 0.672385
Si Si6 0.427128 0.848659 0.660693
O O1 0.750000 0.750000 0.154966
O O2 0.515559 0.800463 0.241998
O O3 0.508619 0.750000 0.997526
O O4 0.750000 0.048648 0.186197
O O5 0.991874 0.098801 0.268183
O O6 0.974884 0.062626 0.003093
O O7 0.993970 0.998260 0.228228
O O8 0.250000 0.750000 0.868136
O O9 0.016981 0.700085 0.754027
O O10 0.250000 0.541366 0.172982
O O11 0.471030 0.600996 0.260579
O O12 0.750000 0.166941 0.686560
O O13 0.982822 0.156905 0.505313
O O14 0.250000 0.850781 0.663642
#
# Coordination Sequence:
#
# PCOD8242224 Si02
#       6
#     4   8   4   8   8   8
#     4  12  25  38  54  80 110 138 173 216 268 322
#     4   9  17  31  50  75 108 141 176 219 262 304
#     4  10  19  36  60  80 102 136 179 220 260 312
#     4   9  18  32  52  77 104 139 181 218 255 306
#     4  10  20  37  59  80 105 139 180 221 262 313
#     4   9  18  33  57  84 105 135 181 225 262 309
#
# _framework density 18.935870000000001
#
# number of rings (size 3 to 8) (size 9 to 14) (size 15 to 20)
#    0.000    2.400    0.000    2.700    0.000    6.400 
#    0.000    8.000    0.000    0.000    0.000    0.000 
#    0.000    0.000    0.000    0.000    0.000    0.000 
#
# Total GULP energy -496065.139648 kJ/mol
# GULP energy per Si atom -12401.628491 kJ/mol
# Density = 1.889277 g / cm^3
# Si number density = 18.935870 Si / 1000 Ang^3
#
#
#
# Elastic Constant Matrix: (Units=GPa)
#
#
# Indices 1 2 3 4 5 6 
#
# 1 42.5790 52.7616 43.5838 0.0000 0.0000 0.0000
# 2 52.7616 190.5885 109.9953 0.0000 0.0000 0.0000
# 3 43.5838 109.9953 162.1469 0.0000 0.0000 0.0000
# 4 0.0000 0.0000 0.0000 65.6349 0.0000 0.0000
# 5 0.0000 0.0000 0.0000 0.0000 12.6490 0.0000
# 6 0.0000 0.0000 0.0000 0.0000 0.0000 20.4409
#
#
#
# Elastic Compliance Matrix: (Units=1/GPa)
#
#
# Indices 1 2 3 4 5 6 
#
# 1 0.038132 -0.007627 -0.005076 0.000000 0.000000 0.000000
# 2 -0.007627 0.010148 -0.004834 0.000000 0.000000 0.000000
# 3 -0.005076 -0.004834 0.010811 0.000000 0.000000 0.000000
# 4 0.000000 0.000000 0.000000 0.015236 0.000000 0.000000
# 5 0.000000 0.000000 0.000000 0.000000 0.079057 0.000000
# 6 0.000000 0.000000 0.000000 0.000000 0.000000 0.048922
#
#
# Mechanical properties :
#
#
# Convention : Reuss Voigt Hill
#
# Bulk Modulus (GPa) = 41.63610 89.77731 65.70671
# Shear Modulus (GPa) = 20.37605 32.34320 26.35963
#
# Velocity S-wave (km/s) = 3.28389 4.13733 3.73506
# Velocity P-wave (km/s) = 6.03442 8.38674 7.30588
#
# Compressibility (1/GPa) = 0.02401762
#
# Stress axis : x y z
#
# Youngs Moduli (GPa) = 26.22455 98.53851 92.49866
#
# Poissons Ratio (x) = 0.75155 0.46950
# Poissons Ratio (y) = 0.20001 0.44716
# Poissons Ratio (z) = 0.13311 0.47636
#
# Static dielectric constant tensor:
#      x y z
#    x 3.137340 0.000000 0.000000 
#    y 0.000000 3.755920 0.000000 
#    z 0.000000 0.000000 3.675340 
# 
# 
# High freq. dielectric constant tensor:
#      x y z
#    x 1.699550 0.000000 0.000000 
#    y 0.000000 1.754650 0.000000 
#    z 0.000000 0.000000 1.742380 
# 
# From -- ./inp_files/5943.got.cif
#   From: 2010.03.12/outbox.cif.g09.slc.cpg/sg59_3_cif.got.tgz:5943.got - 2010.04.16 16:29:54.
