data_PCOD8242955
_publ_section_title
;
Structure prediction by ZEFSAII (Michael W. Deem and Ramdas Pophale) SiO2 
 PCOD8242955
Probable space group: P M M N
;
_chemical_formula_sum "Si O2"
_cell_formula_units_Z 48
_cell_length_a 31.855201
_cell_length_b 9.024112
_cell_length_c 9.088928
_cell_angle_alpha 90.000000
_cell_angle_beta 90.000000
_cell_angle_gamma 90.000000
_cell_volume 2612.747793
_symmetry_space_group_name_H-M "P M M N"
_symmetry_group_IT_number 59
_space_group.IT_coordinate_system_code '2'
_symmetry_cell_setting 'orthorhombic'
loop_
_space_group_symop_operation_xyz
x,y,z
1/2-x,1/2-y,z
1/2+x,-y,-z
-x,1/2+y,-z
-x,-y,-z
1/2+x,1/2+y,-z
1/2-x,y,z
x,1/2-y,z
loop_
_atom_site_type_symbol
_atom_site_label
_atom_site_fract_x
_atom_site_fract_y
_atom_site_fract_z
Si Si1 0.665792 0.083741 0.144118
Si Si2 0.123266 0.420873 0.104368
Si Si3 0.920473 0.413258 0.318107
Si Si4 0.298000 0.420211 0.591732
Si Si5 0.368527 0.926355 0.411608
Si Si6 0.461940 0.081925 0.924674
O O1 0.682604 0.250000 0.111257
O O2 0.621519 0.093270 0.223681
O O3 0.698079 0.997395 0.248924
O O4 0.660426 0.993419 0.992357
O O5 0.134638 0.250000 0.134180
O O6 0.119539 0.510306 0.254472
O O7 0.078963 0.436985 0.024001
O O8 0.940877 0.250000 0.326519
O O9 0.907330 0.469534 0.480453
O O10 0.953882 0.520345 0.240061
O O11 0.250000 0.430204 0.539787
O O12 0.312952 0.250000 0.605818
O O13 0.325366 0.502106 0.468357
O O14 0.362409 0.750000 0.406575
O O15 0.475499 0.250000 0.905526
O O16 0.500000 0.000000 0.000000
#
# Coordination Sequence:
#
# PCOD8242955 Si02
#       6
#     8   8   8   8   8   8
#     4   9  17  31  52  75  99 130 168 208 247 293
#     4  10  20  34  53  77 104 134 169 210 256 306
#     4   8  16  31  50  72  98 129 166 205 246 297
#     4  10  20  34  53  77 105 136 169 208 253 300
#     4  10  20  34  54  78 104 137 173 211 256 307
#     4  10  20  33  52  76 101 132 169 211 257 303
#
# _framework density 18.371462000000001
#
# number of rings (size 3 to 8) (size 9 to 14) (size 15 to 20)
#    0.000    2.500    0.000    3.500    0.000    8.000 
#    0.000    1.667    0.000    5.000    0.000    0.000 
#    0.000    0.000    0.000    0.000    0.000    0.000 
#
# Total GULP energy -595137.712478 kJ/mol
# GULP energy per Si atom -12398.702343 kJ/mol
# Density = 1.832965 g / cm^3
# Si number density = 18.371462 Si / 1000 Ang^3
#
#
#
# Elastic Constant Matrix: (Units=GPa)
#
#
# Indices 1 2 3 4 5 6 
#
# 1 27.3519 24.5896 -1.1802 0.0000 0.0000 0.0000
# 2 24.5896 128.6442 34.7361 0.0000 0.0000 0.0000
# 3 -1.1802 34.7361 87.2228 0.0000 0.0000 0.0000
# 4 0.0000 0.0000 0.0000 36.5901 0.0000 0.0000
# 5 0.0000 0.0000 0.0000 0.0000 13.9432 0.0000
# 6 0.0000 0.0000 0.0000 0.0000 0.0000 27.7560
#
#
#
# Elastic Compliance Matrix: (Units=1/GPa)
#
#
# Indices 1 2 3 4 5 6 
#
# 1 0.045733 -0.009982 0.004594 0.000000 0.000000 0.000000
# 2 -0.009982 0.010889 -0.004471 0.000000 0.000000 0.000000
# 3 0.004594 -0.004471 0.013308 0.000000 0.000000 0.000000
# 4 0.000000 0.000000 0.000000 0.027330 0.000000 0.000000
# 5 0.000000 0.000000 0.000000 0.000000 0.071719 0.000000
# 6 0.000000 0.000000 0.000000 0.000000 0.000000 0.036028
#
#
# Mechanical properties :
#
#
# Convention : Reuss Voigt Hill
#
# Bulk Modulus (GPa) = 19.91617 39.94557 29.93087
# Shear Modulus (GPa) = 20.70715 27.99608 24.35162
#
# Velocity S-wave (km/s) = 3.36093 3.90794 3.64471
# Velocity P-wave (km/s) = 5.09171 6.49254 5.83432
#
# Compressibility (1/GPa) = 0.05021045
#
# Stress axis : x y z
#
# Youngs Moduli (GPa) = 21.86618 91.83775 75.14387
#
# Poissons Ratio (x) = 0.91673 -0.34522
# Poissons Ratio (y) = 0.21827 0.33600
# Poissons Ratio (z) = -0.10046 0.41065
#
# Static dielectric constant tensor:
#      x y z
#    x 3.086950 0.000000 0.000000 
#    y 0.000000 3.740450 0.000000 
#    z 0.000000 0.000000 3.492010 
# 
# 
# High freq. dielectric constant tensor:
#      x y z
#    x 1.680960 0.000000 0.000000 
#    y 0.000000 1.731420 0.000000 
#    z 0.000000 0.000000 1.709320 
# 
# From -- ./inp_files/6269.got.cif
#   From: 2010.03.12/outbox.cif.g09.slc.cpg/sg59_4_cif.got.tgz:6269.got - 2010.04.16 16:29:54.
