data_PCOD8242800
_publ_section_title
;
Structure prediction by ZEFSAII (Michael W. Deem and Ramdas Pophale) SiO2 
 PCOD8242800
Probable space group: P M M N
;
_chemical_formula_sum "Si O2"
_cell_formula_units_Z 64
_cell_length_a 8.868537
_cell_length_b 14.626456
_cell_length_c 26.010025
_cell_angle_alpha 90.000000
_cell_angle_beta 90.000000
_cell_angle_gamma 90.000000
_cell_volume 3373.897317
_symmetry_space_group_name_H-M "P M M N"
_symmetry_group_IT_number 59
_space_group.IT_coordinate_system_code '2'
_symmetry_cell_setting 'orthorhombic'
loop_
_space_group_symop_operation_xyz
x,y,z
1/2-x,1/2-y,z
1/2+x,-y,-z
-x,1/2+y,-z
-x,-y,-z
1/2+x,1/2+y,-z
1/2-x,y,z
x,1/2-y,z
loop_
_atom_site_type_symbol
_atom_site_label
_atom_site_fract_x
_atom_site_fract_y
_atom_site_fract_z
Si Si1 0.575712 0.356581 0.373548
Si Si2 0.426852 0.493352 0.923798
Si Si3 0.071911 0.999377 0.444394
Si Si4 0.075151 0.498485 0.184508
Si Si5 0.575136 0.643458 0.371754
Si Si6 0.423065 0.354562 0.269137
Si Si7 0.923814 0.145551 0.733077
Si Si8 0.428153 0.645643 0.003602
O O1 0.750000 0.382163 0.380496
O O2 0.544354 0.250000 0.382109
O O3 0.478084 0.409183 0.415350
O O4 0.525395 0.386700 0.316614
O O5 0.250000 0.479385 0.928571
O O6 0.472029 0.506409 0.865161
O O7 0.478419 0.584706 0.954544
O O8 0.504217 0.401758 0.945666
O O9 0.250000 0.997559 0.449694
O O10 0.000000 0.000000 0.500000
O O11 0.018182 0.909496 0.414572
O O12 0.250000 0.498720 0.168163
O O13 0.033775 0.411040 0.218822
O O14 0.032519 0.588677 0.216611
O O15 0.750000 0.619194 0.377691
O O16 0.541969 0.750000 0.380037
O O17 0.522476 0.612493 0.315157
O O18 0.250000 0.372151 0.285058
O O19 0.454079 0.250000 0.254938
O O20 0.750000 0.129194 0.718002
O O21 0.957940 0.250000 0.746993
O O22 0.250000 0.646919 0.009838
O O23 0.488960 0.750000 0.997666
#
# Coordination Sequence:
#
# PCOD8242800 Si02
#       8
#     8   8   8   8   8   8   8   8
#     4  10  21  38  60  85 113 145 182 225 274 328
#     4  10  21  35  53  81 110 136 175 225 271 316
#     4  12  25  40  59  82 110 144 183 228 276 328
#     4  10  20  33  50  75 110 148 180 216 264 315
#     4  10  21  38  60  85 113 144 180 225 276 329
#     4   9  18  33  53  78 108 144 185 222 260 313
#     4   9  18  33  53  77 105 141 184 221 258 313
#     4   9  19  38  60  77 100 139 181 219 265 323
#
# _framework density 18.969159999999999
#
# number of rings (size 3 to 8) (size 9 to 14) (size 15 to 20)
#    0.000    2.125    0.000    3.000    0.000    5.750 
#    0.000    1.250    0.000    0.000    0.000    0.000 
#    0.000    0.000    0.000    0.000    0.000    0.000 
#
# Total GULP energy -793812.242665 kJ/mol
# GULP energy per Si atom -12403.316292 kJ/mol
# Density = 1.892599 g / cm^3
# Si number density = 18.969160 Si / 1000 Ang^3
#
#
#
# Elastic Constant Matrix: (Units=GPa)
#
#
# Indices 1 2 3 4 5 6 
#
# 1 84.4660 40.9572 49.7244 0.0000 0.0000 0.0000
# 2 40.9572 118.7749 64.1250 0.0000 0.0000 0.0000
# 3 49.7244 64.1250 134.5698 0.0000 0.0000 0.0000
# 4 0.0000 0.0000 0.0000 6839.5836 0.0000 0.0000
# 5 0.0000 0.0000 0.0000 0.0000 38.3580 0.0000
# 6 0.0000 0.0000 0.0000 0.0000 0.0000 24.6697
#
#
#
# Elastic Compliance Matrix: (Units=1/GPa)
#
#
# Indices 1 2 3 4 5 6 
#
# 1 0.015945 -0.003120 -0.004405 0.000000 0.000000 0.000000
# 2 -0.003120 0.011946 -0.004540 0.000000 0.000000 0.000000
# 3 -0.004405 -0.004540 0.011222 0.000000 0.000000 0.000000
# 4 0.000000 0.000000 0.000000 0.000146 0.000000 0.000000
# 5 0.000000 0.000000 0.000000 0.000000 0.026070 0.000000
# 6 0.000000 0.000000 0.000000 0.000000 0.000000 0.040535
#
#
# Mechanical properties :
#
#
# Convention : Reuss Voigt Hill
#
# Bulk Modulus (GPa) = 66.73936 71.93598 69.33767
# Shear Modulus (GPa) = 37.03994 1392.72256 714.88125
#
# Velocity S-wave (km/s) = 4.42366 27.12559 19.43407
# Velocity P-wave (km/s) = 7.83270 31.92285 23.24241
#
# Compressibility (1/GPa) = 0.01498366
#
# Stress axis : x y z
#
# Youngs Moduli (GPa) = 62.71458 83.70941 89.11081
#
# Poissons Ratio (x) = 0.26119 0.39254
# Poissons Ratio (y) = 0.19568 0.40453
# Poissons Ratio (z) = 0.27626 0.38001
#
# Static dielectric constant tensor:
#      x y z
#    x 3.477780 0.000000 0.000000 
#    y 0.000000 3.682850 0.000000 
#    z 0.000000 0.000000 3.441700 
# 
# 
# High freq. dielectric constant tensor:
#      x y z
#    x 1.737750 0.000000 0.000000 
#    y 0.000000 1.749960 0.000000 
#    z 0.000000 0.000000 1.733170 
# 
# From -- ./inp_files/31624.got.cif
#   From: 2010.03.12/outbox.cif.g09.slc.cpg/sg59_16_cif.got.tgz:31624.got - 2010.04.16 16:29:54.
