data_PCOD8242217
_publ_section_title
;
Structure prediction by ZEFSAII (Michael W. Deem and Ramdas Pophale) SiO2 
 PCOD8242217
Probable space group: P M M N
;
_chemical_formula_sum "Si O2"
_cell_formula_units_Z 40
_cell_length_a 8.816757
_cell_length_b 9.815317
_cell_length_c 24.058908
_cell_angle_alpha 90.000000
_cell_angle_beta 90.000000
_cell_angle_gamma 90.000000
_cell_volume 2082.040212
_symmetry_space_group_name_H-M "P M M N"
_symmetry_group_IT_number 59
_space_group.IT_coordinate_system_code '2'
_symmetry_cell_setting 'orthorhombic'
loop_
_space_group_symop_operation_xyz
x,y,z
1/2-x,1/2-y,z
1/2+x,-y,-z
-x,1/2+y,-z
-x,-y,-z
1/2+x,1/2+y,-z
1/2-x,y,z
x,1/2-y,z
loop_
_atom_site_type_symbol
_atom_site_label
_atom_site_fract_x
_atom_site_fract_y
_atom_site_fract_z
Si Si1 0.420567 0.093313 0.746032
Si Si2 0.929725 0.090621 0.048691
Si Si3 0.928335 0.495546 0.373175
Si Si4 0.927088 0.750000 0.566602
Si Si5 0.070114 0.250000 0.557210
Si Si6 0.072761 0.593176 0.140210
O O1 0.250000 0.055460 0.765637
O O2 0.426542 0.250000 0.727866
O O3 0.468094 0.008103 0.692011
O O4 0.536832 0.062053 0.795597
O O5 0.750000 0.085425 0.043310
O O6 0.983783 0.250000 0.046469
O O7 0.980462 0.018321 0.105443
O O8 0.000000 0.000000 0.000000
O O9 0.750000 0.471536 0.381223
O O10 0.988679 0.621907 0.408510
O O11 0.023874 0.375093 0.397079
O O12 0.750000 0.750000 0.558255
O O13 0.001472 0.750000 0.504875
O O14 0.250000 0.250000 0.554823
O O15 0.250000 0.572951 0.128889
O O16 0.025130 0.750000 0.125333
#
# Coordination Sequence:
#
# PCOD8242217 Si02
#       6
#     8   8   8   4   4   8
#     4   9  17  33  59  85 107 141 191 240 283 334
#     4  11  24  41  62  90 122 157 198 239 279 329
#     4  10  19  36  59  80 105 144 190 234 283 342
#     4  11  23  35  49  79 117 147 178 229 290 345
#     4   9  18  35  59  81 105 139 188 239 282 339
#     4  10  21  37  59  88 120 152 188 234 287 341
#
# _framework density 19.211922999999999
#
# number of rings (size 3 to 8) (size 9 to 14) (size 15 to 20)
#    0.000    2.000    1.000    2.700    0.000    6.000 
#    1.800    1.500    0.000    0.000    0.000    0.000 
#    0.000    0.000    0.000    0.000    0.000    0.000 
#
# Total GULP energy -495903.807031 kJ/mol
# GULP energy per Si atom -12397.595176 kJ/mol
# Density = 1.916820 g / cm^3
# Si number density = 19.211923 Si / 1000 Ang^3
#
#
#
# Elastic Constant Matrix: (Units=GPa)
#
#
# Indices 1 2 3 4 5 6 
#
# 1 54.8798 43.7722 36.3073 0.0000 0.0000 0.0000
# 2 43.7722 142.7089 65.9939 0.0000 0.0000 0.0000
# 3 36.3073 65.9939 116.1406 0.0000 0.0000 0.0000
# 4 0.0000 0.0000 0.0000 31.3182 0.0000 0.0000
# 5 0.0000 0.0000 0.0000 0.0000 31.4598 0.0000
# 6 0.0000 0.0000 0.0000 0.0000 0.0000 33.9660
#
#
#
# Elastic Compliance Matrix: (Units=1/GPa)
#
#
# Indices 1 2 3 4 5 6 
#
# 1 0.026015 -0.005722 -0.004881 0.000000 0.000000 0.000000
# 2 -0.005722 0.010763 -0.004327 0.000000 0.000000 0.000000
# 3 -0.004881 -0.004327 0.012595 0.000000 0.000000 0.000000
# 4 0.000000 0.000000 0.000000 0.031930 0.000000 0.000000
# 5 0.000000 0.000000 0.000000 0.000000 0.031787 0.000000
# 6 0.000000 0.000000 0.000000 0.000000 0.000000 0.029441
#
#
# Mechanical properties :
#
#
# Convention : Reuss Voigt Hill
#
# Bulk Modulus (GPa) = 51.24978 67.31956 59.28467
# Shear Modulus (GPa) = 27.94908 30.52587 29.23747
#
# Velocity S-wave (km/s) = 3.81829 3.99043 3.90531
# Velocity P-wave (km/s) = 6.79508 7.50653 7.15964
#
# Compressibility (1/GPa) = 0.01951228
#
# Stress axis : x y z
#
# Youngs Moduli (GPa) = 38.43943 92.90695 79.39636
#
# Poissons Ratio (x) = 0.53163 0.38755
# Poissons Ratio (y) = 0.21996 0.34357
# Poissons Ratio (z) = 0.18763 0.40203
#
# Static dielectric constant tensor:
#      x y z
#    x 3.351280 0.000000 0.000000 
#    y 0.000000 3.510120 0.000000 
#    z 0.000000 0.000000 3.659810 
# 
# 
# High freq. dielectric constant tensor:
#      x y z
#    x 1.733570 0.000000 0.000000 
#    y 0.000000 1.744450 0.000000 
#    z 0.000000 0.000000 1.762800 
# 
# From -- ./inp_files/32387.got.cif
#   From: 2010.03.12/outbox.cif.g09.slc.cpg/sg59_17_cif.got.tgz:32387.got - 2010.04.16 16:29:54.
