data_PCOD8242747
_publ_section_title
;
Structure prediction by ZEFSAII (Michael W. Deem and Ramdas Pophale) SiO2 
 PCOD8242747
Probable space group: P M M N
;
_chemical_formula_sum "Si O2"
_cell_formula_units_Z 64
_cell_length_a 9.514960
_cell_length_b 24.837778
_cell_length_c 13.629515
_cell_angle_alpha 90.000000
_cell_angle_beta 90.000000
_cell_angle_gamma 90.000000
_cell_volume 3221.069606
_symmetry_space_group_name_H-M "P M M N"
_symmetry_group_IT_number 59
_space_group.IT_coordinate_system_code '2'
_symmetry_cell_setting 'orthorhombic'
loop_
_space_group_symop_operation_xyz
x,y,z
1/2-x,1/2-y,z
1/2+x,-y,-z
-x,1/2+y,-z
-x,-y,-z
1/2+x,1/2+y,-z
1/2-x,y,z
x,1/2-y,z
loop_
_atom_site_type_symbol
_atom_site_label
_atom_site_fract_x
_atom_site_fract_y
_atom_site_fract_z
Si Si1 0.588581 0.099331 0.053644
Si Si2 0.412131 0.918072 0.168387
Si Si3 0.582813 0.309779 0.729933
Si Si4 0.905210 0.189310 0.314449
Si Si5 0.591487 0.042024 0.444193
Si Si6 0.585935 0.480848 0.225563
Si Si7 0.087068 0.186753 0.136248
Si Si8 0.088571 0.841282 0.479938
O O1 0.750000 0.116778 0.072257
O O2 0.536570 0.057279 0.136189
O O3 0.491358 0.152762 0.052206
O O4 0.570766 0.072533 0.947513
O O5 0.250000 0.924795 0.200977
O O6 0.466633 0.857842 0.197820
O O7 0.502436 0.962928 0.223955
O O8 0.750000 0.310189 0.725234
O O9 0.530712 0.250000 0.764721
O O10 0.517809 0.321421 0.621168
O O11 0.750000 0.159402 0.311245
O O12 0.879509 0.250000 0.283175
O O13 0.974912 0.186722 0.422601
O O14 0.014302 0.165242 0.236535
O O15 0.750000 0.021506 0.450620
O O16 0.551104 0.048696 0.329050
O O17 0.568178 0.095699 0.505796
O O18 0.500000 0.000000 0.500000
O O19 0.750000 0.494338 0.214429
O O20 0.250000 0.171402 0.140730
O O21 0.066635 0.250000 0.116020
O O22 0.250000 0.823944 0.475294
#
# Coordination Sequence:
#
# PCOD8242747 Si02
#       8
#     8   8   8   8   8   8   8   8
#     4  10  21  37  57  80 104 138 186 232 275 326
#     4  10  21  36  57  83 107 136 179 229 278 327
#     4   9  17  30  50  79 112 141 174 221 271 317
#     4   9  16  28  49  74  98 129 169 208 247 298
#     4  10  20  33  50  73 102 136 172 212 259 313
#     4  10  21  37  56  79 110 144 179 225 279 333
#     4  10  21  35  51  76 110 144 177 218 273 331
#     4   9  16  28  48  73 102 135 170 208 251 302
#
# _framework density 19.869174999999998
#
# number of rings (size 3 to 8) (size 9 to 14) (size 15 to 20)
#    0.000    2.375    0.000    2.625    0.000    7.250 
#    0.000    3.125    0.000    1.125    0.000    0.000 
#    0.000    0.000    0.000    0.000    0.000    0.000 
#
# Total GULP energy -793213.076907 kJ/mol
# GULP energy per Si atom -12393.954327 kJ/mol
# Density = 1.982395 g / cm^3
# Si number density = 19.869175 Si / 1000 Ang^3
#
#
#
# Elastic Constant Matrix: (Units=GPa)
#
#
# Indices 1 2 3 4 5 6 
#
# 1 57.2630 30.0424 14.1947 0.0000 0.0000 0.0000
# 2 30.0424 72.4282 17.3974 0.0000 0.0000 0.0000
# 3 14.1947 17.3974 65.8834 0.0000 0.0000 0.0000
# 4 0.0000 0.0000 0.0000 34.2755 0.0000 0.0000
# 5 0.0000 0.0000 0.0000 0.0000 18.5605 0.0000
# 6 0.0000 0.0000 0.0000 0.0000 0.0000 29.7108
#
#
#
# Elastic Compliance Matrix: (Units=1/GPa)
#
#
# Indices 1 2 3 4 5 6 
#
# 1 0.022721 -0.008807 -0.002570 0.000000 0.000000 0.000000
# 2 -0.008807 0.018156 -0.002897 0.000000 0.000000 0.000000
# 3 -0.002570 -0.002897 0.016497 0.000000 0.000000 0.000000
# 4 0.000000 0.000000 0.000000 0.029175 0.000000 0.000000
# 5 0.000000 0.000000 0.000000 0.000000 0.053878 0.000000
# 6 0.000000 0.000000 0.000000 0.000000 0.000000 0.033658
#
#
# Mechanical properties :
#
#
# Convention : Reuss Voigt Hill
#
# Bulk Modulus (GPa) = 34.69038 35.42708 35.05873
# Shear Modulus (GPa) = 23.55823 25.43870 24.49846
#
# Velocity S-wave (km/s) = 3.44709 3.58202 3.51520
# Velocity P-wave (km/s) = 5.77412 5.91411 5.84454
#
# Compressibility (1/GPa) = 0.02882644
#
# Stress axis : x y z
#
# Youngs Moduli (GPa) = 44.01255 55.07924 60.61750
#
# Poissons Ratio (x) = 0.48509 0.15576
# Poissons Ratio (y) = 0.38762 0.17559
# Poissons Ratio (z) = 0.11310 0.15955
#
# Static dielectric constant tensor:
#      x y z
#    x 3.642190 0.000000 0.000000 
#    y 0.000000 3.645890 0.000000 
#    z 0.000000 0.000000 3.775860 
# 
# 
# High freq. dielectric constant tensor:
#      x y z
#    x 1.729650 0.000000 0.000000 
#    y 0.000000 1.779260 0.000000 
#    z 0.000000 0.000000 1.781640 
# 
# From -- ./inp_files/21619.got.cif
#   From: 2010.03.12/outbox.cif.g09.slc.cpg/sg59_11_cif.got.tgz:21619.got - 2010.04.16 16:29:54.
