data_PCOD8242468
_publ_section_title
;
Structure prediction by ZEFSAII (Michael W. Deem and Ramdas Pophale) SiO2 
 PCOD8242468
Probable space group: P M M N
;
_chemical_formula_sum "Si O2"
_cell_formula_units_Z 64
_cell_length_a 16.883227
_cell_length_b 14.326344
_cell_length_c 13.821528
_cell_angle_alpha 90.000000
_cell_angle_beta 90.000000
_cell_angle_gamma 90.000000
_cell_volume 3343.080949
_symmetry_space_group_name_H-M "P M M N"
_symmetry_group_IT_number 59
_space_group.IT_coordinate_system_code '2'
_symmetry_cell_setting 'orthorhombic'
loop_
_space_group_symop_operation_xyz
x,y,z
1/2-x,1/2-y,z
1/2+x,-y,-z
-x,1/2+y,-z
-x,-y,-z
1/2+x,1/2+y,-z
1/2-x,y,z
x,1/2-y,z
loop_
_atom_site_type_symbol
_atom_site_label
_atom_site_fract_x
_atom_site_fract_y
_atom_site_fract_z
Si Si1 0.529128 0.645470 0.174194
Si Si2 0.656865 0.143573 0.560023
Si Si3 0.839994 0.946768 0.857835
Si Si4 0.069132 0.575844 0.015675
Si Si5 0.946742 0.005357 0.688079
Si Si6 0.835541 0.643909 0.044353
Si Si7 0.429328 0.642246 0.640152
Si Si8 0.161443 0.859494 0.831240
O O1 0.544146 0.750000 0.214890
O O2 0.505922 0.578128 0.261207
O O3 0.605611 0.596812 0.121902
O O4 0.464249 0.654711 0.088369
O O5 0.750000 0.122364 0.565227
O O6 0.639781 0.250000 0.596792
O O7 0.612323 0.066483 0.623654
O O8 0.628025 0.132334 0.450892
O O9 0.750000 0.945510 0.820048
O O10 0.897484 0.945793 0.766270
O O11 0.860569 0.860841 0.930659
O O12 0.854980 0.035041 0.927573
O O13 0.100295 0.616013 0.915916
O O14 0.000000 0.500000 0.000000
O O15 0.995735 0.928165 0.627323
O O16 0.750000 0.595139 0.056202
O O17 0.832691 0.750000 0.075285
O O18 0.458932 0.750000 0.650595
O O19 0.379009 0.607323 0.731784
O O20 0.250000 0.903811 0.842533
O O21 0.171722 0.750000 0.828191
#
# Coordination Sequence:
#
# PCOD8242468 Si02
#       8
#     8   8   8   8   8   8   8   8
#     4  10  20  33  51  76 110 148 187 231 274 329
#     4  10  21  41  66  87 111 143 181 230 287 346
#     4  10  20  32  48  72 106 144 183 223 264 318
#     4  11  19  31  45  73 104 143 182 231 276 328
#     4  11  22  36  57  85 115 141 185 228 286 338
#     4   9  18  32  48  68 101 148 193 226 260 309
#     4  10  22  38  59  86 113 144 184 234 286 342
#     4  10  20  34  52  75 104 140 182 229 280 332
#
# _framework density 19.144017999999999
#
# number of rings (size 3 to 8) (size 9 to 14) (size 15 to 20)
#    0.000    1.875    1.250    3.750    0.000    2.000 
#    0.000    0.625    0.000    7.125    0.000    0.000 
#    0.000    0.000    0.000    0.000    0.000    0.000 
#
# Total GULP energy -792967.182849 kJ/mol
# GULP energy per Si atom -12390.112232 kJ/mol
# Density = 1.910045 g / cm^3
# Si number density = 19.144018 Si / 1000 Ang^3
#
#
#
# Elastic Constant Matrix: (Units=GPa)
#
#
# Indices 1 2 3 4 5 6 
#
# 1 99.2512 39.9485 34.8087 0.0000 0.0000 0.0000
# 2 39.9485 61.7790 22.6112 0.0000 0.0000 0.0000
# 3 34.8087 22.6112 81.0988 0.0000 0.0000 0.0000
# 4 0.0000 0.0000 0.0000 28.7588 0.0000 0.0000
# 5 0.0000 0.0000 0.0000 0.0000 27.6244 0.0000
# 6 0.0000 0.0000 0.0000 0.0000 0.0000 29.7138
#
#
#
# Elastic Compliance Matrix: (Units=1/GPa)
#
#
# Indices 1 2 3 4 5 6 
#
# 1 0.014744 -0.008038 -0.004087 0.000000 0.000000 0.000000
# 2 -0.008038 0.022408 -0.002798 0.000000 0.000000 0.000000
# 3 -0.004087 -0.002798 0.014865 0.000000 0.000000 0.000000
# 4 0.000000 0.000000 0.000000 0.034772 0.000000 0.000000
# 5 0.000000 0.000000 0.000000 0.000000 0.036200 0.000000
# 6 0.000000 0.000000 0.000000 0.000000 0.000000 0.033654
#
#
# Mechanical properties :
#
#
# Convention : Reuss Voigt Hill
#
# Bulk Modulus (GPa) = 45.10305 48.54065 46.82185
# Shear Modulus (GPa) = 25.78905 26.87011 26.32958
#
# Velocity S-wave (km/s) = 3.67428 3.75050 3.71258
# Velocity P-wave (km/s) = 6.45069 6.64572 6.54893
#
# Compressibility (1/GPa) = 0.02217145
#
# Stress axis : x y z
#
# Youngs Moduli (GPa) = 67.82284 44.62599 67.27226
#
# Poissons Ratio (x) = 0.35871 0.27496
# Poissons Ratio (y) = 0.54518 0.18820
# Poissons Ratio (z) = 0.27721 0.12485
#
# Static dielectric constant tensor:
#      x y z
#    x 3.872270 0.000000 0.000000 
#    y 0.000000 3.478100 0.000000 
#    z 0.000000 0.000000 3.445790 
# 
# 
# High freq. dielectric constant tensor:
#      x y z
#    x 1.753970 0.000000 0.000000 
#    y 0.000000 1.738220 0.000000 
#    z 0.000000 0.000000 1.730660 
# 
# From -- ./inp_files/17880.got.cif
#   From: 2010.03.12/outbox.cif.g09.slc.cpg/sg59_9_cif.got.tgz:17880.got - 2010.04.16 16:29:54.
