data_PCOD8242872
_publ_section_title
;
Structure prediction by ZEFSAII (Michael W. Deem and Ramdas Pophale) SiO2 
 PCOD8242872
Probable space group: P M M N
;
_chemical_formula_sum "Si O2"
_cell_formula_units_Z 56
_cell_length_a 13.735059
_cell_length_b 9.626235
_cell_length_c 22.023741
_cell_angle_alpha 90.000000
_cell_angle_beta 90.000000
_cell_angle_gamma 90.000000
_cell_volume 2911.910886
_symmetry_space_group_name_H-M "P M M N"
_symmetry_group_IT_number 59
_space_group.IT_coordinate_system_code '2'
_symmetry_cell_setting 'orthorhombic'
loop_
_space_group_symop_operation_xyz
x,y,z
1/2-x,1/2-y,z
1/2+x,-y,-z
-x,1/2+y,-z
-x,-y,-z
1/2+x,1/2+y,-z
1/2-x,y,z
x,1/2-y,z
loop_
_atom_site_type_symbol
_atom_site_label
_atom_site_fract_x
_atom_site_fract_y
_atom_site_fract_z
Si Si1 0.137937 0.411496 0.031312
Si Si2 0.857224 0.496561 0.546061
Si Si3 0.479539 0.411021 0.911748
Si Si4 0.360243 0.092414 0.794184
Si Si5 0.147788 0.094638 0.323777
Si Si6 0.937579 0.417239 0.311646
Si Si7 0.561912 0.900541 0.425012
O O1 0.250000 0.458107 0.034376
O O2 0.126038 0.250000 0.047283
O O3 0.077229 0.498908 0.080621
O O4 0.098104 0.445105 0.964319
O O5 0.750000 0.422339 0.543660
O O6 0.859710 0.600692 0.603224
O O7 0.871889 0.581022 0.484193
O O8 0.947822 0.392655 0.555438
O O9 0.508979 0.250000 0.913009
O O10 0.430806 0.453767 0.848402
O O11 0.250000 0.084467 0.818329
O O12 0.384398 0.250000 0.772974
O O13 0.369707 0.984345 0.739064
O O14 0.250000 0.017301 0.304205
O O15 0.154150 0.250000 0.299331
O O16 0.048572 0.030612 0.296398
O O17 0.926504 0.250000 0.313234
O O18 0.909980 0.478260 0.377564
O O19 0.586532 0.750000 0.396267
#
# Coordination Sequence:
#
# PCOD8242872 Si02
#       7
#     8   8   8   8   8   8   8
#     4   9  17  31  53  82 115 147 176 210 258 312
#     4   9  18  31  49  73 100 129 162 204 254 307
#     4   9  18  33  54  80 109 141 180 222 259 300
#     4  10  21  38  58  76  98 135 180 220 258 302
#     4   8  14  28  50  72  94 123 159 199 248 307
#     4  10  21  36  53  74 102 134 170 215 261 304
#     4  10  20  33  51  76 104 134 169 209 256 312
#
# _framework density 19.231358
#
# number of rings (size 3 to 8) (size 9 to 14) (size 15 to 20)
#    0.000    2.714    0.000    1.286    0.000    8.000 
#    0.000    0.714    0.000    6.429    0.000    0.000 
#    0.000    0.000    0.000    0.000    0.000    0.000 
#
# Total GULP energy -693805.797412 kJ/mol
# GULP energy per Si atom -12389.389239 kJ/mol
# Density = 1.918759 g / cm^3
# Si number density = 19.231358 Si / 1000 Ang^3
#
#
#
# Elastic Constant Matrix: (Units=GPa)
#
#
# Indices 1 2 3 4 5 6 
#
# 1 106.4367 30.8499 35.4309 0.0000 0.0000 0.0000
# 2 30.8499 85.6792 38.7733 0.0000 0.0000 0.0000
# 3 35.4309 38.7733 73.2098 0.0000 0.0000 0.0000
# 4 0.0000 0.0000 0.0000 26.6833 0.0000 0.0000
# 5 0.0000 0.0000 0.0000 0.0000 26.4816 0.0000
# 6 0.0000 0.0000 0.0000 0.0000 0.0000 22.1527
#
#
#
# Elastic Compliance Matrix: (Units=1/GPa)
#
#
# Indices 1 2 3 4 5 6 
#
# 1 0.011488 -0.002131 -0.004431 0.000000 0.000000 0.000000
# 2 -0.002131 0.015746 -0.007308 0.000000 0.000000 0.000000
# 3 -0.004431 -0.007308 0.019674 0.000000 0.000000 0.000000
# 4 0.000000 0.000000 0.000000 0.037477 0.000000 0.000000
# 5 0.000000 0.000000 0.000000 0.000000 0.037762 0.000000
# 6 0.000000 0.000000 0.000000 0.000000 0.000000 0.045141
#
#
# Mechanical properties :
#
#
# Convention : Reuss Voigt Hill
#
# Bulk Modulus (GPa) = 52.17067 52.82599 52.49833
# Shear Modulus (GPa) = 24.82404 25.74830 25.28617
#
# Velocity S-wave (km/s) = 3.59668 3.66303 3.63001
# Velocity P-wave (km/s) = 6.66596 6.73934 6.70275
#
# Compressibility (1/GPa) = 0.01916786
#
# Stress axis : x y z
#
# Youngs Moduli (GPa) = 87.04750 63.50841 50.82780
#
# Poissons Ratio (x) = 0.13535 0.22522
# Poissons Ratio (y) = 0.18551 0.37145
# Poissons Ratio (z) = 0.38571 0.46412
#
# Static dielectric constant tensor:
#      x y z
#    x 3.848380 0.000000 0.000000 
#    y 0.000000 3.264240 0.000000 
#    z 0.000000 0.000000 3.235680 
# 
# 
# High freq. dielectric constant tensor:
#      x y z
#    x 1.760640 0.000000 0.000000 
#    y 0.000000 1.725190 0.000000 
#    z 0.000000 0.000000 1.723140 
# 
# From -- ./inp_files/30356.got.cif
#   From: 2010.03.12/outbox.cif.g09.slc.cpg/sg59_16_cif.got.tgz:30356.got - 2010.04.16 16:29:54.
