data_PCOD8242011
_publ_section_title
;
Structure prediction by ZEFSAII (Michael W. Deem and Ramdas Pophale) SiO2 
 PCOD8242011
Probable space group: P M M N
;
_chemical_formula_sum "Si O2"
_cell_formula_units_Z 48
_cell_length_a 9.150076
_cell_length_b 27.786467
_cell_length_c 10.166370
_cell_angle_alpha 90.000000
_cell_angle_beta 90.000000
_cell_angle_gamma 90.000000
_cell_volume 2584.782135
_symmetry_space_group_name_H-M "P M M N"
_symmetry_group_IT_number 59
_space_group.IT_coordinate_system_code '2'
_symmetry_cell_setting 'orthorhombic'
loop_
_space_group_symop_operation_xyz
x,y,z
1/2-x,1/2-y,z
1/2+x,-y,-z
-x,1/2+y,-z
-x,-y,-z
1/2+x,1/2+y,-z
1/2-x,y,z
x,1/2-y,z
loop_
_atom_site_type_symbol
_atom_site_label
_atom_site_fract_x
_atom_site_fract_y
_atom_site_fract_z
Si Si1 0.083753 0.806184 0.013453
Si Si2 0.917600 0.452530 0.144748
Si Si3 0.581301 0.350260 0.260542
Si Si4 0.580298 0.452163 0.840225
Si Si5 0.077163 0.304479 0.502625
Si Si6 0.922723 0.860661 0.238318
O O1 0.250000 0.824429 0.039113
O O2 0.069261 0.750000 0.039532
O O3 0.039112 0.817536 0.864085
O O4 0.973701 0.833311 0.108323
O O5 0.750000 0.468785 0.160072
O O6 0.953646 0.405835 0.230502
O O7 0.019721 0.495269 0.196547
O O8 0.950552 0.440280 0.992816
O O9 0.750000 0.343007 0.297589
O O10 0.484142 0.334312 0.381535
O O11 0.750000 0.450637 0.804746
O O12 0.497151 0.412893 0.752279
O O13 0.250000 0.304309 0.491671
O O14 0.015721 0.250000 0.501869
O O15 0.025840 0.329885 0.636501
O O16 0.750000 0.867334 0.232941
#
# Coordination Sequence:
#
# PCOD8242011 Si02
#       6
#     8   8   8   8   8   8
#     4  10  20  35  56  83 113 142 182 237 287 334
#     4   9  18  34  56  84 117 146 179 227 283 338
#     4  10  20  37  59  84 113 146 185 231 282 336
#     4  10  19  34  57  85 116 146 184 231 282 335
#     4  10  23  41  57  78 113 153 192 235 280 331
#     4  11  22  37  57  81 113 151 191 233 282 334
#
# _framework density 18.570229999999999
#
# number of rings (size 3 to 8) (size 9 to 14) (size 15 to 20)
#    0.000    2.000    1.667    2.000    0.000    5.333 
#    0.000    0.833    0.000    0.000    0.000    0.000 
#    0.000    0.000    0.000    0.000    0.000    0.000 
#
# Total GULP energy -595411.090896 kJ/mol
# GULP energy per Si atom -12404.397727 kJ/mol
# Density = 1.852796 g / cm^3
# Si number density = 18.570230 Si / 1000 Ang^3
#
#
#
# Elastic Constant Matrix: (Units=GPa)
#
#
# Indices 1 2 3 4 5 6 
#
# 1 57.7731 46.2201 33.4354 0.0000 0.0000 0.0000
# 2 46.2201 116.8530 48.2235 0.0000 0.0000 0.0000
# 3 33.4354 48.2235 70.0375 0.0000 0.0000 0.0000
# 4 0.0000 0.0000 0.0000 30.1081 0.0000 0.0000
# 5 0.0000 0.0000 0.0000 0.0000 30.1616 0.0000
# 6 0.0000 0.0000 0.0000 0.0000 0.0000 34.8659
#
#
#
# Elastic Compliance Matrix: (Units=1/GPa)
#
#
# Indices 1 2 3 4 5 6 
#
# 1 0.028267 -0.007839 -0.008097 0.000000 0.000000 0.000000
# 2 -0.007839 0.014129 -0.005986 0.000000 0.000000 0.000000
# 3 -0.008097 -0.005986 0.022265 0.000000 0.000000 0.000000
# 4 0.000000 0.000000 0.000000 0.033214 0.000000 0.000000
# 5 0.000000 0.000000 0.000000 0.000000 0.033155 0.000000
# 6 0.000000 0.000000 0.000000 0.000000 0.000000 0.028681
#
#
# Mechanical properties :
#
#
# Convention : Reuss Voigt Hill
#
# Bulk Modulus (GPa) = 48.03822 55.60241 51.82032
# Shear Modulus (GPa) = 23.75387 26.81275 25.28331
#
# Velocity S-wave (km/s) = 3.58038 3.80393 3.69385
# Velocity P-wave (km/s) = 6.55872 7.02139 6.79399
#
# Compressibility (1/GPa) = 0.02081676
#
# Stress axis : x y z
#
# Youngs Moduli (GPa) = 35.37752 70.77778 44.91393
#
# Poissons Ratio (x) = 0.55484 0.36365
# Poissons Ratio (y) = 0.27733 0.26885
# Poissons Ratio (z) = 0.28644 0.42366
#
# Static dielectric constant tensor:
#      x y z
#    x 3.370060 0.000000 0.000000 
#    y 0.000000 3.648070 0.000000 
#    z 0.000000 0.000000 3.229520 
# 
# 
# High freq. dielectric constant tensor:
#      x y z
#    x 1.718990 0.000000 0.000000 
#    y 0.000000 1.738230 0.000000 
#    z 0.000000 0.000000 1.702370 
# 
# From -- ./inp_files/6246.got.cif
#   From: 2010.03.12/outbox.cif.g09.slc.cpg/sg59_4_cif.got.tgz:6246.got - 2010.04.16 16:29:54.
