data_PCOD8242743
_publ_section_title
;
Structure prediction by ZEFSAII (Michael W. Deem and Ramdas Pophale) SiO2 
 PCOD8242743
Probable space group: P M M N
;
_chemical_formula_sum "Si O2"
_cell_formula_units_Z 48
_cell_length_a 9.049099
_cell_length_b 8.990739
_cell_length_c 31.034251
_cell_angle_alpha 90.000000
_cell_angle_beta 90.000000
_cell_angle_gamma 90.000000
_cell_volume 2524.887302
_symmetry_space_group_name_H-M "P M M N"
_symmetry_group_IT_number 59
_space_group.IT_coordinate_system_code '2'
_symmetry_cell_setting 'orthorhombic'
loop_
_space_group_symop_operation_xyz
x,y,z
1/2-x,1/2-y,z
1/2+x,-y,-z
-x,1/2+y,-z
-x,-y,-z
1/2+x,1/2+y,-z
1/2-x,y,z
x,1/2-y,z
loop_
_atom_site_type_symbol
_atom_site_label
_atom_site_fract_x
_atom_site_fract_y
_atom_site_fract_z
Si Si1 0.916606 0.073026 0.290816
Si Si2 0.923731 0.079593 0.039491
Si Si3 0.919898 0.074200 0.460201
Si Si4 0.080243 0.075480 0.872962
Si Si5 0.583194 0.927157 0.625324
Si Si6 0.576599 0.578474 0.795275
O O1 0.750000 0.010435 0.290860
O O2 0.916416 0.250000 0.292733
O O3 0.002265 0.008703 0.332316
O O4 0.998278 0.018234 0.247798
O O5 0.750000 0.063153 0.033360
O O6 0.974656 0.250000 0.040988
O O7 0.975586 0.002772 0.083584
O O8 0.000000 0.000000 0.000000
O O9 0.750000 0.024257 0.459325
O O10 0.935986 0.250000 0.464463
O O11 0.996145 0.015674 0.416571
O O12 0.000000 0.000000 0.500000
O O13 0.250000 0.032709 0.862942
O O14 0.060225 0.250000 0.879107
O O15 0.977878 0.020435 0.834572
O O16 0.750000 0.989200 0.623914
O O17 0.583626 0.750000 0.626706
O O18 0.750000 0.557978 0.789016
O O19 0.534726 0.750000 0.804134
#
# Coordination Sequence:
#
# PCOD8242743 Si02
#       6
#     8   8   8   8   8   8
#     4   9  16  27  46  72 101 132 167 209 255 303
#     4  10  21  37  58  83 110 141 177 217 262 311
#     4  10  20  33  50  73 101 134 173 215 260 312
#     4  10  21  37  56  77 103 138 178 217 258 306
#     4   9  16  27  45  70 100 132 167 210 258 307
#     4  10  20  33  51  77 106 135 169 210 256 305
#
# _framework density 19.010750000000002
#
# number of rings (size 3 to 8) (size 9 to 14) (size 15 to 20)
#    0.000    2.333    0.000    3.000    0.000    8.667 
#    0.000    0.000    0.000    1.000    0.000    0.000 
#    0.000    0.000    0.000    0.000    0.000    0.000 
#
# Total GULP energy -595335.416903 kJ/mol
# GULP energy per Si atom -12402.821185 kJ/mol
# Density = 1.896748 g / cm^3
# Si number density = 19.010750 Si / 1000 Ang^3
#
#
#
# Elastic Constant Matrix: (Units=GPa)
#
#
# Indices 1 2 3 4 5 6 
#
# 1 134.7656 36.1843 89.0241 0.0000 0.0000 0.0000
# 2 36.1843 54.6006 49.9931 0.0000 0.0000 0.0000
# 3 89.0241 49.9931 192.8699 0.0000 0.0000 0.0000
# 4 0.0000 0.0000 0.0000 27.4323 0.0000 0.0000
# 5 0.0000 0.0000 0.0000 0.0000 45.1625 0.0000
# 6 0.0000 0.0000 0.0000 0.0000 0.0000 22.9480
#
#
#
# Elastic Compliance Matrix: (Units=1/GPa)
#
#
# Indices 1 2 3 4 5 6 
#
# 1 0.011167 -0.003515 -0.004243 0.000000 0.000000 0.000000
# 2 -0.003515 0.025121 -0.004889 0.000000 0.000000 0.000000
# 3 -0.004243 -0.004889 0.008411 0.000000 0.000000 0.000000
# 4 0.000000 0.000000 0.000000 0.036453 0.000000 0.000000
# 5 0.000000 0.000000 0.000000 0.000000 0.022142 0.000000
# 6 0.000000 0.000000 0.000000 0.000000 0.000000 0.043577
#
#
# Mechanical properties :
#
#
# Convention : Reuss Voigt Hill
#
# Bulk Modulus (GPa) = 51.53680 81.40436 66.47058
# Shear Modulus (GPa) = 27.99016 32.91086 30.45051
#
# Velocity S-wave (km/s) = 3.84126 4.16525 4.00653
# Velocity P-wave (km/s) = 6.84411 8.12684 7.51290
#
# Compressibility (1/GPa) = 0.01940361
#
# Stress axis : x y z
#
# Youngs Moduli (GPa) = 89.54768 39.80761 118.89645
#
# Poissons Ratio (x) = 0.13994 0.50452
# Poissons Ratio (y) = 0.31479 0.58127
# Poissons Ratio (z) = 0.37998 0.19461
#
# Static dielectric constant tensor:
#      x y z
#    x 3.723360 0.000000 0.000000 
#    y 0.000000 3.136210 0.000000 
#    z 0.000000 0.000000 3.631270 
# 
# 
# High freq. dielectric constant tensor:
#      x y z
#    x 1.748630 0.000000 0.000000 
#    y 0.000000 1.699170 0.000000 
#    z 0.000000 0.000000 1.757330 
# 
# From -- ./inp_files/32872.got.cif
#   From: 2010.03.12/outbox.cif.g09.slc.cpg/sg59_17_cif.got.tgz:32872.got - 2010.04.16 16:29:54.
