data_PCOD8242972
_publ_section_title
;
Structure prediction by ZEFSAII (Michael W. Deem and Ramdas Pophale) SiO2 
 PCOD8242972
Probable space group: P M M N
;
_chemical_formula_sum "Si O2"
_cell_formula_units_Z 48
_cell_length_a 9.276685
_cell_length_b 9.267362
_cell_length_c 30.728829
_cell_angle_alpha 90.000000
_cell_angle_beta 90.000000
_cell_angle_gamma 90.000000
_cell_volume 2641.769661
_symmetry_space_group_name_H-M "P M M N"
_symmetry_group_IT_number 59
_space_group.IT_coordinate_system_code '2'
_symmetry_cell_setting 'orthorhombic'
loop_
_space_group_symop_operation_xyz
x,y,z
1/2-x,1/2-y,z
1/2+x,-y,-z
-x,1/2+y,-z
-x,-y,-z
1/2+x,1/2+y,-z
1/2-x,y,z
x,1/2-y,z
loop_
_atom_site_type_symbol
_atom_site_label
_atom_site_fract_x
_atom_site_fract_y
_atom_site_fract_z
Si Si1 0.417397 0.418230 0.710137
Si Si2 0.915887 0.083723 0.376494
Si Si3 0.586439 0.080671 0.963362
Si Si4 0.416284 0.419261 0.462390
Si Si5 0.578501 0.410328 0.867356
Si Si6 0.078942 0.085270 0.214968
O O1 0.250000 0.446782 0.720038
O O2 0.454614 0.250000 0.708999
O O3 0.461457 0.485847 0.664028
O O4 0.510928 0.493078 0.746841
O O5 0.750000 0.057668 0.389772
O O6 0.942819 0.250000 0.363745
O O7 0.015277 0.035401 0.416445
O O8 0.750000 0.027235 0.966694
O O9 0.574696 0.250000 0.971469
O O10 0.523370 0.042326 0.915297
O O11 0.500000 0.000000 0.000000
O O12 0.500000 0.500000 0.500000
O O13 0.250000 0.466682 0.462585
O O14 0.434330 0.250000 0.470358
O O15 0.750000 0.405175 0.868923
O O16 0.520225 0.250000 0.855690
O O17 0.523412 0.522466 0.831146
O O18 0.250000 0.072544 0.218733
O O19 0.026848 0.250000 0.218375
#
# Coordination Sequence:
#
# PCOD8242972 Si02
#       6
#     8   8   8   8   8   8
#     4  10  21  36  54  77 105 137 171 207 251 303
#     4   9  18  34  54  74 101 138 175 211 253 300
#     4   9  18  32  50  73 100 130 166 207 251 301
#     4  10  21  36  55  80 109 140 174 213 256 302
#     4   8  15  30  50  70  96 131 168 207 251 298
#     4  10  20  33  52  78 103 129 166 210 253 300
#
# _framework density 18.169637000000002
#
# number of rings (size 3 to 8) (size 9 to 14) (size 15 to 20)
#    0.000    2.667    0.000    2.500    0.000    5.333 
#    0.000    5.833    0.000    1.000    0.000    0.000 
#    0.000    0.000    0.000    0.000    0.000    0.000 
#
# Total GULP energy -595190.231732 kJ/mol
# GULP energy per Si atom -12399.796494 kJ/mol
# Density = 1.812828 g / cm^3
# Si number density = 18.169637 Si / 1000 Ang^3
#
#
#
# Elastic Constant Matrix: (Units=GPa)
#
#
# Indices 1 2 3 4 5 6 
#
# 1 65.5543 42.8336 66.1473 0.0000 0.0000 0.0000
# 2 42.8336 100.0302 87.4222 0.0000 0.0000 0.0000
# 3 66.1473 87.4222 167.7316 0.0000 0.0000 0.0000
# 4 0.0000 0.0000 0.0000 42.1579 0.0000 0.0000
# 5 0.0000 0.0000 0.0000 0.0000 34.7656 0.0000
# 6 0.0000 0.0000 0.0000 0.0000 0.0000 27.4313
#
#
#
# Elastic Compliance Matrix: (Units=1/GPa)
#
#
# Indices 1 2 3 4 5 6 
#
# 1 0.026188 -0.004018 -0.008233 0.000000 0.000000 0.000000
# 2 -0.004018 0.018977 -0.008306 0.000000 0.000000 0.000000
# 3 -0.008233 -0.008306 0.013538 0.000000 0.000000 0.000000
# 4 0.000000 0.000000 0.000000 0.023720 0.000000 0.000000
# 5 0.000000 0.000000 0.000000 0.000000 0.028764 0.000000
# 6 0.000000 0.000000 0.000000 0.000000 0.000000 0.036455
#
#
# Mechanical properties :
#
#
# Convention : Reuss Voigt Hill
#
# Bulk Modulus (GPa) = 56.85908 80.68026 68.76967
# Shear Modulus (GPa) = 25.69120 29.99850 27.84485
#
# Velocity S-wave (km/s) = 3.76435 4.06769 3.91895
# Velocity P-wave (km/s) = 7.08909 8.15854 7.64254
#
# Compressibility (1/GPa) = 0.01758734
#
# Stress axis : x y z
#
# Youngs Moduli (GPa) = 38.18581 52.69584 73.86672
#
# Poissons Ratio (x) = 0.21175 0.60815
# Poissons Ratio (y) = 0.15345 0.61354
# Poissons Ratio (z) = 0.31439 0.43770
#
# Static dielectric constant tensor:
#      x y z
#    x 3.204380 0.000000 0.000000 
#    y 0.000000 3.144690 0.000000 
#    z 0.000000 0.000000 3.517630 
# 
# 
# High freq. dielectric constant tensor:
#      x y z
#    x 1.682630 0.000000 0.000000 
#    y 0.000000 1.705110 0.000000 
#    z 0.000000 0.000000 1.717960 
# 
# From -- ./inp_files/32845.got.cif
#   From: 2010.03.12/outbox.cif.g09.slc.cpg/sg59_17_cif.got.tgz:32845.got - 2010.04.16 16:29:54.
