data_PCOD8242990
_publ_section_title
;
Structure prediction by ZEFSAII (Michael W. Deem and Ramdas Pophale) SiO2 
 PCOD8242990
Probable space group: P M M N
;
_chemical_formula_sum "Si O2"
_cell_formula_units_Z 40
_cell_length_a 9.419425
_cell_length_b 9.045554
_cell_length_c 25.646619
_cell_angle_alpha 90.000000
_cell_angle_beta 90.000000
_cell_angle_gamma 90.000000
_cell_volume 2185.192409
_symmetry_space_group_name_H-M "P M M N"
_symmetry_group_IT_number 59
_space_group.IT_coordinate_system_code '2'
_symmetry_cell_setting 'orthorhombic'
loop_
_space_group_symop_operation_xyz
x,y,z
1/2-x,1/2-y,z
1/2+x,-y,-z
-x,1/2+y,-z
-x,-y,-z
1/2+x,1/2+y,-z
1/2-x,y,z
x,1/2-y,z
loop_
_atom_site_type_symbol
_atom_site_label
_atom_site_fract_x
_atom_site_fract_y
_atom_site_fract_z
Si Si1 0.584335 0.578877 0.045425
Si Si2 0.415606 0.081390 0.544327
Si Si3 0.416071 0.922765 0.242753
Si Si4 0.413398 0.923309 0.847622
Si Si5 0.907535 0.574384 0.340829
O O1 0.750000 0.557556 0.034205
O O2 0.541179 0.750000 0.047900
O O3 0.540319 0.504088 0.099581
O O4 0.500000 0.500000 0.000000
O O5 0.250000 0.063966 0.532978
O O6 0.464154 0.250000 0.542344
O O7 0.451736 0.014587 0.601823
O O8 0.500000 0.000000 0.500000
O O9 0.250000 0.955773 0.243525
O O10 0.448927 0.750000 0.233633
O O11 0.480291 0.978807 0.297662
O O12 0.487044 0.016947 0.197591
O O13 0.250000 0.959284 0.833790
O O14 0.438419 0.750000 0.855077
O O15 0.750000 0.515688 0.325773
O O16 0.902565 0.750000 0.344149
#
# Coordination Sequence:
#
# PCOD8242990 Si02
#       5
#     8   8   8   8   8
#     4  10  21  37  58  83 109 139 175 214 257 303
#     4   9  18  32  50  74 102 132 169 211 255 305
#     4  10  20  33  52  79 105 130 166 212 260 308
#     4  10  21  37  56  77 103 138 177 213 252 302
#     4   8  15  30  51  72  97 132 172 212 253 301
#
# _framework density 18.305025000000001
#
# number of rings (size 3 to 8) (size 9 to 14) (size 15 to 20)
#    0.000    2.600    0.000    3.000    0.000    5.600 
#    0.000    3.000    0.000    1.200    0.000    0.000 
#    0.000    0.000    0.000    0.000    0.000    0.000 
#
# Total GULP energy -495967.027298 kJ/mol
# GULP energy per Si atom -12399.175682 kJ/mol
# Density = 1.826336 g / cm^3
# Si number density = 18.305025 Si / 1000 Ang^3
#
#
#
# Elastic Constant Matrix: (Units=GPa)
#
#
# Indices 1 2 3 4 5 6 
#
# 1 87.0465 50.7551 85.2967 0.0000 0.0000 0.0000
# 2 50.7551 81.9894 69.5461 0.0000 0.0000 0.0000
# 3 85.2967 69.5461 173.1026 0.0000 0.0000 0.0000
# 4 0.0000 0.0000 0.0000 33.5418 0.0000 0.0000
# 5 0.0000 0.0000 0.0000 0.0000 41.9743 0.0000
# 6 0.0000 0.0000 0.0000 0.0000 0.0000 28.7123
#
#
#
# Elastic Compliance Matrix: (Units=1/GPa)
#
#
# Indices 1 2 3 4 5 6 
#
# 1 0.025008 -0.007628 -0.009258 0.000000 0.000000 0.000000
# 2 -0.007628 0.020829 -0.004609 0.000000 0.000000 0.000000
# 3 -0.009258 -0.004609 0.012191 0.000000 0.000000 0.000000
# 4 0.000000 0.000000 0.000000 0.029814 0.000000 0.000000
# 5 0.000000 0.000000 0.000000 0.000000 0.023824 0.000000
# 6 0.000000 0.000000 0.000000 0.000000 0.000000 0.034828
#
#
# Mechanical properties :
#
#
# Convention : Reuss Voigt Hill
#
# Bulk Modulus (GPa) = 66.50588 83.70382 75.10485
# Shear Modulus (GPa) = 25.70748 29.94838 27.82793
#
# Velocity S-wave (km/s) = 3.75159 4.04923 3.90325
# Velocity P-wave (km/s) = 7.42811 8.22728 7.83789
#
# Compressibility (1/GPa) = 0.01503626
#
# Stress axis : x y z
#
# Youngs Moduli (GPa) = 39.98769 48.01078 82.02956
#
# Poissons Ratio (x) = 0.36622 0.75943
# Poissons Ratio (y) = 0.30502 0.37811
# Poissons Ratio (z) = 0.37021 0.22130
#
# Static dielectric constant tensor:
#      x y z
#    x 3.238230 0.000000 0.000000 
#    y 0.000000 3.228450 0.000000 
#    z 0.000000 0.000000 3.675490 
# 
# 
# High freq. dielectric constant tensor:
#      x y z
#    x 1.706040 0.000000 0.000000 
#    y 0.000000 1.690590 0.000000 
#    z 0.000000 0.000000 1.725480 
# 
# From -- ./inp_files/31128.got.cif
#   From: 2010.03.12/outbox.cif.g09.slc.cpg/sg59_16_cif.got.tgz:31128.got - 2010.04.16 16:29:54.
