data_PCOD8242460
_publ_section_title
;
Structure prediction by ZEFSAII (Michael W. Deem and Ramdas Pophale) SiO2 
 PCOD8242460
Probable space group: P M M N
;
_chemical_formula_sum "Si O2"
_cell_formula_units_Z 64
_cell_length_a 9.234564
_cell_length_b 22.375327
_cell_length_c 16.358291
_cell_angle_alpha 90.000000
_cell_angle_beta 90.000000
_cell_angle_gamma 90.000000
_cell_volume 3380.054603
_symmetry_space_group_name_H-M "P M M N"
_symmetry_group_IT_number 59
_space_group.IT_coordinate_system_code '2'
_symmetry_cell_setting 'orthorhombic'
loop_
_space_group_symop_operation_xyz
x,y,z
1/2-x,1/2-y,z
1/2+x,-y,-z
-x,1/2+y,-z
-x,-y,-z
1/2+x,1/2+y,-z
1/2-x,y,z
x,1/2-y,z
loop_
_atom_site_type_symbol
_atom_site_label
_atom_site_fract_x
_atom_site_fract_y
_atom_site_fract_z
Si Si1 0.919906 0.494047 0.586371
Si Si2 0.420065 0.408878 0.957524
Si Si3 0.086397 0.816439 0.625113
Si Si4 0.419595 0.820199 0.158583
Si Si5 0.082846 0.866083 0.335771
Si Si6 0.592691 0.681539 0.475814
Si Si7 0.415221 0.930009 0.714321
Si Si8 0.581232 0.039190 0.105038
O O1 0.750000 0.502637 0.571236
O O2 0.953766 0.432114 0.632497
O O3 0.000000 0.500000 0.500000
O O4 0.978691 0.543661 0.647131
O O5 0.250000 0.396859 0.966441
O O6 0.491632 0.351890 0.913682
O O7 0.453390 0.469422 0.907769
O O8 0.489315 0.417440 0.046818
O O9 0.250000 0.814150 0.592273
O O10 0.032852 0.750000 0.649652
O O11 0.074590 0.858180 0.704766
O O12 0.996626 0.846877 0.550849
O O13 0.250000 0.827558 0.140146
O O14 0.461651 0.750000 0.163867
O O15 0.462462 0.854736 0.242002
O O16 0.250000 0.849714 0.347293
O O17 0.989726 0.821492 0.390306
O O18 0.750000 0.649806 0.469754
O O19 0.613002 0.750000 0.498035
O O20 0.250000 0.952559 0.700638
O O21 0.470421 0.946446 0.803813
O O22 0.750000 0.053119 0.090659
#
# Coordination Sequence:
#
# PCOD8242460 Si02
#       8
#     8   8   8   8   8   8   8   8
#     4  11  23  36  52  77 110 146 183 227 277 327
#     4  10  20  35  57  83 110 140 174 216 267 322
#     4   9  18  33  52  72  96 129 168 209 252 300
#     4  10  21  37  57  80 108 144 184 227 276 331
#     4  10  21  36  53  74 102 140 184 224 265 318
#     4  10  20  32  48  72 100 132 172 216 259 302
#     4  10  20  35  55  78 104 135 174 218 263 312
#     4   9  19  36  58  83 110 140 175 218 267 320
#
# _framework density 18.934604
#
# number of rings (size 3 to 8) (size 9 to 14) (size 15 to 20)
#    0.000    2.125    0.000    3.000    0.000    7.500 
#    0.000    0.625    0.000    2.250    0.000    0.000 
#    0.000    0.000    0.000    0.000    0.000    0.000 
#
# Total GULP energy -793504.795766 kJ/mol
# GULP energy per Si atom -12398.512434 kJ/mol
# Density = 1.889151 g / cm^3
# Si number density = 18.934604 Si / 1000 Ang^3
#
#
#
# Elastic Constant Matrix: (Units=GPa)
#
#
# Indices 1 2 3 4 5 6 
#
# 1 80.1876 48.4626 57.4781 0.0000 0.0000 0.0000
# 2 48.4626 89.1907 62.8905 0.0000 0.0000 0.0000
# 3 57.4781 62.8905 137.6983 0.0000 0.0000 0.0000
# 4 0.0000 0.0000 0.0000 33.0288 0.0000 0.0000
# 5 0.0000 0.0000 0.0000 0.0000 27.1284 0.0000
# 6 0.0000 0.0000 0.0000 0.0000 0.0000 26.0553
#
#
#
# Elastic Compliance Matrix: (Units=1/GPa)
#
#
# Indices 1 2 3 4 5 6 
#
# 1 0.020817 -0.007647 -0.005197 0.000000 0.000000 0.000000
# 2 -0.007647 0.019347 -0.005644 0.000000 0.000000 0.000000
# 3 -0.005197 -0.005644 0.012010 0.000000 0.000000 0.000000
# 4 0.000000 0.000000 0.000000 0.030277 0.000000 0.000000
# 5 0.000000 0.000000 0.000000 0.000000 0.036862 0.000000
# 6 0.000000 0.000000 0.000000 0.000000 0.000000 0.038380
#
#
# Mechanical properties :
#
#
# Convention : Reuss Voigt Hill
#
# Bulk Modulus (GPa) = 65.80058 71.63767 68.71912
# Shear Modulus (GPa) = 25.03328 26.45888 25.74608
#
# Velocity S-wave (km/s) = 3.64000 3.74221 3.69146
# Velocity P-wave (km/s) = 7.24521 7.52254 7.38518
#
# Compressibility (1/GPa) = 0.01519743
#
# Stress axis : x y z
#
# Youngs Moduli (GPa) = 48.03661 51.68825 83.26688
#
# Poissons Ratio (x) = 0.39524 0.43275
# Poissons Ratio (y) = 0.36732 0.46998
# Poissons Ratio (z) = 0.24966 0.29174
#
# Static dielectric constant tensor:
#      x y z
#    x 3.598060 0.000000 0.000000 
#    y 0.000000 3.485130 0.000000 
#    z 0.000000 0.000000 3.416500 
# 
# 
# High freq. dielectric constant tensor:
#      x y z
#    x 1.738170 0.000000 0.000000 
#    y 0.000000 1.733930 0.000000 
#    z 0.000000 0.000000 1.728810 
# 
# From -- ./inp_files/21478.got.cif
#   From: 2010.03.12/outbox.cif.g09.slc.cpg/sg59_11_cif.got.tgz:21478.got - 2010.04.16 16:29:54.
