data_PCOD8242245
_publ_section_title
;
Structure prediction by ZEFSAII (Michael W. Deem and Ramdas Pophale) SiO2 
 PCOD8242245
Probable space group: P M M N
;
_chemical_formula_sum "Si O2"
_cell_formula_units_Z 32
_cell_length_a 18.558860
_cell_length_b 7.668052
_cell_length_c 11.915682
_cell_angle_alpha 90.000000
_cell_angle_beta 90.000000
_cell_angle_gamma 90.000000
_cell_volume 1695.724322
_symmetry_space_group_name_H-M "P M M N"
_symmetry_group_IT_number 59
_space_group.IT_coordinate_system_code '2'
_symmetry_cell_setting 'orthorhombic'
loop_
_space_group_symop_operation_xyz
x,y,z
1/2-x,1/2-y,z
1/2+x,-y,-z
-x,1/2+y,-z
-x,-y,-z
1/2+x,1/2+y,-z
1/2-x,y,z
x,1/2-y,z
loop_
_atom_site_type_symbol
_atom_site_label
_atom_site_fract_x
_atom_site_fract_y
_atom_site_fract_z
Si Si1 0.664606 0.250000 0.003505
Si Si2 0.667369 0.945036 0.162073
Si Si3 0.588309 0.551793 0.621126
Si Si4 0.164570 0.750000 0.248331
Si Si5 0.422280 0.954929 0.626781
O O1 0.750000 0.250000 0.996310
O O2 0.632797 0.250000 0.878143
O O3 0.636749 0.421543 0.069119
O O4 0.750000 0.991349 0.191209
O O5 0.660648 0.750000 0.112566
O O6 0.622172 0.955592 0.275251
O O7 0.603574 0.750000 0.659330
O O8 0.638754 0.424895 0.691372
O O9 0.606077 0.533713 0.489699
O O10 0.505856 0.497968 0.643771
O O11 0.250000 0.750000 0.248893
O O12 0.408892 0.750000 0.626714
#
# Coordination Sequence:
#
# PCOD8242245 Si02
#       5
#     4   8   8   4   8
#     4   9  20  39  57  79 115 153 195 240 284 332
#     4  10  20  34  58  87 113 148 191 239 290 336
#     4  10  22  38  59  87 116 153 191 229 289 350
#     4  11  24  41  61  83 114 157 197 236 281 338
#     4  10  19  36  62  86 117 154 185 232 291 347
#
# _framework density 18.870992000000001
#
# number of rings (size 3 to 8) (size 9 to 14) (size 15 to 20)
#    0.000    2.000    2.500    0.750    3.500    2.500 
#    0.000    3.750    0.000    0.000    0.000    0.000 
#    0.000    0.000    0.000    0.000    0.000    0.000 
#
# Total GULP energy -396884.665051 kJ/mol
# GULP energy per Si atom -12402.645783 kJ/mol
# Density = 1.882804 g / cm^3
# Si number density = 18.870992 Si / 1000 Ang^3
#
#
#
# Elastic Constant Matrix: (Units=GPa)
#
#
# Indices 1 2 3 4 5 6 
#
# 1 53.5296 38.6611 55.3721 0.0000 0.0000 0.0000
# 2 38.6611 129.7363 70.3987 0.0000 0.0000 0.0000
# 3 55.3721 70.3987 145.6908 0.0000 0.0000 0.0000
# 4 0.0000 0.0000 0.0000 -0.5008 0.0000 0.0000
# 5 0.0000 0.0000 0.0000 0.0000 -114.5173 0.0000
# 6 0.0000 0.0000 0.0000 0.0000 0.0000 27.4497
#
#
#
# Elastic Compliance Matrix: (Units=1/GPa)
#
#
# Indices 1 2 3 4 5 6 
#
# 1 0.032254 -0.004012 -0.010320 0.000000 0.000000 0.000000
# 2 -0.004012 0.010946 -0.003765 0.000000 0.000000 0.000000
# 3 -0.010320 -0.003765 0.012605 0.000000 0.000000 0.000000
# 4 0.000000 0.000000 0.000000 -1.996898 0.000000 0.000000
# 5 0.000000 0.000000 0.000000 0.000000 -0.008732 0.000000
# 6 0.000000 0.000000 0.000000 0.000000 0.000000 0.036430
#
#
# Mechanical properties :
#
#
# Convention : Reuss Voigt Hill
#
# Bulk Modulus (GPa) = 50.98738 73.09118 62.03928
# Shear Modulus (GPa) = -2.67285 -6.54536 -4.60910
#
# Velocity S-wave (km/s) = -1.19141 -1.86440 -1.56452
# Velocity P-wave (km/s) = 5.01846 5.84649 5.44823
#
# Compressibility (1/GPa) = 0.01961270
#
# Stress axis : x y z
#
# Youngs Moduli (GPa) = 31.00386 91.35627 79.33171
#
# Poissons Ratio (x) = 0.36648 0.81872
# Poissons Ratio (y) = 0.12437 0.29865
# Poissons Ratio (z) = 0.31997 0.34392
#
# Static dielectric constant tensor:
#      x y z
#    x 3.295080 0.000000 0.000000 
#    y 0.000000 3.650030 0.000000 
#    z 0.000000 0.000000 3.507860 
# 
# 
# High freq. dielectric constant tensor:
#      x y z
#    x 1.712300 0.000000 0.000000 
#    y 0.000000 1.753460 0.000000 
#    z 0.000000 0.000000 1.728380 
# 
# From -- ./inp_files/16484.got.cif
#   From: 2010.03.12/outbox.cif.g09.slc.cpg/sg59_9_cif.got.tgz:16484.got - 2010.04.16 16:29:54.
