data_PCOD8242248
_publ_section_title
;
Structure prediction by ZEFSAII (Michael W. Deem and Ramdas Pophale) SiO2 
 PCOD8242248
Probable space group: P M M N
;
_chemical_formula_sum "Si O2"
_cell_formula_units_Z 48
_cell_length_a 8.908043
_cell_length_b 18.179305
_cell_length_c 14.709456
_cell_angle_alpha 90.000000
_cell_angle_beta 90.000000
_cell_angle_gamma 90.000000
_cell_volume 2382.079174
_symmetry_space_group_name_H-M "P M M N"
_symmetry_group_IT_number 59
_space_group.IT_coordinate_system_code '2'
_symmetry_cell_setting 'orthorhombic'
loop_
_space_group_symop_operation_xyz
x,y,z
1/2-x,1/2-y,z
1/2+x,-y,-z
-x,1/2+y,-z
-x,-y,-z
1/2+x,1/2+y,-z
1/2-x,y,z
x,1/2-y,z
loop_
_atom_site_type_symbol
_atom_site_label
_atom_site_fract_x
_atom_site_fract_y
_atom_site_fract_z
Si Si1 0.580421 0.516307 0.906832
Si Si2 0.928597 0.250000 0.012281
Si Si3 0.581350 0.145857 0.860360
Si Si4 0.571376 0.976577 0.406139
Si Si5 0.926710 0.409172 0.253101
Si Si6 0.073669 0.669015 0.336492
Si Si7 0.426966 0.750000 0.784303
O O1 0.750000 0.542855 0.924628
O O2 0.574293 0.441080 0.851423
O O3 0.494057 0.575449 0.846394
O O4 0.500000 0.500000 0.000000
O O5 0.750000 0.250000 0.024564
O O6 0.989760 0.320766 0.953507
O O7 0.999861 0.250000 0.113554
O O8 0.750000 0.175651 0.862583
O O9 0.509441 0.174773 0.766627
O O10 0.750000 0.979052 0.412528
O O11 0.519010 0.893398 0.388242
O O12 0.500000 0.000000 0.500000
O O13 0.512226 0.035191 0.330246
O O14 0.750000 0.418721 0.244862
O O15 0.973190 0.323682 0.272250
O O16 0.250000 0.647561 0.338088
O O17 0.048922 0.750000 0.381743
O O18 0.250000 0.750000 0.796527
#
# Coordination Sequence:
#
# PCOD8242248 Si02
#       7
#     8   4   8   8   8   8   4
#     4  11  21  33  53  81 117 159 203 249 296 360
#     4   9  14  24  46  78 113 150 192 239 281 337
#     4   9  16  27  48  79 112 148 190 236 288 344
#     4  11  24  42  65  91 124 157 201 258 319 383
#     4  10  21  39  61  86 115 155 204 258 310 363
#     4  10  19  36  63  92 121 154 198 246 297 367
#     4   9  18  34  57  82 115 154 204 255 297 353
#
# _framework density 20.150465000000001
#
# number of rings (size 3 to 8) (size 9 to 14) (size 15 to 20)
#    0.000    2.000    2.500    2.000    0.000    3.667 
#    1.500    0.417    0.000    0.000    0.000    0.000 
#    0.000    0.000    0.000    0.000    0.000    0.000 
#
# Total GULP energy -594722.540213 kJ/mol
# GULP energy per Si atom -12390.052921 kJ/mol
# Density = 2.010460 g / cm^3
# Si number density = 20.150465 Si / 1000 Ang^3
#
#
#
# Elastic Constant Matrix: (Units=GPa)
#
#
# Indices 1 2 3 4 5 6 
#
# 1 50.0271 32.3291 32.5209 0.0000 0.0000 0.0000
# 2 32.3291 140.4336 52.4904 0.0000 0.0000 0.0000
# 3 32.5209 52.4904 110.7825 0.0000 0.0000 0.0000
# 4 0.0000 0.0000 0.0000 21.9713 0.0000 0.0000
# 5 0.0000 0.0000 0.0000 0.0000 26.0818 0.0000
# 6 0.0000 0.0000 0.0000 0.0000 0.0000 23.9695
#
#
#
# Elastic Compliance Matrix: (Units=1/GPa)
#
#
# Indices 1 2 3 4 5 6 
#
# 1 0.026314 -0.003853 -0.005899 0.000000 0.000000 0.000000
# 2 -0.003853 0.009217 -0.003236 0.000000 0.000000 0.000000
# 3 -0.005899 -0.003236 0.012292 0.000000 0.000000 0.000000
# 4 0.000000 0.000000 0.000000 0.045514 0.000000 0.000000
# 5 0.000000 0.000000 0.000000 0.000000 0.038341 0.000000
# 6 0.000000 0.000000 0.000000 0.000000 0.000000 0.041720
#
#
# Mechanical properties :
#
#
# Convention : Reuss Voigt Hill
#
# Bulk Modulus (GPa) = 45.77366 59.54711 52.66039
# Shear Modulus (GPa) = 24.19482 26.66473 25.42977
#
# Velocity S-wave (km/s) = 3.46888 3.64164 3.55631
# Velocity P-wave (km/s) = 6.22972 6.87731 6.56151
#
# Compressibility (1/GPa) = 0.02184663
#
# Stress axis : x y z
#
# Youngs Moduli (GPa) = 38.00304 108.49050 81.35488
#
# Poissons Ratio (x) = 0.41799 0.47992
# Poissons Ratio (y) = 0.14642 0.26329
# Poissons Ratio (z) = 0.22418 0.35111
#
# Static dielectric constant tensor:
#      x y z
#    x 3.378180 0.000000 0.000000 
#    y 0.000000 4.298110 0.000000 
#    z 0.000000 0.000000 3.618430 
# 
# 
# High freq. dielectric constant tensor:
#      x y z
#    x 1.741320 0.000000 0.000000 
#    y 0.000000 1.807500 0.000000 
#    z 0.000000 0.000000 1.774570 
# 
# From -- ./inp_files/20499.got.cif
#   From: 2010.03.12/outbox.cif.g09.slc.cpg/sg59_11_cif.got.tgz:20499.got - 2010.04.16 16:29:54.
