data_PCOD8242504
_publ_section_title
;
Structure prediction by ZEFSAII (Michael W. Deem and Ramdas Pophale) SiO2 
 PCOD8242504
Probable space group: P M M N
;
_chemical_formula_sum "Si O2"
_cell_formula_units_Z 64
_cell_length_a 8.869496
_cell_length_b 23.000742
_cell_length_c 17.989467
_cell_angle_alpha 90.000000
_cell_angle_beta 90.000000
_cell_angle_gamma 90.000000
_cell_volume 3669.941020
_symmetry_space_group_name_H-M "P M M N"
_symmetry_group_IT_number 59
_space_group.IT_coordinate_system_code '2'
_symmetry_cell_setting 'orthorhombic'
loop_
_space_group_symop_operation_xyz
x,y,z
1/2-x,1/2-y,z
1/2+x,-y,-z
-x,1/2+y,-z
-x,-y,-z
1/2+x,1/2+y,-z
1/2-x,y,z
x,1/2-y,z
loop_
_atom_site_type_symbol
_atom_site_label
_atom_site_fract_x
_atom_site_fract_y
_atom_site_fract_z
Si Si1 0.423945 0.681760 0.228063
Si Si2 0.927811 0.315660 0.228125
Si Si3 0.927751 0.109036 0.366480
Si Si4 0.923420 0.618674 0.361842
Si Si5 0.071788 0.504321 0.418905
Si Si6 0.078152 0.181401 0.081503
Si Si7 0.922469 0.683243 0.511001
Si Si8 0.419195 0.180947 0.919304
O O1 0.250000 0.667256 0.242239
O O2 0.457395 0.750000 0.236979
O O3 0.526646 0.646924 0.284976
O O4 0.468296 0.659979 0.145308
O O5 0.750000 0.314112 0.228642
O O6 0.991898 0.250000 0.238983
O O7 0.987691 0.355433 0.295202
O O8 0.981119 0.343957 0.149927
O O9 0.750000 0.097838 0.363509
O O10 0.965233 0.144928 0.440420
O O11 0.013513 0.047917 0.367344
O O12 0.750000 0.598674 0.356156
O O13 0.945401 0.666911 0.425256
O O14 0.026731 0.563563 0.378882
O O15 0.250000 0.500520 0.427979
O O16 0.000000 0.500000 0.500000
O O17 0.250000 0.163322 0.095097
O O18 0.057311 0.250000 0.081667
O O19 0.025042 0.157385 0.000401
O O20 0.750000 0.671537 0.535651
O O21 0.967617 0.750000 0.521340
O O22 0.250000 0.158044 0.902783
O O23 0.415672 0.250000 0.923047
#
# Coordination Sequence:
#
# PCOD8242504 Si02
#       8
#     8   8   8   8   8   8   8   8
#     4  10  20  32  48  75 109 141 173 210 254 304
#     4   9  18  31  47  72 106 139 170 206 251 301
#     4  11  22  36  54  75 101 136 173 212 257 304
#     4  11  22  37  56  76 100 134 172 213 259 304
#     4  12  24  40  59  78  98 127 169 218 263 306
#     4   8  14  25  43  68  98 134 173 209 248 296
#     4  10  21  35  52  75 102 133 169 207 251 305
#     4   8  14  26  44  67  98 136 174 209 248 297
#
# _framework density 17.438972
#
# number of rings (size 3 to 8) (size 9 to 14) (size 15 to 20)
#    0.000    2.125    1.250    3.750    0.000    4.000 
#    0.000    3.750    0.000    0.000    0.000    0.875 
#    0.000    0.000    0.000    0.000    0.000    0.000 
#
# Total GULP energy -793516.611503 kJ/mol
# GULP energy per Si atom -12398.697055 kJ/mol
# Density = 1.739928 g / cm^3
# Si number density = 17.438972 Si / 1000 Ang^3
#
#
#
# Elastic Constant Matrix: (Units=GPa)
#
#
# Indices 1 2 3 4 5 6 
#
# 1 73.1283 27.6339 36.5298 0.0000 0.0000 0.0000
# 2 27.6339 59.6179 25.9878 0.0000 0.0000 0.0000
# 3 36.5298 25.9878 120.3093 0.0000 0.0000 0.0000
# 4 0.0000 0.0000 0.0000 7.4571 0.0000 0.0000
# 5 0.0000 0.0000 0.0000 0.0000 30.8357 0.0000
# 6 0.0000 0.0000 0.0000 0.0000 0.0000 23.7992
#
#
#
# Elastic Compliance Matrix: (Units=1/GPa)
#
#
# Indices 1 2 3 4 5 6 
#
# 1 0.018242 -0.006669 -0.004098 0.000000 0.000000 0.000000
# 2 -0.006669 0.020955 -0.002502 0.000000 0.000000 0.000000
# 3 -0.004098 -0.002502 0.010097 0.000000 0.000000 0.000000
# 4 0.000000 0.000000 0.000000 0.134101 0.000000 0.000000
# 5 0.000000 0.000000 0.000000 0.000000 0.032430 0.000000
# 6 0.000000 0.000000 0.000000 0.000000 0.000000 0.042018
#
#
# Mechanical properties :
#
#
# Convention : Reuss Voigt Hill
#
# Bulk Modulus (GPa) = 43.94438 48.15093 46.04766
# Shear Modulus (GPa) = 17.12529 23.27867 20.20198
#
# Velocity S-wave (km/s) = 3.13711 3.65754 3.40728
# Velocity P-wave (km/s) = 6.19480 6.74595 6.47624
#
# Compressibility (1/GPa) = 0.02275604
#
# Stress axis : x y z
#
# Youngs Moduli (GPa) = 54.81888 47.72112 99.04287
#
# Poissons Ratio (x) = 0.31825 0.40591
# Poissons Ratio (y) = 0.36558 0.24776
# Poissons Ratio (z) = 0.22466 0.11938
#
# Static dielectric constant tensor:
#      x y z
#    x 3.255230 0.000000 0.000000 
#    y 0.000000 3.142210 0.000000 
#    z 0.000000 0.000000 3.896350 
# 
# 
# High freq. dielectric constant tensor:
#      x y z
#    x 1.677000 0.000000 0.000000 
#    y 0.000000 1.634060 0.000000 
#    z 0.000000 0.000000 1.683350 
# 
# From -- ./inp_files/26356.got.cif
#   From: 2010.03.12/outbox.cif.g09.slc.cpg/sg59_14_cif.got.tgz:26356.got - 2010.04.16 16:29:54.
