data_PCOD8242037
_publ_section_title
;
Structure prediction by ZEFSAII (Michael W. Deem and Ramdas Pophale) SiO2 
 PCOD8242037
Probable space group: P M M N
;
_chemical_formula_sum "Si O2"
_cell_formula_units_Z 40
_cell_length_a 8.983187
_cell_length_b 28.331514
_cell_length_c 7.697170
_cell_angle_alpha 90.000000
_cell_angle_beta 90.000000
_cell_angle_gamma 90.000000
_cell_volume 1958.985864
_symmetry_space_group_name_H-M "P M M N"
_symmetry_group_IT_number 59
_space_group.IT_coordinate_system_code '2'
_symmetry_cell_setting 'orthorhombic'
loop_
_space_group_symop_operation_xyz
x,y,z
1/2-x,1/2-y,z
1/2+x,-y,-z
-x,1/2+y,-z
-x,-y,-z
1/2+x,1/2+y,-z
1/2-x,y,z
x,1/2-y,z
loop_
_atom_site_type_symbol
_atom_site_label
_atom_site_fract_x
_atom_site_fract_y
_atom_site_fract_z
Si Si1 0.926151 0.137425 0.669993
Si Si2 0.420786 0.695470 0.994677
Si Si3 0.424766 0.349948 0.324289
Si Si4 0.421763 0.048058 0.188064
Si Si5 0.076930 0.454289 0.784581
O O1 0.750000 0.136371 0.652900
O O2 0.994105 0.164099 0.503058
O O3 0.989521 0.084462 0.673969
O O4 0.978268 0.165569 0.840919
O O5 0.250000 0.682792 0.952203
O O6 0.439612 0.750000 0.043117
O O7 0.519530 0.684020 0.827763
O O8 0.250000 0.342642 0.345194
O O9 0.466504 0.403944 0.282426
O O10 0.250000 0.034834 0.215325
O O11 0.520146 0.006175 0.269492
O O12 0.458199 0.054826 0.985815
O O13 0.250000 0.450043 0.738970
#
# Coordination Sequence:
#
# PCOD8242037 Si02
#       5
#     8   8   8   8   8
#     4  11  23  39  62  91 124 162 203 246 300 362
#     4  10  23  44  67  89 117 155 199 249 303 359
#     4  11  23  40  63  92 125 158 199 249 302 358
#     4   9  19  35  56  85 121 160 201 247 298 356
#     4  10  19  34  58  87 120 160 205 251 296 350
#
# _framework density 20.418728000000002
#
# number of rings (size 3 to 8) (size 9 to 14) (size 15 to 20)
#    0.000    1.800    2.000    1.800    0.000    5.200 
#    0.000    2.000    0.000    0.000    0.000    0.000 
#    0.000    0.000    0.000    0.000    0.000    0.000 
#
# Total GULP energy -496232.164963 kJ/mol
# GULP energy per Si atom -12405.804124 kJ/mol
# Density = 2.037225 g / cm^3
# Si number density = 20.418728 Si / 1000 Ang^3
#
#
#
# Elastic Constant Matrix: (Units=GPa)
#
#
# Indices 1 2 3 4 5 6 
#
# 1 78.0707 31.7574 30.4955 0.0000 0.0000 0.0000
# 2 31.7574 72.1440 22.1425 0.0000 0.0000 0.0000
# 3 30.4955 22.1425 83.7074 0.0000 0.0000 0.0000
# 4 0.0000 0.0000 0.0000 14.1123 0.0000 0.0000
# 5 0.0000 0.0000 0.0000 0.0000 34.6751 0.0000
# 6 0.0000 0.0000 0.0000 0.0000 0.0000 31.4036
#
#
#
# Elastic Compliance Matrix: (Units=1/GPa)
#
#
# Indices 1 2 3 4 5 6 
#
# 1 0.017096 -0.006110 -0.004612 0.000000 0.000000 0.000000
# 2 -0.006110 0.017270 -0.002342 0.000000 0.000000 0.000000
# 3 -0.004612 -0.002342 0.014246 0.000000 0.000000 0.000000
# 4 0.000000 0.000000 0.000000 0.070860 0.000000 0.000000
# 5 0.000000 0.000000 0.000000 0.000000 0.028839 0.000000
# 6 0.000000 0.000000 0.000000 0.000000 0.000000 0.031843
#
#
# Mechanical properties :
#
#
# Convention : Reuss Voigt Hill
#
# Bulk Modulus (GPa) = 44.47775 44.74589 44.61182
# Shear Modulus (GPa) = 23.38883 26.00665 24.69774
#
# Velocity S-wave (km/s) = 3.38814 3.57272 3.48165
# Velocity P-wave (km/s) = 6.09394 6.24346 6.16915
#
# Compressibility (1/GPa) = 0.02248315
#
# Stress axis : x y z
#
# Youngs Moduli (GPa) = 58.49394 57.90511 70.19444
#
# Poissons Ratio (x) = 0.35380 0.32373
# Poissons Ratio (y) = 0.35740 0.16442
# Poissons Ratio (z) = 0.26977 0.13563
#
# Static dielectric constant tensor:
#      x y z
#    x 3.643250 0.000000 0.000000 
#    y 0.000000 3.633130 0.000000 
#    z 0.000000 0.000000 3.727030 
# 
# 
# High freq. dielectric constant tensor:
#      x y z
#    x 1.799310 0.000000 0.000000 
#    y 0.000000 1.792660 0.000000 
#    z 0.000000 0.000000 1.801650 
# 
# From -- ./inp_files/5844.got.cif
#   From: 2010.03.12/outbox.cif.g09.slc.cpg/sg59_3_cif.got.tgz:5844.got - 2010.04.16 16:29:54.
