data_PCOD8242619
_publ_section_title
;
Structure prediction by ZEFSAII (Michael W. Deem and Ramdas Pophale) SiO2 
 PCOD8242619
Probable space group: P M M N
;
_chemical_formula_sum "Si O2"
_cell_formula_units_Z 56
_cell_length_a 9.433932
_cell_length_b 14.937020
_cell_length_c 20.940767
_cell_angle_alpha 90.000000
_cell_angle_beta 90.000000
_cell_angle_gamma 90.000000
_cell_volume 2950.864642
_symmetry_space_group_name_H-M "P M M N"
_symmetry_group_IT_number 59
_space_group.IT_coordinate_system_code '2'
_symmetry_cell_setting 'orthorhombic'
loop_
_space_group_symop_operation_xyz
x,y,z
1/2-x,1/2-y,z
1/2+x,-y,-z
-x,1/2+y,-z
-x,-y,-z
1/2+x,1/2+y,-z
1/2-x,y,z
x,1/2-y,z
loop_
_atom_site_type_symbol
_atom_site_label
_atom_site_fract_x
_atom_site_fract_y
_atom_site_fract_z
Si Si1 0.090205 0.346611 0.802953
Si Si2 0.094148 0.650930 0.954069
Si Si3 0.584190 0.476912 0.265732
Si Si4 0.916290 0.144310 0.518832
Si Si5 0.914935 0.496102 0.410306
Si Si6 0.910642 0.095625 0.912611
Si Si7 0.588360 0.593566 0.845147
O O1 0.250000 0.367606 0.823964
O O2 0.077340 0.250000 0.768227
O O3 0.039406 0.422094 0.753522
O O4 0.001747 0.339896 0.868016
O O5 0.250000 0.613693 0.932969
O O6 0.110070 0.750000 0.981943
O O7 0.991609 0.659528 0.893061
O O8 0.032765 0.593802 0.014111
O O9 0.750000 0.457300 0.254233
O O10 0.542822 0.465133 0.339387
O O11 0.491405 0.408763 0.223128
O O12 0.750000 0.140322 0.534616
O O13 0.964416 0.250000 0.515298
O O14 0.950523 0.091287 0.453085
O O15 0.999446 0.086986 0.572429
O O16 0.750000 0.521964 0.415057
O O17 0.750000 0.130635 0.912880
O O18 0.923935 0.998814 0.882243
O O19 0.750000 0.624066 0.833582
#
# Coordination Sequence:
#
# PCOD8242619 Si02
#       7
#     8   8   8   8   8   8   8
#     4   9  17  28  43  66  95 125 158 199 247 295
#     4  10  20  33  49  68  91 121 158 201 248 296
#     4   9  18  33  51  70  97 133 168 201 238 286
#     4   9  18  33  53  79 110 138 166 207 257 302
#     4   9  18  33  54  78 104 138 177 212 247 295
#     4   9  18  32  49  68  90 120 157 197 246 301
#     4  10  20  33  50  71  95 124 159 200 244 292
#
# _framework density 18.977488999999998
#
# number of rings (size 3 to 8) (size 9 to 14) (size 15 to 20)
#    0.000    2.714    0.000    1.286    0.000    3.714 
#    0.000    2.143    0.000    2.571    0.000    0.000 
#    0.000    0.000    0.000    0.000    0.000    0.000 
#
# Total GULP energy -693899.672035 kJ/mol
# GULP energy per Si atom -12391.065572 kJ/mol
# Density = 1.893430 g / cm^3
# Si number density = 18.977489 Si / 1000 Ang^3
#
#
#
# Elastic Constant Matrix: (Units=GPa)
#
#
# Indices 1 2 3 4 5 6 
#
# 1 65.5020 18.8204 47.0850 0.0000 0.0000 0.0000
# 2 18.8204 61.6948 16.7061 0.0000 0.0000 0.0000
# 3 47.0850 16.7061 124.0819 0.0000 0.0000 0.0000
# 4 0.0000 0.0000 0.0000 17.8863 0.0000 0.0000
# 5 0.0000 0.0000 0.0000 0.0000 30.6952 0.0000
# 6 0.0000 0.0000 0.0000 0.0000 0.0000 22.3741
#
#
#
# Elastic Compliance Matrix: (Units=1/GPa)
#
#
# Indices 1 2 3 4 5 6 
#
# 1 0.022215 -0.004664 -0.007802 0.000000 0.000000 0.000000
# 2 -0.004664 0.017801 -0.000627 0.000000 0.000000 0.000000
# 3 -0.007802 -0.000627 0.011104 0.000000 0.000000 0.000000
# 4 0.000000 0.000000 0.000000 0.055909 0.000000 0.000000
# 5 0.000000 0.000000 0.000000 0.000000 0.032578 0.000000
# 6 0.000000 0.000000 0.000000 0.000000 0.000000 0.044695
#
#
# Mechanical properties :
#
#
# Convention : Reuss Voigt Hill
#
# Bulk Modulus (GPa) = 40.10466 46.27798 43.19132
# Shear Modulus (GPa) = 22.85193 25.43560 24.14376
#
# Velocity S-wave (km/s) = 3.47387 3.66499 3.57071
# Velocity P-wave (km/s) = 6.10483 6.50755 6.30940
#
# Compressibility (1/GPa) = 0.02493476
#
# Stress axis : x y z
#
# Youngs Moduli (GPa) = 45.01430 56.17531 90.05627
#
# Poissons Ratio (x) = 0.26201 0.70261
# Poissons Ratio (y) = 0.20996 0.05645
# Poissons Ratio (z) = 0.35120 0.03521
#
# Static dielectric constant tensor:
#      x y z
#    x 3.515720 0.000000 0.000000 
#    y 0.000000 3.406300 0.000000 
#    z 0.000000 0.000000 3.423810 
# 
# 
# High freq. dielectric constant tensor:
#      x y z
#    x 1.731940 0.000000 0.000000 
#    y 0.000000 1.728910 0.000000 
#    z 0.000000 0.000000 1.727380 
# 
# From -- ./inp_files/29037.got.cif
#   From: 2010.03.12/outbox.cif.g09.slc.cpg/sg59_15_cif.got.tgz:29037.got - 2010.04.16 16:29:54.
