data_PCOD8242479
_publ_section_title
;
Structure prediction by ZEFSAII (Michael W. Deem and Ramdas Pophale) SiO2 
 PCOD8242479
Probable space group: P M M N
;
_chemical_formula_sum "Si O2"
_cell_formula_units_Z 64
_cell_length_a 18.713618
_cell_length_b 9.182215
_cell_length_c 20.679024
_cell_angle_alpha 90.000000
_cell_angle_beta 90.000000
_cell_angle_gamma 90.000000
_cell_volume 3553.327645
_symmetry_space_group_name_H-M "P M M N"
_symmetry_group_IT_number 59
_space_group.IT_coordinate_system_code '2'
_symmetry_cell_setting 'orthorhombic'
loop_
_space_group_symop_operation_xyz
x,y,z
1/2-x,1/2-y,z
1/2+x,-y,-z
-x,1/2+y,-z
-x,-y,-z
1/2+x,1/2+y,-z
1/2-x,y,z
x,1/2-y,z
loop_
_atom_site_type_symbol
_atom_site_label
_atom_site_fract_x
_atom_site_fract_y
_atom_site_fract_z
Si Si1 0.166954 0.919163 0.079125
Si Si2 0.328818 0.922552 0.934762
Si Si3 0.166209 0.080277 0.699464
Si Si4 0.664985 0.086657 0.427602
Si Si5 0.419256 0.077937 0.188290
Si Si6 0.335121 0.087534 0.450524
Si Si7 0.170307 0.423464 0.308740
Si Si8 0.083457 0.922273 0.812803
O O1 0.250000 0.948480 0.094335
O O2 0.148564 0.750000 0.087961
O O3 0.118155 0.011445 0.126239
O O4 0.148297 0.973712 0.006479
O O5 0.250000 0.985155 0.917489
O O6 0.324168 0.750000 0.935503
O O7 0.385607 0.976134 0.881748
O O8 0.250000 0.052670 0.709439
O O9 0.147705 0.250000 0.697049
O O10 0.138843 0.008501 0.632952
O O11 0.125435 0.004948 0.757529
O O12 0.750000 0.088420 0.430481
O O13 0.634515 0.250000 0.420743
O O14 0.633919 0.016823 0.493593
O O15 0.410742 0.250000 0.183609
O O16 0.382551 0.016649 0.253619
O O17 0.501365 0.030490 0.189684
O O18 0.250000 0.094339 0.453731
O O19 0.366073 0.250000 0.461513
O O20 0.357441 0.025710 0.379682
O O21 0.250000 0.484742 0.294918
O O22 0.172726 0.250000 0.308761
O O23 0.093767 0.750000 0.802983
#
# Coordination Sequence:
#
# PCOD8242479 Si02
#       8
#     8   8   8   8   8   8   8   8
#     4   9  18  33  52  72  94 125 165 203 241 290
#     4   8  15  30  51  71  93 125 163 200 241 292
#     4  10  20  33  50  72  97 126 161 200 241 287
#     4   9  16  26  43  69  98 123 149 190 243 289
#     4  10  20  32  48  73 102 130 162 201 244 290
#     4   8  13  23  41  64  89 119 155 192 232 281
#     4   8  14  26  45  67  93 127 161 193 236 288
#     4  10  20  33  50  72  98 130 166 201 240 289
#
# _framework density 18.011286999999999
#
# number of rings (size 3 to 8) (size 9 to 14) (size 15 to 20)
#    0.000    3.000    0.000    3.000    0.000    4.500 
#    0.000    1.250    0.000    3.750    0.000    0.000 
#    0.000    0.000    0.000    0.000    0.000    0.000 
#
# Total GULP energy -793362.024471 kJ/mol
# GULP energy per Si atom -12396.281632 kJ/mol
# Density = 1.797029 g / cm^3
# Si number density = 18.011287 Si / 1000 Ang^3
#
#
#
# Elastic Constant Matrix: (Units=GPa)
#
#
# Indices 1 2 3 4 5 6 
#
# 1 67.5054 34.1564 68.2484 0.0000 0.0000 0.0000
# 2 34.1564 54.8301 54.0795 0.0000 0.0000 0.0000
# 3 68.2484 54.0795 177.6251 0.0000 0.0000 0.0000
# 4 0.0000 0.0000 0.0000 29.6367 0.0000 0.0000
# 5 0.0000 0.0000 0.0000 0.0000 -6.6126 0.0000
# 6 0.0000 0.0000 0.0000 0.0000 0.0000 14.2711
#
#
#
# Elastic Compliance Matrix: (Units=1/GPa)
#
#
# Indices 1 2 3 4 5 6 
#
# 1 0.027309 -0.009522 -0.007594 0.000000 0.000000 0.000000
# 2 -0.009522 0.029386 -0.005288 0.000000 0.000000 0.000000
# 3 -0.007594 -0.005288 0.010158 0.000000 0.000000 0.000000
# 4 0.000000 0.000000 0.000000 0.033742 0.000000 0.000000
# 5 0.000000 0.000000 0.000000 0.000000 -0.151225 0.000000
# 6 0.000000 0.000000 0.000000 0.000000 0.000000 0.070072
#
#
# Mechanical properties :
#
#
# Convention : Reuss Voigt Hill
#
# Bulk Modulus (GPa) = 45.36360 68.10326 56.73343
# Shear Modulus (GPa) = 69.83539 17.02411 43.42975
#
# Velocity S-wave (km/s) = 6.23356 3.07773 4.91578
# Velocity P-wave (km/s) = 8.77785 7.10798 7.98668
#
# Compressibility (1/GPa) = 0.02204410
#
# Stress axis : x y z
#
# Youngs Moduli (GPa) = 36.61780 34.03009 98.44941
#
# Poissons Ratio (x) = 0.32405 0.74760
# Poissons Ratio (y) = 0.34869 0.52060
# Poissons Ratio (z) = 0.27806 0.17995
#
# Static dielectric constant tensor:
#      x y z
#    x 3.233860 0.000000 0.000000 
#    y 0.000000 3.126800 0.000000 
#    z 0.000000 0.000000 3.702350 
# 
# 
# High freq. dielectric constant tensor:
#      x y z
#    x 1.663610 0.000000 0.000000 
#    y 0.000000 1.670330 0.000000 
#    z 0.000000 0.000000 1.717110 
# 
# From -- ./inp_files/30689.got.cif
#   From: 2010.03.12/outbox.cif.g09.slc.cpg/sg59_16_cif.got.tgz:30689.got - 2010.04.16 16:29:54.
