data_PCOD8242490
_publ_section_title
;
Structure prediction by ZEFSAII (Michael W. Deem and Ramdas Pophale) SiO2 
 PCOD8242490
Probable space group: P M M N
;
_chemical_formula_sum "Si O2"
_cell_formula_units_Z 48
_cell_length_a 9.603057
_cell_length_b 9.061760
_cell_length_c 30.728330
_cell_angle_alpha 90.000000
_cell_angle_beta 90.000000
_cell_angle_gamma 90.000000
_cell_volume 2673.997646
_symmetry_space_group_name_H-M "P M M N"
_symmetry_group_IT_number 59
_space_group.IT_coordinate_system_code '2'
_symmetry_cell_setting 'orthorhombic'
loop_
_space_group_symop_operation_xyz
x,y,z
1/2-x,1/2-y,z
1/2+x,-y,-z
-x,1/2+y,-z
-x,-y,-z
1/2+x,1/2+y,-z
1/2-x,y,z
x,1/2-y,z
loop_
_atom_site_type_symbol
_atom_site_label
_atom_site_fract_x
_atom_site_fract_y
_atom_site_fract_z
Si Si1 0.086801 0.919209 0.633337
Si Si2 0.412765 0.077184 0.037318
Si Si3 0.089337 0.922469 0.295632
Si Si4 0.084201 0.083522 0.209037
Si Si5 0.094341 0.577824 0.534886
Si Si6 0.915382 0.083869 0.875319
O O1 0.250000 0.948960 0.639881
O O2 0.051181 0.750000 0.645064
O O3 0.042017 0.954116 0.583817
O O4 0.999724 0.028397 0.663211
O O5 0.250000 0.046142 0.029264
O O6 0.445580 0.250000 0.038043
O O7 0.463431 0.008529 0.082838
O O8 0.500000 0.000000 0.000000
O O9 0.250000 0.962917 0.304491
O O10 0.069804 0.750000 0.287621
O O11 0.032066 0.005432 0.252969
O O12 0.250000 0.082888 0.207209
O O13 0.026097 0.250000 0.207957
O O14 0.023500 0.995256 0.167621
O O15 0.250000 0.515797 0.529440
O O16 0.091500 0.750000 0.525437
O O17 0.000000 0.500000 0.500000
O O18 0.750000 0.088099 0.872570
O O19 0.975378 0.250000 0.878267
#
# Coordination Sequence:
#
# PCOD8242490 Si02
#       6
#     8   8   8   8   8   8
#     4   9  19  36  54  71  96 132 169 202 240 290
#     4  10  20  33  50  73 100 131 168 207 248 297
#     4  10  20  32  48  74 104 130 160 201 246 289
#     4   9  16  27  45  69  97 128 162 201 243 287
#     4   9  19  35  53  74 100 129 163 203 245 290
#     4   9  16  27  45  69  97 128 162 202 247 293
#
# _framework density 17.950652999999999
#
# number of rings (size 3 to 8) (size 9 to 14) (size 15 to 20)
#    0.000    2.667    0.000    3.000    0.000    8.000 
#    0.000    5.000    0.000    1.000    0.000    0.000 
#    0.000    0.000    0.000    0.000    0.000    0.000 
#
# Total GULP energy -595203.364944 kJ/mol
# GULP energy per Si atom -12400.070103 kJ/mol
# Density = 1.790980 g / cm^3
# Si number density = 17.950653 Si / 1000 Ang^3
#
#
#
# Elastic Constant Matrix: (Units=GPa)
#
#
# Indices 1 2 3 4 5 6 
#
# 1 37.4663 36.0382 47.8787 0.0000 0.0000 0.0000
# 2 36.0382 124.3017 78.4060 0.0000 0.0000 0.0000
# 3 47.8787 78.4060 152.4025 0.0000 0.0000 0.0000
# 4 0.0000 0.0000 0.0000 43.5070 0.0000 0.0000
# 5 0.0000 0.0000 0.0000 0.0000 24.8936 0.0000
# 6 0.0000 0.0000 0.0000 0.0000 0.0000 25.2643
#
#
#
# Elastic Compliance Matrix: (Units=1/GPa)
#
#
# Indices 1 2 3 4 5 6 
#
# 1 0.047904 -0.006508 -0.011701 0.000000 0.000000 0.000000
# 2 -0.006508 0.012794 -0.004538 0.000000 0.000000 0.000000
# 3 -0.011701 -0.004538 0.012572 0.000000 0.000000 0.000000
# 4 0.000000 0.000000 0.000000 0.022985 0.000000 0.000000
# 5 0.000000 0.000000 0.000000 0.000000 0.040171 0.000000
# 6 0.000000 0.000000 0.000000 0.000000 0.000000 0.039582
#
#
# Mechanical properties :
#
#
# Convention : Reuss Voigt Hill
#
# Bulk Modulus (GPa) = 36.00181 70.97960 53.49071
# Shear Modulus (GPa) = 21.66764 28.85615 25.26190
#
# Velocity S-wave (km/s) = 3.47806 4.01375 3.75547
# Velocity P-wave (km/s) = 6.01903 7.81713 6.97626
#
# Compressibility (1/GPa) = 0.02777638
#
# Stress axis : x y z
#
# Youngs Moduli (GPa) = 20.87527 78.16270 79.54091
#
# Poissons Ratio (x) = 0.50864 0.93075
# Poissons Ratio (y) = 0.13585 0.36092
# Poissons Ratio (z) = 0.24427 0.35467
#
# Static dielectric constant tensor:
#      x y z
#    x 3.205310 0.000000 0.000000 
#    y 0.000000 3.428290 0.000000 
#    z 0.000000 0.000000 3.407860 
# 
# 
# High freq. dielectric constant tensor:
#      x y z
#    x 1.649260 0.000000 0.000000 
#    y 0.000000 1.706590 0.000000 
#    z 0.000000 0.000000 1.709910 
# 
# From -- ./inp_files/31858.got.cif
#   From: 2010.03.12/outbox.cif.g09.slc.cpg/sg59_16_cif.got.tgz:31858.got - 2010.04.16 16:29:54.
