data_PCOD8242182
_publ_section_title
;
Structure prediction by ZEFSAII (Michael W. Deem and Ramdas Pophale) SiO2 
 PCOD8242182
Probable space group: P M M N
;
_chemical_formula_sum "Si O2"
_cell_formula_units_Z 56
_cell_length_a 22.081743
_cell_length_b 13.628101
_cell_length_c 9.644098
_cell_angle_alpha 90.000000
_cell_angle_beta 90.000000
_cell_angle_gamma 90.000000
_cell_volume 2902.219858
_symmetry_space_group_name_H-M "P M M N"
_symmetry_group_IT_number 59
_space_group.IT_coordinate_system_code '2'
_symmetry_cell_setting 'orthorhombic'
loop_
_space_group_symop_operation_xyz
x,y,z
1/2-x,1/2-y,z
1/2+x,-y,-z
-x,1/2+y,-z
-x,-y,-z
1/2+x,1/2+y,-z
1/2-x,y,z
x,1/2-y,z
loop_
_atom_site_type_symbol
_atom_site_label
_atom_site_fract_x
_atom_site_fract_y
_atom_site_fract_z
Si Si1 0.686170 0.500440 0.080396
Si Si2 0.632428 0.634490 0.289787
Si Si3 0.681498 0.359239 0.698484
Si Si4 0.536326 0.864062 0.066603
Si Si5 0.821200 0.560995 0.571690
Si Si6 0.902754 0.136896 0.961004
Si Si7 0.357362 0.363384 0.136592
O O1 0.750000 0.443169 0.091026
O O2 0.683762 0.574904 0.208974
O O3 0.631401 0.422385 0.082394
O O4 0.689591 0.566011 0.940633
O O5 0.645323 0.750000 0.279779
O O6 0.569042 0.607093 0.212138
O O7 0.636414 0.598612 0.447449
O O8 0.750000 0.365786 0.758528
O O9 0.670107 0.250000 0.635040
O O10 0.672588 0.442602 0.581619
O O11 0.634347 0.380008 0.820354
O O12 0.522874 0.750000 0.071443
O O13 0.469485 0.912115 0.054230
O O14 0.577200 0.890192 0.932133
O O15 0.750000 0.591422 0.556920
O O16 0.852725 0.614112 0.701564
O O17 0.904386 0.250000 0.005130
O O18 0.342010 0.250000 0.107783
#
# Coordination Sequence:
#
# PCOD8242182 Si02
#       7
#     8   8   8   8   8   8   8
#     4  11  21  34  54  83 112 141 183 227 276 334
#     4  10  22  38  55  79 115 153 184 221 273 332
#     4   9  18  34  56  82 111 141 180 233 282 324
#     4   8  18  37  58  79 109 147 185 225 276 333
#     4  11  21  35  55  84 113 144 187 226 273 333
#     4  10  19  35  61  84 108 143 185 233 282 328
#     4  10  20  33  52  80 111 142 182 230 270 318
#
# _framework density 19.295576000000001
#
# number of rings (size 3 to 8) (size 9 to 14) (size 15 to 20)
#    0.000    2.143    1.429    3.000    0.000    6.571 
#    0.000    1.429    0.000    1.714    0.000    1.000 
#    0.000    0.000    0.000    0.000    0.000    0.000 
#
# Total GULP energy -693888.929804 kJ/mol
# GULP energy per Si atom -12390.873747 kJ/mol
# Density = 1.925166 g / cm^3
# Si number density = 19.295576 Si / 1000 Ang^3
#
#
#
# Elastic Constant Matrix: (Units=GPa)
#
#
# Indices 1 2 3 4 5 6 
#
# 1 143.8042 37.8920 43.5387 0.0000 0.0000 0.0000
# 2 37.8920 82.4306 29.7057 0.0000 0.0000 0.0000
# 3 43.5387 29.7057 113.1534 0.0000 0.0000 0.0000
# 4 0.0000 0.0000 0.0000 28.5459 0.0000 0.0000
# 5 0.0000 0.0000 0.0000 0.0000 10.7726 0.0000
# 6 0.0000 0.0000 0.0000 0.0000 0.0000 26.7083
#
#
#
# Elastic Compliance Matrix: (Units=1/GPa)
#
#
# Indices 1 2 3 4 5 6 
#
# 1 0.008498 -0.003013 -0.002479 0.000000 0.000000 0.000000
# 2 -0.003013 0.014467 -0.002639 0.000000 0.000000 0.000000
# 3 -0.002479 -0.002639 0.010484 0.000000 0.000000 0.000000
# 4 0.000000 0.000000 0.000000 0.035031 0.000000 0.000000
# 5 0.000000 0.000000 0.000000 0.000000 0.092828 0.000000
# 6 0.000000 0.000000 0.000000 0.000000 0.000000 0.037441
#
#
# Mechanical properties :
#
#
# Convention : Reuss Voigt Hill
#
# Bulk Modulus (GPa) = 58.17906 62.40677 60.29291
# Shear Modulus (GPa) = 22.65086 28.42215 25.53651
#
# Velocity S-wave (km/s) = 3.42992 3.84212 3.64186
# Velocity P-wave (km/s) = 6.77516 7.21770 6.99993
#
# Compressibility (1/GPa) = 0.01718832
#
# Stress axis : x y z
#
# Youngs Moduli (GPa) = 117.66904 69.12060 95.38249
#
# Poissons Ratio (x) = 0.20828 0.23645
# Poissons Ratio (y) = 0.35457 0.25168
# Poissons Ratio (z) = 0.29169 0.18239
#
# Static dielectric constant tensor:
#      x y z
#    x 3.684270 0.000000 0.000000 
#    y 0.000000 3.784630 0.000000 
#    z 0.000000 0.000000 3.336800 
# 
# 
# High freq. dielectric constant tensor:
#      x y z
#    x 1.749000 0.000000 0.000000 
#    y 0.000000 1.766550 0.000000 
#    z 0.000000 0.000000 1.717670 
# 
# From -- ./inp_files/11440.got.cif
#   From: 2010.03.12/outbox.cif.g09.slc.cpg/sg59_6_cif.got.tgz:11440.got - 2010.04.16 16:29:54.
