data_PCOD8242126
_publ_section_title
;
Structure prediction by ZEFSAII (Michael W. Deem and Ramdas Pophale) SiO2 
 PCOD8242126
Probable space group: P M M N
;
_chemical_formula_sum "Si O2"
_cell_formula_units_Z 48
_cell_length_a 15.515699
_cell_length_b 8.631928
_cell_length_c 19.463181
_cell_angle_alpha 90.000000
_cell_angle_beta 90.000000
_cell_angle_gamma 90.000000
_cell_volume 2606.711551
_symmetry_space_group_name_H-M "P M M N"
_symmetry_group_IT_number 59
_space_group.IT_coordinate_system_code '2'
_symmetry_cell_setting 'orthorhombic'
loop_
_space_group_symop_operation_xyz
x,y,z
1/2-x,1/2-y,z
1/2+x,-y,-z
-x,1/2+y,-z
-x,-y,-z
1/2+x,1/2+y,-z
1/2-x,y,z
x,1/2-y,z
loop_
_atom_site_type_symbol
_atom_site_label
_atom_site_fract_x
_atom_site_fract_y
_atom_site_fract_z
Si Si1 0.750000 0.418131 0.952098
Si Si2 0.997628 0.067644 0.667382
Si Si3 0.651011 0.569594 0.579153
Si Si4 0.750000 0.420813 0.790311
Si Si5 0.933951 0.435159 0.945942
Si Si6 0.655058 0.933888 0.423280
Si Si7 0.571471 0.931927 0.797963
O O1 0.750000 0.250000 0.988281
O O2 0.750000 0.396453 0.870968
O O3 0.839948 0.503311 0.970393
O O4 0.004882 0.250000 0.679527
O O5 0.080754 0.001070 0.626577
O O6 0.910493 0.032203 0.626373
O O7 0.997974 0.982688 0.741032
O O8 0.750000 0.540519 0.601394
O O9 0.627291 0.750000 0.587811
O O10 0.636451 0.512556 0.501078
O O11 0.750000 0.250000 0.755161
O O12 0.835336 0.514696 0.769348
O O13 0.932530 0.250000 0.946086
O O14 0.956430 0.490629 0.869584
O O15 0.000000 0.500000 0.000000
O O16 0.750000 0.994415 0.399878
O O17 0.654926 0.750000 0.421973
O O18 0.571756 0.750000 0.808708
#
# Coordination Sequence:
#
# PCOD8242126 Si02
#       7
#     4   8   8   4   8   8   8
#     4   7  14  29  51  77 105 135 164 201 254 307
#     4  11  21  32  51  77 106 137 175 224 272 317
#     4   9  18  33  52  75 105 138 174 215 265 325
#     4   9  17  33  53  75 105 137 170 213 262 313
#     4  10  19  35  58  83 111 143 180 222 266 315
#     4   8  16  33  55  75  97 133 179 226 274 320
#     4  11  22  35  52  77 109 145 181 215 264 326
#
# _framework density 18.414005
#
# number of rings (size 3 to 8) (size 9 to 14) (size 15 to 20)
#    0.000    2.500    0.000    5.250    1.167    0.333 
#    0.000    2.083    1.833    4.000    0.000    0.000 
#    0.000    0.000    0.000    0.000    0.000    0.000 
#
# Total GULP energy -594929.640687 kJ/mol
# GULP energy per Si atom -12394.367514 kJ/mol
# Density = 1.837209 g / cm^3
# Si number density = 18.414005 Si / 1000 Ang^3
#
#
#
# Elastic Constant Matrix: (Units=GPa)
#
#
# Indices 1 2 3 4 5 6 
#
# 1 116.4742 27.4613 69.6453 0.0000 0.0000 0.0000
# 2 27.4613 71.7615 25.7049 0.0000 0.0000 0.0000
# 3 69.6453 25.7049 101.6670 0.0000 0.0000 0.0000
# 4 0.0000 0.0000 0.0000 27.6946 0.0000 0.0000
# 5 0.0000 0.0000 0.0000 0.0000 29.3323 0.0000
# 6 0.0000 0.0000 0.0000 0.0000 0.0000 22.8579
#
#
#
# Elastic Compliance Matrix: (Units=1/GPa)
#
#
# Indices 1 2 3 4 5 6 
#
# 1 0.014864 -0.002244 -0.009615 0.000000 0.000000 0.000000
# 2 -0.002244 0.015662 -0.002423 0.000000 0.000000 0.000000
# 3 -0.009615 -0.002423 0.017035 0.000000 0.000000 0.000000
# 4 0.000000 0.000000 0.000000 0.036108 0.000000 0.000000
# 5 0.000000 0.000000 0.000000 0.000000 0.034092 0.000000
# 6 0.000000 0.000000 0.000000 0.000000 0.000000 0.043749
#
#
# Mechanical properties :
#
#
# Convention : Reuss Voigt Hill
#
# Bulk Modulus (GPa) = 52.63830 59.50285 56.07057
# Shear Modulus (GPa) = 25.45766 27.11638 26.28702
#
# Velocity S-wave (km/s) = 3.72225 3.84160 3.78240
# Velocity P-wave (km/s) = 6.86452 7.21535 7.04212
#
# Compressibility (1/GPa) = 0.01899758
#
# Stress axis : x y z
#
# Youngs Moduli (GPa) = 67.27741 63.85079 58.70254
#
# Poissons Ratio (x) = 0.14328 0.56442
# Poissons Ratio (y) = 0.15097 0.14221
# Poissons Ratio (z) = 0.64686 0.15468
#
# Static dielectric constant tensor:
#      x y z
#    x 3.306250 0.000000 0.000000 
#    y 0.000000 3.196760 0.000000 
#    z 0.000000 0.000000 3.313730 
# 
# 
# High freq. dielectric constant tensor:
#      x y z
#    x 1.713410 0.000000 0.000000 
#    y 0.000000 1.698870 0.000000 
#    z 0.000000 0.000000 1.699760 
# 
# From -- ./inp_files/27445.got.cif
#   From: 2010.03.12/outbox.cif.g09.slc.cpg/sg59_14_cif.got.tgz:27445.got - 2010.04.16 16:29:54.
