data_PCOD8242846
_publ_section_title
;
Structure prediction by ZEFSAII (Michael W. Deem and Ramdas Pophale) SiO2 
 PCOD8242846
Probable space group: P M M N
;
_chemical_formula_sum "Si O2"
_cell_formula_units_Z 48
_cell_length_a 9.155353
_cell_length_b 18.742775
_cell_length_c 15.469025
_cell_angle_alpha 90.000000
_cell_angle_beta 90.000000
_cell_angle_gamma 90.000000
_cell_volume 2654.433972
_symmetry_space_group_name_H-M "P M M N"
_symmetry_group_IT_number 59
_space_group.IT_coordinate_system_code '2'
_symmetry_cell_setting 'orthorhombic'
loop_
_space_group_symop_operation_xyz
x,y,z
1/2-x,1/2-y,z
1/2+x,-y,-z
-x,1/2+y,-z
-x,-y,-z
1/2+x,1/2+y,-z
1/2-x,y,z
x,1/2-y,z
loop_
_atom_site_type_symbol
_atom_site_label
_atom_site_fract_x
_atom_site_fract_y
_atom_site_fract_z
Si Si1 0.077001 0.670256 0.820900
Si Si2 0.580701 0.574251 0.493734
Si Si3 0.921148 0.409550 0.670224
Si Si4 0.584670 0.923785 0.684769
Si Si5 0.415514 0.165212 0.823708
Si Si6 0.412338 0.834734 0.011474
O O1 0.250000 0.672267 0.816186
O O2 0.014537 0.750000 0.803893
O O3 0.020564 0.616247 0.749607
O O4 0.029783 0.642448 0.916378
O O5 0.500000 0.500000 0.500000
O O6 0.750000 0.562509 0.470055
O O7 0.502031 0.618658 0.417220
O O8 0.565976 0.610325 0.588524
O O9 0.750000 0.394994 0.660088
O O10 0.956027 0.492760 0.684526
O O11 0.982276 0.365014 0.749420
O O12 0.750000 0.913530 0.716847
O O13 0.250000 0.137386 0.813219
O O14 0.421935 0.250000 0.819247
O O15 0.476841 0.136886 0.915580
O O16 0.250000 0.866188 0.029177
O O17 0.402828 0.750000 0.013675
#
# Coordination Sequence:
#
# PCOD8242846 Si02
#       6
#     8   8   8   8   8   8
#     4   9  18  32  51  75 100 128 164 202 240 287
#     4   9  17  31  50  72  98 129 166 204 243 291
#     4  10  20  34  52  74  99 129 166 204 245 294
#     4   9  19  33  50  74 100 127 161 201 243 288
#     4  10  20  33  51  76 101 126 161 203 246 294
#     4   8  15  30  50  70  95 128 163 198 238 286
#
# _framework density 18.08295
#
# number of rings (size 3 to 8) (size 9 to 14) (size 15 to 20)
#    0.000    2.833    0.000    3.500    0.000    6.000 
#    0.000    3.333    0.000    1.000    0.000    0.000 
#    0.000    0.000    0.000    0.000    0.000    0.000 
#
# Total GULP energy -594930.394391 kJ/mol
# GULP energy per Si atom -12394.383216 kJ/mol
# Density = 1.804179 g / cm^3
# Si number density = 18.082950 Si / 1000 Ang^3
#
#
#
# Elastic Constant Matrix: (Units=GPa)
#
#
# Indices 1 2 3 4 5 6 
#
# 1 103.1585 22.7280 66.3030 0.0000 0.0000 0.0000
# 2 22.7280 22.9182 28.0117 0.0000 0.0000 0.0000
# 3 66.3030 28.0117 142.3009 0.0000 0.0000 0.0000
# 4 0.0000 0.0000 0.0000 24.8686 0.0000 0.0000
# 5 0.0000 0.0000 0.0000 0.0000 38.9876 0.0000
# 6 0.0000 0.0000 0.0000 0.0000 0.0000 25.2588
#
#
#
# Elastic Compliance Matrix: (Units=1/GPa)
#
#
# Indices 1 2 3 4 5 6 
#
# 1 0.014951 -0.008312 -0.005330 0.000000 0.000000 0.000000
# 2 -0.008312 0.062079 -0.008347 0.000000 0.000000 0.000000
# 3 -0.005330 -0.008347 0.011154 0.000000 0.000000 0.000000
# 4 0.000000 0.000000 0.000000 0.040211 0.000000 0.000000
# 5 0.000000 0.000000 0.000000 0.000000 0.025649 0.000000
# 6 0.000000 0.000000 0.000000 0.000000 0.000000 0.039590
#
#
# Mechanical properties :
#
#
# Convention : Reuss Voigt Hill
#
# Bulk Modulus (GPa) = 22.62183 55.82921 39.22552
# Shear Modulus (GPa) = 19.81389 27.91200 23.86294
#
# Velocity S-wave (km/s) = 3.31376 3.93307 3.63662
# Velocity P-wave (km/s) = 5.21330 7.18097 6.27475
#
# Compressibility (1/GPa) = 0.04420508
#
# Stress axis : x y z
#
# Youngs Moduli (GPa) = 66.88566 16.10847 89.65511
#
# Poissons Ratio (x) = 0.13390 0.47785
# Poissons Ratio (y) = 0.55598 0.74836
# Poissons Ratio (z) = 0.35649 0.13446
#
# Static dielectric constant tensor:
#      x y z
#    x 3.564430 0.000000 0.000000 
#    y 0.000000 3.080670 0.000000 
#    z 0.000000 0.000000 5.325500 
# 
# 
# High freq. dielectric constant tensor:
#      x y z
#    x 1.707780 0.000000 0.000000 
#    y 0.000000 1.650260 0.000000 
#    z 0.000000 0.000000 1.719540 
# 
# From -- ./inp_files/20353.got.cif
#   From: 2010.03.12/outbox.cif.g09.slc.cpg/sg59_11_cif.got.tgz:20353.got - 2010.04.16 16:29:54.
