data_PCOD8242867
_publ_section_title
;
Structure prediction by ZEFSAII (Michael W. Deem and Ramdas Pophale) SiO2 
 PCOD8242867
Probable space group: P M M N
;
_chemical_formula_sum "Si O2"
_cell_formula_units_Z 48
_cell_length_a 9.259081
_cell_length_b 17.746596
_cell_length_c 15.528093
_cell_angle_alpha 90.000000
_cell_angle_beta 90.000000
_cell_angle_gamma 90.000000
_cell_volume 2551.532295
_symmetry_space_group_name_H-M "P M M N"
_symmetry_group_IT_number 59
_space_group.IT_coordinate_system_code '2'
_symmetry_cell_setting 'orthorhombic'
loop_
_space_group_symop_operation_xyz
x,y,z
1/2-x,1/2-y,z
1/2+x,-y,-z
-x,1/2+y,-z
-x,-y,-z
1/2+x,1/2+y,-z
1/2-x,y,z
x,1/2-y,z
loop_
_atom_site_type_symbol
_atom_site_label
_atom_site_fract_x
_atom_site_fract_y
_atom_site_fract_z
Si Si1 0.587935 0.160138 0.344789
Si Si2 0.912258 0.839604 0.304603
Si Si3 0.920531 0.921162 0.995156
Si Si4 0.582979 0.836069 0.820577
Si Si5 0.587787 0.839623 0.494737
Si Si6 0.913033 0.160474 0.857117
O O1 0.750000 0.129024 0.341080
O O2 0.583314 0.250000 0.347198
O O3 0.505360 0.131043 0.260160
O O4 0.514908 0.126468 0.431163
O O5 0.750000 0.869495 0.286125
O O6 0.910761 0.750000 0.301435
O O7 0.964115 0.866518 0.399677
O O8 0.021814 0.871283 0.232671
O O9 0.750000 0.930358 0.010582
O O10 0.954930 0.886173 0.902554
O O11 0.985229 0.865795 0.066052
O O12 0.000000 0.000000 0.000000
O O13 0.750000 0.840995 0.795633
O O14 0.538659 0.750000 0.841246
O O15 0.750000 0.868349 0.511889
O O16 0.584227 0.750000 0.498657
O O17 0.750000 0.128735 0.867333
O O18 0.911843 0.250000 0.857322
#
# Coordination Sequence:
#
# PCOD8242867 Si02
#       6
#     8   8   8   8   8   8
#     4   9  16  24  38  64  96 127 158 196 241 284
#     4   8  14  25  42  65  94 129 166 201 239 284
#     4  11  23  38  55  74  98 129 166 208 254 303
#     4   9  18  33  52  72  95 127 165 201 240 290
#     4   8  13  22  37  59  91 129 163 195 234 282
#     4  10  20  33  51  76 104 133 166 206 250 295
#
# _framework density 18.812225000000002
#
# number of rings (size 3 to 8) (size 9 to 14) (size 15 to 20)
#    0.000    2.833    0.000    3.000    0.000    5.667 
#    0.000    5.000    0.000    0.000    0.000    1.167 
#    0.000    0.000    0.000    0.000    0.000    0.000 
#
# Total GULP energy -595031.347384 kJ/mol
# GULP energy per Si atom -12396.486404 kJ/mol
# Density = 1.876941 g / cm^3
# Si number density = 18.812225 Si / 1000 Ang^3
#
#
#
# Elastic Constant Matrix: (Units=GPa)
#
#
# Indices 1 2 3 4 5 6 
#
# 1 129.1030 19.3128 95.0756 0.0000 0.0000 0.0000
# 2 19.3128 16.8153 14.7793 0.0000 0.0000 0.0000
# 3 95.0756 14.7793 164.1703 0.0000 0.0000 0.0000
# 4 0.0000 0.0000 0.0000 -1.0943 0.0000 0.0000
# 5 0.0000 0.0000 0.0000 0.0000 30.7437 0.0000
# 6 0.0000 0.0000 0.0000 0.0000 0.0000 17.7743
#
#
#
# Elastic Compliance Matrix: (Units=1/GPa)
#
#
# Indices 1 2 3 4 5 6 
#
# 1 0.015021 -0.010432 -0.007760 0.000000 0.000000 0.000000
# 2 -0.010432 0.071824 -0.000425 0.000000 0.000000 0.000000
# 3 -0.007760 -0.000425 0.010623 0.000000 0.000000 0.000000
# 4 0.000000 0.000000 0.000000 -0.913790 0.000000 0.000000
# 5 0.000000 0.000000 0.000000 0.000000 0.032527 0.000000
# 6 0.000000 0.000000 0.000000 0.000000 0.000000 0.056261
#
#
# Mechanical properties :
#
#
# Convention : Reuss Voigt Hill
#
# Bulk Modulus (GPa) = 16.60137 63.15821 39.87979
# Shear Modulus (GPa) = -7.46020 21.54612 7.04296
#
# Velocity S-wave (km/s) = -1.99355 3.38794 1.93699
# Velocity P-wave (km/s) = 1.88281 6.99643 5.12323
#
# Compressibility (1/GPa) = 0.06023600
#
# Stress axis : x y z
#
# Youngs Moduli (GPa) = 66.57399 13.92293 94.13129
#
# Poissons Ratio (x) = 0.14524 0.73045
# Poissons Ratio (y) = 0.69447 0.03998
# Poissons Ratio (z) = 0.51661 0.00591
#
# Static dielectric constant tensor:
#      x y z
#    x 3.731040 0.000000 0.000000 
#    y 0.000000 2.849670 0.000000 
#    z 0.000000 0.000000 3.823090 
# 
# 
# High freq. dielectric constant tensor:
#      x y z
#    x 1.736100 0.000000 0.000000 
#    y 0.000000 1.666130 0.000000 
#    z 0.000000 0.000000 1.749830 
# 
# From -- ./inp_files/20389.got.cif
#   From: 2010.03.12/outbox.cif.g09.slc.cpg/sg59_11_cif.got.tgz:20389.got - 2010.04.16 16:29:54.
