data_PCOD8242900
_publ_section_title
;
Structure prediction by ZEFSAII (Michael W. Deem and Ramdas Pophale) SiO2 
 PCOD8242900
Probable space group: P M M N
;
_chemical_formula_sum "Si O2"
_cell_formula_units_Z 40
_cell_length_a 25.228926
_cell_length_b 9.222779
_cell_length_c 9.724838
_cell_angle_alpha 90.000000
_cell_angle_beta 90.000000
_cell_angle_gamma 90.000000
_cell_volume 2262.783172
_symmetry_space_group_name_H-M "P M M N"
_symmetry_group_IT_number 59
_space_group.IT_coordinate_system_code '2'
_symmetry_cell_setting 'orthorhombic'
loop_
_space_group_symop_operation_xyz
x,y,z
1/2-x,1/2-y,z
1/2+x,-y,-z
-x,1/2+y,-z
-x,-y,-z
1/2+x,1/2+y,-z
1/2-x,y,z
x,1/2-y,z
loop_
_atom_site_type_symbol
_atom_site_label
_atom_site_fract_x
_atom_site_fract_y
_atom_site_fract_z
Si Si1 0.006197 0.081884 0.358186
Si Si2 0.606322 0.419760 0.662432
Si Si3 0.188032 0.084237 0.159070
Si Si4 0.808992 0.920837 0.152406
Si Si5 0.889266 0.414070 0.341151
O O1 0.020109 0.250000 0.383833
O O2 0.949313 0.067609 0.282042
O O3 0.054429 0.003971 0.277297
O O4 0.000000 0.000000 0.500000
O O5 0.598505 0.250000 0.688833
O O6 0.657905 0.475844 0.740330
O O7 0.613266 0.455461 0.501681
O O8 0.250000 0.067488 0.189384
O O9 0.170147 0.250000 0.185444
O O10 0.175072 0.037346 0.002921
O O11 0.750000 0.980760 0.185457
O O12 0.808996 0.750000 0.168717
O O13 0.850652 0.983187 0.258598
O O14 0.869894 0.250000 0.320292
#
# Coordination Sequence:
#
# PCOD8242900 Si02
#       5
#     8   8   8   8   8
#     4   9  17  31  50  73 102 133 165 203 249 297
#     4  10  20  33  51  77 104 131 167 207 247 295
#     4   9  19  36  54  72  98 132 168 207 251 296
#     4   9  19  35  53  73  98 130 168 206 246 296
#     4   9  19  33  50  75 103 129 161 203 246 291
#
# _framework density 17.677344999999999
#
# number of rings (size 3 to 8) (size 9 to 14) (size 15 to 20)
#    0.000    2.800    0.000    3.600    0.000    7.200 
#    0.000    7.000    0.000    0.000    0.000    0.000 
#    0.000    0.000    0.000    0.000    0.000    0.000 
#
# Total GULP energy -495819.577648 kJ/mol
# GULP energy per Si atom -12395.489441 kJ/mol
# Density = 1.763711 g / cm^3
# Si number density = 17.677345 Si / 1000 Ang^3
#
#
#
# Elastic Constant Matrix: (Units=GPa)
#
#
# Indices 1 2 3 4 5 6 
#
# 1 105.8310 58.2506 53.6174 0.0000 0.0000 0.0000
# 2 58.2506 90.3905 42.3926 0.0000 0.0000 0.0000
# 3 53.6174 42.3926 62.6083 0.0000 0.0000 0.0000
# 4 0.0000 0.0000 0.0000 27.5038 0.0000 0.0000
# 5 0.0000 0.0000 0.0000 0.0000 -13.9936 0.0000
# 6 0.0000 0.0000 0.0000 0.0000 0.0000 37.9629
#
#
#
# Elastic Compliance Matrix: (Units=1/GPa)
#
#
# Indices 1 2 3 4 5 6 
#
# 1 0.019192 -0.006828 -0.011813 0.000000 0.000000 0.000000
# 2 -0.006828 0.018640 -0.006774 0.000000 0.000000 0.000000
# 3 -0.011813 -0.006774 0.030675 0.000000 0.000000 0.000000
# 4 0.000000 0.000000 0.000000 0.036359 0.000000 0.000000
# 5 0.000000 0.000000 0.000000 0.000000 -0.071461 0.000000
# 6 0.000000 0.000000 0.000000 0.000000 0.000000 0.026342
#
#
# Mechanical properties :
#
#
# Convention : Reuss Voigt Hill
#
# Bulk Modulus (GPa) = 56.56647 63.03902 59.80275
# Shear Modulus (GPa) = 42.93020 17.26589 30.09804
#
# Velocity S-wave (km/s) = 4.93337 3.12865 4.13077
# Velocity P-wave (km/s) = 8.03242 6.98495 7.52693
#
# Compressibility (1/GPa) = 0.01767832
#
# Stress axis : x y z
#
# Youngs Moduli (GPa) = 52.10576 53.64747 32.59944
#
# Poissons Ratio (x) = 0.36629 0.38508
# Poissons Ratio (y) = 0.35577 0.22083
# Poissons Ratio (z) = 0.61550 0.36342
#
# Static dielectric constant tensor:
#      x y z
#    x 3.761700 0.000000 0.000000 
#    y 0.000000 3.315570 0.000000 
#    z 0.000000 0.000000 3.047590 
# 
# 
# High freq. dielectric constant tensor:
#      x y z
#    x 1.696340 0.000000 0.000000 
#    y 0.000000 1.689520 0.000000 
#    z 0.000000 0.000000 1.652310 
# 
# From -- ./inp_files/5687.got.cif
#   From: 2010.03.12/outbox.cif.g09.slc.cpg/sg59_3_cif.got.tgz:5687.got - 2010.04.16 16:29:54.
