data_PCOD8242712
_publ_section_title
;
Structure prediction by ZEFSAII (Michael W. Deem and Ramdas Pophale) SiO2 
 PCOD8242712
Probable space group: P M M N
;
_chemical_formula_sum "Si O2"
_cell_formula_units_Z 40
_cell_length_a 9.110718
_cell_length_b 9.617376
_cell_length_c 25.826622
_cell_angle_alpha 90.000000
_cell_angle_beta 90.000000
_cell_angle_gamma 90.000000
_cell_volume 2262.959628
_symmetry_space_group_name_H-M "P M M N"
_symmetry_group_IT_number 59
_space_group.IT_coordinate_system_code '2'
_symmetry_cell_setting 'orthorhombic'
loop_
_space_group_symop_operation_xyz
x,y,z
1/2-x,1/2-y,z
1/2+x,-y,-z
-x,1/2+y,-z
-x,-y,-z
1/2+x,1/2+y,-z
1/2-x,y,z
x,1/2-y,z
loop_
_atom_site_type_symbol
_atom_site_label
_atom_site_fract_x
_atom_site_fract_y
_atom_site_fract_z
Si Si1 0.586916 0.084906 0.644585
Si Si2 0.575214 0.095033 0.757514
Si Si3 0.921358 0.411876 0.043639
Si Si4 0.420184 0.089095 0.148343
Si Si5 0.078795 0.087694 0.543696
O O1 0.750000 0.023664 0.633885
O O2 0.596497 0.250000 0.646177
O O3 0.525849 0.036485 0.700960
O O4 0.478582 0.034405 0.599415
O O5 0.750000 0.099224 0.757782
O O6 0.512242 0.250000 0.767316
O O7 0.516383 0.994993 0.802631
O O8 0.750000 0.446277 0.043524
O O9 0.952281 0.250000 0.032943
O O10 0.987588 0.457321 0.098608
O O11 0.000000 0.500000 0.000000
O O12 0.250000 0.054442 0.137576
O O13 0.443337 0.250000 0.161128
O O14 0.250000 0.057506 0.540931
O O15 0.042380 0.250000 0.535516
O O16 0.000000 0.000000 0.500000
#
# Coordination Sequence:
#
# PCOD8242712 Si02
#       5
#     8   8   8   8   8
#     4   8  14  27  47  68  92 124 159 196 238 281
#     4   8  14  26  46  70  93 121 159 196 230 276
#     4  10  21  36  53  73  98 129 164 202 244 289
#     4   9  17  30  48  70  97 127 157 193 238 283
#     4  10  20  33  50  72  97 127 163 202 245 292
#
# _framework density 17.675968000000001
#
# number of rings (size 3 to 8) (size 9 to 14) (size 15 to 20)
#    0.000    3.000    0.000    2.400    0.000    3.200 
#    0.000    4.000    0.000    4.800    0.000    0.000 
#    0.000    0.000    0.000    0.000    0.000    0.000 
#
# Total GULP energy -495870.422421 kJ/mol
# GULP energy per Si atom -12396.760561 kJ/mol
# Density = 1.763574 g / cm^3
# Si number density = 17.675968 Si / 1000 Ang^3
#
#
#
# Elastic Constant Matrix: (Units=GPa)
#
#
# Indices 1 2 3 4 5 6 
#
# 1 84.8682 42.0479 78.9553 0.0000 0.0000 0.0000
# 2 42.0479 57.4564 76.7070 0.0000 0.0000 0.0000
# 3 78.9553 76.7070 201.1268 0.0000 0.0000 0.0000
# 4 0.0000 0.0000 0.0000 34.8551 0.0000 0.0000
# 5 0.0000 0.0000 0.0000 0.0000 31.3589 0.0000
# 6 0.0000 0.0000 0.0000 0.0000 0.0000 19.3230
#
#
#
# Elastic Compliance Matrix: (Units=1/GPa)
#
#
# Indices 1 2 3 4 5 6 
#
# 1 0.020483 -0.008669 -0.004735 0.000000 0.000000 0.000000
# 2 -0.008669 0.039128 -0.011520 0.000000 0.000000 0.000000
# 3 -0.004735 -0.011520 0.011224 0.000000 0.000000 0.000000
# 4 0.000000 0.000000 0.000000 0.028690 0.000000 0.000000
# 5 0.000000 0.000000 0.000000 0.000000 0.031889 0.000000
# 6 0.000000 0.000000 0.000000 0.000000 0.000000 0.051752
#
#
# Mechanical properties :
#
#
# Convention : Reuss Voigt Hill
#
# Bulk Modulus (GPa) = 47.64532 82.09688 64.87110
# Shear Modulus (GPa) = 20.83262 26.82349 23.82806
#
# Velocity S-wave (km/s) = 3.43678 3.89975 3.67556
# Velocity P-wave (km/s) = 6.53926 8.17458 7.40222
#
# Compressibility (1/GPa) = 0.02098842
#
# Stress axis : x y z
#
# Youngs Moduli (GPa) = 48.82183 25.55712 89.09346
#
# Poissons Ratio (x) = 0.22155 0.42183
# Poissons Ratio (y) = 0.42322 1.02635
# Poissons Ratio (z) = 0.23115 0.29441
#
# Static dielectric constant tensor:
#      x y z
#    x 3.098870 0.000000 0.000000 
#    y 0.000000 3.003140 0.000000 
#    z 0.000000 0.000000 3.735770 
# 
# 
# High freq. dielectric constant tensor:
#      x y z
#    x 1.664200 0.000000 0.000000 
#    y 0.000000 1.657080 0.000000 
#    z 0.000000 0.000000 1.700810 
# 
# From -- ./inp_files/28716.got.cif
#   From: 2010.03.12/outbox.cif.g09.slc.cpg/sg59_15_cif.got.tgz:28716.got - 2010.04.16 16:29:54.
