data_PCOD8242347
_publ_section_title
;
Structure prediction by ZEFSAII (Michael W. Deem and Ramdas Pophale) SiO2 
 PCOD8242347
Probable space group: P M M N
;
_chemical_formula_sum "Si O2"
_cell_formula_units_Z 56
_cell_length_a 25.445869
_cell_length_b 21.019133
_cell_length_c 5.277636
_cell_angle_alpha 90.000000
_cell_angle_beta 90.000000
_cell_angle_gamma 90.000000
_cell_volume 2822.744168
_symmetry_space_group_name_H-M "P M M N"
_symmetry_group_IT_number 59
_space_group.IT_coordinate_system_code '2'
_symmetry_cell_setting 'orthorhombic'
loop_
_space_group_symop_operation_xyz
x,y,z
1/2-x,1/2-y,z
1/2+x,-y,-z
-x,1/2+y,-z
-x,-y,-z
1/2+x,1/2+y,-z
1/2-x,y,z
x,1/2-y,z
loop_
_atom_site_type_symbol
_atom_site_label
_atom_site_fract_x
_atom_site_fract_y
_atom_site_fract_z
Si Si1 0.868394 0.498058 0.606944
Si Si2 0.688373 0.119862 0.481958
Si Si3 0.447929 0.919199 0.090434
Si Si4 0.311894 0.105002 0.134639
Si Si5 0.958145 0.527121 0.308058
Si Si6 0.812054 0.820901 0.357102
Si Si7 0.136526 0.824712 0.015575
O O1 0.824645 0.456098 0.459165
O O2 0.910923 0.445590 0.687414
O O3 0.841020 0.537321 0.832983
O O4 0.902558 0.548178 0.434701
O O5 0.750000 0.129351 0.458753
O O6 0.670243 0.146465 0.754465
O O7 0.662432 0.158222 0.252207
O O8 0.510295 0.914905 0.167772
O O9 0.423794 0.851122 0.013075
O O10 0.441804 0.970039 0.871581
O O11 0.250000 0.092108 0.120546
O O12 0.326831 0.148255 0.375217
O O13 0.333533 0.137500 0.878715
O O14 0.000000 0.500000 0.500000
O O15 0.750000 0.816227 0.326844
O O16 0.836477 0.750000 0.345102
O O17 0.133018 0.750000 0.048933
#
# Coordination Sequence:
#
# PCOD8242347 Si02
#       7
#     8   8   8   8   8   8   8
#     4  10  20  33  54  84 115 147 181 236 292 346
#     4  11  23  38  56  82 121 160 197 243 290 337
#     4   9  19  35  57  84 109 140 184 237 294 337
#     4  10  20  31  51  80 109 143 183 224 274 332
#     4   9  17  34  58  82 107 134 181 232 289 349
#     4   9  18  33  50  70 100 141 186 224 256 307
#     4  11  23  39  59  83 114 156 205 243 284 349
#
# _framework density 19.838851999999999
#
# number of rings (size 3 to 8) (size 9 to 14) (size 15 to 20)
#    0.000    2.143    1.429    1.714    2.000    3.429 
#    0.000    2.857    0.000    1.714    0.000    0.000 
#    0.000    0.000    0.000    0.000    0.000    0.000 
#
# Total GULP energy -693759.628033 kJ/mol
# GULP energy per Si atom -12388.564786 kJ/mol
# Density = 1.979370 g / cm^3
# Si number density = 19.838852 Si / 1000 Ang^3
#
#
#
# Elastic Constant Matrix: (Units=GPa)
#
#
# Indices 1 2 3 4 5 6 
#
# 1 49.6284 31.2712 7.0104 0.0000 0.0000 0.0000
# 2 31.2712 66.5616 -6.7480 0.0000 0.0000 0.0000
# 3 7.0104 -6.7480 72.4573 0.0000 0.0000 0.0000
# 4 0.0000 0.0000 0.0000 25.4345 0.0000 0.0000
# 5 0.0000 0.0000 0.0000 0.0000 17.9667 0.0000
# 6 0.0000 0.0000 0.0000 0.0000 0.0000 20.8066
#
#
#
# Elastic Compliance Matrix: (Units=1/GPa)
#
#
# Indices 1 2 3 4 5 6 
#
# 1 0.029857 -0.014456 -0.004235 0.000000 0.000000 0.000000
# 2 -0.014456 0.022167 0.003463 0.000000 0.000000 0.000000
# 3 -0.004235 0.003463 0.014534 0.000000 0.000000 0.000000
# 4 0.000000 0.000000 0.000000 0.039317 0.000000 0.000000
# 5 0.000000 0.000000 0.000000 0.000000 0.055659 0.000000
# 6 0.000000 0.000000 0.000000 0.000000 0.000000 0.048062
#
#
# Mechanical properties :
#
#
# Convention : Reuss Voigt Hill
#
# Bulk Modulus (GPa) = 27.70067 27.96827 27.83447
# Shear Modulus (GPa) = 19.83463 23.31581 21.57522
#
# Velocity S-wave (km/s) = 3.16537 3.43193 3.30134
# Velocity P-wave (km/s) = 5.22997 5.46191 5.34720
#
# Compressibility (1/GPa) = 0.03610021
#
# Stress axis : x y z
#
# Youngs Moduli (GPa) = 33.49284 45.11301 68.80647
#
# Poissons Ratio (x) = 0.65218 0.29140
# Poissons Ratio (y) = 0.48419 -0.23828
# Poissons Ratio (z) = 0.14185 -0.15623
#
# Static dielectric constant tensor:
#      x y z
#    x 3.830960 0.000000 0.000000 
#    y 0.000000 3.536710 0.000000 
#    z 0.000000 0.000000 3.778570 
# 
# 
# High freq. dielectric constant tensor:
#      x y z
#    x 1.764170 0.000000 0.000000 
#    y 0.000000 1.745670 0.000000 
#    z 0.000000 0.000000 1.789750 
# 
# From -- ./inp_files/3445.got.cif
#   From: 2010.03.12/outbox.cif.g09.slc.cpg/sg59_2_cif.got.tgz:3445.got - 2010.04.16 16:29:54.
