data_PCOD8242902
_publ_section_title
;
Structure prediction by ZEFSAII (Michael W. Deem and Ramdas Pophale) SiO2 
 PCOD8242902
Probable space group: P M M N
;
_chemical_formula_sum "Si O2"
_cell_formula_units_Z 40
_cell_length_a 9.327629
_cell_length_b 13.486115
_cell_length_c 18.227618
_cell_angle_alpha 90.000000
_cell_angle_beta 90.000000
_cell_angle_gamma 90.000000
_cell_volume 2292.915452
_symmetry_space_group_name_H-M "P M M N"
_symmetry_group_IT_number 59
_space_group.IT_coordinate_system_code '2'
_symmetry_cell_setting 'orthorhombic'
loop_
_space_group_symop_operation_xyz
x,y,z
1/2-x,1/2-y,z
1/2+x,-y,-z
-x,1/2+y,-z
-x,-y,-z
1/2+x,1/2+y,-z
1/2-x,y,z
x,1/2-y,z
loop_
_atom_site_type_symbol
_atom_site_label
_atom_site_fract_x
_atom_site_fract_y
_atom_site_fract_z
Si Si1 0.917476 0.032829 0.111291
Si Si2 0.416395 0.035132 0.393740
Si Si3 0.584452 0.135857 0.960118
Si Si4 0.583356 0.865338 0.758735
Si Si5 0.082045 0.362388 0.544044
O O1 0.750000 0.017823 0.125174
O O2 0.987422 0.078720 0.182757
O O3 0.949010 0.106227 0.043762
O O4 0.986958 0.925897 0.095710
O O5 0.250000 0.008071 0.395407
O O6 0.458867 0.093126 0.320618
O O7 0.458865 0.105613 0.461523
O O8 0.502264 0.931914 0.397349
O O9 0.750000 0.114903 0.941406
O O10 0.543841 0.250000 0.949698
O O11 0.750000 0.883664 0.776501
O O12 0.545248 0.750000 0.760369
O O13 0.250000 0.372592 0.557903
O O14 0.029920 0.250000 0.555934
#
# Coordination Sequence:
#
# PCOD8242902 Si02
#       5
#     8   8   8   8   8
#     4  10  20  33  51  77 105 129 160 204 249 292
#     4   9  18  32  50  73  99 127 163 203 241 287
#     4   9  18  34  54  74  99 132 167 202 242 290
#     4  10  20  34  52  73  99 132 166 200 243 295
#     4   9  17  31  51  73  98 128 161 200 245 289
#
# _framework density 17.445039000000001
#
# number of rings (size 3 to 8) (size 9 to 14) (size 15 to 20)
#    0.000    2.600    0.000    1.800    0.000    6.000 
#    0.000    1.000    0.000    4.800    0.000    0.000 
#    0.000    0.000    0.000    0.000    0.000    0.000 
#
# Total GULP energy -496110.459820 kJ/mol
# GULP energy per Si atom -12402.761495 kJ/mol
# Density = 1.740533 g / cm^3
# Si number density = 17.445039 Si / 1000 Ang^3
#
#
#
# Elastic Constant Matrix: (Units=GPa)
#
#
# Indices 1 2 3 4 5 6 
#
# 1 65.4319 54.3557 45.5461 0.0000 0.0000 0.0000
# 2 54.3557 126.0047 44.2220 0.0000 0.0000 0.0000
# 3 45.5461 44.2220 81.5281 0.0000 0.0000 0.0000
# 4 0.0000 0.0000 0.0000 25.0964 0.0000 0.0000
# 5 0.0000 0.0000 0.0000 0.0000 31.4169 0.0000
# 6 0.0000 0.0000 0.0000 0.0000 0.0000 31.5916
#
#
#
# Elastic Compliance Matrix: (Units=1/GPa)
#
#
# Indices 1 2 3 4 5 6 
#
# 1 0.031878 -0.009265 -0.012783 0.000000 0.000000 0.000000
# 2 -0.009265 0.012495 -0.001601 0.000000 0.000000 0.000000
# 3 -0.012783 -0.001601 0.020276 0.000000 0.000000 0.000000
# 4 0.000000 0.000000 0.000000 0.039846 0.000000 0.000000
# 5 0.000000 0.000000 0.000000 0.000000 0.031830 0.000000
# 6 0.000000 0.000000 0.000000 0.000000 0.000000 0.031654
#
#
# Mechanical properties :
#
#
# Convention : Reuss Voigt Hill
#
# Bulk Modulus (GPa) = 57.63983 62.35691 59.99837
# Shear Modulus (GPa) = 22.61806 26.21038 24.41422
#
# Velocity S-wave (km/s) = 3.60465 3.88036 3.74504
# Velocity P-wave (km/s) = 7.10191 7.47654 7.29163
#
# Compressibility (1/GPa) = 0.01734911
#
# Stress axis : x y z
#
# Youngs Moduli (GPa) = 31.36946 80.03169 49.31977
#
# Poissons Ratio (x) = 0.74151 0.63047
# Poissons Ratio (y) = 0.29064 0.07898
# Poissons Ratio (z) = 0.40101 0.12817
#
# Static dielectric constant tensor:
#      x y z
#    x 3.224330 0.000000 0.000000 
#    y 0.000000 3.361240 0.000000 
#    z 0.000000 0.000000 3.142990 
# 
# 
# High freq. dielectric constant tensor:
#      x y z
#    x 1.673190 0.000000 0.000000 
#    y 0.000000 1.680850 0.000000 
#    z 0.000000 0.000000 1.662890 
# 
# From -- ./inp_files/19891.got.cif
#   From: 2010.03.12/outbox.cif.g09.slc.cpg/sg59_10_cif.got.tgz:19891.got - 2010.04.16 16:29:54.
