data_PCOD8242658
_publ_section_title
;
Structure prediction by ZEFSAII (Michael W. Deem and Ramdas Pophale) SiO2 
 PCOD8242658
Probable space group: P M M N
;
_chemical_formula_sum "Si O2"
_cell_formula_units_Z 56
_cell_length_a 9.263650
_cell_length_b 19.310975
_cell_length_c 17.844363
_cell_angle_alpha 90.000000
_cell_angle_beta 90.000000
_cell_angle_gamma 90.000000
_cell_volume 3192.180123
_symmetry_space_group_name_H-M "P M M N"
_symmetry_group_IT_number 59
_space_group.IT_coordinate_system_code '2'
_symmetry_cell_setting 'orthorhombic'
loop_
_space_group_symop_operation_xyz
x,y,z
1/2-x,1/2-y,z
1/2+x,-y,-z
-x,1/2+y,-z
-x,-y,-z
1/2+x,1/2+y,-z
1/2-x,y,z
x,1/2-y,z
loop_
_atom_site_type_symbol
_atom_site_label
_atom_site_fract_x
_atom_site_fract_y
_atom_site_fract_z
Si Si1 0.417872 0.424836 0.083706
Si Si2 0.918967 0.828475 0.212931
Si Si3 0.916558 0.562646 0.089157
Si Si4 0.084084 0.668053 0.805168
Si Si5 0.412139 0.667767 0.354839
Si Si6 0.912541 0.667482 0.660016
Si Si7 0.587195 0.332440 0.480398
O O1 0.250000 0.422799 0.105602
O O2 0.483504 0.497872 0.109780
O O3 0.501979 0.363101 0.123825
O O4 0.441996 0.413067 0.995624
O O5 0.750000 0.829894 0.226235
O O6 0.973172 0.750000 0.198006
O O7 0.964454 0.873964 0.141686
O O8 0.988713 0.861232 0.288043
O O9 0.750000 0.541562 0.102171
O O10 0.250000 0.643581 0.803814
O O11 0.072335 0.750000 0.812076
O O12 0.007455 0.640859 0.729634
O O13 0.250000 0.641417 0.340716
O O14 0.418129 0.750000 0.354124
O O15 0.465296 0.642003 0.437106
O O16 0.750000 0.638631 0.667586
O O17 0.912151 0.750000 0.658243
O O18 0.981657 0.637369 0.583404
O O19 0.750000 0.358613 0.464950
O O20 0.585482 0.250000 0.477440
#
# Coordination Sequence:
#
# PCOD8242658 Si02
#       7
#     8   8   8   8   8   8   8
#     4  10  20  34  53  73  93 121 159 201 239 280
#     4   9  17  29  46  69  96 125 157 193 234 279
#     4   9  19  35  52  70  95 126 158 194 238 287
#     4  10  20  33  49  70  98 129 158 192 238 288
#     4   8  14  24  38  59  89 123 156 191 231 273
#     4   9  16  25  39  62  91 121 155 194 232 271
#     4   8  13  22  36  55  84 122 157 187 226 274
#
# _framework density 17.542871000000002
#
# number of rings (size 3 to 8) (size 9 to 14) (size 15 to 20)
#    0.000    3.000    0.000    2.143    0.000    4.857 
#    0.000    4.286    0.000    1.714    0.000    1.000 
#    0.000    0.000    0.000    0.000    0.000    0.000 
#
# Total GULP energy -694212.318518 kJ/mol
# GULP energy per Si atom -12396.648545 kJ/mol
# Density = 1.750294 g / cm^3
# Si number density = 17.542871 Si / 1000 Ang^3
#
#
#
# Elastic Constant Matrix: (Units=GPa)
#
#
# Indices 1 2 3 4 5 6 
#
# 1 109.2092 32.8235 68.4473 0.0000 0.0000 0.0000
# 2 32.8235 31.5665 38.6317 0.0000 0.0000 0.0000
# 3 68.4473 38.6317 123.3530 0.0000 0.0000 0.0000
# 4 0.0000 0.0000 0.0000 3.5830 0.0000 0.0000
# 5 0.0000 0.0000 0.0000 0.0000 36.9924 0.0000
# 6 0.0000 0.0000 0.0000 0.0000 0.0000 20.4327
#
#
#
# Elastic Compliance Matrix: (Units=1/GPa)
#
#
# Indices 1 2 3 4 5 6 
#
# 1 0.015488 -0.009059 -0.005757 0.000000 0.000000 0.000000
# 2 -0.009059 0.056666 -0.012720 0.000000 0.000000 0.000000
# 3 -0.005757 -0.012720 0.015285 0.000000 0.000000 0.000000
# 4 0.000000 0.000000 0.000000 0.279099 0.000000 0.000000
# 5 0.000000 0.000000 0.000000 0.000000 0.027033 0.000000
# 6 0.000000 0.000000 0.000000 0.000000 0.000000 0.048941
#
#
# Mechanical properties :
#
#
# Convention : Reuss Voigt Hill
#
# Bulk Modulus (GPa) = 30.89583 60.43708 45.66646
# Shear Modulus (GPa) = 9.83534 20.48335 15.15934
#
# Velocity S-wave (km/s) = 2.37037 3.42075 2.94280
# Velocity P-wave (km/s) = 5.01412 7.08011 6.13471
#
# Compressibility (1/GPa) = 0.03236683
#
# Stress axis : x y z
#
# Youngs Moduli (GPa) = 64.56791 17.64735 65.42458
#
# Poissons Ratio (x) = 0.15987 0.37663
# Poissons Ratio (y) = 0.58492 0.83219
# Poissons Ratio (z) = 0.37170 0.22447
#
# Static dielectric constant tensor:
#      x y z
#    x 3.408910 0.000000 0.000000 
#    y 0.000000 2.794370 0.000000 
#    z 0.000000 0.000000 3.566350 
# 
# 
# High freq. dielectric constant tensor:
#      x y z
#    x 1.683890 0.000000 0.000000 
#    y 0.000000 1.620200 0.000000 
#    z 0.000000 0.000000 1.691670 
# 
# From -- ./inp_files/26025.got.cif
#   From: 2010.03.12/outbox.cif.g09.slc.cpg/sg59_14_cif.got.tgz:26025.got - 2010.04.16 16:29:54.
