data_PCOD8242095
_publ_section_title
;
Structure prediction by ZEFSAII (Michael W. Deem and Ramdas Pophale) SiO2 
 PCOD8242095
Probable space group: P M M N
;
_chemical_formula_sum "Si O2"
_cell_formula_units_Z 40
_cell_length_a 18.658054
_cell_length_b 9.138629
_cell_length_c 12.382529
_cell_angle_alpha 90.000000
_cell_angle_beta 90.000000
_cell_angle_gamma 90.000000
_cell_volume 2111.333050
_symmetry_space_group_name_H-M "P M M N"
_symmetry_group_IT_number 59
_space_group.IT_coordinate_system_code '2'
_symmetry_cell_setting 'orthorhombic'
loop_
_space_group_symop_operation_xyz
x,y,z
1/2-x,1/2-y,z
1/2+x,-y,-z
-x,1/2+y,-z
-x,-y,-z
1/2+x,1/2+y,-z
1/2-x,y,z
x,1/2-y,z
loop_
_atom_site_type_symbol
_atom_site_label
_atom_site_fract_x
_atom_site_fract_y
_atom_site_fract_z
Si Si1 0.437355 0.418724 0.561162
Si Si2 0.059222 0.077901 0.801328
Si Si3 0.668023 0.581945 0.623979
Si Si4 0.167997 0.420622 0.978551
Si Si5 0.396970 0.577878 0.178077
O O1 0.500000 0.500000 0.500000
O O2 0.460564 0.250000 0.570219
O O3 0.427421 0.486302 0.681187
O O4 0.363357 0.437678 0.496262
O O5 0.070842 0.250000 0.796690
O O6 0.117353 0.012157 0.884700
O O7 0.979921 0.037239 0.843114
O O8 0.750000 0.531120 0.620788
O O9 0.660876 0.750000 0.662407
O O10 0.624161 0.479465 0.704337
O O11 0.250000 0.447284 0.944268
O O12 0.152194 0.250000 0.997857
O O13 0.152905 0.502949 0.089704
O O14 0.384081 0.750000 0.174466
#
# Coordination Sequence:
#
# PCOD8242095 Si02
#       5
#     8   8   8   8   8
#     4  10  19  35  57  80 109 141 178 221 265 318
#     4   9  19  35  56  81 107 138 180 223 267 320
#     4  10  21  35  54  82 112 143 180 222 268 318
#     4  10  21  37  56  78 107 142 180 224 272 321
#     4  11  21  35  56  80 109 143 180 224 271 321
#
# _framework density 18.945378000000002
#
# number of rings (size 3 to 8) (size 9 to 14) (size 15 to 20)
#    0.000    2.000    2.000    1.800    0.000    4.000 
#    0.000    6.000    0.000    0.000    0.000    2.800 
#    0.000    0.000    0.000    0.000    0.000    0.000 
#
# Total GULP energy -496080.082982 kJ/mol
# GULP energy per Si atom -12402.002075 kJ/mol
# Density = 1.890226 g / cm^3
# Si number density = 18.945378 Si / 1000 Ang^3
#
#
#
# Elastic Constant Matrix: (Units=GPa)
#
#
# Indices 1 2 3 4 5 6 
#
# 1 101.1102 36.0517 28.0601 0.0000 0.0000 0.0000
# 2 36.0517 50.7637 28.1906 0.0000 0.0000 0.0000
# 3 28.0601 28.1906 93.2325 0.0000 0.0000 0.0000
# 4 0.0000 0.0000 0.0000 21.1776 0.0000 0.0000
# 5 0.0000 0.0000 0.0000 0.0000 35.7835 0.0000
# 6 0.0000 0.0000 0.0000 0.0000 0.0000 23.4406
#
#
#
# Elastic Compliance Matrix: (Units=1/GPa)
#
#
# Indices 1 2 3 4 5 6 
#
# 1 0.013392 -0.008740 -0.001388 0.000000 0.000000 0.000000
# 2 -0.008740 0.029378 -0.006253 0.000000 0.000000 0.000000
# 3 -0.001388 -0.006253 0.013034 0.000000 0.000000 0.000000
# 4 0.000000 0.000000 0.000000 0.047220 0.000000 0.000000
# 5 0.000000 0.000000 0.000000 0.000000 0.027946 0.000000
# 6 0.000000 0.000000 0.000000 0.000000 0.000000 0.042661
#
#
# Mechanical properties :
#
#
# Convention : Reuss Voigt Hill
#
# Bulk Modulus (GPa) = 43.39625 47.74569 45.57097
# Shear Modulus (GPa) = 23.35657 26.26728 24.81192
#
# Velocity S-wave (km/s) = 3.51499 3.72758 3.62284
# Velocity P-wave (km/s) = 6.27927 6.61687 6.45028
#
# Compressibility (1/GPa) = 0.02304347
#
# Stress axis : x y z
#
# Youngs Moduli (GPa) = 74.67357 34.03864 76.72135
#
# Poissons Ratio (x) = 0.29749 0.10647
# Poissons Ratio (y) = 0.65264 0.47972
# Poissons Ratio (z) = 0.10363 0.21283
#
# Static dielectric constant tensor:
#      x y z
#    x 3.608540 0.000000 0.000000 
#    y 0.000000 3.250840 0.000000 
#    z 0.000000 0.000000 3.759500 
# 
# 
# High freq. dielectric constant tensor:
#      x y z
#    x 1.743730 0.000000 0.000000 
#    y 0.000000 1.710090 0.000000 
#    z 0.000000 0.000000 1.746150 
# 
# From -- ./inp_files/13823.got.cif
#   From: 2010.03.12/outbox.cif.g09.slc.cpg/sg59_7_cif.got.tgz:13823.got - 2010.04.16 16:29:54.
