data_PCOD8242874
_publ_section_title
;
Structure prediction by ZEFSAII (Michael W. Deem and Ramdas Pophale) SiO2 
 PCOD8242874
Probable space group: P M M N
;
_chemical_formula_sum "Si O2"
_cell_formula_units_Z 64
_cell_length_a 17.931741
_cell_length_b 9.142908
_cell_length_c 20.662489
_cell_angle_alpha 90.000000
_cell_angle_beta 90.000000
_cell_angle_gamma 90.000000
_cell_volume 3387.579083
_symmetry_space_group_name_H-M "P M M N"
_symmetry_group_IT_number 59
_space_group.IT_coordinate_system_code '2'
_symmetry_cell_setting 'orthorhombic'
loop_
_space_group_symop_operation_xyz
x,y,z
1/2-x,1/2-y,z
1/2+x,-y,-z
-x,1/2+y,-z
-x,-y,-z
1/2+x,1/2+y,-z
1/2-x,y,z
x,1/2-y,z
loop_
_atom_site_type_symbol
_atom_site_label
_atom_site_fract_x
_atom_site_fract_y
_atom_site_fract_z
Si Si1 0.163593 0.920962 0.060443
Si Si2 0.336003 0.079531 0.928309
Si Si3 0.164798 0.578566 0.686086
Si Si4 0.661563 0.915265 0.437856
Si Si5 0.408197 0.081482 0.178627
Si Si6 0.338789 0.085288 0.420212
Si Si7 0.161365 0.585330 0.296934
Si Si8 0.083167 0.581989 0.814763
O O1 0.250000 0.948938 0.077300
O O2 0.145399 0.750000 0.056128
O O3 0.113097 0.992767 0.114959
O O4 0.141375 0.994406 0.992981
O O5 0.250000 0.050227 0.910551
O O6 0.352097 0.250000 0.939159
O O7 0.386900 0.020235 0.871219
O O8 0.250000 0.526898 0.696395
O O9 0.159398 0.750000 0.677483
O O10 0.128720 0.510863 0.620900
O O11 0.117898 0.524906 0.747639
O O12 0.750000 0.927733 0.436635
O O13 0.635268 0.750000 0.426675
O O14 0.633277 0.969275 0.508769
O O15 0.384600 0.250000 0.169940
O O16 0.495339 0.064836 0.190627
O O17 0.365266 0.016755 0.239404
O O18 0.250000 0.085753 0.419129
O O19 0.367811 0.250000 0.406975
O O20 0.370112 0.978158 0.364772
O O21 0.250000 0.585011 0.296933
O O22 0.130746 0.750000 0.288022
O O23 0.106758 0.750000 0.828319
#
# Coordination Sequence:
#
# PCOD8242874 Si02
#       8
#     8   8   8   8   8   8   8   8
#     4  10  21  38  60  83 107 136 169 208 256 308
#     4  10  21  37  59  86 110 134 169 211 254 302
#     4   9  17  30  50  74 100 132 169 209 253 302
#     4   8  14  25  43  70 102 131 162 205 256 306
#     4  11  23  37  54  76 104 139 177 216 256 302
#     4   8  14  26  45  70 100 132 165 205 255 307
#     4  10  20  33  51  76 104 134 170 213 261 312
#     4  10  22  38  54  75 105 142 179 213 255 305
#
# _framework density 18.892548000000001
#
# number of rings (size 3 to 8) (size 9 to 14) (size 15 to 20)
#    0.000    2.500    0.000    3.000    0.000    6.750 
#    0.000    3.750    0.000    0.750    0.000    0.000 
#    0.000    0.000    0.000    0.000    0.000    0.000 
#
# Total GULP energy -793557.119599 kJ/mol
# GULP energy per Si atom -12399.329994 kJ/mol
# Density = 1.884955 g / cm^3
# Si number density = 18.892548 Si / 1000 Ang^3
#
#
#
# Elastic Constant Matrix: (Units=GPa)
#
#
# Indices 1 2 3 4 5 6 
#
# 1 22.2770 23.4716 21.9777 0.0000 0.0000 0.0000
# 2 23.4716 98.4720 64.6082 0.0000 0.0000 0.0000
# 3 21.9777 64.6082 142.6513 0.0000 0.0000 0.0000
# 4 0.0000 0.0000 0.0000 42.5704 0.0000 0.0000
# 5 0.0000 0.0000 0.0000 0.0000 -4.2766 0.0000
# 6 0.0000 0.0000 0.0000 0.0000 0.0000 20.9987
#
#
#
# Elastic Compliance Matrix: (Units=1/GPa)
#
#
# Indices 1 2 3 4 5 6 
#
# 1 0.061535 -0.012019 -0.004037 0.000000 0.000000 0.000000
# 2 -0.012019 0.016796 -0.005755 0.000000 0.000000 0.000000
# 3 -0.004037 -0.005755 0.010239 0.000000 0.000000 0.000000
# 4 0.000000 0.000000 0.000000 0.023490 0.000000 0.000000
# 5 0.000000 0.000000 0.000000 0.000000 -0.233830 0.000000
# 6 0.000000 0.000000 0.000000 0.000000 0.000000 0.047622
#
#
# Mechanical properties :
#
#
# Convention : Reuss Voigt Hill
#
# Bulk Modulus (GPa) = 22.24803 53.72394 37.98599
# Shear Modulus (GPa) = -321.72044 22.08134 -149.81955
#
# Velocity S-wave (km/s) = -13.06366 3.42246 -8.91476
# Velocity P-wave (km/s) = 14.68823 6.64198 9.26359
#
# Compressibility (1/GPa) = 0.04494780
#
# Stress axis : x y z
#
# Youngs Moduli (GPa) = 16.25079 59.53748 97.66775
#
# Poissons Ratio (x) = 0.71556 0.39430
# Poissons Ratio (y) = 0.19531 0.56212
# Poissons Ratio (z) = 0.06561 0.34267
#
# Static dielectric constant tensor:
#      x y z
#    x 3.234160 0.000000 0.000000 
#    y 0.000000 3.603660 0.000000 
#    z 0.000000 0.000000 3.878920 
# 
# 
# High freq. dielectric constant tensor:
#      x y z
#    x 1.695110 0.000000 0.000000 
#    y 0.000000 1.738270 0.000000 
#    z 0.000000 0.000000 1.752890 
# 
# From -- ./inp_files/30685.got.cif
#   From: 2010.03.12/outbox.cif.g09.slc.cpg/sg59_16_cif.got.tgz:30685.got - 2010.04.16 16:29:54.
