data_PCOD8242237
_publ_section_title
;
Structure prediction by ZEFSAII (Michael W. Deem and Ramdas Pophale) SiO2 
 PCOD8242237
Probable space group: P M M N
;
_chemical_formula_sum "Si O2"
_cell_formula_units_Z 56
_cell_length_a 8.993979
_cell_length_b 22.023026
_cell_length_c 14.684704
_cell_angle_alpha 90.000000
_cell_angle_beta 90.000000
_cell_angle_gamma 90.000000
_cell_volume 2908.667361
_symmetry_space_group_name_H-M "P M M N"
_symmetry_group_IT_number 59
_space_group.IT_coordinate_system_code '2'
_symmetry_cell_setting 'orthorhombic'
loop_
_space_group_symop_operation_xyz
x,y,z
1/2-x,1/2-y,z
1/2+x,-y,-z
-x,1/2+y,-z
-x,-y,-z
1/2+x,1/2+y,-z
1/2-x,y,z
x,1/2-y,z
loop_
_atom_site_type_symbol
_atom_site_label
_atom_site_fract_x
_atom_site_fract_y
_atom_site_fract_z
Si Si1 0.913607 0.750000 0.669392
Si Si2 0.925206 0.320207 0.858410
Si Si3 0.425295 0.062069 0.527884
Si Si4 0.589840 0.750000 0.877242
Si Si5 0.575651 0.914607 0.263298
Si Si6 0.075044 0.635161 0.947646
Si Si7 0.573814 0.456042 0.201948
Si Si8 0.073077 0.627452 0.631041
O O1 0.750000 0.750000 0.618619
O O2 0.872046 0.750000 0.773187
O O3 0.019215 0.694415 0.648197
O O4 0.750000 0.320039 0.844934
O O5 0.981317 0.250000 0.867740
O O6 0.998339 0.353404 0.772608
O O7 0.971967 0.360705 0.946525
O O8 0.250000 0.056716 0.513594
O O9 0.464551 0.078900 0.631210
O O10 0.495372 0.112545 0.464016
O O11 0.500000 0.000000 0.500000
O O12 0.750000 0.750000 0.929755
O O13 0.495230 0.808707 0.897369
O O14 0.750000 0.907251 0.247579
O O15 0.514420 0.974822 0.210413
O O16 0.250000 0.642241 0.937345
O O17 0.021527 0.573696 0.894938
O O18 0.750000 0.457139 0.207553
O O19 0.515724 0.416698 0.287783
O O20 0.250000 0.624004 0.621376
#
# Coordination Sequence:
#
# PCOD8242237 Si02
#       8
#     4   8   8   4   8   8   8   8
#     4  11  23  37  53  86 129 160 195 249 304 356
#     4  10  22  40  61  86 115 154 205 250 287 338
#     4  11  22  39  63  89 118 155 197 248 303 362
#     4  11  21  31  51  86 121 152 195 243 286 340
#     4  10  22  41  61  86 118 153 193 241 299 356
#     4  10  19  36  61  84 115 158 196 236 290 350
#     4   9  18  34  59  89 119 151 192 235 287 361
#     4  11  21  37  61  88 119 160 203 244 300 365
#
# _framework density 19.252804000000001
#
# number of rings (size 3 to 8) (size 9 to 14) (size 15 to 20)
#    0.000    1.714    3.571    1.286    0.000    3.143 
#    1.286    0.714    0.000    0.000    0.000    0.000 
#    0.000    0.000    0.000    0.000    0.000    0.000 
#
# Total GULP energy -694099.543703 kJ/mol
# GULP energy per Si atom -12394.634709 kJ/mol
# Density = 1.920898 g / cm^3
# Si number density = 19.252804 Si / 1000 Ang^3
#
#
#
# Elastic Constant Matrix: (Units=GPa)
#
#
# Indices 1 2 3 4 5 6 
#
# 1 41.0905 27.6579 50.7164 0.0000 0.0000 0.0000
# 2 27.6579 107.7487 62.9266 0.0000 0.0000 0.0000
# 3 50.7164 62.9266 120.1213 0.0000 0.0000 0.0000
# 4 0.0000 0.0000 0.0000 3.8310 0.0000 0.0000
# 5 0.0000 0.0000 0.0000 0.0000 27.2461 0.0000
# 6 0.0000 0.0000 0.0000 0.0000 0.0000 27.6336
#
#
#
# Elastic Compliance Matrix: (Units=1/GPa)
#
#
# Indices 1 2 3 4 5 6 
#
# 1 0.050860 -0.000741 -0.021086 0.000000 0.000000 0.000000
# 2 -0.000741 0.013383 -0.006698 0.000000 0.000000 0.000000
# 3 -0.021086 -0.006698 0.020736 0.000000 0.000000 0.000000
# 4 0.000000 0.000000 0.000000 0.261031 0.000000 0.000000
# 5 0.000000 0.000000 0.000000 0.000000 0.036702 0.000000
# 6 0.000000 0.000000 0.000000 0.000000 0.000000 0.036188
#
#
# Mechanical properties :
#
#
# Convention : Reuss Voigt Hill
#
# Bulk Modulus (GPa) = 35.80324 61.28471 48.54398
# Shear Modulus (GPa) = 10.30378 20.25278 15.27828
#
# Velocity S-wave (km/s) = 2.31591 3.24688 2.82008
# Velocity P-wave (km/s) = 5.07819 6.77916 5.98937
#
# Compressibility (1/GPa) = 0.02793043
#
# Stress axis : x y z
#
# Youngs Moduli (GPa) = 19.66167 74.72374 48.22513
#
# Poissons Ratio (x) = 0.05538 1.01685
# Poissons Ratio (y) = 0.01457 0.32300
# Poissons Ratio (z) = 0.41458 0.50048
#
# Static dielectric constant tensor:
#      x y z
#    x 3.359580 0.000000 0.000000 
#    y 0.000000 3.533580 0.000000 
#    z 0.000000 0.000000 3.960870 
# 
# 
# High freq. dielectric constant tensor:
#      x y z
#    x 1.739130 0.000000 0.000000 
#    y 0.000000 1.752040 0.000000 
#    z 0.000000 0.000000 1.748700 
# 
# From -- ./inp_files/21107.got.cif
#   From: 2010.03.12/outbox.cif.g09.slc.cpg/sg59_11_cif.got.tgz:21107.got - 2010.04.16 16:29:54.
