data_PCOD8242951
_publ_section_title
;
Structure prediction by ZEFSAII (Michael W. Deem and Ramdas Pophale) SiO2 
 PCOD8242951
Probable space group: P M M N
;
_chemical_formula_sum "Si O2"
_cell_formula_units_Z 56
_cell_length_a 8.792894
_cell_length_b 23.305241
_cell_length_c 15.367270
_cell_angle_alpha 90.000000
_cell_angle_beta 90.000000
_cell_angle_gamma 90.000000
_cell_volume 3149.068863
_symmetry_space_group_name_H-M "P M M N"
_symmetry_group_IT_number 59
_space_group.IT_coordinate_system_code '2'
_symmetry_cell_setting 'orthorhombic'
loop_
_space_group_symop_operation_xyz
x,y,z
1/2-x,1/2-y,z
1/2+x,-y,-z
-x,1/2+y,-z
-x,-y,-z
1/2+x,1/2+y,-z
1/2-x,y,z
x,1/2-y,z
loop_
_atom_site_type_symbol
_atom_site_label
_atom_site_fract_x
_atom_site_fract_y
_atom_site_fract_z
Si Si1 0.430406 0.887006 0.335532
Si Si2 0.428769 0.184308 0.172385
Si Si3 0.572725 0.122731 0.332115
Si Si4 0.072385 0.001551 0.595406
Si Si5 0.420223 0.682058 0.004256
Si Si6 0.928155 0.816698 0.181402
Si Si7 0.569113 0.186221 0.503044
O O1 0.250000 0.892313 0.336913
O O2 0.501527 0.949862 0.343228
O O3 0.481208 0.855978 0.248152
O O4 0.493717 0.850566 0.416813
O O5 0.250000 0.181283 0.159384
O O6 0.480426 0.250000 0.191957
O O7 0.478406 0.142300 0.249033
O O8 0.505002 0.159708 0.084728
O O9 0.750000 0.134600 0.314971
O O10 0.511078 0.159317 0.413405
O O11 0.540320 0.056662 0.352485
O O12 0.250000 0.012030 0.582270
O O13 0.000000 0.000000 0.500000
O O14 0.250000 0.656787 0.013210
O O15 0.415786 0.750000 0.001331
O O16 0.521610 0.662302 0.085863
O O17 0.750000 0.826870 0.192409
O O18 0.971400 0.750000 0.196879
O O19 0.750000 0.186457 0.505292
O O20 0.502065 0.250000 0.511439
#
# Coordination Sequence:
#
# PCOD8242951 Si02
#       7
#     8   8   8   8   8   8   8
#     4  11  21  35  54  78 107 143 184 224 268 321
#     4  10  20  33  51  80 114 143 173 216 270 321
#     4  10  20  35  54  75 102 140 183 222 263 316
#     4  11  22  38  57  77 102 138 186 233 274 318
#     4   9  17  31  53  79 107 143 182 217 258 317
#     4  10  20  34  53  81 115 146 177 220 272 320
#     4   9  17  30  49  74 104 137 173 214 260 311
#
# _framework density 17.783035000000002
#
# number of rings (size 3 to 8) (size 9 to 14) (size 15 to 20)
#    0.000    2.000    1.429    3.000    0.000    5.714 
#    0.000    0.000    0.000    3.429    0.000    0.000 
#    0.000    0.000    0.000    0.000    0.000    0.000 
#
# Total GULP energy -694502.629305 kJ/mol
# GULP energy per Si atom -12401.832666 kJ/mol
# Density = 1.774256 g / cm^3
# Si number density = 17.783035 Si / 1000 Ang^3
#
#
#
# Elastic Constant Matrix: (Units=GPa)
#
#
# Indices 1 2 3 4 5 6 
#
# 1 73.5453 39.4286 34.4935 0.0000 0.0000 0.0000
# 2 39.4286 91.4452 47.1036 0.0000 0.0000 0.0000
# 3 34.4935 47.1036 122.9397 0.0000 0.0000 0.0000
# 4 0.0000 0.0000 0.0000 5.8370 0.0000 0.0000
# 5 0.0000 0.0000 0.0000 0.0000 30.6214 0.0000
# 6 0.0000 0.0000 0.0000 0.0000 0.0000 25.4795
#
#
#
# Elastic Compliance Matrix: (Units=1/GPa)
#
#
# Indices 1 2 3 4 5 6 
#
# 1 0.018347 -0.006552 -0.002637 0.000000 0.000000 0.000000
# 2 -0.006552 0.015964 -0.004278 0.000000 0.000000 0.000000
# 3 -0.002637 -0.004278 0.010513 0.000000 0.000000 0.000000
# 4 0.000000 0.000000 0.000000 0.171321 0.000000 0.000000
# 5 0.000000 0.000000 0.000000 0.000000 0.032657 0.000000
# 6 0.000000 0.000000 0.000000 0.000000 0.000000 0.039247
#
#
# Mechanical properties :
#
#
# Convention : Reuss Voigt Hill
#
# Bulk Modulus (GPa) = 55.90031 58.88684 57.39358
# Shear Modulus (GPa) = 15.57886 23.51456 19.54671
#
# Velocity S-wave (km/s) = 2.96303 3.64029 3.31898
# Velocity P-wave (km/s) = 6.57335 7.13126 6.85798
#
# Compressibility (1/GPa) = 0.01788899
#
# Stress axis : x y z
#
# Youngs Moduli (GPa) = 54.50608 62.63955 95.11868
#
# Poissons Ratio (x) = 0.41042 0.25084
# Poissons Ratio (y) = 0.35713 0.40695
# Poissons Ratio (z) = 0.14374 0.26799
#
# Static dielectric constant tensor:
#      x y z
#    x 3.284500 0.000000 0.000000 
#    y 0.000000 3.257190 0.000000 
#    z 0.000000 0.000000 3.384600 
# 
# 
# High freq. dielectric constant tensor:
#      x y z
#    x 1.687980 0.000000 0.000000 
#    y 0.000000 1.667530 0.000000 
#    z 0.000000 0.000000 1.695200 
# 
# From -- ./inp_files/20899.got.cif
#   From: 2010.03.12/outbox.cif.g09.slc.cpg/sg59_11_cif.got.tgz:20899.got - 2010.04.16 16:29:54.
