data_PCOD8242097
_publ_section_title
;
Structure prediction by ZEFSAII (Michael W. Deem and Ramdas Pophale) SiO2 
 PCOD8242097
Probable space group: P M M N
;
_chemical_formula_sum "Si O2"
_cell_formula_units_Z 64
_cell_length_a 22.846794
_cell_length_b 12.425946
_cell_length_c 11.888244
_cell_angle_alpha 90.000000
_cell_angle_beta 90.000000
_cell_angle_gamma 90.000000
_cell_volume 3374.989593
_symmetry_space_group_name_H-M "P M M N"
_symmetry_group_IT_number 59
_space_group.IT_coordinate_system_code '2'
_symmetry_cell_setting 'orthorhombic'
loop_
_space_group_symop_operation_xyz
x,y,z
1/2-x,1/2-y,z
1/2+x,-y,-z
-x,1/2+y,-z
-x,-y,-z
1/2+x,1/2+y,-z
1/2-x,y,z
x,1/2-y,z
loop_
_atom_site_type_symbol
_atom_site_label
_atom_site_fract_x
_atom_site_fract_y
_atom_site_fract_z
Si Si1 0.386183 0.375026 0.736038
Si Si2 0.068910 0.629155 0.002026
Si Si3 0.682079 0.375015 0.643907
Si Si4 0.598140 0.006393 0.471636
Si Si5 0.008971 0.009354 0.821308
Si Si6 0.683263 0.433715 0.897953
Si Si7 0.511253 0.875416 0.614664
Si Si8 0.683185 0.868982 0.045367
O O1 0.375077 0.250000 0.708322
O O2 0.366803 0.450260 0.631476
O O3 0.454902 0.396018 0.759708
O O4 0.351357 0.412805 0.846672
O O5 0.043829 0.750000 0.994638
O O6 0.138542 0.635892 0.026457
O O7 0.039828 0.563387 0.102803
O O8 0.054186 0.567757 0.887399
O O9 0.750000 0.388921 0.613056
O O10 0.663724 0.250000 0.641974
O O11 0.644948 0.441405 0.554455
O O12 0.668644 0.422701 0.766847
O O13 0.560445 0.911114 0.526785
O O14 0.554239 0.099231 0.428991
O O15 0.975368 0.937849 0.730116
O O16 0.750000 0.394676 0.921969
O O17 0.673957 0.557498 0.935599
O O18 0.517086 0.750000 0.636319
O O19 0.750000 0.866253 0.083223
O O20 0.660480 0.750000 0.012035
#
# Coordination Sequence:
#
# PCOD8242097 Si02
#       8
#     8   8   8   8   8   8   8   8
#     4  10  19  35  57  81 111 145 183 230 277 328
#     4  11  21  34  53  79 111 144 182 226 274 329
#     4  10  21  38  59  81 110 147 184 228 282 334
#     4  10  21  35  57  84 109 144 189 231 274 328
#     4  10  21  35  52  79 110 147 183 224 277 331
#     4  10  20  36  57  82 109 142 183 226 273 330
#     4  10  20  36  55  78 110 146 185 229 276 328
#     4   9  18  34  56  80 108 144 181 222 276 331
#
# _framework density 18.963021000000001
#
# number of rings (size 3 to 8) (size 9 to 14) (size 15 to 20)
#    0.000    2.000    1.250    2.625    0.000    1.250 
#    0.000    6.875    0.000    2.625    0.000    0.000 
#    0.000    0.000    0.000    0.000    0.000    0.000 
#
# Total GULP energy -793560.014229 kJ/mol
# GULP energy per Si atom -12399.375222 kJ/mol
# Density = 1.891986 g / cm^3
# Si number density = 18.963021 Si / 1000 Ang^3
#
#
#
# Elastic Constant Matrix: (Units=GPa)
#
#
# Indices 1 2 3 4 5 6 
#
# 1 52.3366 25.8862 16.7726 0.0000 0.0000 0.0000
# 2 25.8862 105.6046 36.8246 0.0000 0.0000 0.0000
# 3 16.7726 36.8246 77.6234 0.0000 0.0000 0.0000
# 4 0.0000 0.0000 0.0000 23.7162 0.0000 0.0000
# 5 0.0000 0.0000 0.0000 0.0000 31.5947 0.0000
# 6 0.0000 0.0000 0.0000 0.0000 0.0000 21.2875
#
#
#
# Elastic Compliance Matrix: (Units=1/GPa)
#
#
# Indices 1 2 3 4 5 6 
#
# 1 0.022190 -0.004514 -0.002653 0.000000 0.000000 0.000000
# 2 -0.004514 0.012265 -0.004843 0.000000 0.000000 0.000000
# 3 -0.002653 -0.004843 0.015754 0.000000 0.000000 0.000000
# 4 0.000000 0.000000 0.000000 0.042165 0.000000 0.000000
# 5 0.000000 0.000000 0.000000 0.000000 0.031651 0.000000
# 6 0.000000 0.000000 0.000000 0.000000 0.000000 0.046976
#
#
# Mechanical properties :
#
#
# Convention : Reuss Voigt Hill
#
# Bulk Modulus (GPa) = 38.18605 43.83681 41.01143
# Shear Modulus (GPa) = 24.53988 25.72510 25.13249
#
# Velocity S-wave (km/s) = 3.60125 3.68719 3.64447
# Velocity P-wave (km/s) = 6.12151 6.42607 6.27564
#
# Compressibility (1/GPa) = 0.02618757
#
# Stress axis : x y z
#
# Youngs Moduli (GPa) = 45.06513 81.53589 63.47793
#
# Poissons Ratio (x) = 0.36806 0.16842
# Poissons Ratio (y) = 0.20343 0.30742
# Poissons Ratio (z) = 0.11957 0.39487
#
# Static dielectric constant tensor:
#      x y z
#    x 3.415450 0.000000 0.000000 
#    y 0.000000 3.470760 0.000000 
#    z 0.000000 0.000000 3.518120 
# 
# 
# High freq. dielectric constant tensor:
#      x y z
#    x 1.730380 0.000000 0.000000 
#    y 0.000000 1.738950 0.000000 
#    z 0.000000 0.000000 1.739310 
# 
# From -- ./inp_files/18756.got.cif
#   From: 2010.03.12/outbox.cif.g09.slc.cpg/sg59_10_cif.got.tgz:18756.got - 2010.04.16 16:29:54.
