data_PCOD8242201
_publ_section_title
;
Structure prediction by ZEFSAII (Michael W. Deem and Ramdas Pophale) SiO2 
 PCOD8242201
Probable space group: P M M N
;
_chemical_formula_sum "Si O2"
_cell_formula_units_Z 56
_cell_length_a 14.954582
_cell_length_b 14.490756
_cell_length_c 12.223001
_cell_angle_alpha 90.000000
_cell_angle_beta 90.000000
_cell_angle_gamma 90.000000
_cell_volume 2648.763416
_symmetry_space_group_name_H-M "P M M N"
_symmetry_group_IT_number 59
_space_group.IT_coordinate_system_code '2'
_symmetry_cell_setting 'orthorhombic'
loop_
_space_group_symop_operation_xyz
x,y,z
1/2-x,1/2-y,z
1/2+x,-y,-z
-x,1/2+y,-z
-x,-y,-z
1/2+x,1/2+y,-z
1/2-x,y,z
x,1/2-y,z
loop_
_atom_site_type_symbol
_atom_site_label
_atom_site_fract_x
_atom_site_fract_y
_atom_site_fract_z
Si Si1 0.400056 0.647492 0.940473
Si Si2 0.561919 0.354315 0.302627
Si Si3 0.153878 0.525951 0.129209
Si Si4 0.978599 0.040778 0.683319
Si Si5 0.850663 0.145371 0.526260
Si Si6 0.894423 0.647159 0.991133
Si Si7 0.851808 0.642030 0.236202
O O1 0.360539 0.750000 0.954152
O O2 0.394040 0.617687 0.813349
O O3 0.343344 0.578202 0.013286
O O4 0.499654 0.642614 0.986191
O O5 0.520379 0.250000 0.294454
O O6 0.485326 0.429734 0.329985
O O7 0.637479 0.357927 0.395398
O O8 0.250000 0.541185 0.186961
O O9 0.076882 0.565253 0.207407
O O10 0.143900 0.417726 0.103702
O O11 0.924467 0.079493 0.580140
O O12 0.077610 0.085303 0.689725
O O13 0.750000 0.112124 0.553438
O O14 0.865226 0.250000 0.568839
O O15 0.858387 0.750000 0.968099
O O16 0.862662 0.613037 0.109959
O O17 0.750000 0.619965 0.274264
O O18 0.873590 0.750000 0.250839
#
# Coordination Sequence:
#
# PCOD8242201 Si02
#       7
#     8   8   8   8   8   8   8
#     4  10  20  37  60  86 120 163 206 251 303 354
#     4  10  22  40  64  88 115 158 211 260 302 353
#     4  12  24  35  55  90 127 163 200 240 298 369
#     4  12  22  39  63  90 125 163 198 252 311 373
#     4  10  23  43  65  90 119 157 205 253 309 376
#     4  10  19  36  57  80 118 163 202 244 294 355
#     4  10  21  36  58  89 121 158 206 252 301 360
#
# _framework density 21.141940999999999
#
# number of rings (size 3 to 8) (size 9 to 14) (size 15 to 20)
#    0.000    1.429    2.857    3.000    0.000    2.857 
#    0.000    1.429    0.000    1.286    0.000    2.000 
#    0.000    0.000    0.000    0.000    0.000    0.000 
#
# Total GULP energy -694344.517252 kJ/mol
# GULP energy per Si atom -12399.009237 kJ/mol
# Density = 2.109382 g / cm^3
# Si number density = 21.141941 Si / 1000 Ang^3
#
#
#
# Elastic Constant Matrix: (Units=GPa)
#
#
# Indices 1 2 3 4 5 6 
#
# 1 119.2863 35.9967 31.1826 0.0000 0.0000 0.0000
# 2 35.9967 88.0013 30.8591 0.0000 0.0000 0.0000
# 3 31.1826 30.8591 79.6735 0.0000 0.0000 0.0000
# 4 0.0000 0.0000 0.0000 25.5213 0.0000 0.0000
# 5 0.0000 0.0000 0.0000 0.0000 20.5054 0.0000
# 6 0.0000 0.0000 0.0000 0.0000 0.0000 5.7370
#
#
#
# Elastic Compliance Matrix: (Units=1/GPa)
#
#
# Indices 1 2 3 4 5 6 
#
# 1 0.010044 -0.003159 -0.002708 0.000000 0.000000 0.000000
# 2 -0.003159 0.014143 -0.004241 0.000000 0.000000 0.000000
# 3 -0.002708 -0.004241 0.015254 0.000000 0.000000 0.000000
# 4 0.000000 0.000000 0.000000 0.039183 0.000000 0.000000
# 5 0.000000 0.000000 0.000000 0.000000 0.048768 0.000000
# 6 0.000000 0.000000 0.000000 0.000000 0.000000 0.174306
#
#
# Mechanical properties :
#
#
# Convention : Reuss Voigt Hill
#
# Bulk Modulus (GPa) = 52.01620 53.67085 52.84353
# Shear Modulus (GPa) = 15.22896 22.94761 19.08829
#
# Velocity S-wave (km/s) = 2.68679 3.29813 3.00803
# Velocity P-wave (km/s) = 5.85507 6.32017 6.09206
#
# Compressibility (1/GPa) = 0.01922478
#
# Stress axis : x y z
#
# Youngs Moduli (GPa) = 99.55905 70.70613 65.55790
#
# Poissons Ratio (x) = 0.22337 0.17750
# Poissons Ratio (y) = 0.31452 0.27806
# Poissons Ratio (z) = 0.26956 0.29990
#
# Static dielectric constant tensor:
#      x y z
#    x 3.686940 0.000000 0.000000 
#    y 0.000000 4.035700 0.000000 
#    z 0.000000 0.000000 3.633120 
# 
# 
# High freq. dielectric constant tensor:
#      x y z
#    x 1.817430 0.000000 0.000000 
#    y 0.000000 1.837260 0.000000 
#    z 0.000000 0.000000 1.811370 
# 
# From -- ./inp_files/16913.got.cif
#   From: 2010.03.12/outbox.cif.g09.slc.cpg/sg59_9_cif.got.tgz:16913.got - 2010.04.16 16:29:54.
