data_PCOD8242435
_publ_section_title
;
Structure prediction by ZEFSAII (Michael W. Deem and Ramdas Pophale) SiO2 
 PCOD8242435
Probable space group: P M M N
;
_chemical_formula_sum "Si O2"
_cell_formula_units_Z 56
_cell_length_a 9.021072
_cell_length_b 19.598663
_cell_length_c 17.607677
_cell_angle_alpha 90.000000
_cell_angle_beta 90.000000
_cell_angle_gamma 90.000000
_cell_volume 3113.054021
_symmetry_space_group_name_H-M "P M M N"
_symmetry_group_IT_number 59
_space_group.IT_coordinate_system_code '2'
_symmetry_cell_setting 'orthorhombic'
loop_
_space_group_symop_operation_xyz
x,y,z
1/2-x,1/2-y,z
1/2+x,-y,-z
-x,1/2+y,-z
-x,-y,-z
1/2+x,1/2+y,-z
1/2-x,y,z
x,1/2-y,z
loop_
_atom_site_type_symbol
_atom_site_label
_atom_site_fract_x
_atom_site_fract_y
_atom_site_fract_z
Si Si1 0.416581 0.397842 0.276098
Si Si2 0.925185 0.076864 0.861166
Si Si3 0.084028 0.945740 0.309532
Si Si4 0.425851 0.328688 0.977565
Si Si5 0.926962 0.575161 0.886705
Si Si6 0.426642 0.174717 0.419784
Si Si7 0.924964 0.935462 0.461618
O O1 0.250000 0.371212 0.264245
O O2 0.415883 0.473066 0.310306
O O3 0.494261 0.396299 0.193085
O O4 0.496406 0.350734 0.339228
O O5 0.750000 0.084952 0.871114
O O6 0.970315 0.081094 0.772557
O O7 0.006340 0.139857 0.901301
O O8 0.977955 0.003895 0.897043
O O9 0.250000 0.918904 0.326166
O O10 0.975139 0.920479 0.375505
O O11 0.250000 0.332688 0.972524
O O12 0.477611 0.250000 0.987679
O O13 0.485938 0.375303 0.047093
O O14 0.750000 0.575406 0.881787
O O15 0.250000 0.171701 0.413197
O O16 0.486742 0.250000 0.435652
O O17 0.478869 0.129196 0.489913
O O18 0.750000 0.946337 0.463278
O O19 0.000000 0.000000 0.500000
#
# Coordination Sequence:
#
# PCOD8242435 Si02
#       7
#     8   8   8   8   8   8   8
#     4   8  13  25  46  71  97 122 153 199 246 291
#     4   9  18  33  54  74  96 129 168 212 254 300
#     4   9  17  32  52  75  97 121 163 212 252 292
#     4  10  20  32  47  72 105 134 164 207 254 300
#     4   8  15  28  48  73 100 128 161 201 250 297
#     4   9  17  28  44  70 101 130 161 199 243 291
#     4  11  20  31  51  76 102 132 168 207 247 293
#
# _framework density 17.988765999999998
#
# number of rings (size 3 to 8) (size 9 to 14) (size 15 to 20)
#    0.000    2.857    1.429    2.571    0.000    1.429 
#    0.000    3.571    0.000    5.143    0.000    0.000 
#    0.000    0.000    0.000    0.000    0.000    0.000 
#
# Total GULP energy -693992.038659 kJ/mol
# GULP energy per Si atom -12392.714976 kJ/mol
# Density = 1.794782 g / cm^3
# Si number density = 17.988766 Si / 1000 Ang^3
#
#
#
# Elastic Constant Matrix: (Units=GPa)
#
#
# Indices 1 2 3 4 5 6 
#
# 1 29.2604 23.9115 29.9039 0.0000 0.0000 0.0000
# 2 23.9115 112.1646 70.6063 0.0000 0.0000 0.0000
# 3 29.9039 70.6063 133.5434 0.0000 0.0000 0.0000
# 4 0.0000 0.0000 0.0000 28.7355 0.0000 0.0000
# 5 0.0000 0.0000 0.0000 0.0000 25.7224 0.0000
# 6 0.0000 0.0000 0.0000 0.0000 0.0000 19.3309
#
#
#
# Elastic Compliance Matrix: (Units=1/GPa)
#
#
# Indices 1 2 3 4 5 6 
#
# 1 0.046110 -0.004992 -0.007686 0.000000 0.000000 0.000000
# 2 -0.004992 0.013903 -0.006233 0.000000 0.000000 0.000000
# 3 -0.007686 -0.006233 0.012505 0.000000 0.000000 0.000000
# 4 0.000000 0.000000 0.000000 0.034800 0.000000 0.000000
# 5 0.000000 0.000000 0.000000 0.000000 0.038877 0.000000
# 6 0.000000 0.000000 0.000000 0.000000 0.000000 0.051731
#
#
# Mechanical properties :
#
#
# Convention : Reuss Voigt Hill
#
# Bulk Modulus (GPa) = 28.82121 58.20130 43.51125
# Shear Modulus (GPa) = 20.21729 24.79419 22.50574
#
# Velocity S-wave (km/s) = 3.35607 3.71659 3.54093
# Velocity P-wave (km/s) = 5.57443 7.13035 6.39985
#
# Compressibility (1/GPa) = 0.03469667
#
# Stress axis : x y z
#
# Youngs Moduli (GPa) = 21.68717 71.92567 79.96874
#
# Poissons Ratio (x) = 0.35902 0.61466
# Poissons Ratio (y) = 0.10825 0.49845
# Poissons Ratio (z) = 0.16669 0.44832
#
# Static dielectric constant tensor:
#      x y z
#    x 2.866790 0.000000 0.000000 
#    y 0.000000 3.329120 0.000000 
#    z 0.000000 0.000000 3.609270 
# 
# 
# High freq. dielectric constant tensor:
#      x y z
#    x 1.645980 0.000000 0.000000 
#    y 0.000000 1.682370 0.000000 
#    z 0.000000 0.000000 1.713580 
# 
# From -- ./inp_files/26109.got.cif
#   From: 2010.03.12/outbox.cif.g09.slc.cpg/sg59_14_cif.got.tgz:26109.got - 2010.04.16 16:29:54.
