data_PCOD8242353
_publ_section_title
;
Structure prediction by ZEFSAII (Michael W. Deem and Ramdas Pophale) SiO2 
 PCOD8242353
Probable space group: P M M N
;
_chemical_formula_sum "Si O2"
_cell_formula_units_Z 64
_cell_length_a 8.771849
_cell_length_b 27.058688
_cell_length_c 17.274105
_cell_angle_alpha 90.000000
_cell_angle_beta 90.000000
_cell_angle_gamma 90.000000
_cell_volume 4100.090447
_symmetry_space_group_name_H-M "P M M N"
_symmetry_group_IT_number 59
_space_group.IT_coordinate_system_code '2'
_symmetry_cell_setting 'orthorhombic'
loop_
_space_group_symop_operation_xyz
x,y,z
1/2-x,1/2-y,z
1/2+x,-y,-z
-x,1/2+y,-z
-x,-y,-z
1/2+x,1/2+y,-z
1/2-x,y,z
x,1/2-y,z
loop_
_atom_site_type_symbol
_atom_site_label
_atom_site_fract_x
_atom_site_fract_y
_atom_site_fract_z
Si Si1 0.572139 0.552898 0.986313
Si Si2 0.430065 0.459573 0.601002
Si Si3 0.430924 0.889565 0.522882
Si Si4 0.928753 0.532582 0.821330
Si Si5 0.426478 0.575297 0.133090
Si Si6 0.930853 0.559451 0.654716
Si Si7 0.070673 0.804383 0.411355
Si Si8 0.572482 0.117017 0.709532
O O1 0.750000 0.549118 0.998950
O O2 0.534585 0.567279 0.896566
O O3 0.500000 0.500000 0.000000
O O4 0.505924 0.590366 0.051359
O O5 0.250000 0.468263 0.595267
O O6 0.492094 0.434086 0.523841
O O7 0.516468 0.511067 0.609111
O O8 0.469280 0.426192 0.675060
O O9 0.250000 0.895145 0.519670
O O10 0.492809 0.893403 0.611027
O O11 0.483441 0.837598 0.484256
O O12 0.750000 0.527034 0.808303
O O13 0.992965 0.477020 0.834966
O O14 0.995518 0.557203 0.743145
O O15 0.250000 0.569434 0.114079
O O16 0.455968 0.617784 0.197707
O O17 0.750000 0.565062 0.652009
O O18 0.250000 0.797884 0.415413
O O19 0.992827 0.750000 0.414654
O O20 0.026132 0.830960 0.330012
O O21 0.750000 0.104796 0.691328
#
# Coordination Sequence:
#
# PCOD8242353 Si02
#       8
#     8   8   8   8   8   8   8   8
#     4   9  16  26  38  55  77 108 144 175 204 238
#     4  11  20  29  41  60  84 111 145 177 209 248
#     4  10  20  32  44  61  83 107 138 175 213 256
#     4   8  15  26  39  53  77 111 142 169 205 240
#     4   9  15  26  40  57  81 111 141 171 207 243
#     4  11  19  30  44  58  82 114 145 176 212 249
#     4   8  15  29  49  67  82 105 137 173 213 259
#     4   9  16  28  45  63  86 113 142 175 213 254
#
# _framework density 15.609412000000001
#
# number of rings (size 3 to 8) (size 9 to 14) (size 15 to 20)
#    0.000    2.625    1.250    4.125    0.000    0.500 
#    0.000    1.875    0.000    9.375    0.000    0.000 
#    0.000    1.000    0.000   10.250    0.000    1.250 
#
# Total GULP energy -792908.310972 kJ/mol
# GULP energy per Si atom -12389.192359 kJ/mol
# Density = 1.557388 g / cm^3
# Si number density = 15.609412 Si / 1000 Ang^3
#
#
#
# Elastic Constant Matrix: (Units=GPa)
#
#
# Indices 1 2 3 4 5 6 
#
# 1 38.2933 12.5081 28.2856 0.0000 0.0000 0.0000
# 2 12.5081 69.8173 53.1544 0.0000 0.0000 0.0000
# 3 28.2856 53.1544 131.5506 0.0000 0.0000 0.0000
# 4 0.0000 0.0000 0.0000 12.8343 0.0000 0.0000
# 5 0.0000 0.0000 0.0000 0.0000 25.5161 0.0000
# 6 0.0000 0.0000 0.0000 0.0000 0.0000 9.5378
#
#
#
# Elastic Compliance Matrix: (Units=1/GPa)
#
#
# Indices 1 2 3 4 5 6 
#
# 1 0.031068 -0.000693 -0.006400 0.000000 0.000000 0.000000
# 2 -0.000693 0.020702 -0.008216 0.000000 0.000000 0.000000
# 3 -0.006400 -0.008216 0.012297 0.000000 0.000000 0.000000
# 4 0.000000 0.000000 0.000000 0.077916 0.000000 0.000000
# 5 0.000000 0.000000 0.000000 0.000000 0.039191 0.000000
# 6 0.000000 0.000000 0.000000 0.000000 0.000000 0.104846
#
#
# Mechanical properties :
#
#
# Convention : Reuss Voigt Hill
#
# Bulk Modulus (GPa) = 29.89600 47.50637 38.70118
# Shear Modulus (GPa) = 15.25371 19.29186 17.27278
#
# Velocity S-wave (km/s) = 3.12943 3.51937 3.33011
# Velocity P-wave (km/s) = 5.67908 6.85676 6.29551
#
# Compressibility (1/GPa) = 0.03344929
#
# Stress axis : x y z
#
# Youngs Moduli (GPa) = 32.18730 48.30362 81.31761
#
# Poissons Ratio (x) = 0.03350 0.52043
# Poissons Ratio (y) = 0.02232 0.66810
# Poissons Ratio (z) = 0.20600 0.39686
#
# Static dielectric constant tensor:
#      x y z
#    x 2.897840 0.000000 0.000000 
#    y 0.000000 2.803660 0.000000 
#    z 0.000000 0.000000 3.532950 
# 
# 
# High freq. dielectric constant tensor:
#      x y z
#    x 1.587750 0.000000 0.000000 
#    y 0.000000 1.535170 0.000000 
#    z 0.000000 0.000000 1.612290 
# 
# From -- ./inp_files/26664.got.cif
#   From: 2010.03.12/outbox.cif.g09.slc.cpg/sg59_14_cif.got.tgz:26664.got - 2010.04.16 16:29:54.
