data_PCOD8242282
_publ_section_title
;
Structure prediction by ZEFSAII (Michael W. Deem and Ramdas Pophale) SiO2 
 PCOD8242282
Probable space group: P M M N
;
_chemical_formula_sum "Si O2"
_cell_formula_units_Z 64
_cell_length_a 30.059705
_cell_length_b 9.267705
_cell_length_c 15.277791
_cell_angle_alpha 90.000000
_cell_angle_beta 90.000000
_cell_angle_gamma 90.000000
_cell_volume 4256.155436
_symmetry_space_group_name_H-M "P M M N"
_symmetry_group_IT_number 59
_space_group.IT_coordinate_system_code '2'
_symmetry_cell_setting 'orthorhombic'
loop_
_space_group_symop_operation_xyz
x,y,z
1/2-x,1/2-y,z
1/2+x,-y,-z
-x,1/2+y,-z
-x,-y,-z
1/2+x,1/2+y,-z
1/2-x,y,z
x,1/2-y,z
loop_
_atom_site_type_symbol
_atom_site_label
_atom_site_fract_x
_atom_site_fract_y
_atom_site_fract_z
Si Si1 0.642254 0.921497 0.912801
Si Si2 0.634563 0.921351 0.109519
Si Si3 0.197101 0.913285 0.565519
Si Si4 0.302691 0.915674 0.228099
Si Si5 0.802984 0.586244 0.601705
Si Si6 0.456917 0.091524 0.099647
Si Si7 0.037695 0.409259 0.892047
Si Si8 0.801489 0.581363 0.263075
O O1 0.649739 0.750000 0.902605
O O2 0.649419 0.972502 0.013137
O O3 0.592724 0.966726 0.880760
O O4 0.677843 0.009073 0.857449
O O5 0.630402 0.750000 0.107020
O O6 0.585216 0.981187 0.134759
O O7 0.670657 0.974168 0.179734
O O8 0.250000 0.911310 0.561383
O O9 0.178373 0.750000 0.563378
O O10 0.178141 0.002687 0.483144
O O11 0.181230 0.992370 0.653642
O O12 0.250000 0.925420 0.221038
O O13 0.318464 0.750000 0.234698
O O14 0.320183 0.001357 0.313090
O O15 0.750000 0.588151 0.599173
O O16 0.821483 0.750000 0.602900
O O17 0.461860 0.250000 0.140418
O O18 0.495393 0.996609 0.144919
O O19 0.464014 0.098475 0.996316
O O20 0.033544 0.250000 0.851420
O O21 0.750000 0.549738 0.242794
O O22 0.809366 0.750000 0.281984
#
# Coordination Sequence:
#
# PCOD8242282 Si02
#       8
#     8   8   8   8   8   8   8   8
#     4   9  17  29  43  58  79 109 143 175 204 237
#     4   8  15  27  41  58  80 107 142 179 206 232
#     4   9  16  26  40  58  80 103 127 162 208 248
#     4  10  20  31  41  57  83 111 138 170 205 239
#     4   9  16  27  44  62  77  98 131 167 203 244
#     4   8  14  24  38  57  78  98 126 167 209 245
#     4   8  13  23  39  56  75 100 129 164 208 250
#     4   9  16  26  40  57  78 107 142 174 201 233
#
# _framework density 15.037046
#
# number of rings (size 3 to 8) (size 9 to 14) (size 15 to 20)
#    0.000    3.250    0.000    2.625    0.000    4.750 
#    0.000    4.375    0.000    1.500    0.000    0.000 
#    0.000    1.000    0.000    3.000    0.000    4.625 
#
# Total GULP energy -793197.936108 kJ/mol
# GULP energy per Si atom -12393.717752 kJ/mol
# Density = 1.500282 g / cm^3
# Si number density = 15.037046 Si / 1000 Ang^3
#
#
#
# Elastic Constant Matrix: (Units=GPa)
#
#
# Indices 1 2 3 4 5 6 
#
# 1 37.9730 28.4931 31.7285 0.0000 0.0000 0.0000
# 2 28.4931 84.4614 47.8008 0.0000 0.0000 0.0000
# 3 31.7285 47.8008 91.5752 0.0000 0.0000 0.0000
# 4 0.0000 0.0000 0.0000 18.1224 0.0000 0.0000
# 5 0.0000 0.0000 0.0000 0.0000 1.2355 0.0000
# 6 0.0000 0.0000 0.0000 0.0000 0.0000 20.0842
#
#
#
# Elastic Compliance Matrix: (Units=1/GPa)
#
#
# Indices 1 2 3 4 5 6 
#
# 1 0.040671 -0.008154 -0.009835 0.000000 0.000000 0.000000
# 2 -0.008154 0.018439 -0.006800 0.000000 0.000000 0.000000
# 3 -0.009835 -0.006800 0.017877 0.000000 0.000000 0.000000
# 4 0.000000 0.000000 0.000000 0.055180 0.000000 0.000000
# 5 0.000000 0.000000 0.000000 0.000000 0.809418 0.000000
# 6 0.000000 0.000000 0.000000 0.000000 0.000000 0.049790
#
#
# Mechanical properties :
#
#
# Convention : Reuss Voigt Hill
#
# Bulk Modulus (GPa) = 36.48463 47.78384 42.13423
# Shear Modulus (GPa) = 4.76150 14.95423 9.85787
#
# Velocity S-wave (km/s) = 1.78140 3.15698 2.56319
# Velocity P-wave (km/s) = 5.34294 6.71827 6.06968
#
# Compressibility (1/GPa) = 0.02740881
#
# Stress axis : x y z
#
# Youngs Moduli (GPa) = 24.58776 54.23377 55.93840
#
# Poissons Ratio (x) = 0.44223 0.55016
# Poissons Ratio (y) = 0.20049 0.38035
# Poissons Ratio (z) = 0.24182 0.36876
#
# Static dielectric constant tensor:
#      x y z
#    x 2.809080 0.000000 0.000000 
#    y 0.000000 3.019810 0.000000 
#    z 0.000000 0.000000 2.784750 
# 
# 
# High freq. dielectric constant tensor:
#      x y z
#    x 1.545790 0.000000 0.000000 
#    y 0.000000 1.573550 0.000000 
#    z 0.000000 0.000000 1.550400 
# 
# From -- ./inp_files/25091.got.cif
#   From: 2010.03.12/outbox.cif.g09.slc.cpg/sg59_13_cif.got.tgz:25091.got - 2010.04.16 16:29:54.
