data_PCOD8242453
_publ_section_title
;
Structure prediction by ZEFSAII (Michael W. Deem and Ramdas Pophale) SiO2 
 PCOD8242453
Probable space group: P M M N
;
_chemical_formula_sum "Si O2"
_cell_formula_units_Z 40
_cell_length_a 9.485301
_cell_length_b 8.985618
_cell_length_c 25.874783
_cell_angle_alpha 90.000000
_cell_angle_beta 90.000000
_cell_angle_gamma 90.000000
_cell_volume 2205.341170
_symmetry_space_group_name_H-M "P M M N"
_symmetry_group_IT_number 59
_space_group.IT_coordinate_system_code '2'
_symmetry_cell_setting 'orthorhombic'
loop_
_space_group_symop_operation_xyz
x,y,z
1/2-x,1/2-y,z
1/2+x,-y,-z
-x,1/2+y,-z
-x,-y,-z
1/2+x,1/2+y,-z
1/2-x,y,z
x,1/2-y,z
loop_
_atom_site_type_symbol
_atom_site_label
_atom_site_fract_x
_atom_site_fract_y
_atom_site_fract_z
Si Si1 0.408613 0.073476 0.755293
Si Si2 0.087762 0.573303 0.454552
Si Si3 0.913945 0.576168 0.954930
Si Si4 0.091869 0.426868 0.641240
Si Si5 0.413718 0.922797 0.149743
O O1 0.250000 0.021742 0.767385
O O2 0.419960 0.250000 0.755401
O O3 0.453747 0.014644 0.698269
O O4 0.508637 0.008886 0.800052
O O5 0.250000 0.520645 0.456718
O O6 0.075981 0.750000 0.459476
O O7 0.000000 0.500000 0.500000
O O8 0.019989 0.515149 0.400831
O O9 0.750000 0.539548 0.963307
O O10 0.944979 0.750000 0.955494
O O11 0.966677 0.510861 0.900454
O O12 0.000000 0.500000 0.000000
O O13 0.250000 0.484477 0.627708
O O14 0.093726 0.250000 0.641689
O O15 0.250000 0.948561 0.159612
O O16 0.450391 0.750000 0.141156
#
# Coordination Sequence:
#
# PCOD8242453 Si02
#       5
#     8   8   8   8   8
#     4   8  14  25  43  68  95 122 154 192 234 280
#     4  10  20  32  48  71  97 127 164 204 246 292
#     4  10  21  36  53  73  98 129 164 202 243 286
#     4   8  14  26  44  66  93 123 155 196 243 286
#     4   9  17  29  46  69  96 123 152 191 238 285
#
# _framework density 18.137782999999999
#
# number of rings (size 3 to 8) (size 9 to 14) (size 15 to 20)
#    0.000    3.000    0.000    2.400    0.000    4.000 
#    0.000    6.000    0.000    1.200    0.000    5.600 
#    0.000    0.000    0.000    0.000    0.000    0.000 
#
# Total GULP energy -495837.950412 kJ/mol
# GULP energy per Si atom -12395.948760 kJ/mol
# Density = 1.809650 g / cm^3
# Si number density = 18.137783 Si / 1000 Ang^3
#
#
#
# Elastic Constant Matrix: (Units=GPa)
#
#
# Indices 1 2 3 4 5 6 
#
# 1 113.5114 32.8934 105.9088 0.0000 0.0000 0.0000
# 2 32.8934 32.8599 43.5977 0.0000 0.0000 0.0000
# 3 105.9088 43.5977 199.7587 0.0000 0.0000 0.0000
# 4 0.0000 0.0000 0.0000 24.4234 0.0000 0.0000
# 5 0.0000 0.0000 0.0000 0.0000 44.0546 0.0000
# 6 0.0000 0.0000 0.0000 0.0000 0.0000 18.1830
#
#
#
# Elastic Compliance Matrix: (Units=1/GPa)
#
#
# Indices 1 2 3 4 5 6 
#
# 1 0.018774 -0.007864 -0.008237 0.000000 0.000000 0.000000
# 2 -0.007864 0.046131 -0.005899 0.000000 0.000000 0.000000
# 3 -0.008237 -0.005899 0.010661 0.000000 0.000000 0.000000
# 4 0.000000 0.000000 0.000000 0.040944 0.000000 0.000000
# 5 0.000000 0.000000 0.000000 0.000000 0.022699 0.000000
# 6 0.000000 0.000000 0.000000 0.000000 0.000000 0.054997
#
#
# Mechanical properties :
#
#
# Convention : Reuss Voigt Hill
#
# Bulk Modulus (GPa) = 31.68049 78.99218 55.33634
# Shear Modulus (GPa) = 20.10228 28.24755 24.17492
#
# Velocity S-wave (km/s) = 3.33274 3.95066 3.65478
# Velocity P-wave (km/s) = 5.68454 8.02845 6.95593
#
# Compressibility (1/GPa) = 0.03156516
#
# Stress axis : x y z
#
# Youngs Moduli (GPa) = 53.26424 21.67757 93.80179
#
# Poissons Ratio (x) = 0.17048 0.77269
# Poissons Ratio (y) = 0.41888 0.55330
# Poissons Ratio (z) = 0.43876 0.12787
#
# Static dielectric constant tensor:
#      x y z
#    x 3.490210 0.000000 0.000000 
#    y 0.000000 2.893060 0.000000 
#    z 0.000000 0.000000 3.862790 
# 
# 
# High freq. dielectric constant tensor:
#      x y z
#    x 1.701040 0.000000 0.000000 
#    y 0.000000 1.655140 0.000000 
#    z 0.000000 0.000000 1.721020 
# 
# From -- ./inp_files/31151.got.cif
#   From: 2010.03.12/outbox.cif.g09.slc.cpg/sg59_16_cif.got.tgz:31151.got - 2010.04.16 16:29:54.
