data_PCOD8242489
_publ_section_title
;
Structure prediction by ZEFSAII (Michael W. Deem and Ramdas Pophale) SiO2 
 PCOD8242489
Probable space group: P M M N
;
_chemical_formula_sum "Si O2"
_cell_formula_units_Z 64
_cell_length_a 9.740408
_cell_length_b 9.107466
_cell_length_c 40.680239
_cell_angle_alpha 90.000000
_cell_angle_beta 90.000000
_cell_angle_gamma 90.000000
_cell_volume 3608.761685
_symmetry_space_group_name_H-M "P M M N"
_symmetry_group_IT_number 59
_space_group.IT_coordinate_system_code '2'
_symmetry_cell_setting 'orthorhombic'
loop_
_space_group_symop_operation_xyz
x,y,z
1/2-x,1/2-y,z
1/2+x,-y,-z
-x,1/2+y,-z
-x,-y,-z
1/2+x,1/2+y,-z
1/2-x,y,z
x,1/2-y,z
loop_
_atom_site_type_symbol
_atom_site_label
_atom_site_fract_x
_atom_site_fract_y
_atom_site_fract_z
Si Si1 0.586628 0.084231 0.343024
Si Si2 0.902753 0.576227 0.099629
Si Si3 0.587206 0.584659 0.406435
Si Si4 0.591479 0.582988 0.849764
Si Si5 0.907778 0.921232 0.026394
Si Si6 0.090919 0.078389 0.722363
Si Si7 0.089622 0.577547 0.527506
Si Si8 0.908561 0.919373 0.774238
O O1 0.750000 0.085383 0.344702
O O2 0.528723 0.250000 0.343653
O O3 0.526633 0.995373 0.374174
O O4 0.536498 0.005179 0.309916
O O5 0.750000 0.517348 0.107692
O O6 0.902601 0.750000 0.100303
O O7 0.946617 0.523219 0.063121
O O8 0.006204 0.520832 0.126844
O O9 0.750000 0.591348 0.403916
O O10 0.527189 0.750000 0.408837
O O11 0.542187 0.491027 0.437964
O O12 0.750000 0.558798 0.858033
O O13 0.548184 0.750000 0.856440
O O14 0.561977 0.541778 0.812063
O O15 0.750000 0.958426 0.018939
O O16 0.936013 0.750000 0.023403
O O17 0.000000 0.000000 0.000000
O O18 0.250000 0.042055 0.729146
O O19 0.067891 0.250000 0.716658
O O20 0.004113 0.025376 0.753286
O O21 0.250000 0.546646 0.520702
O O22 0.058151 0.750000 0.528115
O O23 0.000000 0.500000 0.500000
O O24 0.750000 0.949508 0.765586
O O25 0.945287 0.750000 0.766999
#
# Coordination Sequence:
#
# PCOD8242489 Si02
#       8
#     8   8   8   8   8   8   8   8
#     4   9  16  27  45  69  97 128 162 201 243 287
#     4   9  19  35  52  72 101 133 163 199 245 294
#     4   9  16  27  45  69  97 128 162 202 247 293
#     4   9  19  35  53  74  99 127 163 205 245 288
#     4   9  19  35  52  72 100 132 165 202 244 290
#     4  10  20  32  48  74 104 130 160 200 244 289
#     4  10  20  33  50  73 100 131 168 207 248 297
#     4   9  19  36  54  71  96 131 167 202 242 290
#
# _framework density 17.734614000000001
#
# number of rings (size 3 to 8) (size 9 to 14) (size 15 to 20)
#    0.000    2.750    0.000    3.000    0.000    7.500 
#    0.000    7.500    0.000    0.750    0.000    0.000 
#    0.000    0.000    0.000    0.000    0.000    0.000 
#
# Total GULP energy -793548.500197 kJ/mol
# GULP energy per Si atom -12399.195316 kJ/mol
# Density = 1.769425 g / cm^3
# Si number density = 17.734614 Si / 1000 Ang^3
#
#
#
# Elastic Constant Matrix: (Units=GPa)
#
#
# Indices 1 2 3 4 5 6 
#
# 1 47.4641 37.4860 52.1608 0.0000 0.0000 0.0000
# 2 37.4860 101.2015 61.8320 0.0000 0.0000 0.0000
# 3 52.1608 61.8320 126.4373 0.0000 0.0000 0.0000
# 4 0.0000 0.0000 0.0000 40.8795 0.0000 0.0000
# 5 0.0000 0.0000 0.0000 0.0000 27.8491 0.0000
# 6 0.0000 0.0000 0.0000 0.0000 0.0000 28.2747
#
#
#
# Elastic Compliance Matrix: (Units=1/GPa)
#
#
# Indices 1 2 3 4 5 6 
#
# 1 0.041799 -0.007055 -0.013794 0.000000 0.000000 0.000000
# 2 -0.007055 0.015283 -0.004563 0.000000 0.000000 0.000000
# 3 -0.013794 -0.004563 0.015831 0.000000 0.000000 0.000000
# 4 0.000000 0.000000 0.000000 0.024462 0.000000 0.000000
# 5 0.000000 0.000000 0.000000 0.000000 0.035908 0.000000
# 6 0.000000 0.000000 0.000000 0.000000 0.000000 0.035367
#
#
# Mechanical properties :
#
#
# Convention : Reuss Voigt Hill
#
# Bulk Modulus (GPa) = 45.27173 64.22893 54.75033
# Shear Modulus (GPa) = 22.04222 27.64225 24.84224
#
# Velocity S-wave (km/s) = 3.52929 3.95227 3.74676
# Velocity P-wave (km/s) = 6.49543 7.55795 7.04674
#
# Compressibility (1/GPa) = 0.02208884
#
# Stress axis : x y z
#
# Youngs Moduli (GPa) = 23.92382 65.43424 63.16668
#
# Poissons Ratio (x) = 0.46165 0.87131
# Poissons Ratio (y) = 0.16879 0.28824
# Poissons Ratio (z) = 0.33000 0.29858
#
# Static dielectric constant tensor:
#      x y z
#    x 3.010030 0.000000 0.000000 
#    y 0.000000 3.290950 0.000000 
#    z 0.000000 0.000000 3.378760 
# 
# 
# High freq. dielectric constant tensor:
#      x y z
#    x 1.653240 0.000000 0.000000 
#    y 0.000000 1.692620 0.000000 
#    z 0.000000 0.000000 1.698490 
# 
# From -- ./inp_files/33292.got.cif
#   From: 2010.03.12/outbox.cif.g09.slc.cpg/sg59_17_cif.got.tgz:33292.got - 2010.04.16 16:29:54.
