data_PCOD8242688
_publ_section_title
;
Structure prediction by ZEFSAII (Michael W. Deem and Ramdas Pophale) SiO2 
 PCOD8242688
Probable space group: P M M N
;
_chemical_formula_sum "Si O2"
_cell_formula_units_Z 56
_cell_length_a 13.734945
_cell_length_b 9.589703
_cell_length_c 23.536305
_cell_angle_alpha 90.000000
_cell_angle_beta 90.000000
_cell_angle_gamma 90.000000
_cell_volume 3100.061895
_symmetry_space_group_name_H-M "P M M N"
_symmetry_group_IT_number 59
_space_group.IT_coordinate_system_code '2'
_symmetry_cell_setting 'orthorhombic'
loop_
_space_group_symop_operation_xyz
x,y,z
1/2-x,1/2-y,z
1/2+x,-y,-z
-x,1/2+y,-z
-x,-y,-z
1/2+x,1/2+y,-z
1/2-x,y,z
x,1/2-y,z
loop_
_atom_site_type_symbol
_atom_site_label
_atom_site_fract_x
_atom_site_fract_y
_atom_site_fract_z
Si Si1 0.866419 0.093857 0.035704
Si Si2 0.446430 0.411821 0.421280
Si Si3 0.640994 0.589771 0.139806
Si Si4 0.542564 0.089162 0.798369
Si Si5 0.359178 0.910342 0.519151
Si Si6 0.363065 0.413065 0.300801
Si Si7 0.357512 0.915681 0.087070
O O1 0.750000 0.095262 0.033026
O O2 0.905749 0.250000 0.047542
O O3 0.902319 0.995159 0.086512
O O4 0.902973 0.035676 0.973876
O O5 0.422081 0.250000 0.430927
O O6 0.561160 0.444064 0.431964
O O7 0.378912 0.496859 0.464133
O O8 0.418842 0.457802 0.357972
O O9 0.750000 0.541534 0.156165
O O10 0.638070 0.750000 0.120378
O O11 0.574329 0.569077 0.196067
O O12 0.571141 0.250000 0.786612
O O13 0.580850 0.034716 0.859099
O O14 0.586127 0.995931 0.749311
O O15 0.250000 0.941968 0.542298
O O16 0.368624 0.750000 0.500143
O O17 0.250000 0.454804 0.305643
O O18 0.375199 0.250000 0.288612
O O19 0.250000 0.979490 0.095319
O O20 0.351930 0.750000 0.084912
#
# Coordination Sequence:
#
# PCOD8242688 Si02
#       7
#     8   8   8   8   8   8   8
#     4   8  14  26  45  66  87 114 149 189 236 293
#     4   9  18  33  52  74 104 140 169 194 237 291
#     4   9  18  32  47  65  92 122 153 196 247 291
#     4  10  20  33  50  69  90 124 167 202 236 283
#     4   9  17  30  51  80 109 134 165 205 239 271
#     4  10  21  36  52  72 100 130 159 196 241 285
#     4   8  14  26  44  66  90 114 146 192 241 287
#
# _framework density 18.064155
#
# number of rings (size 3 to 8) (size 9 to 14) (size 15 to 20)
#    0.000    3.000    0.000    1.714    0.000    3.429 
#    0.000    1.429    0.000    3.429    0.000    0.000 
#    0.000    0.000    0.000    0.000    0.000    0.000 
#
# Total GULP energy -694065.878756 kJ/mol
# GULP energy per Si atom -12394.033549 kJ/mol
# Density = 1.802304 g / cm^3
# Si number density = 18.064155 Si / 1000 Ang^3
#
#
#
# Elastic Constant Matrix: (Units=GPa)
#
#
# Indices 1 2 3 4 5 6 
#
# 1 108.1560 36.8292 71.6486 0.0000 0.0000 0.0000
# 2 36.8292 51.5727 55.7173 0.0000 0.0000 0.0000
# 3 71.6486 55.7173 132.9359 0.0000 0.0000 0.0000
# 4 0.0000 0.0000 0.0000 33.1294 0.0000 0.0000
# 5 0.0000 0.0000 0.0000 0.0000 24.8155 0.0000
# 6 0.0000 0.0000 0.0000 0.0000 0.0000 19.8995
#
#
#
# Elastic Compliance Matrix: (Units=1/GPa)
#
#
# Indices 1 2 3 4 5 6 
#
# 1 0.014727 -0.003548 -0.006450 0.000000 0.000000 0.000000
# 2 -0.003548 0.036291 -0.013298 0.000000 0.000000 0.000000
# 3 -0.006450 -0.013298 0.016573 0.000000 0.000000 0.000000
# 4 0.000000 0.000000 0.000000 0.030185 0.000000 0.000000
# 5 0.000000 0.000000 0.000000 0.000000 0.040297 0.000000
# 6 0.000000 0.000000 0.000000 0.000000 0.000000 0.050253
#
#
# Mechanical properties :
#
#
# Convention : Reuss Voigt Hill
#
# Bulk Modulus (GPa) = 47.62552 69.00609 58.31580
# Shear Modulus (GPa) = 20.66814 24.13350 22.40082
#
# Velocity S-wave (km/s) = 3.38620 3.65908 3.52528
# Velocity P-wave (km/s) = 6.45836 7.49235 6.99449
#
# Compressibility (1/GPa) = 0.02099715
#
# Stress axis : x y z
#
# Youngs Moduli (GPa) = 67.90140 27.55509 60.34049
#
# Poissons Ratio (x) = 0.09777 0.38922
# Poissons Ratio (y) = 0.24094 0.80242
# Poissons Ratio (z) = 0.43799 0.36643
#
# Static dielectric constant tensor:
#      x y z
#    x 3.553330 0.000000 0.000000 
#    y 0.000000 3.209300 0.000000 
#    z 0.000000 0.000000 3.292240 
# 
# 
# High freq. dielectric constant tensor:
#      x y z
#    x 1.708590 0.000000 0.000000 
#    y 0.000000 1.681620 0.000000 
#    z 0.000000 0.000000 1.680950 
# 
# From -- ./inp_files/30305.got.cif
#   From: 2010.03.12/outbox.cif.g09.slc.cpg/sg59_16_cif.got.tgz:30305.got - 2010.04.16 16:29:54.
