data_PCOD8242702
_publ_section_title
;
Structure prediction by ZEFSAII (Michael W. Deem and Ramdas Pophale) SiO2 
 PCOD8242702
Probable space group: P M M N
;
_chemical_formula_sum "Si O2"
_cell_formula_units_Z 64
_cell_length_a 9.413675
_cell_length_b 15.910973
_cell_length_c 23.369311
_cell_angle_alpha 90.000000
_cell_angle_beta 90.000000
_cell_angle_gamma 90.000000
_cell_volume 3500.272432
_symmetry_space_group_name_H-M "P M M N"
_symmetry_group_IT_number 59
_space_group.IT_coordinate_system_code '2'
_symmetry_cell_setting 'orthorhombic'
loop_
_space_group_symop_operation_xyz
x,y,z
1/2-x,1/2-y,z
1/2+x,-y,-z
-x,1/2+y,-z
-x,-y,-z
1/2+x,1/2+y,-z
1/2-x,y,z
x,1/2-y,z
loop_
_atom_site_type_symbol
_atom_site_label
_atom_site_fract_x
_atom_site_fract_y
_atom_site_fract_z
Si Si1 0.085790 0.421275 0.862813
Si Si2 0.591300 0.345232 0.955144
Si Si3 0.084445 0.654927 0.447900
Si Si4 0.087278 0.904220 0.925040
Si Si5 0.416294 0.344894 0.436135
Si Si6 0.582109 0.493622 0.762562
Si Si7 0.418059 0.505664 0.366128
Si Si8 0.089300 0.158220 0.173243
O O1 0.250000 0.400098 0.850878
O O2 0.064194 0.502864 0.901605
O O3 0.012248 0.349280 0.900425
O O4 0.004432 0.429095 0.802415
O O5 0.750000 0.376109 0.937478
O O6 0.595857 0.250000 0.976298
O O7 0.533377 0.398897 0.009365
O O8 0.250000 0.640835 0.461365
O O9 0.058124 0.750000 0.424543
O O10 0.028752 0.586241 0.402285
O O11 0.998506 0.639310 0.505402
O O12 0.250000 0.875638 0.922564
O O13 0.001192 0.841629 0.884562
O O14 0.250000 0.356211 0.448849
O O15 0.447153 0.250000 0.412636
O O16 0.470834 0.416161 0.391862
O O17 0.750000 0.475041 0.767730
O O18 0.524139 0.483265 0.698169
O O19 0.541951 0.588608 0.780861
O O20 0.250000 0.504063 0.363887
O O21 0.250000 0.140293 0.154329
O O22 0.073098 0.250000 0.202412
#
# Coordination Sequence:
#
# PCOD8242702 Si02
#       8
#     8   8   8   8   8   8   8   8
#     4  10  20  34  51  70  94 124 156 192 236 282
#     4  10  20  33  50  72  95 120 153 192 235 285
#     4   9  17  30  48  70  96 125 158 196 237 281
#     4   9  18  32  50  71  94 122 154 187 230 286
#     4   9  17  29  47  73 102 128 155 190 235 286
#     4   9  18  33  50  66  90 125 163 199 232 274
#     4   9  17  30  49  71  94 125 164 201 235 274
#     4   9  17  28  44  68  95 122 153 191 236 283
#
# _framework density 18.284291
#
# number of rings (size 3 to 8) (size 9 to 14) (size 15 to 20)
#    0.000    2.750    0.000    1.500    0.000    2.500 
#    0.000    4.375    0.000    2.250    0.000    1.750 
#    0.000    0.000    0.000    0.000    0.000    0.000 
#
# Total GULP energy -793348.349824 kJ/mol
# GULP energy per Si atom -12396.067966 kJ/mol
# Density = 1.824268 g / cm^3
# Si number density = 18.284291 Si / 1000 Ang^3
#
#
#
# Elastic Constant Matrix: (Units=GPa)
#
#
# Indices 1 2 3 4 5 6 
#
# 1 51.3816 21.1032 43.8319 0.0000 0.0000 0.0000
# 2 21.1032 73.8241 50.8293 0.0000 0.0000 0.0000
# 3 43.8319 50.8293 138.6126 0.0000 0.0000 0.0000
# 4 0.0000 0.0000 0.0000 20.8971 0.0000 0.0000
# 5 0.0000 0.0000 0.0000 0.0000 25.8404 0.0000
# 6 0.0000 0.0000 0.0000 0.0000 0.0000 18.9805
#
#
#
# Elastic Compliance Matrix: (Units=1/GPa)
#
#
# Indices 1 2 3 4 5 6 
#
# 1 0.026981 -0.002459 -0.007630 0.000000 0.000000 0.000000
# 2 -0.002459 0.018345 -0.005949 0.000000 0.000000 0.000000
# 3 -0.007630 -0.005949 0.011809 0.000000 0.000000 0.000000
# 4 0.000000 0.000000 0.000000 0.047853 0.000000 0.000000
# 5 0.000000 0.000000 0.000000 0.000000 0.038699 0.000000
# 6 0.000000 0.000000 0.000000 0.000000 0.000000 0.052686
#
#
# Mechanical properties :
#
#
# Convention : Reuss Voigt Hill
#
# Bulk Modulus (GPa) = 39.90851 55.03859 47.47355
# Shear Modulus (GPa) = 21.11452 23.01385 22.06419
#
# Velocity S-wave (km/s) = 3.40191 3.55162 3.47757
# Velocity P-wave (km/s) = 6.10776 6.85460 6.49193
#
# Compressibility (1/GPa) = 0.02505731
#
# Stress axis : x y z
#
# Youngs Moduli (GPa) = 37.06262 54.51062 84.68235
#
# Poissons Ratio (x) = 0.13406 0.64614
# Poissons Ratio (y) = 0.09115 0.50381
# Poissons Ratio (z) = 0.28279 0.32431
#
# Static dielectric constant tensor:
#      x y z
#    x 3.241380 0.000000 0.000000 
#    y 0.000000 3.435800 0.000000 
#    z 0.000000 0.000000 3.370210 
# 
# 
# High freq. dielectric constant tensor:
#      x y z
#    x 1.691230 0.000000 0.000000 
#    y 0.000000 1.708560 0.000000 
#    z 0.000000 0.000000 1.696650 
# 
# From -- ./inp_files/29578.got.cif
#   From: 2010.03.12/outbox.cif.g09.slc.cpg/sg59_15_cif.got.tgz:29578.got - 2010.04.16 16:29:54.
