data_PCOD8242191
_publ_section_title
;
Structure prediction by ZEFSAII (Michael W. Deem and Ramdas Pophale) SiO2 
 PCOD8242191
Probable space group: P M M N
;
_chemical_formula_sum "Si O2"
_cell_formula_units_Z 40
_cell_length_a 16.941732
_cell_length_b 11.506659
_cell_length_c 10.121364
_cell_angle_alpha 90.000000
_cell_angle_beta 90.000000
_cell_angle_gamma 90.000000
_cell_volume 1973.086360
_symmetry_space_group_name_H-M "P M M N"
_symmetry_group_IT_number 59
_space_group.IT_coordinate_system_code '2'
_symmetry_cell_setting 'orthorhombic'
loop_
_space_group_symop_operation_xyz
x,y,z
1/2-x,1/2-y,z
1/2+x,-y,-z
-x,1/2+y,-z
-x,-y,-z
1/2+x,1/2+y,-z
1/2-x,y,z
x,1/2-y,z
loop_
_atom_site_type_symbol
_atom_site_label
_atom_site_fract_x
_atom_site_fract_y
_atom_site_fract_z
Si Si1 0.090868 0.490876 0.034185
Si Si2 0.844174 0.750000 0.580368
Si Si3 0.342703 0.010933 0.536116
Si Si4 0.657271 0.380208 0.211431
Si Si5 0.844117 0.750000 0.885699
Si Si6 0.340230 0.885042 0.274206
O O1 0.120414 0.359028 0.036100
O O2 0.102937 0.545417 0.177848
O O3 0.141153 0.563003 0.929178
O O4 0.000000 0.500000 0.000000
O O5 0.750000 0.750000 0.580159
O O6 0.878312 0.863311 0.504418
O O7 0.872224 0.750000 0.732951
O O8 0.250000 0.026710 0.554336
O O9 0.379848 0.960953 0.672145
O O10 0.362687 0.917310 0.423428
O O11 0.750000 0.370306 0.233426
O O12 0.620445 0.250000 0.217012
O O13 0.750000 0.750000 0.896877
O O14 0.250000 0.922588 0.244561
O O15 0.353111 0.750000 0.252240
#
# Coordination Sequence:
#
# PCOD8242191 Si02
#       6
#     8   4   8   8   4   8
#     4  12  26  39  59  87 127 164 205 256 313 368
#     4   9  16  31  59  89 121 152 201 263 306 350
#     4   9  17  32  58  92 118 150 197 255 307 359
#     4  10  21  39  63  90 123 157 199 252 312 374
#     4  11  22  41  67  91 120 168 221 261 303 372
#     4  10  19  35  62  88 114 153 205 250 295 363
#
# _framework density 20.272808000000001
#
# number of rings (size 3 to 8) (size 9 to 14) (size 15 to 20)
#    0.000    1.800    2.000    3.000    2.800    4.800 
#    0.000    3.000    0.000    0.000    0.000    0.000 
#    0.000    0.000    0.000    0.000    0.000    0.000 
#
# Total GULP energy -496029.717509 kJ/mol
# GULP energy per Si atom -12400.742938 kJ/mol
# Density = 2.022667 g / cm^3
# Si number density = 20.272808 Si / 1000 Ang^3
#
#
#
# Elastic Constant Matrix: (Units=GPa)
#
#
# Indices 1 2 3 4 5 6 
#
# 1 28.9206 24.5538 9.6762 0.0000 0.0000 0.0000
# 2 24.5538 153.8172 48.9698 0.0000 0.0000 0.0000
# 3 9.6762 48.9698 84.3053 0.0000 0.0000 0.0000
# 4 0.0000 0.0000 0.0000 35.9635 0.0000 0.0000
# 5 0.0000 0.0000 0.0000 0.0000 5.9453 0.0000
# 6 0.0000 0.0000 0.0000 0.0000 0.0000 16.7338
#
#
#
# Elastic Compliance Matrix: (Units=1/GPa)
#
#
# Indices 1 2 3 4 5 6 
#
# 1 0.040079 -0.006053 -0.001084 0.000000 0.000000 0.000000
# 2 -0.006053 0.008890 -0.004469 0.000000 0.000000 0.000000
# 3 -0.001084 -0.004469 0.014582 0.000000 0.000000 0.000000
# 4 0.000000 0.000000 0.000000 0.027806 0.000000 0.000000
# 5 0.000000 0.000000 0.000000 0.000000 0.168199 0.000000
# 6 0.000000 0.000000 0.000000 0.000000 0.000000 0.059759
#
#
# Mechanical properties :
#
#
# Convention : Reuss Voigt Hill
#
# Bulk Modulus (GPa) = 24.79002 48.16031 36.47516
# Shear Modulus (GPa) = 14.04593 23.98473 19.01533
#
# Velocity S-wave (km/s) = 2.63505 3.44335 3.06596
# Velocity P-wave (km/s) = 4.63818 6.29417 5.52853
#
# Compressibility (1/GPa) = 0.04033881
#
# Stress axis : x y z
#
# Youngs Moduli (GPa) = 24.95076 112.48259 68.57689
#
# Poissons Ratio (x) = 0.68081 0.07436
# Poissons Ratio (y) = 0.15102 0.30649
# Poissons Ratio (z) = 0.02706 0.50272
#
# Static dielectric constant tensor:
#      x y z
#    x 3.189600 0.000000 0.000000 
#    y 0.000000 4.046890 0.000000 
#    z 0.000000 0.000000 3.962090 
# 
# 
# High freq. dielectric constant tensor:
#      x y z
#    x 1.742810 0.000000 0.000000 
#    y 0.000000 1.812790 0.000000 
#    z 0.000000 0.000000 1.800780 
# 
# From -- ./inp_files/11175.got.cif
#   From: 2010.03.12/outbox.cif.g09.slc.cpg/sg59_6_cif.got.tgz:11175.got - 2010.04.16 16:29:54.
