data_PCOD8242029
_publ_section_title
;
Structure prediction by ZEFSAII (Michael W. Deem and Ramdas Pophale) SiO2 
 PCOD8242029
Probable space group: P M M N
;
_chemical_formula_sum "Si O2"
_cell_formula_units_Z 64
_cell_length_a 9.009670
_cell_length_b 23.723114
_cell_length_c 15.423892
_cell_angle_alpha 90.000000
_cell_angle_beta 90.000000
_cell_angle_gamma 90.000000
_cell_volume 3296.663014
_symmetry_space_group_name_H-M "P M M N"
_symmetry_group_IT_number 59
_space_group.IT_coordinate_system_code '2'
_symmetry_cell_setting 'orthorhombic'
loop_
_space_group_symop_operation_xyz
x,y,z
1/2-x,1/2-y,z
1/2+x,-y,-z
-x,1/2+y,-z
-x,-y,-z
1/2+x,1/2+y,-z
1/2-x,y,z
x,1/2-y,z
loop_
_atom_site_type_symbol
_atom_site_label
_atom_site_fract_x
_atom_site_fract_y
_atom_site_fract_z
Si Si1 0.417907 0.995532 0.331577
Si Si2 0.918600 0.509114 0.868653
Si Si3 0.573949 0.618847 0.312125
Si Si4 0.075592 0.395695 0.880059
Si Si5 0.924833 0.314764 0.543125
Si Si6 0.425235 0.115854 0.392205
Si Si7 0.573325 0.687687 0.769997
Si Si8 0.426038 0.126891 0.063910
O O1 0.250000 0.976055 0.352824
O O2 0.428984 0.017905 0.234117
O O3 0.525795 0.942598 0.348319
O O4 0.463584 0.049134 0.390956
O O5 0.750000 0.497170 0.896888
O O6 0.985043 0.564628 0.913530
O O7 0.017768 0.457763 0.900219
O O8 0.750000 0.624010 0.320985
O O9 0.516407 0.627164 0.212449
O O10 0.496825 0.668691 0.365048
O O11 0.250000 0.400069 0.872539
O O12 0.029071 0.357401 0.963933
O O13 0.750000 0.323350 0.548859
O O14 0.966261 0.250000 0.522260
O O15 0.989980 0.355948 0.471193
O O16 0.250000 0.125487 0.404159
O O17 0.483047 0.145133 0.303880
O O18 0.750000 0.687182 0.772542
O O19 0.512734 0.750000 0.748637
O O20 0.509278 0.670325 0.865038
O O21 0.250000 0.126126 0.073195
#
# Coordination Sequence:
#
# PCOD8242029 Si02
#       8
#     8   8   8   8   8   8   8   8
#     4   9  17  31  53  82 115 147 176 212 264 322
#     4   9  15  26  46  72 105 142 176 208 249 307
#     4  10  21  37  56  80 110 144 182 226 271 316
#     4   9  18  30  47  74 107 137 173 219 263 303
#     4  11  25  43  61  80 102 134 178 225 275 328
#     4  10  19  34  58  86 111 138 175 218 265 319
#     4   9  16  27  47  76 108 141 177 216 260 313
#     4   9  15  26  44  70 105 141 175 213 255 303
#
# _framework density 19.41357
#
# number of rings (size 3 to 8) (size 9 to 14) (size 15 to 20)
#    0.000    2.500    1.250    1.500    0.000    3.000 
#    0.000    0.625    0.000    3.000    0.000    0.000 
#    0.000    0.000    0.000    0.000    0.000    0.000 
#
# Total GULP energy -793233.108379 kJ/mol
# GULP energy per Si atom -12394.267318 kJ/mol
# Density = 1.936938 g / cm^3
# Si number density = 19.413570 Si / 1000 Ang^3
#
#
#
# Elastic Constant Matrix: (Units=GPa)
#
#
# Indices 1 2 3 4 5 6 
#
# 1 32.4531 16.0517 23.9326 0.0000 0.0000 0.0000
# 2 16.0517 46.2819 27.4549 0.0000 0.0000 0.0000
# 3 23.9326 27.4549 88.0049 0.0000 0.0000 0.0000
# 4 0.0000 0.0000 0.0000 25.9993 0.0000 0.0000
# 5 0.0000 0.0000 0.0000 0.0000 17.5844 0.0000
# 6 0.0000 0.0000 0.0000 0.0000 0.0000 22.1504
#
#
#
# Elastic Compliance Matrix: (Units=1/GPa)
#
#
# Indices 1 2 3 4 5 6 
#
# 1 0.041683 -0.009488 -0.008376 0.000000 0.000000 0.000000
# 2 -0.009488 0.028673 -0.006365 0.000000 0.000000 0.000000
# 3 -0.008376 -0.006365 0.015626 0.000000 0.000000 0.000000
# 4 0.000000 0.000000 0.000000 0.038463 0.000000 0.000000
# 5 0.000000 0.000000 0.000000 0.000000 0.056869 0.000000
# 6 0.000000 0.000000 0.000000 0.000000 0.000000 0.045146
#
#
# Mechanical properties :
#
#
# Convention : Reuss Voigt Hill
#
# Bulk Modulus (GPa) = 26.64865 33.51315 30.08090
# Shear Modulus (GPa) = 17.39581 19.76687 18.58134
#
# Velocity S-wave (km/s) = 2.99668 3.19438 3.09711
# Velocity P-wave (km/s) = 5.07248 5.55929 5.32145
#
# Compressibility (1/GPa) = 0.03752535
#
# Stress axis : x y z
#
# Youngs Moduli (GPa) = 23.99048 34.87582 63.99453
#
# Poissons Ratio (x) = 0.33091 0.53599
# Poissons Ratio (y) = 0.22763 0.40732
# Poissons Ratio (z) = 0.20093 0.22198
#
# Static dielectric constant tensor:
#      x y z
#    x 3.213580 0.000000 0.000000 
#    y 0.000000 3.517920 0.000000 
#    z 0.000000 0.000000 3.886150 
# 
# 
# High freq. dielectric constant tensor:
#      x y z
#    x 1.719400 0.000000 0.000000 
#    y 0.000000 1.740430 0.000000 
#    z 0.000000 0.000000 1.769130 
# 
# From -- ./inp_files/21436.got.cif
#   From: 2010.03.12/outbox.cif.g09.slc.cpg/sg59_11_cif.got.tgz:21436.got - 2010.04.16 16:29:54.
