data_PCOD8242062
_publ_section_title
;
Structure prediction by ZEFSAII (Michael W. Deem and Ramdas Pophale) SiO2 
 PCOD8242062
Probable space group: P M M N
;
_chemical_formula_sum "Si O2"
_cell_formula_units_Z 48
_cell_length_a 9.726832
_cell_length_b 8.852465
_cell_length_c 29.509320
_cell_angle_alpha 90.000000
_cell_angle_beta 90.000000
_cell_angle_gamma 90.000000
_cell_volume 2540.942487
_symmetry_space_group_name_H-M "P M M N"
_symmetry_group_IT_number 59
_space_group.IT_coordinate_system_code '2'
_symmetry_cell_setting 'orthorhombic'
loop_
_space_group_symop_operation_xyz
x,y,z
1/2-x,1/2-y,z
1/2+x,-y,-z
-x,1/2+y,-z
-x,-y,-z
1/2+x,1/2+y,-z
1/2-x,y,z
x,1/2-y,z
loop_
_atom_site_type_symbol
_atom_site_label
_atom_site_fract_x
_atom_site_fract_y
_atom_site_fract_z
Si Si1 0.590786 0.572535 0.383258
Si Si2 0.089048 0.429208 0.459919
Si Si3 0.087983 0.582898 0.709110
Si Si4 0.250000 0.573141 0.058997
Si Si5 0.250000 0.929072 0.957829
Si Si6 0.526572 0.928701 0.104056
Si Si7 0.087728 0.082030 0.796562
O O1 0.750000 0.528182 0.394501
O O2 0.569452 0.750000 0.390286
O O3 0.483078 0.482584 0.413919
O O4 0.551923 0.528655 0.332044
O O5 0.250000 0.480984 0.461807
O O6 0.080756 0.250000 0.463736
O O7 0.000000 0.500000 0.500000
O O8 0.250000 0.595385 0.714603
O O9 0.025982 0.750000 0.700223
O O10 0.024173 0.517152 0.755732
O O11 0.250000 0.750000 0.051187
O O12 0.376184 0.522246 0.089452
O O13 0.250000 0.501089 0.008716
O O14 0.250000 0.750000 0.958202
O O15 0.118281 0.988027 0.932182
O O16 0.556471 0.750000 0.102390
O O17 0.551240 0.990776 0.154826
O O18 0.250000 0.091128 0.791151
O O19 0.023803 0.250000 0.793243
#
# Coordination Sequence:
#
# PCOD8242062 Si02
#       7
#     8   8   8   4   4   8   8
#     4  10  20  35  57  85 115 147 187 232 275 326
#     4  11  24  40  59  85 117 153 193 236 281 329
#     4   9  17  29  49  78 109 141 175 220 276 325
#     4   9  20  35  53  75 103 135 175 219 266 323
#     4  11  21  33  51  79 105 133 173 221 268 319
#     4  10  19  35  55  75 101 138 177 218 267 323
#     4   9  16  28  48  74 100 131 174 221 267 317
#
# _framework density 18.890629000000001
#
# number of rings (size 3 to 8) (size 9 to 14) (size 15 to 20)
#    0.000    2.167    0.833    2.750    0.000    7.000 
#    0.000    1.250    1.833    0.000    0.000    0.000 
#    0.000    0.000    0.000    0.000    0.000    0.000 
#
# Total GULP energy -595027.030390 kJ/mol
# GULP energy per Si atom -12396.396466 kJ/mol
# Density = 1.884763 g / cm^3
# Si number density = 18.890629 Si / 1000 Ang^3
#
#
#
# Elastic Constant Matrix: (Units=GPa)
#
#
# Indices 1 2 3 4 5 6 
#
# 1 84.9812 29.9304 33.7370 0.0000 0.0000 0.0000
# 2 29.9304 66.5996 32.4419 0.0000 0.0000 0.0000
# 3 33.7370 32.4419 122.6968 0.0000 0.0000 0.0000
# 4 0.0000 0.0000 0.0000 34.1713 0.0000 0.0000
# 5 0.0000 0.0000 0.0000 0.0000 27.8421 0.0000
# 6 0.0000 0.0000 0.0000 0.0000 0.0000 22.3128
#
#
#
# Elastic Compliance Matrix: (Units=1/GPa)
#
#
# Indices 1 2 3 4 5 6 
#
# 1 0.014685 -0.005318 -0.002632 0.000000 0.000000 0.000000
# 2 -0.005318 0.019160 -0.003604 0.000000 0.000000 0.000000
# 3 -0.002632 -0.003604 0.009827 0.000000 0.000000 0.000000
# 4 0.000000 0.000000 0.000000 0.029264 0.000000 0.000000
# 5 0.000000 0.000000 0.000000 0.000000 0.035917 0.000000
# 6 0.000000 0.000000 0.000000 0.000000 0.000000 0.044817
#
#
# Mechanical properties :
#
#
# Convention : Reuss Voigt Hill
#
# Bulk Modulus (GPa) = 48.62542 51.83294 50.22918
# Shear Modulus (GPa) = 27.22829 28.74313 27.98571
#
# Velocity S-wave (km/s) = 3.80065 3.90494 3.85315
# Velocity P-wave (km/s) = 6.71240 6.91588 6.81490
#
# Compressibility (1/GPa) = 0.02056538
#
# Stress axis : x y z
#
# Youngs Moduli (GPa) = 68.09686 52.19083 101.76300
#
# Poissons Ratio (x) = 0.27753 0.26782
# Poissons Ratio (y) = 0.36211 0.36676
# Poissons Ratio (z) = 0.17922 0.18810
#
# Static dielectric constant tensor:
#      x y z
#    x 3.222080 0.000000 0.000000 
#    y 0.000000 3.512190 0.000000 
#    z 0.000000 0.000000 3.723800 
# 
# 
# High freq. dielectric constant tensor:
#      x y z
#    x 1.703620 0.000000 0.000000 
#    y 0.000000 1.727900 0.000000 
#    z 0.000000 0.000000 1.753480 
# 
# From -- ./inp_files/32947.got.cif
#   From: 2010.03.12/outbox.cif.g09.slc.cpg/sg59_17_cif.got.tgz:32947.got - 2010.04.16 16:29:54.
