data_PCOD8242280
_publ_section_title
;
Structure prediction by ZEFSAII (Michael W. Deem and Ramdas Pophale) SiO2 
 PCOD8242280
Probable space group: P M M N
;
_chemical_formula_sum "Si O2"
_cell_formula_units_Z 64
_cell_length_a 24.487511
_cell_length_b 9.411544
_cell_length_c 17.701712
_cell_angle_alpha 90.000000
_cell_angle_beta 90.000000
_cell_angle_gamma 90.000000
_cell_volume 4079.630140
_symmetry_space_group_name_H-M "P M M N"
_symmetry_group_IT_number 59
_space_group.IT_coordinate_system_code '2'
_symmetry_cell_setting 'orthorhombic'
loop_
_space_group_symop_operation_xyz
x,y,z
1/2-x,1/2-y,z
1/2+x,-y,-z
-x,1/2+y,-z
-x,-y,-z
1/2+x,1/2+y,-z
1/2-x,y,z
x,1/2-y,z
loop_
_atom_site_type_symbol
_atom_site_label
_atom_site_fract_x
_atom_site_fract_y
_atom_site_fract_z
Si Si1 0.185141 0.409606 0.168402
Si Si2 0.105057 0.416131 0.598056
Si Si3 0.314951 0.409135 0.002508
Si Si4 0.185910 0.585517 0.698455
Si Si5 0.995623 0.415227 0.422978
Si Si6 0.685119 0.406955 0.132887
Si Si7 0.685645 0.413819 0.690332
Si Si8 0.616416 0.590572 0.579417
O O1 0.250000 0.407625 0.170904
O O2 0.162915 0.250000 0.182311
O O3 0.162526 0.512129 0.233718
O O4 0.166386 0.465859 0.085411
O O5 0.097074 0.250000 0.616847
O O6 0.156623 0.478865 0.641672
O O7 0.051322 0.504799 0.625320
O O8 0.115291 0.440994 0.509602
O O9 0.250000 0.413511 0.997358
O O10 0.336544 0.250000 0.992435
O O11 0.341032 0.498545 0.933885
O O12 0.250000 0.565889 0.685673
O O13 0.169515 0.750000 0.684104
O O14 0.169042 0.538721 0.783588
O O15 0.979877 0.250000 0.436994
O O16 0.000000 0.500000 0.500000
O O17 0.055512 0.424788 0.384643
O O18 0.750000 0.404352 0.126472
O O19 0.661400 0.250000 0.120824
O O20 0.750000 0.436759 0.681240
O O21 0.669833 0.250000 0.695428
O O22 0.657168 0.479945 0.617298
O O23 0.638288 0.750000 0.593959
#
# Coordination Sequence:
#
# PCOD8242280 Si02
#       8
#     8   8   8   8   8   8   8   8
#     4   8  14  25  39  54  77 110 142 172 209 251
#     4  10  20  32  47  67  87 111 145 182 221 261
#     4   8  13  21  35  55  76 102 138 174 208 247
#     4   9  18  31  44  60  87 122 153 180 215 257
#     4   9  17  31  50  69  86 105 135 177 223 265
#     4   8  14  24  37  54  78 109 142 174 210 250
#     4  10  20  30  41  61  87 115 147 179 211 249
#     4   9  19  33  47  63  83 110 142 175 215 260
#
# _framework density 15.687695
#
# number of rings (size 3 to 8) (size 9 to 14) (size 15 to 20)
#    0.000    3.125    0.000    3.375    0.000    5.500 
#    0.000    6.250    0.000    0.000    0.000    0.000 
#    0.000    1.000    0.000    3.250    0.000    4.375 
#
# Total GULP energy -793053.507668 kJ/mol
# GULP energy per Si atom -12391.461057 kJ/mol
# Density = 1.565199 g / cm^3
# Si number density = 15.687695 Si / 1000 Ang^3
#
#
#
# Elastic Constant Matrix: (Units=GPa)
#
#
# Indices 1 2 3 4 5 6 
#
# 1 35.8167 39.3408 32.0182 0.0000 0.0000 0.0000
# 2 39.3408 112.3425 60.6620 0.0000 0.0000 0.0000
# 3 32.0182 60.6620 88.5140 0.0000 0.0000 0.0000
# 4 0.0000 0.0000 0.0000 31.4707 0.0000 0.0000
# 5 0.0000 0.0000 0.0000 0.0000 0.6483 0.0000
# 6 0.0000 0.0000 0.0000 0.0000 0.0000 22.6966
#
#
#
# Elastic Compliance Matrix: (Units=1/GPa)
#
#
# Indices 1 2 3 4 5 6 
#
# 1 0.050106 -0.012318 -0.009683 0.000000 0.000000 0.000000
# 2 -0.012318 0.017159 -0.007304 0.000000 0.000000 0.000000
# 3 -0.009683 -0.007304 0.019806 0.000000 0.000000 0.000000
# 4 0.000000 0.000000 0.000000 0.031776 0.000000 0.000000
# 5 0.000000 0.000000 0.000000 0.000000 1.542389 0.000000
# 6 0.000000 0.000000 0.000000 0.000000 0.000000 0.044059
#
#
# Mechanical properties :
#
#
# Convention : Reuss Voigt Hill
#
# Bulk Modulus (GPa) = 35.13551 55.63501 45.38526
# Shear Modulus (GPa) = 2.81946 17.93995 10.37971
#
# Velocity S-wave (km/s) = 1.34207 3.38534 2.57504
# Velocity P-wave (km/s) = 4.98468 7.12894 6.15097
#
# Compressibility (1/GPa) = 0.02846124
#
# Stress axis : x y z
#
# Youngs Moduli (GPa) = 19.95782 58.27935 50.49019
#
# Poissons Ratio (x) = 0.71787 0.48889
# Poissons Ratio (y) = 0.24584 0.36877
# Poissons Ratio (z) = 0.19325 0.42566
#
# Static dielectric constant tensor:
#      x y z
#    x 2.792450 0.000000 0.000000 
#    y 0.000000 3.193050 0.000000 
#    z 0.000000 0.000000 3.101740 
# 
# 
# High freq. dielectric constant tensor:
#      x y z
#    x 1.552170 0.000000 0.000000 
#    y 0.000000 1.611710 0.000000 
#    z 0.000000 0.000000 1.594910 
# 
# From -- ./inp_files/28498.got.cif
#   From: 2010.03.12/outbox.cif.g09.slc.cpg/sg59_15_cif.got.tgz:28498.got - 2010.04.16 16:29:54.
