data_PCOD8242067
_publ_section_title
;
Structure prediction by ZEFSAII (Michael W. Deem and Ramdas Pophale) SiO2 
 PCOD8242067
Probable space group: P M M N
;
_chemical_formula_sum "Si O2"
_cell_formula_units_Z 64
_cell_length_a 19.100002
_cell_length_b 19.326383
_cell_length_c 9.699334
_cell_angle_alpha 90.000000
_cell_angle_beta 90.000000
_cell_angle_gamma 90.000000
_cell_volume 3580.353510
_symmetry_space_group_name_H-M "P M M N"
_symmetry_group_IT_number 59
_space_group.IT_coordinate_system_code '2'
_symmetry_cell_setting 'orthorhombic'
loop_
_space_group_symop_operation_xyz
x,y,z
1/2-x,1/2-y,z
1/2+x,-y,-z
-x,1/2+y,-z
-x,-y,-z
1/2+x,1/2+y,-z
1/2-x,y,z
x,1/2-y,z
loop_
_atom_site_type_symbol
_atom_site_label
_atom_site_fract_x
_atom_site_fract_y
_atom_site_fract_z
Si Si1 0.433413 0.828695 0.539062
Si Si2 0.830996 0.552674 0.638413
Si Si3 0.102310 0.977250 0.900308
Si Si4 0.030849 0.395091 0.008227
Si Si5 0.556187 0.171493 0.770202
Si Si6 0.567110 0.829481 0.717227
Si Si7 0.832027 0.450122 0.390547
Si Si8 0.670307 0.433607 0.838344
O O1 0.406067 0.750000 0.558860
O O2 0.468780 0.837083 0.387966
O O3 0.491876 0.846742 0.651672
O O4 0.367623 0.879447 0.557588
O O5 0.750000 0.573040 0.654596
O O6 0.875389 0.622776 0.643193
O O7 0.844854 0.512122 0.497038
O O8 0.856435 0.503302 0.763159
O O9 0.132197 0.976319 0.748154
O O10 0.028659 0.937727 0.910936
O O11 0.159636 0.941303 0.998450
O O12 0.091686 0.055714 0.950343
O O13 0.063933 0.342160 0.118224
O O14 0.002025 0.356198 0.874240
O O15 0.571892 0.250000 0.809324
O O16 0.629026 0.131988 0.783550
O O17 0.588235 0.750000 0.690572
O O18 0.750000 0.434943 0.370163
O O19 0.750000 0.419493 0.799308
#
# Coordination Sequence:
#
# PCOD8242067 Si02
#       8
#     8   8   8   8   8   8   8   8
#     4  10  22  37  55  84 116 150 193 230 273 332
#     4  10  22  38  58  85 110 140 187 233 282 340
#     4  10  20  34  55  82 111 142 187 232 282 328
#     4  10  20  35  56  85 108 143 184 238 283 329
#     4  10  21  35  53  80 114 147 183 230 277 330
#     4  11  22  39  61  83 112 146 182 236 291 338
#     4  11  22  37  57  83 118 157 188 232 281 330
#     4  10  19  35  55  78 108 142 184 228 271 326
#
# _framework density 17.875330000000002
#
# number of rings (size 3 to 8) (size 9 to 14) (size 15 to 20)
#    0.000    1.750    3.750    0.750    1.750    1.250 
#    0.000    1.250    0.000    1.500    0.000    0.000 
#    0.000    0.000    0.000    0.000    0.000    0.000 
#
# Total GULP energy -793676.529959 kJ/mol
# GULP energy per Si atom -12401.195781 kJ/mol
# Density = 1.783464 g / cm^3
# Si number density = 17.875330 Si / 1000 Ang^3
#
#
#
# Elastic Constant Matrix: (Units=GPa)
#
#
# Indices 1 2 3 4 5 6 
#
# 1 64.9977 47.6987 34.2786 0.0000 0.0000 0.0000
# 2 47.6987 109.4736 39.0673 0.0000 0.0000 0.0000
# 3 34.2786 39.0673 111.3363 0.0000 0.0000 0.0000
# 4 0.0000 0.0000 0.0000 27.7531 0.0000 0.0000
# 5 0.0000 0.0000 0.0000 0.0000 21.7265 0.0000
# 6 0.0000 0.0000 0.0000 0.0000 0.0000 22.9677
#
#
#
# Elastic Compliance Matrix: (Units=1/GPa)
#
#
# Indices 1 2 3 4 5 6 
#
# 1 0.024297 -0.009050 -0.004305 0.000000 0.000000 0.000000
# 2 -0.009050 0.013813 -0.002061 0.000000 0.000000 0.000000
# 3 -0.004305 -0.002061 0.011030 0.000000 0.000000 0.000000
# 4 0.000000 0.000000 0.000000 0.036032 0.000000 0.000000
# 5 0.000000 0.000000 0.000000 0.000000 0.046027 0.000000
# 6 0.000000 0.000000 0.000000 0.000000 0.000000 0.043539
#
#
# Mechanical properties :
#
#
# Convention : Reuss Voigt Hill
#
# Bulk Modulus (GPa) = 54.61784 58.65521 56.63652
# Shear Modulus (GPa) = 23.62133 25.47366 24.54749
#
# Velocity S-wave (km/s) = 3.63912 3.77911 3.70977
# Velocity P-wave (km/s) = 6.94829 7.20604 7.07834
#
# Compressibility (1/GPa) = 0.01830904
#
# Stress axis : x y z
#
# Youngs Moduli (GPa) = 41.15731 72.39441 90.65942
#
# Poissons Ratio (x) = 0.65518 0.39029
# Poissons Ratio (y) = 0.37248 0.18681
# Poissons Ratio (z) = 0.17718 0.14918
#
# Static dielectric constant tensor:
#      x y z
#    x 3.112930 0.000000 0.000000 
#    y 0.000000 3.285720 0.000000 
#    z 0.000000 0.000000 3.507850 
# 
# 
# High freq. dielectric constant tensor:
#      x y z
#    x 1.675640 0.000000 0.000000 
#    y 0.000000 1.690260 0.000000 
#    z 0.000000 0.000000 1.708510 
# 
# From -- ./inp_files/11628.got.cif
#   From: 2010.03.12/outbox.cif.g09.slc.cpg/sg59_6_cif.got.tgz:11628.got - 2010.04.16 16:29:54.
