data_PCOD8242338
_publ_section_title
;
Structure prediction by ZEFSAII (Michael W. Deem and Ramdas Pophale) SiO2 
 PCOD8242338
Probable space group: P M M N
;
_chemical_formula_sum "Si O2"
_cell_formula_units_Z 48
_cell_length_a 9.395195
_cell_length_b 9.415046
_cell_length_c 30.676703
_cell_angle_alpha 90.000000
_cell_angle_beta 90.000000
_cell_angle_gamma 90.000000
_cell_volume 2713.544364
_symmetry_space_group_name_H-M "P M M N"
_symmetry_group_IT_number 59
_space_group.IT_coordinate_system_code '2'
_symmetry_cell_setting 'orthorhombic'
loop_
_space_group_symop_operation_xyz
x,y,z
1/2-x,1/2-y,z
1/2+x,-y,-z
-x,1/2+y,-z
-x,-y,-z
1/2+x,1/2+y,-z
1/2-x,y,z
x,1/2-y,z
loop_
_atom_site_type_symbol
_atom_site_label
_atom_site_fract_x
_atom_site_fract_y
_atom_site_fract_z
Si Si1 0.418750 0.912908 0.204005
Si Si2 0.580993 0.590610 0.715051
Si Si3 0.918245 0.414950 0.536893
Si Si4 0.081145 0.091240 0.381245
Si Si5 0.914145 0.085077 0.133280
Si Si6 0.914507 0.410885 0.034428
O O1 0.250000 0.929341 0.200556
O O2 0.466579 0.750000 0.204398
O O3 0.478689 0.983746 0.248468
O O4 0.485940 0.989438 0.162764
O O5 0.750000 0.585533 0.715057
O O6 0.528638 0.750000 0.726154
O O7 0.524768 0.546091 0.666852
O O8 0.750000 0.436643 0.530540
O O9 0.960592 0.250000 0.535097
O O10 0.971756 0.478004 0.583127
O O11 0.000000 0.500000 0.500000
O O12 0.250000 0.093956 0.380326
O O13 0.025294 0.250000 0.393008
O O14 0.750000 0.059794 0.145797
O O15 0.953885 0.250000 0.139558
O O16 0.942366 0.036360 0.083646
O O17 0.750000 0.424770 0.022700
O O18 0.966477 0.250000 0.030225
O O19 0.000000 0.500000 0.000000
#
# Coordination Sequence:
#
# PCOD8242338 Si02
#       6
#     8   8   8   8   8   8
#     4  10  20  31  46  73 104 129 156 195 241 283
#     4   8  14  26  45  68  94 125 159 194 234 281
#     4  10  20  32  48  71  97 127 162 198 240 289
#     4   8  14  26  45  68  93 122 157 196 237 282
#     4   9  19  36  54  70  93 129 168 200 234 281
#     4   9  19  35  53  74  99 126 159 199 240 284
#
# _framework density 17.689043000000002
#
# number of rings (size 3 to 8) (size 9 to 14) (size 15 to 20)
#    0.000    3.000    0.000    3.000    0.000    4.667 
#    0.000    8.333    0.000    1.000    0.000    7.000 
#    0.000    0.000    0.000    0.000    0.000    0.000 
#
# Total GULP energy -594993.850966 kJ/mol
# GULP energy per Si atom -12395.705228 kJ/mol
# Density = 1.764878 g / cm^3
# Si number density = 17.689043 Si / 1000 Ang^3
#
#
#
# Elastic Constant Matrix: (Units=GPa)
#
#
# Indices 1 2 3 4 5 6 
#
# 1 23.7359 33.4585 35.7150 0.0000 0.0000 0.0000
# 2 33.4585 122.3172 85.0669 0.0000 0.0000 0.0000
# 3 35.7150 85.0669 138.8368 0.0000 0.0000 0.0000
# 4 0.0000 0.0000 0.0000 39.8170 0.0000 0.0000
# 5 0.0000 0.0000 0.0000 0.0000 24.9520 0.0000
# 6 0.0000 0.0000 0.0000 0.0000 0.0000 24.9919
#
#
#
# Elastic Compliance Matrix: (Units=1/GPa)
#
#
# Indices 1 2 3 4 5 6 
#
# 1 0.079117 -0.013047 -0.012359 0.000000 0.000000 0.000000
# 2 -0.013047 0.016397 -0.006691 0.000000 0.000000 0.000000
# 3 -0.012359 -0.006691 0.014481 0.000000 0.000000 0.000000
# 4 0.000000 0.000000 0.000000 0.025115 0.000000 0.000000
# 5 0.000000 0.000000 0.000000 0.000000 0.040077 0.000000
# 6 0.000000 0.000000 0.000000 0.000000 0.000000 0.040013
#
#
# Mechanical properties :
#
#
# Convention : Reuss Voigt Hill
#
# Bulk Modulus (GPa) = 21.83232 65.93008 43.88120
# Shear Modulus (GPa) = 16.96875 26.66215 21.81545
#
# Velocity S-wave (km/s) = 3.10058 3.88657 3.51561
# Velocity P-wave (km/s) = 5.01869 7.58243 6.42964
#
# Compressibility (1/GPa) = 0.04580364
#
# Stress axis : x y z
#
# Youngs Moduli (GPa) = 12.63958 60.98562 69.05455
#
# Poissons Ratio (x) = 0.79565 0.85341
# Poissons Ratio (y) = 0.16490 0.46202
# Poissons Ratio (z) = 0.15621 0.40803
#
# Static dielectric constant tensor:
#      x y z
#    x 2.857980 0.000000 0.000000 
#    y 0.000000 3.256210 0.000000 
#    z 0.000000 0.000000 3.590180 
# 
# 
# High freq. dielectric constant tensor:
#      x y z
#    x 1.640430 0.000000 0.000000 
#    y 0.000000 1.685760 0.000000 
#    z 0.000000 0.000000 1.699760 
# 
# From -- ./inp_files/32870.got.cif
#   From: 2010.03.12/outbox.cif.g09.slc.cpg/sg59_17_cif.got.tgz:32870.got - 2010.04.16 16:29:54.
