data_PCOD8242229
_publ_section_title
;
Structure prediction by ZEFSAII (Michael W. Deem and Ramdas Pophale) SiO2 
 PCOD8242229
Probable space group: P M M N
;
_chemical_formula_sum "Si O2"
_cell_formula_units_Z 64
_cell_length_a 31.019964
_cell_length_b 8.665362
_cell_length_c 12.145514
_cell_angle_alpha 90.000000
_cell_angle_beta 90.000000
_cell_angle_gamma 90.000000
_cell_volume 3264.704657
_symmetry_space_group_name_H-M "P M M N"
_symmetry_group_IT_number 59
_space_group.IT_coordinate_system_code '2'
_symmetry_cell_setting 'orthorhombic'
loop_
_space_group_symop_operation_xyz
x,y,z
1/2-x,1/2-y,z
1/2+x,-y,-z
-x,1/2+y,-z
-x,-y,-z
1/2+x,1/2+y,-z
1/2-x,y,z
x,1/2-y,z
loop_
_atom_site_type_symbol
_atom_site_label
_atom_site_fract_x
_atom_site_fract_y
_atom_site_fract_z
Si Si1 0.297879 0.433438 0.007468
Si Si2 0.076420 0.074777 0.231973
Si Si3 0.546903 0.069957 0.986683
Si Si4 0.177872 0.424931 0.242413
Si Si5 0.123374 0.065998 0.617820
Si Si6 0.797676 0.567019 0.523723
Si Si7 0.454571 0.432383 0.468542
Si Si8 0.378163 0.066326 0.867123
O O1 0.250000 0.480534 0.965314
O O2 0.302862 0.250000 0.012738
O O3 0.334675 0.498289 0.925685
O O4 0.305119 0.504708 0.130015
O O5 0.062246 0.250000 0.202607
O O6 0.126949 0.067026 0.247960
O O7 0.054925 0.015816 0.344224
O O8 0.062301 0.959222 0.137068
O O9 0.545333 0.250000 0.010993
O O10 0.500000 0.000000 0.000000
O O11 0.579370 0.992807 0.072573
O O12 0.194620 0.250000 0.240238
O O13 0.196264 0.504566 0.353365
O O14 0.124025 0.250000 0.617429
O O15 0.166804 0.000083 0.560404
O O16 0.082086 0.002732 0.550885
O O17 0.121497 0.003421 0.742395
O O18 0.750000 0.524126 0.479696
O O19 0.804267 0.750000 0.531807
O O20 0.500000 0.500000 0.500000
O O21 0.455586 0.250000 0.477611
O O22 0.378941 0.250000 0.870659
#
# Coordination Sequence:
#
# PCOD8242229 Si02
#       8
#     8   8   8   8   8   8   8   8
#     4   9  16  26  46  78 111 145 186 230 273 318
#     4  10  19  36  60  83 112 149 185 229 283 333
#     4  12  26  42  61  84 111 142 185 234 288 346
#     4   9  14  25  46  74 111 146 180 224 274 321
#     4   9  18  32  49  74 111 150 182 223 274 322
#     4   9  15  24  43  75 113 149 183 223 275 328
#     4  10  21  36  55  80 111 145 186 228 275 327
#     4  10  20  36  56  80 115 153 190 232 278 328
#
# _framework density 19.60361
#
# number of rings (size 3 to 8) (size 9 to 14) (size 15 to 20)
#    0.000    2.250    2.500    1.500    1.750    2.500 
#    0.000    2.500    0.000    0.375    0.000    0.000 
#    0.000    3.500    0.000    0.000    0.000    0.000 
#
# Total GULP energy -793398.994954 kJ/mol
# GULP energy per Si atom -12396.859296 kJ/mol
# Density = 1.955899 g / cm^3
# Si number density = 19.603610 Si / 1000 Ang^3
#
#
#
# Elastic Constant Matrix: (Units=GPa)
#
#
# Indices 1 2 3 4 5 6 
#
# 1 151.4780 12.0020 79.6041 0.0000 0.0000 0.0000
# 2 12.0020 16.8924 17.4546 0.0000 0.0000 0.0000
# 3 79.6041 17.4546 161.2246 0.0000 0.0000 0.0000
# 4 0.0000 0.0000 0.0000 8.8719 0.0000 0.0000
# 5 0.0000 0.0000 0.0000 0.0000 50.8299 0.0000
# 6 0.0000 0.0000 0.0000 0.0000 0.0000 19.3285
#
#
#
# Elastic Compliance Matrix: (Units=1/GPa)
#
#
# Indices 1 2 3 4 5 6 
#
# 1 0.008976 -0.002024 -0.004213 0.000000 0.000000 0.000000
# 2 -0.002024 0.067111 -0.006266 0.000000 0.000000 0.000000
# 3 -0.004213 -0.006266 0.008961 0.000000 0.000000 0.000000
# 4 0.000000 0.000000 0.000000 0.112715 0.000000 0.000000
# 5 0.000000 0.000000 0.000000 0.000000 0.019673 0.000000
# 6 0.000000 0.000000 0.000000 0.000000 0.000000 0.051737
#
#
# Mechanical properties :
#
#
# Convention : Reuss Voigt Hill
#
# Bulk Modulus (GPa) = 16.65511 60.85737 38.75624
# Shear Modulus (GPa) = 15.91377 30.50836 23.21106
#
# Velocity S-wave (km/s) = 2.85226 3.94923 3.44469
# Velocity P-wave (km/s) = 4.40018 7.20462 5.96943
#
# Compressibility (1/GPa) = 0.06004162
#
# Stress axis : x y z
#
# Youngs Moduli (GPa) = 111.41057 14.90064 111.59639
#
# Poissons Ratio (x) = 0.03017 0.47011
# Poissons Ratio (y) = 0.22555 0.69927
# Poissons Ratio (z) = 0.46933 0.09337
#
# Static dielectric constant tensor:
#      x y z
#    x 3.648530 0.000000 0.000000 
#    y 0.000000 2.887950 0.000000 
#    z 0.000000 0.000000 4.550320 
# 
# 
# High freq. dielectric constant tensor:
#      x y z
#    x 1.781330 0.000000 0.000000 
#    y 0.000000 1.692620 0.000000 
#    z 0.000000 0.000000 1.776680 
# 
# From -- ./inp_files/19368.got.cif
#   From: 2010.03.12/outbox.cif.g09.slc.cpg/sg59_10_cif.got.tgz:19368.got - 2010.04.16 16:29:54.
