data_PCOD8242301
_publ_section_title
;
Structure prediction by ZEFSAII (Michael W. Deem and Ramdas Pophale) SiO2 
 PCOD8242301
Probable space group: P M M N
;
_chemical_formula_sum "Si O2"
_cell_formula_units_Z 56
_cell_length_a 18.413107
_cell_length_b 9.177845
_cell_length_c 20.813609
_cell_angle_alpha 90.000000
_cell_angle_beta 90.000000
_cell_angle_gamma 90.000000
_cell_volume 3517.346775
_symmetry_space_group_name_H-M "P M M N"
_symmetry_group_IT_number 59
_space_group.IT_coordinate_system_code '2'
_symmetry_cell_setting 'orthorhombic'
loop_
_space_group_symop_operation_xyz
x,y,z
1/2-x,1/2-y,z
1/2+x,-y,-z
-x,1/2+y,-z
-x,-y,-z
1/2+x,1/2+y,-z
1/2-x,y,z
x,1/2-y,z
loop_
_atom_site_type_symbol
_atom_site_label
_atom_site_fract_x
_atom_site_fract_y
_atom_site_fract_z
Si Si1 0.333061 0.579870 0.510733
Si Si2 0.470070 0.421637 0.937444
Si Si3 0.170579 0.079640 0.001432
Si Si4 0.959899 0.582205 0.443587
Si Si5 0.912159 0.577279 0.872139
Si Si6 0.099943 0.584144 0.373891
Si Si7 0.332095 0.077556 0.256454
O O1 0.250000 0.532694 0.519826
O O2 0.344761 0.750000 0.523027
O O3 0.380784 0.492750 0.564054
O O4 0.358656 0.537748 0.439056
O O5 0.487351 0.250000 0.939089
O O6 0.508981 0.496822 0.876160
O O7 0.500000 0.500000 0.000000
O O8 0.382708 0.450019 0.940342
O O9 0.250000 0.007595 0.989050
O O10 0.180540 0.250000 0.011151
O O11 0.136663 0.020830 0.068224
O O12 0.949271 0.750000 0.462445
O O13 0.000000 0.500000 0.500000
O O14 0.012237 0.567757 0.381398
O O15 0.924978 0.750000 0.873903
O O16 0.872961 0.524874 0.807517
O O17 0.120412 0.750000 0.356619
O O18 0.125119 0.480105 0.317610
O O19 0.250000 0.016246 0.255590
O O20 0.331269 0.250000 0.259985
#
# Coordination Sequence:
#
# PCOD8242301 Si02
#       7
#     8   8   8   8   8   8   8
#     4   9  17  29  45  66  91 116 142 176 220 266
#     4   9  16  26  42  62  83 109 140 173 209 251
#     4   8  13  23  41  62  82 106 135 167 204 244
#     4   9  17  29  44  62  85 114 147 181 218 261
#     4   9  17  29  43  59  84 115 143 173 207 246
#     4   9  18  31  44  60  87 120 147 174 212 256
#     4  10  20  31  44  64  87 114 150 184 211 246
#
# _framework density 15.921091000000001
#
# number of rings (size 3 to 8) (size 9 to 14) (size 15 to 20)
#    0.000    3.000    0.000    3.429    0.000    6.286 
#    0.000    0.000    0.000   14.143    0.000    1.000 
#    0.000    3.429    0.000    0.000    0.000    0.000 
#
# Total GULP energy -693872.913429 kJ/mol
# GULP energy per Si atom -12390.587740 kJ/mol
# Density = 1.588485 g / cm^3
# Si number density = 15.921091 Si / 1000 Ang^3
#
#
#
# Elastic Constant Matrix: (Units=GPa)
#
#
# Indices 1 2 3 4 5 6 
#
# 1 140.6712 42.8531 50.7876 0.0000 0.0000 0.0000
# 2 42.8531 47.5567 24.5062 0.0000 0.0000 0.0000
# 3 50.7876 24.5062 58.3019 0.0000 0.0000 0.0000
# 4 0.0000 0.0000 0.0000 23.1862 0.0000 0.0000
# 5 0.0000 0.0000 0.0000 0.0000 24.2426 0.0000
# 6 0.0000 0.0000 0.0000 0.0000 0.0000 25.9437
#
#
#
# Elastic Compliance Matrix: (Units=1/GPa)
#
#
# Indices 1 2 3 4 5 6 
#
# 1 0.011903 -0.006871 -0.007481 0.000000 0.000000 0.000000
# 2 -0.006871 0.030807 -0.006964 0.000000 0.000000 0.000000
# 3 -0.007481 -0.006964 0.026596 0.000000 0.000000 0.000000
# 4 0.000000 0.000000 0.000000 0.043129 0.000000 0.000000
# 5 0.000000 0.000000 0.000000 0.000000 0.041250 0.000000
# 6 0.000000 0.000000 0.000000 0.000000 0.000000 0.038545
#
#
# Mechanical properties :
#
#
# Convention : Reuss Voigt Hill
#
# Bulk Modulus (GPa) = 37.48845 53.64708 45.56776
# Shear Modulus (GPa) = 20.51266 23.23335 21.87301
#
# Velocity S-wave (km/s) = 3.59332 3.82420 3.71055
# Velocity P-wave (km/s) = 6.38854 7.29850 6.85863
#
# Compressibility (1/GPa) = 0.02667488
#
# Stress axis : x y z
#
# Youngs Moduli (GPa) = 84.01572 32.45992 37.59985
#
# Poissons Ratio (x) = 0.22302 0.28127
# Poissons Ratio (y) = 0.57723 0.26186
# Poissons Ratio (z) = 0.62849 0.22606
#
# Static dielectric constant tensor:
#      x y z
#    x 3.828260 0.000000 0.000000 
#    y 0.000000 3.019520 0.000000 
#    z 0.000000 0.000000 2.836370 
# 
# 
# High freq. dielectric constant tensor:
#      x y z
#    x 1.621770 0.000000 0.000000 
#    y 0.000000 1.604260 0.000000 
#    z 0.000000 0.000000 1.566260 
# 
# From -- ./inp_files/29311.got.cif
#   From: 2010.03.12/outbox.cif.g09.slc.cpg/sg59_15_cif.got.tgz:29311.got - 2010.04.16 16:29:54.
