data_PCOD8242577
_publ_section_title
;
Structure prediction by ZEFSAII (Michael W. Deem and Ramdas Pophale) SiO2 
 PCOD8242577
Probable space group: P M M N
;
_chemical_formula_sum "Si O2"
_cell_formula_units_Z 48
_cell_length_a 14.726265
_cell_length_b 8.840666
_cell_length_c 19.765704
_cell_angle_alpha 90.000000
_cell_angle_beta 90.000000
_cell_angle_gamma 90.000000
_cell_volume 2573.296812
_symmetry_space_group_name_H-M "P M M N"
_symmetry_group_IT_number 59
_space_group.IT_coordinate_system_code '2'
_symmetry_cell_setting 'orthorhombic'
loop_
_space_group_symop_operation_xyz
x,y,z
1/2-x,1/2-y,z
1/2+x,-y,-z
-x,1/2+y,-z
-x,-y,-z
1/2+x,1/2+y,-z
1/2-x,y,z
x,1/2-y,z
loop_
_atom_site_type_symbol
_atom_site_label
_atom_site_fract_x
_atom_site_fract_y
_atom_site_fract_z
Si Si1 0.144659 0.423962 0.092821
Si Si2 0.990243 0.928622 0.168053
Si Si3 0.649242 0.569717 0.058202
Si Si4 0.447295 0.429731 0.436985
Si Si5 0.442331 0.070126 0.682586
Si Si6 0.750000 0.570650 0.371340
Si Si7 0.250000 0.428578 0.477631
O O1 0.250000 0.446421 0.108850
O O2 0.116159 0.250000 0.099831
O O3 0.090847 0.520102 0.148269
O O4 0.121755 0.484534 0.017237
O O5 0.983936 0.750000 0.166861
O O6 0.919756 0.998146 0.113393
O O7 0.965896 0.987936 0.242457
O O8 0.750000 0.510145 0.076222
O O9 0.649647 0.750000 0.058909
O O10 0.500000 0.500000 0.500000
O O11 0.457058 0.250000 0.440835
O O12 0.487223 0.491443 0.367471
O O13 0.341337 0.480781 0.439074
O O14 0.451661 0.250000 0.674672
O O15 0.340012 0.014506 0.667278
O O16 0.750000 0.750000 0.374093
O O17 0.750000 0.501425 0.446798
O O18 0.250000 0.250000 0.484846
#
# Coordination Sequence:
#
# PCOD8242577 Si02
#       7
#     8   8   8   8   8   4   4
#     4   9  18  34  54  73 100 140 182 219 260 314
#     4  10  20  32  52  80 107 135 172 219 267 311
#     4   8  15  29  51  80 106 132 174 222 262 309
#     4  11  21  37  59  82 108 138 177 219 258 308
#     4  10  21  36  54  80 110 140 172 211 262 316
#     4   9  16  32  56  78 106 137 166 203 255 318
#     4   9  18  34  58  80 100 133 174 213 255 308
#
# _framework density 18.653115
#
# number of rings (size 3 to 8) (size 9 to 14) (size 15 to 20)
#    0.000    2.500    1.667    2.000    1.167    1.000 
#    1.500    2.917    0.000    1.500    0.000    0.000 
#    0.000    0.000    0.000    0.000    0.000    0.000 
#
# Total GULP energy -595115.947890 kJ/mol
# GULP energy per Si atom -12398.248914 kJ/mol
# Density = 1.861066 g / cm^3
# Si number density = 18.653115 Si / 1000 Ang^3
#
#
#
# Elastic Constant Matrix: (Units=GPa)
#
#
# Indices 1 2 3 4 5 6 
#
# 1 149.4533 27.6456 93.3883 0.0000 0.0000 0.0000
# 2 27.6456 23.6748 27.6483 0.0000 0.0000 0.0000
# 3 93.3883 27.6483 153.0794 0.0000 0.0000 0.0000
# 4 0.0000 0.0000 0.0000 25.3585 0.0000 0.0000
# 5 0.0000 0.0000 0.0000 0.0000 30.2527 0.0000
# 6 0.0000 0.0000 0.0000 0.0000 0.0000 26.7978
#
#
#
# Elastic Compliance Matrix: (Units=1/GPa)
#
#
# Indices 1 2 3 4 5 6 
#
# 1 0.011593 -0.006689 -0.005864 0.000000 0.000000 0.000000
# 2 -0.006689 0.057389 -0.006285 0.000000 0.000000 0.000000
# 3 -0.005864 -0.006285 0.011245 0.000000 0.000000 0.000000
# 4 0.000000 0.000000 0.000000 0.039435 0.000000 0.000000
# 5 0.000000 0.000000 0.000000 0.000000 0.033055 0.000000
# 6 0.000000 0.000000 0.000000 0.000000 0.000000 0.037317
#
#
# Mechanical properties :
#
#
# Convention : Reuss Voigt Hill
#
# Bulk Modulus (GPa) = 23.50085 69.28579 46.39332
# Shear Modulus (GPa) = 20.67040 28.31680 24.49360
#
# Velocity S-wave (km/s) = 3.33250 3.90047 3.62762
# Velocity P-wave (km/s) = 5.23771 7.58353 6.51704
#
# Compressibility (1/GPa) = 0.04255164
#
# Stress axis : x y z
#
# Youngs Moduli (GPa) = 86.26164 17.42497 88.92652
#
# Poissons Ratio (x) = 0.11655 0.52148
# Poissons Ratio (y) = 0.57696 0.55889
# Poissons Ratio (z) = 0.50586 0.10951
#
# Static dielectric constant tensor:
#      x y z
#    x 3.667450 0.000000 0.000000 
#    y 0.000000 3.023990 0.000000 
#    z 0.000000 0.000000 3.583060 
# 
# 
# High freq. dielectric constant tensor:
#      x y z
#    x 1.737260 0.000000 0.000000 
#    y 0.000000 1.684530 0.000000 
#    z 0.000000 0.000000 1.724540 
# 
# From -- ./inp_files/25518.got.cif
#   From: 2010.03.12/outbox.cif.g09.slc.cpg/sg59_13_cif.got.tgz:25518.got - 2010.04.16 16:29:54.
