data_PCOD8242987
_publ_section_title
;
Structure prediction by ZEFSAII (Michael W. Deem and Ramdas Pophale) SiO2 
 PCOD8242987
Probable space group: P M M N
;
_chemical_formula_sum "Si O2"
_cell_formula_units_Z 64
_cell_length_a 9.105778
_cell_length_b 14.404792
_cell_length_c 26.222823
_cell_angle_alpha 90.000000
_cell_angle_beta 90.000000
_cell_angle_gamma 90.000000
_cell_volume 3439.564779
_symmetry_space_group_name_H-M "P M M N"
_symmetry_group_IT_number 59
_space_group.IT_coordinate_system_code '2'
_symmetry_cell_setting 'orthorhombic'
loop_
_space_group_symop_operation_xyz
x,y,z
1/2-x,1/2-y,z
1/2+x,-y,-z
-x,1/2+y,-z
-x,-y,-z
1/2+x,1/2+y,-z
1/2-x,y,z
x,1/2-y,z
loop_
_atom_site_type_symbol
_atom_site_label
_atom_site_fract_x
_atom_site_fract_y
_atom_site_fract_z
Si Si1 0.418466 0.859723 0.129052
Si Si2 0.079403 0.354207 0.234029
Si Si3 0.922053 0.994948 0.576228
Si Si4 0.082060 0.359342 0.769281
Si Si5 0.923674 0.510125 0.053873
Si Si6 0.420841 0.645194 0.866639
Si Si7 0.577432 0.355915 0.493448
Si Si8 0.078232 0.983464 0.308058
O O1 0.250000 0.893692 0.128017
O O2 0.429414 0.750000 0.123675
O O3 0.491057 0.894054 0.181722
O O4 0.508374 0.901125 0.081959
O O5 0.250000 0.355742 0.221550
O O6 0.025102 0.250000 0.247017
O O7 0.040899 0.418119 0.282107
O O8 0.999789 0.393339 0.183821
O O9 0.750000 0.975092 0.573594
O O10 0.001204 0.903204 0.555120
O O11 0.965743 0.086596 0.544154
O O12 0.974575 0.011637 0.633755
O O13 0.250000 0.391489 0.776272
O O14 0.070113 0.250000 0.762814
O O15 0.013474 0.402639 0.718588
O O16 0.750000 0.524029 0.047334
O O17 0.963065 0.417789 0.085447
O O18 0.000000 0.500000 0.000000
O O19 0.250000 0.640781 0.854966
O O20 0.472595 0.750000 0.879168
O O21 0.750000 0.358626 0.483974
O O22 0.521758 0.250000 0.499725
O O23 0.250000 0.959041 0.303916
#
# Coordination Sequence:
#
# PCOD8242987 Si02
#       8
#     8   8   8   8   8   8   8   8
#     4  10  21  38  59  80 105 140 180 222 268 318
#     4   9  18  32  50  74 103 133 166 205 250 301
#     4   9  19  34  52  77 105 135 175 219 263 313
#     4  10  21  36  54  78 108 141 176 214 259 313
#     4  11  23  37  55  80 108 138 174 219 270 322
#     4   9  19  36  55  74  99 133 171 208 249 302
#     4   9  18  34  54  74 100 136 177 221 267 314
#     4  10  20  33  52  78 108 140 172 212 260 309
#
# _framework density 18.607005000000001
#
# number of rings (size 3 to 8) (size 9 to 14) (size 15 to 20)
#    0.000    2.375    0.000    1.875    0.000    7.250 
#    0.000    3.750    0.000    1.500    0.000    0.000 
#    0.000    0.000    0.000    0.000    0.000    0.000 
#
# Total GULP energy -793799.598974 kJ/mol
# GULP energy per Si atom -12403.118734 kJ/mol
# Density = 1.856465 g / cm^3
# Si number density = 18.607005 Si / 1000 Ang^3
#
#
#
# Elastic Constant Matrix: (Units=GPa)
#
#
# Indices 1 2 3 4 5 6 
#
# 1 77.4576 44.2915 63.2193 0.0000 0.0000 0.0000
# 2 44.2915 85.0947 57.9837 0.0000 0.0000 0.0000
# 3 63.2193 57.9837 163.2381 0.0000 0.0000 0.0000
# 4 0.0000 0.0000 0.0000 21.1759 0.0000 0.0000
# 5 0.0000 0.0000 0.0000 0.0000 32.5624 0.0000
# 6 0.0000 0.0000 0.0000 0.0000 0.0000 29.7338
#
#
#
# Elastic Compliance Matrix: (Units=1/GPa)
#
#
# Indices 1 2 3 4 5 6 
#
# 1 0.021939 -0.007427 -0.005858 0.000000 0.000000 0.000000
# 2 -0.007427 0.018019 -0.003524 0.000000 0.000000 0.000000
# 3 -0.005858 -0.003524 0.009647 0.000000 0.000000 0.000000
# 4 0.000000 0.000000 0.000000 0.047224 0.000000 0.000000
# 5 0.000000 0.000000 0.000000 0.000000 0.030710 0.000000
# 6 0.000000 0.000000 0.000000 0.000000 0.000000 0.033632
#
#
# Mechanical properties :
#
#
# Convention : Reuss Voigt Hill
#
# Bulk Modulus (GPa) = 62.55835 72.97550 67.76692
# Shear Modulus (GPa) = 24.98540 27.38080 26.18310
#
# Velocity S-wave (km/s) = 3.66839 3.84022 3.75529
# Velocity P-wave (km/s) = 7.18586 7.67903 7.43654
#
# Compressibility (1/GPa) = 0.01598508
#
# Stress axis : x y z
#
# Youngs Moduli (GPa) = 45.58157 55.49785 103.66363
#
# Poissons Ratio (x) = 0.41219 0.60729
# Poissons Ratio (y) = 0.33854 0.36531
# Poissons Ratio (z) = 0.26703 0.19557
#
# Static dielectric constant tensor:
#      x y z
#    x 3.454360 0.000000 0.000000 
#    y 0.000000 3.625810 0.000000 
#    z 0.000000 0.000000 3.444460 
# 
# 
# High freq. dielectric constant tensor:
#      x y z
#    x 1.722510 0.000000 0.000000 
#    y 0.000000 1.729160 0.000000 
#    z 0.000000 0.000000 1.718980 
# 
# From -- ./inp_files/31692.got.cif
#   From: 2010.03.12/outbox.cif.g09.slc.cpg/sg59_16_cif.got.tgz:31692.got - 2010.04.16 16:29:54.
