data_PCOD8242949
_publ_section_title
;
Structure prediction by ZEFSAII (Michael W. Deem and Ramdas Pophale) SiO2 
 PCOD8242949
Probable space group: P M M N
;
_chemical_formula_sum "Si O2"
_cell_formula_units_Z 56
_cell_length_a 8.950440
_cell_length_b 19.369456
_cell_length_c 16.155008
_cell_angle_alpha 90.000000
_cell_angle_beta 90.000000
_cell_angle_gamma 90.000000
_cell_volume 2800.715446
_symmetry_space_group_name_H-M "P M M N"
_symmetry_group_IT_number 59
_space_group.IT_coordinate_system_code '2'
_symmetry_cell_setting 'orthorhombic'
loop_
_space_group_symop_operation_xyz
x,y,z
1/2-x,1/2-y,z
1/2+x,-y,-z
-x,1/2+y,-z
-x,-y,-z
1/2+x,1/2+y,-z
1/2-x,y,z
x,1/2-y,z
loop_
_atom_site_type_symbol
_atom_site_label
_atom_site_fract_x
_atom_site_fract_y
_atom_site_fract_z
Si Si1 0.074970 0.329339 0.154994
Si Si2 0.079214 0.541600 0.571926
Si Si3 0.420271 0.169001 0.689089
Si Si4 0.580094 0.327101 0.523527
Si Si5 0.572352 0.452402 0.242621
Si Si6 0.425620 0.582215 0.173257
Si Si7 0.923075 0.171160 0.984005
O O1 0.250000 0.343387 0.160563
O O2 0.034980 0.250000 0.175791
O O3 0.990994 0.377261 0.220743
O O4 0.021406 0.348330 0.062979
O O5 0.250000 0.519187 0.568033
O O6 0.057403 0.623103 0.554631
O O7 0.017723 0.527281 0.664368
O O8 0.000000 0.500000 0.500000
O O9 0.250000 0.143998 0.701604
O O10 0.437367 0.250000 0.704195
O O11 0.470562 0.149036 0.596842
O O12 0.527871 0.130998 0.751951
O O13 0.750000 0.330820 0.556985
O O14 0.539902 0.250000 0.493522
O O15 0.750000 0.449647 0.237426
O O16 0.509319 0.508942 0.178723
O O17 0.250000 0.569069 0.177137
O O18 0.473138 0.619681 0.088596
O O19 0.750000 0.160882 0.007111
O O20 0.953281 0.250000 0.955391
#
# Coordination Sequence:
#
# PCOD8242949 Si02
#       7
#     8   8   8   8   8   8   8
#     4  10  22  41  64  89 116 147 187 234 283 336
#     4  10  22  38  57  81 109 145 187 232 282 336
#     4  10  20  33  51  79 115 151 187 230 282 339
#     4   9  18  34  55  77 102 136 182 233 282 333
#     4  11  24  40  59  85 116 151 190 232 284 341
#     4  11  22  36  56  83 116 152 192 235 279 333
#     4   9  19  37  61  87 114 148 189 231 278 331
#
# _framework density 19.994892
#
# number of rings (size 3 to 8) (size 9 to 14) (size 15 to 20)
#    0.000    2.000    0.000    3.000    0.000    8.571 
#    0.000    2.857    0.000    1.714    0.000    0.000 
#    0.000    0.000    0.000    0.000    0.000    0.000 
#
# Total GULP energy -694531.935767 kJ/mol
# GULP energy per Si atom -12402.355996 kJ/mol
# Density = 1.994938 g / cm^3
# Si number density = 19.994892 Si / 1000 Ang^3
#
#
#
# Elastic Constant Matrix: (Units=GPa)
#
#
# Indices 1 2 3 4 5 6 
#
# 1 77.8276 49.7057 49.1825 0.0000 0.0000 0.0000
# 2 49.7057 92.1712 66.0891 0.0000 0.0000 0.0000
# 3 49.1825 66.0891 103.4921 0.0000 0.0000 0.0000
# 4 0.0000 0.0000 0.0000 37.5442 0.0000 0.0000
# 5 0.0000 0.0000 0.0000 0.0000 31.0269 0.0000
# 6 0.0000 0.0000 0.0000 0.0000 0.0000 34.8238
#
#
#
# Elastic Compliance Matrix: (Units=1/GPa)
#
#
# Indices 1 2 3 4 5 6 
#
# 1 0.020941 -0.007669 -0.005055 0.000000 0.000000 0.000000
# 2 -0.007669 0.022821 -0.010929 0.000000 0.000000 0.000000
# 3 -0.005055 -0.010929 0.019044 0.000000 0.000000 0.000000
# 4 0.000000 0.000000 0.000000 0.026635 0.000000 0.000000
# 5 0.000000 0.000000 0.000000 0.000000 0.032230 0.000000
# 6 0.000000 0.000000 0.000000 0.000000 0.000000 0.028716
#
#
# Mechanical properties :
#
#
# Convention : Reuss Voigt Hill
#
# Bulk Modulus (GPa) = 64.51042 67.04952 65.77997
# Shear Modulus (GPa) = 24.64762 27.91321 26.28042
#
# Velocity S-wave (km/s) = 3.51479 3.74038 3.62934
# Velocity P-wave (km/s) = 6.98607 7.22911 7.10863
#
# Compressibility (1/GPa) = 0.01550137
#
# Stress axis : x y z
#
# Youngs Moduli (GPa) = 47.75368 43.81856 52.51017
#
# Poissons Ratio (x) = 0.33603 0.26542
# Poissons Ratio (y) = 0.36620 0.57389
# Poissons Ratio (z) = 0.24137 0.47890
#
# Static dielectric constant tensor:
#      x y z
#    x 3.663510 0.000000 0.000000 
#    y 0.000000 3.821150 0.000000 
#    z 0.000000 0.000000 3.591090 
# 
# 
# High freq. dielectric constant tensor:
#      x y z
#    x 1.781290 0.000000 0.000000 
#    y 0.000000 1.791760 0.000000 
#    z 0.000000 0.000000 1.771630 
# 
# From -- ./inp_files/21079.got.cif
#   From: 2010.03.12/outbox.cif.g09.slc.cpg/sg59_11_cif.got.tgz:21079.got - 2010.04.16 16:29:54.
