data_PCOD8242281
_publ_section_title
;
Structure prediction by ZEFSAII (Michael W. Deem and Ramdas Pophale) SiO2 
 PCOD8242281
Probable space group: P M M N
;
_chemical_formula_sum "Si O2"
_cell_formula_units_Z 48
_cell_length_a 24.316436
_cell_length_b 24.306894
_cell_length_c 5.030412
_cell_angle_alpha 90.000000
_cell_angle_beta 90.000000
_cell_angle_gamma 90.000000
_cell_volume 2973.260388
_symmetry_space_group_name_H-M "P M M N"
_symmetry_group_IT_number 59
_space_group.IT_coordinate_system_code '2'
_symmetry_cell_setting 'orthorhombic'
loop_
_space_group_symop_operation_xyz
x,y,z
1/2-x,1/2-y,z
1/2+x,-y,-z
-x,1/2+y,-z
-x,-y,-z
1/2+x,1/2+y,-z
1/2-x,y,z
x,1/2-y,z
loop_
_atom_site_type_symbol
_atom_site_label
_atom_site_fract_x
_atom_site_fract_y
_atom_site_fract_z
Si Si1 0.879324 0.503434 0.765806
Si Si2 0.625886 0.313097 0.810462
Si Si3 0.482297 0.059255 0.396437
Si Si4 0.312931 0.981938 0.739982
Si Si5 0.958380 0.096541 0.866762
Si Si6 0.687214 0.146044 0.296796
O O1 0.918658 0.555439 0.695058
O O2 0.830599 0.498840 0.554091
O O3 0.913596 0.447133 0.765452
O O4 0.851225 0.514028 0.050353
O O5 0.611051 0.250000 0.756594
O O6 0.569910 0.344106 0.895167
O O7 0.649438 0.340142 0.545417
O O8 0.670337 0.317168 0.045562
O O9 0.492777 0.100415 0.645062
O O10 0.500000 0.000000 0.500000
O O11 0.519128 0.077746 0.149802
O O12 0.250000 0.999524 0.780674
O O13 0.320734 0.917079 0.786884
O O14 0.750000 0.159125 0.373166
#
# Coordination Sequence:
#
# PCOD8242281 Si02
#       6
#     8   8   8   8   8   8
#     4  11  18  32  49  68  92 116 153 191 231 281
#     4  12  24  36  51  67  89 125 161 208 257 282
#     4  10  20  30  51  72  88 116 147 191 247 278
#     4  11  20  31  48  68  93 125 153 189 238 276
#     4  11  19  34  47  68  94 114 153 202 235 288
#     4  11  22  37  50  64  88 124 166 211 250 279
#
# _framework density 16.143894
#
# number of rings (size 3 to 8) (size 9 to 14) (size 15 to 20)
#    0.000    1.000    3.333    7.500    0.000    4.667 
#    0.000    0.000    0.000    0.000    0.000    0.000 
#    0.000    0.000    0.000    0.000    0.000   58.333 
#
# Total GULP energy -595267.053643 kJ/mol
# GULP energy per Si atom -12401.396951 kJ/mol
# Density = 1.610715 g / cm^3
# Si number density = 16.143894 Si / 1000 Ang^3
#
#
#
# Elastic Constant Matrix: (Units=GPa)
#
#
# Indices 1 2 3 4 5 6 
#
# 1 76.1519 38.1714 27.4763 0.0000 0.0000 0.0000
# 2 38.1714 41.3512 17.6738 0.0000 0.0000 0.0000
# 3 27.4763 17.6738 103.7118 0.0000 0.0000 0.0000
# 4 0.0000 0.0000 0.0000 -26.3740 0.0000 0.0000
# 5 0.0000 0.0000 0.0000 0.0000 36.1436 0.0000
# 6 0.0000 0.0000 0.0000 0.0000 0.0000 21.2217
#
#
#
# Elastic Compliance Matrix: (Units=1/GPa)
#
#
# Indices 1 2 3 4 5 6 
#
# 1 0.025240 -0.022047 -0.002930 0.000000 0.000000 0.000000
# 2 -0.022047 0.045340 -0.001886 0.000000 0.000000 0.000000
# 3 -0.002930 -0.001886 0.010740 0.000000 0.000000 0.000000
# 4 0.000000 0.000000 0.000000 -0.037916 0.000000 0.000000
# 5 0.000000 0.000000 0.000000 0.000000 0.027667 0.000000
# 6 0.000000 0.000000 0.000000 0.000000 0.000000 0.047122
#
#
# Mechanical properties :
#
#
# Convention : Reuss Voigt Hill
#
# Bulk Modulus (GPa) = 36.23786 43.09535 39.66660
# Shear Modulus (GPa) = 27.60673 15.39115 21.49894
#
# Velocity S-wave (km/s) = 4.13975 3.09102 3.65322
# Velocity P-wave (km/s) = 6.73391 6.28424 6.51296
#
# Compressibility (1/GPa) = 0.02759545
#
# Stress axis : x y z
#
# Youngs Moduli (GPa) = 39.62019 22.05540 93.11308
#
# Poissons Ratio (x) = 0.48625 0.27279
# Poissons Ratio (y) = 0.87349 0.17559
# Poissons Ratio (z) = 0.11608 0.04159
#
# Static dielectric constant tensor:
#      x y z
#    x 3.561990 0.000000 0.000000 
#    y 0.000000 2.725880 0.000000 
#    z 0.000000 0.000000 3.355830 
# 
# 
# High freq. dielectric constant tensor:
#      x y z
#    x 1.616120 0.000000 0.000000 
#    y 0.000000 1.558860 0.000000 
#    z 0.000000 0.000000 1.649750 
# 
# From -- ./inp_files/3418.got.cif
#   From: 2010.03.12/outbox.cif.g09.slc.cpg/sg59_2_cif.got.tgz:3418.got - 2010.04.16 16:29:54.
