data_PCOD8242508
_publ_section_title
;
Structure prediction by ZEFSAII (Michael W. Deem and Ramdas Pophale) SiO2 
 PCOD8242508
Probable space group: P M M N
;
_chemical_formula_sum "Si O2"
_cell_formula_units_Z 64
_cell_length_a 18.706289
_cell_length_b 9.082115
_cell_length_c 20.183538
_cell_angle_alpha 90.000000
_cell_angle_beta 90.000000
_cell_angle_gamma 90.000000
_cell_volume 3429.035119
_symmetry_space_group_name_H-M "P M M N"
_symmetry_group_IT_number 59
_space_group.IT_coordinate_system_code '2'
_symmetry_cell_setting 'orthorhombic'
loop_
_space_group_symop_operation_xyz
x,y,z
1/2-x,1/2-y,z
1/2+x,-y,-z
-x,1/2+y,-z
-x,-y,-z
1/2+x,1/2+y,-z
1/2-x,y,z
x,1/2-y,z
loop_
_atom_site_type_symbol
_atom_site_label
_atom_site_fract_x
_atom_site_fract_y
_atom_site_fract_z
Si Si1 0.835155 0.416113 0.914602
Si Si2 0.167022 0.079558 0.572249
Si Si3 0.926946 0.418325 0.679822
Si Si4 0.332556 0.577473 0.825446
Si Si5 0.091313 0.080808 0.707488
Si Si6 0.835100 0.916040 0.042919
Si Si7 0.429689 0.922930 0.473193
Si Si8 0.332969 0.421434 0.216484
O O1 0.750000 0.418360 0.916644
O O2 0.864683 0.250000 0.915315
O O3 0.862806 0.495226 0.848256
O O4 0.866205 0.500926 0.978522
O O5 0.250000 0.047116 0.583343
O O6 0.152069 0.250000 0.555947
O O7 0.125226 0.031339 0.638039
O O8 0.139748 0.981990 0.511325
O O9 0.903144 0.250000 0.691217
O O10 0.919978 0.462250 0.603425
O O11 0.874787 0.525077 0.719262
O O12 0.007064 0.442787 0.704727
O O13 0.250000 0.536830 0.812617
O O14 0.343171 0.750000 0.835374
O O15 0.378265 0.523693 0.763795
O O16 0.361903 0.498370 0.891309
O O17 0.111717 0.250000 0.722868
O O18 0.750000 0.917252 0.040215
O O19 0.864850 0.750000 0.043490
O O20 0.438290 0.750000 0.484164
O O21 0.500000 0.000000 0.500000
O O22 0.250000 0.457003 0.228018
O O23 0.346337 0.250000 0.205178
#
# Coordination Sequence:
#
# PCOD8242508 Si02
#       8
#     8   8   8   8   8   8   8   8
#     4   9  16  28  49  76 107 142 179 224 276 325
#     4  10  21  38  60  86 116 148 184 229 281 334
#     4  10  22  39  59  81 107 143 185 225 270 330
#     4  10  20  32  48  76 112 145 183 231 277 322
#     4  10  20  37  57  77 106 146 188 225 270 329
#     4   9  16  27  46  73 105 143 185 226 272 325
#     4  11  22  39  61  83 111 145 186 231 278 334
#     4  10  21  36  55  82 113 143 180 226 275 329
#
# _framework density 18.664141999999998
#
# number of rings (size 3 to 8) (size 9 to 14) (size 15 to 20)
#    0.000    2.125    1.250    2.250    0.000    7.750 
#    0.000    2.500    0.000    0.750    0.000    0.000 
#    0.000    0.000    0.000    0.000    0.000    0.000 
#
# Total GULP energy -793844.873052 kJ/mol
# GULP energy per Si atom -12403.826141 kJ/mol
# Density = 1.862166 g / cm^3
# Si number density = 18.664142 Si / 1000 Ang^3
#
#
#
# Elastic Constant Matrix: (Units=GPa)
#
#
# Indices 1 2 3 4 5 6 
#
# 1 48.8561 36.1293 40.3262 0.0000 0.0000 0.0000
# 2 36.1293 117.4077 79.9425 0.0000 0.0000 0.0000
# 3 40.3262 79.9425 145.9261 0.0000 0.0000 0.0000
# 4 0.0000 0.0000 0.0000 41.8956 0.0000 0.0000
# 5 0.0000 0.0000 0.0000 0.0000 2.7817 0.0000
# 6 0.0000 0.0000 0.0000 0.0000 0.0000 26.5401
#
#
#
# Elastic Compliance Matrix: (Units=1/GPa)
#
#
# Indices 1 2 3 4 5 6 
#
# 1 0.028543 -0.005443 -0.004906 0.000000 0.000000 0.000000
# 2 -0.005443 0.014622 -0.006507 0.000000 0.000000 0.000000
# 3 -0.004906 -0.006507 0.011773 0.000000 0.000000 0.000000
# 4 0.000000 0.000000 0.000000 0.023869 0.000000 0.000000
# 5 0.000000 0.000000 0.000000 0.000000 0.359498 0.000000
# 6 0.000000 0.000000 0.000000 0.000000 0.000000 0.037679
#
#
# Mechanical properties :
#
#
# Convention : Reuss Voigt Hill
#
# Bulk Modulus (GPa) = 47.10858 69.44286 58.27572
# Shear Modulus (GPa) = 9.67549 24.62960 17.15255
#
# Velocity S-wave (km/s) = 2.27931 3.63660 3.03481
# Velocity P-wave (km/s) = 5.67644 7.41084 6.60085
#
# Compressibility (1/GPa) = 0.02122756
#
# Stress axis : x y z
#
# Youngs Moduli (GPa) = 35.03529 68.38782 84.94038
#
# Poissons Ratio (x) = 0.37223 0.41671
# Poissons Ratio (y) = 0.19069 0.55266
# Poissons Ratio (z) = 0.17188 0.44497
#
# Static dielectric constant tensor:
#      x y z
#    x 3.216510 0.000000 0.000000 
#    y 0.000000 3.562860 0.000000 
#    z 0.000000 0.000000 3.732780 
# 
# 
# High freq. dielectric constant tensor:
#      x y z
#    x 1.693120 0.000000 0.000000 
#    y 0.000000 1.733140 0.000000 
#    z 0.000000 0.000000 1.738300 
# 
# From -- ./inp_files/30683.got.cif
#   From: 2010.03.12/outbox.cif.g09.slc.cpg/sg59_16_cif.got.tgz:30683.got - 2010.04.16 16:29:54.
