data_PCOD8242020
_publ_section_title
;
Structure prediction by ZEFSAII (Michael W. Deem and Ramdas Pophale) SiO2 
 PCOD8242020
Probable space group: P M M N
;
_chemical_formula_sum "Si O2"
_cell_formula_units_Z 64
_cell_length_a 8.867891
_cell_length_b 19.512237
_cell_length_c 18.998954
_cell_angle_alpha 90.000000
_cell_angle_beta 90.000000
_cell_angle_gamma 90.000000
_cell_volume 3287.434435
_symmetry_space_group_name_H-M "P M M N"
_symmetry_group_IT_number 59
_space_group.IT_coordinate_system_code '2'
_symmetry_cell_setting 'orthorhombic'
loop_
_space_group_symop_operation_xyz
x,y,z
1/2-x,1/2-y,z
1/2+x,-y,-z
-x,1/2+y,-z
-x,-y,-z
1/2+x,1/2+y,-z
1/2-x,y,z
x,1/2-y,z
loop_
_atom_site_type_symbol
_atom_site_label
_atom_site_fract_x
_atom_site_fract_y
_atom_site_fract_z
Si Si1 0.571635 0.671994 0.960867
Si Si2 0.425907 0.920150 0.080038
Si Si3 0.074080 0.012657 0.294661
Si Si4 0.927568 0.560062 0.856123
Si Si5 0.581295 0.176434 0.793831
Si Si6 0.574324 0.942160 0.549296
Si Si7 0.924319 0.624090 0.329685
Si Si8 0.927774 0.328112 0.530878
O O1 0.750000 0.677035 0.966759
O O2 0.504059 0.750000 0.962978
O O3 0.522526 0.633667 0.888170
O O4 0.516133 0.622399 0.022389
O O5 0.250000 0.918292 0.059542
O O6 0.458958 0.883669 0.153622
O O7 0.488683 0.997569 0.093611
O O8 0.250000 0.992185 0.288736
O O9 0.022458 0.056739 0.226004
O O10 0.041688 0.050946 0.367815
O O11 0.969056 0.946698 0.293170
O O12 0.750000 0.551526 0.859251
O O13 0.750000 0.165534 0.763591
O O14 0.569416 0.250000 0.833111
O O15 0.465469 0.180420 0.728592
O O16 0.750000 0.944623 0.532026
O O17 0.506825 0.867619 0.532923
O O18 0.500000 0.000000 0.500000
O O19 0.750000 0.627318 0.350851
O O20 0.024966 0.634083 0.398157
O O21 0.750000 0.333030 0.522072
O O22 0.984801 0.250000 0.530878
#
# Coordination Sequence:
#
# PCOD8242020 Si02
#       8
#     8   8   8   8   8   8   8   8
#     4  10  21  36  55  82 115 147 182 233 293 340
#     4  10  19  34  58  82 107 146 192 232 272 333
#     4  10  20  38  61  83 111 148 192 236 283 343
#     4   9  18  36  60  82 108 147 192 233 276 334
#     4  10  20  34  52  75 108 151 190 223 271 339
#     4  11  22  36  61  90 117 151 191 241 292 345
#     4  12  23  34  54  83 116 149 185 236 288 341
#     4  11  24  41  60  82 115 159 198 236 289 349
#
# _framework density 19.468069
#
# number of rings (size 3 to 8) (size 9 to 14) (size 15 to 20)
#    0.000    1.625    2.500    3.000    0.000    4.500 
#    0.000    1.250    0.000    2.250    0.000    0.000 
#    0.000    0.000    0.000    0.000    0.000    0.000 
#
# Total GULP energy -793237.430559 kJ/mol
# GULP energy per Si atom -12394.334852 kJ/mol
# Density = 1.942376 g / cm^3
# Si number density = 19.468069 Si / 1000 Ang^3
#
#
#
# Elastic Constant Matrix: (Units=GPa)
#
#
# Indices 1 2 3 4 5 6 
#
# 1 51.2914 25.2774 34.0485 0.0000 0.0000 0.0000
# 2 25.2774 110.6872 67.5383 0.0000 0.0000 0.0000
# 3 34.0485 67.5383 109.1221 0.0000 0.0000 0.0000
# 4 0.0000 0.0000 0.0000 13.0879 0.0000 0.0000
# 5 0.0000 0.0000 0.0000 0.0000 25.7400 0.0000
# 6 0.0000 0.0000 0.0000 0.0000 0.0000 24.5542
#
#
#
# Elastic Compliance Matrix: (Units=1/GPa)
#
#
# Indices 1 2 3 4 5 6 
#
# 1 0.024746 -0.001510 -0.006787 0.000000 0.000000 0.000000
# 2 -0.001510 0.014609 -0.008571 0.000000 0.000000 0.000000
# 3 -0.006787 -0.008571 0.016586 0.000000 0.000000 0.000000
# 4 0.000000 0.000000 0.000000 0.076407 0.000000 0.000000
# 5 0.000000 0.000000 0.000000 0.000000 0.038850 0.000000
# 6 0.000000 0.000000 0.000000 0.000000 0.000000 0.040726
#
#
# Mechanical properties :
#
#
# Convention : Reuss Voigt Hill
#
# Bulk Modulus (GPa) = 45.03250 58.31436 51.67343
# Shear Modulus (GPa) = 19.75813 22.29218 21.02516
#
# Velocity S-wave (km/s) = 3.18920 3.38755 3.28987
# Velocity P-wave (km/s) = 6.06160 6.73198 6.40557
#
# Compressibility (1/GPa) = 0.02220618
#
# Stress axis : x y z
#
# Youngs Moduli (GPa) = 40.41097 68.45153 60.29129
#
# Poissons Ratio (x) = 0.10337 0.40917
# Poissons Ratio (y) = 0.06103 0.51673
# Poissons Ratio (z) = 0.27425 0.58667
#
# Static dielectric constant tensor:
#      x y z
#    x 3.397070 0.000000 0.000000 
#    y 0.000000 3.878480 0.000000 
#    z 0.000000 0.000000 3.755470 
# 
# 
# High freq. dielectric constant tensor:
#      x y z
#    x 1.737670 0.000000 0.000000 
#    y 0.000000 1.759880 0.000000 
#    z 0.000000 0.000000 1.759770 
# 
# From -- ./inp_files/29426.got.cif
#   From: 2010.03.12/outbox.cif.g09.slc.cpg/sg59_15_cif.got.tgz:29426.got - 2010.04.16 16:29:54.
