data_PCOD8242552
_publ_section_title
;
Structure prediction by ZEFSAII (Michael W. Deem and Ramdas Pophale) SiO2 
 PCOD8242552
Probable space group: P M M N
;
_chemical_formula_sum "Si O2"
_cell_formula_units_Z 56
_cell_length_a 18.120344
_cell_length_b 9.240396
_cell_length_c 15.727740
_cell_angle_alpha 90.000000
_cell_angle_beta 90.000000
_cell_angle_gamma 90.000000
_cell_volume 2633.439483
_symmetry_space_group_name_H-M "P M M N"
_symmetry_group_IT_number 59
_space_group.IT_coordinate_system_code '2'
_symmetry_cell_setting 'orthorhombic'
loop_
_space_group_symop_operation_xyz
x,y,z
1/2-x,1/2-y,z
1/2+x,-y,-z
-x,1/2+y,-z
-x,-y,-z
1/2+x,1/2+y,-z
1/2-x,y,z
x,1/2-y,z
loop_
_atom_site_type_symbol
_atom_site_label
_atom_site_fract_x
_atom_site_fract_y
_atom_site_fract_z
Si Si1 0.978450 0.918288 0.137816
Si Si2 0.667539 0.906547 0.874683
Si Si3 0.663732 0.917691 0.401804
Si Si4 0.664263 0.407842 0.725457
Si Si5 0.457981 0.580739 0.691396
Si Si6 0.604372 0.083489 0.004411
Si Si7 0.900507 0.913718 0.584707
O O1 0.958184 0.750000 0.150704
O O2 0.044039 0.937528 0.070275
O O3 0.992275 0.993887 0.228753
O O4 0.911899 0.006794 0.093735
O O5 0.750000 0.877051 0.843881
O O6 0.627158 0.750000 0.886453
O O7 0.626603 0.995932 0.799545
O O8 0.672133 0.996372 0.962669
O O9 0.750000 0.964340 0.411313
O O10 0.659359 0.750000 0.374879
O O11 0.616239 0.945075 0.486788
O O12 0.622528 0.014955 0.331275
O O13 0.750000 0.387565 0.743579
O O14 0.625430 0.250000 0.728802
O O15 0.653338 0.479479 0.634533
O O16 0.448780 0.750000 0.713409
O O17 0.514414 0.558367 0.611886
O O18 0.623412 0.250000 0.021495
O O19 0.877863 0.750000 0.607894
#
# Coordination Sequence:
#
# PCOD8242552 Si02
#       7
#     8   8   8   8   8   8   8
#     4  10  21  37  58  83 113 148 184 226 278 335
#     4  10  20  33  50  74 108 150 190 228 275 333
#     4  10  22  41  63  85 113 152 194 234 281 339
#     4  10  20  32  49  78 115 153 193 238 288 340
#     4  11  23  38  59  88 118 148 187 236 285 334
#     4  10  20  35  57  84 112 144 184 232 282 330
#     4  10  21  37  59  86 115 149 188 231 283 344
#
# _framework density 21.264966000000001
#
# number of rings (size 3 to 8) (size 9 to 14) (size 15 to 20)
#    0.000    1.857    0.000    3.857    0.000    8.286 
#    0.000    0.714    0.000    4.286    0.000    0.000 
#    0.000    0.000    0.000    0.000    0.000    0.000 
#
# Total GULP energy -694030.963378 kJ/mol
# GULP energy per Si atom -12393.410060 kJ/mol
# Density = 2.121657 g / cm^3
# Si number density = 21.264966 Si / 1000 Ang^3
#
#
#
# Elastic Constant Matrix: (Units=GPa)
#
#
# Indices 1 2 3 4 5 6 
#
# 1 64.2982 37.0352 26.7725 0.0000 0.0000 0.0000
# 2 37.0352 152.7564 48.8189 0.0000 0.0000 0.0000
# 3 26.7725 48.8189 68.1168 0.0000 0.0000 0.0000
# 4 0.0000 0.0000 0.0000 39.9248 0.0000 0.0000
# 5 0.0000 0.0000 0.0000 0.0000 34.4535 0.0000
# 6 0.0000 0.0000 0.0000 0.0000 0.0000 26.3823
#
#
#
# Elastic Compliance Matrix: (Units=1/GPa)
#
#
# Indices 1 2 3 4 5 6 
#
# 1 0.019581 -0.002967 -0.005569 0.000000 0.000000 0.000000
# 2 -0.002967 0.008941 -0.005242 0.000000 0.000000 0.000000
# 3 -0.005569 -0.005242 0.020626 0.000000 0.000000 0.000000
# 4 0.000000 0.000000 0.000000 0.025047 0.000000 0.000000
# 5 0.000000 0.000000 0.000000 0.000000 0.029025 0.000000
# 6 0.000000 0.000000 0.000000 0.000000 0.000000 0.037904
#
#
# Mechanical properties :
#
#
# Convention : Reuss Voigt Hill
#
# Bulk Modulus (GPa) = 46.31492 56.71384 51.51438
# Shear Modulus (GPa) = 28.42889 31.65510 30.04199
#
# Velocity S-wave (km/s) = 3.66032 3.86243 3.76273
# Velocity P-wave (km/s) = 6.30009 6.82782 6.56925
#
# Compressibility (1/GPa) = 0.02159132
#
# Stress axis : x y z
#
# Youngs Moduli (GPa) = 51.07084 111.84484 48.48195
#
# Poissons Ratio (x) = 0.33189 0.27001
# Poissons Ratio (y) = 0.15155 0.25412
# Poissons Ratio (z) = 0.28443 0.58625
#
# Static dielectric constant tensor:
#      x y z
#    x 3.602360 0.000000 0.000000 
#    y 0.000000 4.184830 0.000000 
#    z 0.000000 0.000000 3.725770 
# 
# 
# High freq. dielectric constant tensor:
#      x y z
#    x 1.812390 0.000000 0.000000 
#    y 0.000000 1.849380 0.000000 
#    z 0.000000 0.000000 1.822800 
# 
# From -- ./inp_files/24185.got.cif
#   From: 2010.03.12/outbox.cif.g09.slc.cpg/sg59_13_cif.got.tgz:24185.got - 2010.04.16 16:29:54.
