data_PCOD8242934
_publ_section_title
;
Structure prediction by ZEFSAII (Michael W. Deem and Ramdas Pophale) SiO2 
 PCOD8242934
Probable space group: P M M N
;
_chemical_formula_sum "Si O2"
_cell_formula_units_Z 56
_cell_length_a 19.271589
_cell_length_b 8.662263
_cell_length_c 17.703277
_cell_angle_alpha 90.000000
_cell_angle_beta 90.000000
_cell_angle_gamma 90.000000
_cell_volume 2955.306678
_symmetry_space_group_name_H-M "P M M N"
_symmetry_group_IT_number 59
_space_group.IT_coordinate_system_code '2'
_symmetry_cell_setting 'orthorhombic'
loop_
_space_group_symop_operation_xyz
x,y,z
1/2-x,1/2-y,z
1/2+x,-y,-z
-x,1/2+y,-z
-x,-y,-z
1/2+x,1/2+y,-z
1/2-x,y,z
x,1/2-y,z
loop_
_atom_site_type_symbol
_atom_site_label
_atom_site_fract_x
_atom_site_fract_y
_atom_site_fract_z
Si Si1 0.566444 0.931829 0.296229
Si Si2 0.831589 0.426474 0.581985
Si Si3 0.171805 0.066817 0.999106
Si Si4 0.829400 0.929660 0.425945
Si Si5 0.930760 0.567833 0.127092
Si Si6 0.586707 0.431791 0.868581
Si Si7 0.579110 0.570440 0.708802
O O1 0.550698 0.750000 0.298915
O O2 0.626342 0.981739 0.353684
O O3 0.590458 0.981393 0.212001
O O4 0.496872 0.020601 0.319301
O O5 0.750000 0.451391 0.590373
O O6 0.853625 0.250000 0.595947
O O7 0.855533 0.475045 0.498184
O O8 0.867395 0.536570 0.642275
O O9 0.250000 0.003076 0.989148
O O10 0.171860 0.250000 0.995387
O O11 0.142636 0.015665 0.079608
O O12 0.123611 0.995090 0.932442
O O13 0.750000 0.968391 0.406353
O O14 0.839626 0.750000 0.444045
O O15 0.928675 0.750000 0.119356
O O16 0.009061 0.510432 0.109487
O O17 0.594334 0.250000 0.878745
O O18 0.602444 0.474847 0.782225
O O19 0.580113 0.750000 0.728798
#
# Coordination Sequence:
#
# PCOD8242934 Si02
#       7
#     8   8   8   8   8   8   8
#     4   9  18  34  55  80 110 141 176 217 260 308
#     4  10  21  37  56  77 104 139 176 215 263 317
#     4  10  20  33  51  78 109 137 170 213 257 303
#     4   9  18  33  54  80 109 142 179 217 258 306
#     4   8  16  32  53  76 102 136 174 210 252 301
#     4  10  20  36  56  75 101 137 175 214 258 311
#     4  11  22  36  56  80 105 134 173 220 266 313
#
# _framework density 18.948962999999999
#
# number of rings (size 3 to 8) (size 9 to 14) (size 15 to 20)
#    0.000    2.429    0.000    3.429    0.000    3.429 
#    0.000    5.714    0.000    0.000    0.000    2.000 
#    0.000    0.000    0.000    0.000    0.000    0.000 
#
# Total GULP energy -694477.246246 kJ/mol
# GULP energy per Si atom -12401.379397 kJ/mol
# Density = 1.890583 g / cm^3
# Si number density = 18.948963 Si / 1000 Ang^3
#
#
#
# Elastic Constant Matrix: (Units=GPa)
#
#
# Indices 1 2 3 4 5 6 
#
# 1 96.3017 24.8919 67.9821 0.0000 0.0000 0.0000
# 2 24.8919 29.0363 15.3619 0.0000 0.0000 0.0000
# 3 67.9821 15.3619 108.8088 0.0000 0.0000 0.0000
# 4 0.0000 0.0000 0.0000 26.6070 0.0000 0.0000
# 5 0.0000 0.0000 0.0000 0.0000 35.2048 0.0000
# 6 0.0000 0.0000 0.0000 0.0000 0.0000 23.2824
#
#
#
# Elastic Compliance Matrix: (Units=1/GPa)
#
#
# Indices 1 2 3 4 5 6 
#
# 1 0.022162 -0.012616 -0.012066 0.000000 0.000000 0.000000
# 2 -0.012616 0.044401 0.001613 0.000000 0.000000 0.000000
# 3 -0.012066 0.001613 0.016501 0.000000 0.000000 0.000000
# 4 0.000000 0.000000 0.000000 0.037584 0.000000 0.000000
# 5 0.000000 0.000000 0.000000 0.000000 0.028405 0.000000
# 6 0.000000 0.000000 0.000000 0.000000 0.000000 0.042951
#
#
# Mechanical properties :
#
#
# Convention : Reuss Voigt Hill
#
# Bulk Modulus (GPa) = 27.07912 50.06872 38.57392
# Shear Modulus (GPa) = 19.96407 25.41291 22.68849
#
# Velocity S-wave (km/s) = 3.24940 3.66611 3.46402
# Velocity P-wave (km/s) = 5.32913 6.66339 6.03326
#
# Compressibility (1/GPa) = 0.03692883
#
# Stress axis : x y z
#
# Youngs Moduli (GPa) = 45.12151 22.52196 60.60220
#
# Poissons Ratio (x) = 0.28413 0.73120
# Poissons Ratio (y) = 0.56924 -0.09778
# Poissons Ratio (z) = 0.54442 -0.03634
#
# Static dielectric constant tensor:
#      x y z
#    x 3.590950 0.000000 0.000000 
#    y 0.000000 3.278740 0.000000 
#    z 0.000000 0.000000 3.585370 
# 
# 
# High freq. dielectric constant tensor:
#      x y z
#    x 1.733220 0.000000 0.000000 
#    y 0.000000 1.720020 0.000000 
#    z 0.000000 0.000000 1.744490 
# 
# From -- ./inp_files/24251.got.cif
#   From: 2010.03.12/outbox.cif.g09.slc.cpg/sg59_13_cif.got.tgz:24251.got - 2010.04.16 16:29:54.
