data_PCOD8242659
_publ_section_title
;
Structure prediction by ZEFSAII (Michael W. Deem and Ramdas Pophale) SiO2 
 PCOD8242659
Probable space group: P M M N
;
_chemical_formula_sum "Si O2"
_cell_formula_units_Z 48
_cell_length_a 13.614307
_cell_length_b 9.562232
_cell_length_c 20.751931
_cell_angle_alpha 90.000000
_cell_angle_beta 90.000000
_cell_angle_gamma 90.000000
_cell_volume 2701.551996
_symmetry_space_group_name_H-M "P M M N"
_symmetry_group_IT_number 59
_space_group.IT_coordinate_system_code '2'
_symmetry_cell_setting 'orthorhombic'
loop_
_space_group_symop_operation_xyz
x,y,z
1/2-x,1/2-y,z
1/2+x,-y,-z
-x,1/2+y,-z
-x,-y,-z
1/2+x,1/2+y,-z
1/2-x,y,z
x,1/2-y,z
loop_
_atom_site_type_symbol
_atom_site_label
_atom_site_fract_x
_atom_site_fract_y
_atom_site_fract_z
Si Si1 0.859626 0.089641 0.410151
Si Si2 0.633846 0.592536 0.528184
Si Si3 0.862854 0.087331 0.038579
Si Si4 0.863037 0.085743 0.776172
Si Si5 0.954074 0.589126 0.662661
Si Si6 0.469835 0.588014 0.092926
O O1 0.750000 0.038277 0.391545
O O2 0.858821 0.250000 0.432439
O O3 0.928639 0.070061 0.347639
O O4 0.905424 0.004343 0.470214
O O5 0.750000 0.586557 0.528048
O O6 0.594589 0.750000 0.516961
O O7 0.598195 0.537617 0.597310
O O8 0.750000 0.039985 0.046098
O O9 0.875326 0.250000 0.055070
O O10 0.896860 0.054822 0.965946
O O11 0.929799 0.000283 0.088120
O O12 0.750000 0.037769 0.777267
O O13 0.871862 0.250000 0.763689
O O14 0.912161 0.042527 0.843366
O O15 0.920670 0.007181 0.720481
O O16 0.926803 0.750000 0.678070
O O17 0.499647 0.750000 0.094316
#
# Coordination Sequence:
#
# PCOD8242659 Si02
#       6
#     8   8   8   8   8   8
#     4   9  18  32  49  69  93 123 161 203 245 289
#     4   9  17  29  46  69  95 122 155 199 250 296
#     4   9  17  31  53  79 105 133 166 204 245 288
#     4  10  21  36  53  73  98 129 163 198 239 289
#     4  10  20  33  49  70  98 130 162 199 243 289
#     4   9  18  33  52  75 104 135 166 202 244 288
#
# _framework density 17.767565999999999
#
# number of rings (size 3 to 8) (size 9 to 14) (size 15 to 20)
#    0.000    2.667    0.000    1.500    0.000    5.333 
#    0.000    2.500    0.000    6.000    0.000    0.000 
#    0.000    0.000    0.000    0.000    0.000    0.000 
#
# Total GULP energy -595194.151107 kJ/mol
# GULP energy per Si atom -12399.878148 kJ/mol
# Density = 1.772713 g / cm^3
# Si number density = 17.767566 Si / 1000 Ang^3
#
#
#
# Elastic Constant Matrix: (Units=GPa)
#
#
# Indices 1 2 3 4 5 6 
#
# 1 104.7324 43.0485 58.1712 0.0000 0.0000 0.0000
# 2 43.0485 53.9977 50.9092 0.0000 0.0000 0.0000
# 3 58.1712 50.9092 110.2023 0.0000 0.0000 0.0000
# 4 0.0000 0.0000 0.0000 33.9019 0.0000 0.0000
# 5 0.0000 0.0000 0.0000 0.0000 26.9325 0.0000
# 6 0.0000 0.0000 0.0000 0.0000 0.0000 28.0125
#
#
#
# Elastic Compliance Matrix: (Units=1/GPa)
#
#
# Indices 1 2 3 4 5 6 
#
# 1 0.015281 -0.008110 -0.004320 0.000000 0.000000 0.000000
# 2 -0.008110 0.037112 -0.012864 0.000000 0.000000 0.000000
# 3 -0.004320 -0.012864 0.017297 0.000000 0.000000 0.000000
# 4 0.000000 0.000000 0.000000 0.029497 0.000000 0.000000
# 5 0.000000 0.000000 0.000000 0.000000 0.037130 0.000000
# 6 0.000000 0.000000 0.000000 0.000000 0.000000 0.035698
#
#
# Mechanical properties :
#
#
# Convention : Reuss Voigt Hill
#
# Bulk Modulus (GPa) = 52.34513 63.68778 58.01646
# Shear Modulus (GPa) = 21.83695 25.55628 23.69662
#
# Velocity S-wave (km/s) = 3.50956 3.79670 3.65595
# Velocity P-wave (km/s) = 6.77847 7.42581 7.10951
#
# Compressibility (1/GPa) = 0.01910397
#
# Stress axis : x y z
#
# Youngs Moduli (GPa) = 65.44182 26.94510 57.81332
#
# Poissons Ratio (x) = 0.21851 0.24974
# Poissons Ratio (y) = 0.53070 0.74370
# Poissons Ratio (z) = 0.28269 0.34662
#
# Static dielectric constant tensor:
#      x y z
#    x 3.520190 0.000000 0.000000 
#    y 0.000000 3.335310 0.000000 
#    z 0.000000 0.000000 3.127950 
# 
# 
# High freq. dielectric constant tensor:
#      x y z
#    x 1.701510 0.000000 0.000000 
#    y 0.000000 1.681440 0.000000 
#    z 0.000000 0.000000 1.668970 
# 
# From -- ./inp_files/25492.got.cif
#   From: 2010.03.12/outbox.cif.g09.slc.cpg/sg59_13_cif.got.tgz:25492.got - 2010.04.16 16:29:54.
