data_PCOD8242190
_publ_section_title
;
Structure prediction by ZEFSAII (Michael W. Deem and Ramdas Pophale) SiO2 
 PCOD8242190
Probable space group: P M M N
;
_chemical_formula_sum "Si O2"
_cell_formula_units_Z 56
_cell_length_a 14.563984
_cell_length_b 19.367019
_cell_length_c 9.842749
_cell_angle_alpha 90.000000
_cell_angle_beta 90.000000
_cell_angle_gamma 90.000000
_cell_volume 2776.255181
_symmetry_space_group_name_H-M "P M M N"
_symmetry_group_IT_number 59
_space_group.IT_coordinate_system_code '2'
_symmetry_cell_setting 'orthorhombic'
loop_
_space_group_symop_operation_xyz
x,y,z
1/2-x,1/2-y,z
1/2+x,-y,-z
-x,1/2+y,-z
-x,-y,-z
1/2+x,1/2+y,-z
1/2-x,y,z
x,1/2-y,z
loop_
_atom_site_type_symbol
_atom_site_label
_atom_site_fract_x
_atom_site_fract_y
_atom_site_fract_z
Si Si1 0.852259 0.116399 0.771662
Si Si2 0.643838 0.541510 0.824991
Si Si3 0.644341 0.323143 0.053792
Si Si4 0.642540 0.918015 0.129171
Si Si5 0.518083 0.572498 0.570842
Si Si6 0.857051 0.065144 0.254442
Si Si7 0.531627 0.832159 0.336250
O O1 0.750000 0.121203 0.708066
O O2 0.926337 0.141161 0.662600
O O3 0.870441 0.040538 0.831423
O O4 0.865728 0.169550 0.893593
O O5 0.750000 0.559678 0.796366
O O6 0.583306 0.570590 0.702602
O O7 0.613849 0.573611 0.970987
O O8 0.750000 0.320126 0.095476
O O9 0.596919 0.250000 0.094796
O O10 0.603596 0.388258 0.131857
O O11 0.750000 0.900574 0.139736
O O12 0.585504 0.856269 0.200308
O O13 0.619223 0.986952 0.213197
O O14 0.500000 0.500000 0.500000
O O15 0.414577 0.591559 0.616614
O O16 0.566873 0.628914 0.472310
O O17 0.750000 0.073535 0.287610
O O18 0.541102 0.750000 0.351517
#
# Coordination Sequence:
#
# PCOD8242190 Si02
#       7
#     8   8   8   8   8   8   8
#     4  10  19  35  61  93 127 160 197 243 302 375
#     4  10  21  39  68  98 121 155 210 270 315 359
#     4   9  17  30  51  85 125 159 191 234 295 360
#     4  10  21  41  68  94 119 156 212 271 316 362
#     4  12  24  40  60  91 126 168 206 251 309 377
#     4  10  20  35  60  91 123 161 205 251 300 363
#     4  12  27  43  60  90 127 167 209 255 314 377
#
# _framework density 20.171056
#
# number of rings (size 3 to 8) (size 9 to 14) (size 15 to 20)
#    0.000    1.571    4.286    0.429    2.000    4.571 
#    0.000    0.714    0.000    0.857    0.000    0.000 
#    0.000    0.000    0.000    0.000    0.000    0.000 
#
# Total GULP energy -693936.860819 kJ/mol
# GULP energy per Si atom -12391.729657 kJ/mol
# Density = 2.012515 g / cm^3
# Si number density = 20.171056 Si / 1000 Ang^3
#
#
#
# Elastic Constant Matrix: (Units=GPa)
#
#
# Indices 1 2 3 4 5 6 
#
# 1 77.7346 37.7388 46.3299 0.0000 0.0000 0.0000
# 2 37.7388 119.5345 51.1549 0.0000 0.0000 0.0000
# 3 46.3299 51.1549 112.8802 0.0000 0.0000 0.0000
# 4 0.0000 0.0000 0.0000 17.0978 0.0000 0.0000
# 5 0.0000 0.0000 0.0000 0.0000 34.7286 0.0000
# 6 0.0000 0.0000 0.0000 0.0000 0.0000 15.7872
#
#
#
# Elastic Compliance Matrix: (Units=1/GPa)
#
#
# Indices 1 2 3 4 5 6 
#
# 1 0.017918 -0.003114 -0.005943 0.000000 0.000000 0.000000
# 2 -0.003114 0.010920 -0.003671 0.000000 0.000000 0.000000
# 3 -0.005943 -0.003671 0.012962 0.000000 0.000000 0.000000
# 4 0.000000 0.000000 0.000000 0.058487 0.000000 0.000000
# 5 0.000000 0.000000 0.000000 0.000000 0.028795 0.000000
# 6 0.000000 0.000000 0.000000 0.000000 0.000000 0.063343
#
#
# Mechanical properties :
#
#
# Convention : Reuss Voigt Hill
#
# Bulk Modulus (GPa) = 61.18237 64.51074 62.84655
# Shear Modulus (GPa) = 22.38873 25.18443 23.78658
#
# Velocity S-wave (km/s) = 3.33520 3.53731 3.43774
# Velocity P-wave (km/s) = 6.72525 6.98102 6.85433
#
# Compressibility (1/GPa) = 0.01634458
#
# Stress axis : x y z
#
# Youngs Moduli (GPa) = 55.80975 91.57812 77.15062
#
# Poissons Ratio (x) = 0.28514 0.45852
# Poissons Ratio (y) = 0.17377 0.28319
# Poissons Ratio (z) = 0.33169 0.33615
#
# Static dielectric constant tensor:
#      x y z
#    x 3.712330 0.000000 0.000000 
#    y 0.000000 3.684750 0.000000 
#    z 0.000000 0.000000 4.064560 
# 
# 
# High freq. dielectric constant tensor:
#      x y z
#    x 1.782070 0.000000 0.000000 
#    y 0.000000 1.772140 0.000000 
#    z 0.000000 0.000000 1.786140 
# 
# From -- ./inp_files/9338.got.cif
#   From: 2010.03.12/outbox.cif.g09.slc.cpg/sg59_5_cif.got.tgz:9338.got - 2010.04.16 16:29:54.
