data_PCOD8242351
_publ_section_title
;
Structure prediction by ZEFSAII (Michael W. Deem and Ramdas Pophale) SiO2 
 PCOD8242351
Probable space group: P M M N
;
_chemical_formula_sum "Si O2"
_cell_formula_units_Z 64
_cell_length_a 23.024039
_cell_length_b 9.635828
_cell_length_c 19.832851
_cell_angle_alpha 90.000000
_cell_angle_beta 90.000000
_cell_angle_gamma 90.000000
_cell_volume 4400.030638
_symmetry_space_group_name_H-M "P M M N"
_symmetry_group_IT_number 59
_space_group.IT_coordinate_system_code '2'
_symmetry_cell_setting 'orthorhombic'
loop_
_space_group_symop_operation_xyz
x,y,z
1/2-x,1/2-y,z
1/2+x,-y,-z
-x,1/2+y,-z
-x,-y,-z
1/2+x,1/2+y,-z
1/2-x,y,z
x,1/2-y,z
loop_
_atom_site_type_symbol
_atom_site_label
_atom_site_fract_x
_atom_site_fract_y
_atom_site_fract_z
Si Si1 0.390222 0.086590 0.317097
Si Si2 0.079507 0.403480 0.463283
Si Si3 0.480225 0.586881 0.720706
Si Si4 0.554458 0.096231 0.423475
Si Si5 0.182641 0.909731 0.218505
Si Si6 0.557513 0.588047 0.012172
Si Si7 0.026565 0.405955 0.843599
Si Si8 0.900307 0.410280 0.902097
O O1 0.379941 0.250000 0.308011
O O2 0.387084 0.045102 0.396222
O O3 0.452553 0.043534 0.286962
O O4 0.340112 0.003347 0.279445
O O5 0.100927 0.250000 0.482852
O O6 0.093055 0.500602 0.527407
O O7 0.011594 0.400170 0.447550
O O8 0.474589 0.750000 0.732534
O O9 0.444440 0.542293 0.653768
O O10 0.452818 0.508258 0.784515
O O11 0.581237 0.250000 0.427476
O O12 0.250000 0.940765 0.207887
O O13 0.170510 0.750000 0.237348
O O14 0.151302 0.948215 0.148665
O O15 0.549767 0.750000 0.990984
O O16 0.570268 0.578650 0.092439
O O17 0.500000 0.500000 0.000000
O O18 0.606945 0.512727 0.966960
O O19 0.028868 0.250000 0.815085
O O20 0.961078 0.442322 0.865628
O O21 0.897580 0.250000 0.925970
#
# Coordination Sequence:
#
# PCOD8242351 Si02
#       8
#     8   8   8   8   8   8   8   8
#     4   9  17  28  40  55  74  98 130 166 199 233
#     4   8  14  24  36  50  70  95 125 158 190 222
#     4   9  16  24  36  54  77 103 129 158 191 225
#     4   8  14  23  33  50  73  96 125 156 183 218
#     4  10  20  32  44  58  77 101 132 171 209 241
#     4   9  17  27  39  56  76  98 126 160 195 233
#     4   9  16  25  37  55  76  99 129 160 189 230
#     4   9  17  29  41  55  74  97 129 165 199 238
#
# _framework density 14.545353
#
# number of rings (size 3 to 8) (size 9 to 14) (size 15 to 20)
#    0.000    3.125    1.250    2.625    0.000    4.250 
#    0.000    2.500    0.000    0.000    0.000    0.000 
#    0.000    0.000    0.000    1.125    0.000   18.750 
#
# Total GULP energy -793141.979286 kJ/mol
# GULP energy per Si atom -12392.843426 kJ/mol
# Density = 1.451225 g / cm^3
# Si number density = 14.545353 Si / 1000 Ang^3
#
#
#
# Elastic Constant Matrix: (Units=GPa)
#
#
# Indices 1 2 3 4 5 6 
#
# 1 35.1184 24.2728 34.6016 0.0000 0.0000 0.0000
# 2 24.2728 77.2026 71.7170 0.0000 0.0000 0.0000
# 3 34.6016 71.7170 127.8844 0.0000 0.0000 0.0000
# 4 0.0000 0.0000 0.0000 33.4561 0.0000 0.0000
# 5 0.0000 0.0000 0.0000 0.0000 13.6457 0.0000
# 6 0.0000 0.0000 0.0000 0.0000 0.0000 12.9018
#
#
#
# Elastic Compliance Matrix: (Units=1/GPa)
#
#
# Indices 1 2 3 4 5 6 
#
# 1 0.039816 -0.005241 -0.007834 0.000000 0.000000 0.000000
# 2 -0.005241 0.027729 -0.014132 0.000000 0.000000 0.000000
# 3 -0.007834 -0.014132 0.017864 0.000000 0.000000 0.000000
# 4 0.000000 0.000000 0.000000 0.029890 0.000000 0.000000
# 5 0.000000 0.000000 0.000000 0.000000 0.073283 0.000000
# 6 0.000000 0.000000 0.000000 0.000000 0.000000 0.077508
#
#
# Mechanical properties :
#
#
# Convention : Reuss Voigt Hill
#
# Bulk Modulus (GPa) = 32.26310 55.70979 43.98644
# Shear Modulus (GPa) = 15.11321 19.30832 17.21077
#
# Velocity S-wave (km/s) = 3.22691 3.64738 3.44357
# Velocity P-wave (km/s) = 6.00942 7.49144 6.79098
#
# Compressibility (1/GPa) = 0.03099516
#
# Stress axis : x y z
#
# Youngs Moduli (GPa) = 25.11544 36.06377 55.97750
#
# Poissons Ratio (x) = 0.18902 0.43852
# Poissons Ratio (y) = 0.13163 0.79107
# Poissons Ratio (z) = 0.19675 0.50965
#
# Static dielectric constant tensor:
#      x y z
#    x 2.341850 0.000000 0.000000 
#    y 0.000000 3.013160 0.000000 
#    z 0.000000 0.000000 3.113310 
# 
# 
# High freq. dielectric constant tensor:
#      x y z
#    x 1.479890 0.000000 0.000000 
#    y 0.000000 1.564150 0.000000 
#    z 0.000000 0.000000 1.564750 
# 
# From -- ./inp_files/31087.got.cif
#   From: 2010.03.12/outbox.cif.g09.slc.cpg/sg59_16_cif.got.tgz:31087.got - 2010.04.16 16:29:54.
