data_PCOD8242288
_publ_section_title
;
Structure prediction by ZEFSAII (Michael W. Deem and Ramdas Pophale) SiO2 
 PCOD8242288
Probable space group: P M M N
;
_chemical_formula_sum "Si O2"
_cell_formula_units_Z 64
_cell_length_a 25.047307
_cell_length_b 9.225299
_cell_length_c 17.725554
_cell_angle_alpha 90.000000
_cell_angle_beta 90.000000
_cell_angle_gamma 90.000000
_cell_volume 4095.824198
_symmetry_space_group_name_H-M "P M M N"
_symmetry_group_IT_number 59
_space_group.IT_coordinate_system_code '2'
_symmetry_cell_setting 'orthorhombic'
loop_
_space_group_symop_operation_xyz
x,y,z
1/2-x,1/2-y,z
1/2+x,-y,-z
-x,1/2+y,-z
-x,-y,-z
1/2+x,1/2+y,-z
1/2-x,y,z
x,1/2-y,z
loop_
_atom_site_type_symbol
_atom_site_label
_atom_site_fract_x
_atom_site_fract_y
_atom_site_fract_z
Si Si1 0.998525 0.417230 0.922070
Si Si2 0.313371 0.411155 0.381404
Si Si3 0.899168 0.919575 0.898218
Si Si4 0.686263 0.086890 0.476825
Si Si5 0.686482 0.913641 0.332430
Si Si6 0.687646 0.418156 0.184934
Si Si7 0.383279 0.085717 0.926592
Si Si8 0.309283 0.077503 0.215098
O O1 0.983380 0.250000 0.935419
O O2 0.058159 0.430177 0.887564
O O3 0.952651 0.494250 0.871990
O O4 0.000000 0.500000 0.000000
O O5 0.250000 0.402051 0.387354
O O6 0.337312 0.250000 0.393851
O O7 0.336264 0.516410 0.446100
O O8 0.328675 0.472743 0.298508
O O9 0.909599 0.750000 0.885067
O O10 0.850592 0.979292 0.847401
O O11 0.885363 0.952975 0.984935
O O12 0.750000 0.086582 0.476579
O O13 0.664198 0.250000 0.470961
O O14 0.664059 0.995842 0.405952
O O15 0.750000 0.913458 0.334619
O O16 0.664067 0.750000 0.331610
O O17 0.666300 0.996166 0.257972
O O18 0.750000 0.445793 0.171802
O O19 0.675073 0.250000 0.197313
O O20 0.657385 0.475170 0.111400
O O21 0.362334 0.250000 0.916065
O O22 0.250000 0.015270 0.196943
O O23 0.306459 0.250000 0.214544
#
# Coordination Sequence:
#
# PCOD8242288 Si02
#       8
#     8   8   8   8   8   8   8   8
#     4   9  17  30  47  65  83 103 133 176 221 258
#     4   8  13  22  36  53  75 106 142 174 203 238
#     4   9  17  29  46  66  85 109 143 180 217 253
#     4   9  15  22  34  53  77 104 135 171 208 244
#     4   9  16  26  40  56  76 105 139 171 203 243
#     4  10  20  31  42  59  85 114 141 171 209 250
#     4   9  18  30  44  62  82 108 142 176 211 253
#     4   8  14  25  41  61  86 116 148 179 208 244
#
# _framework density 15.625671000000001
#
# number of rings (size 3 to 8) (size 9 to 14) (size 15 to 20)
#    0.000    3.125    0.000    3.000    0.000    6.750 
#    0.000    1.875    0.000    1.125    0.000    0.000 
#    0.000    1.000    0.000    3.000    0.000    5.000 
#
# Total GULP energy -793216.386408 kJ/mol
# GULP energy per Si atom -12394.006038 kJ/mol
# Density = 1.559011 g / cm^3
# Si number density = 15.625671 Si / 1000 Ang^3
#
#
#
# Elastic Constant Matrix: (Units=GPa)
#
#
# Indices 1 2 3 4 5 6 
#
# 1 46.1651 36.1270 36.4142 0.0000 0.0000 0.0000
# 2 36.1270 100.2412 50.3949 0.0000 0.0000 0.0000
# 3 36.4142 50.3949 92.2875 0.0000 0.0000 0.0000
# 4 0.0000 0.0000 0.0000 19.8998 0.0000 0.0000
# 5 0.0000 0.0000 0.0000 0.0000 1.6999 0.0000
# 6 0.0000 0.0000 0.0000 0.0000 0.0000 20.2401
#
#
#
# Elastic Compliance Matrix: (Units=1/GPa)
#
#
# Indices 1 2 3 4 5 6 
#
# 1 0.035500 -0.007929 -0.009678 0.000000 0.000000 0.000000
# 2 -0.007929 0.015522 -0.005347 0.000000 0.000000 0.000000
# 3 -0.009678 -0.005347 0.017574 0.000000 0.000000 0.000000
# 4 0.000000 0.000000 0.000000 0.050252 0.000000 0.000000
# 5 0.000000 0.000000 0.000000 0.000000 0.588261 0.000000
# 6 0.000000 0.000000 0.000000 0.000000 0.000000 0.049407
#
#
# Mechanical properties :
#
#
# Convention : Reuss Voigt Hill
#
# Bulk Modulus (GPa) = 44.07592 53.84066 48.95829
# Shear Modulus (GPa) = 6.17295 16.08514 11.12904
#
# Velocity S-wave (km/s) = 1.98975 3.21191 2.67166
# Velocity P-wave (km/s) = 5.79201 6.94885 6.39664
#
# Compressibility (1/GPa) = 0.02268813
#
# Stress axis : x y z
#
# Youngs Moduli (GPa) = 28.16924 64.42537 56.90147
#
# Poissons Ratio (x) = 0.51082 0.55067
# Poissons Ratio (y) = 0.22335 0.30428
# Poissons Ratio (z) = 0.27261 0.34451
#
# Static dielectric constant tensor:
#      x y z
#    x 2.970550 0.000000 0.000000 
#    y 0.000000 3.077420 0.000000 
#    z 0.000000 0.000000 3.052830 
# 
# 
# High freq. dielectric constant tensor:
#      x y z
#    x 1.549420 0.000000 0.000000 
#    y 0.000000 1.600220 0.000000 
#    z 0.000000 0.000000 1.592240 
# 
# From -- ./inp_files/28441.got.cif
#   From: 2010.03.12/outbox.cif.g09.slc.cpg/sg59_15_cif.got.tgz:28441.got - 2010.04.16 16:29:54.
