data_PCOD8242891
_publ_section_title
;
Structure prediction by ZEFSAII (Michael W. Deem and Ramdas Pophale) SiO2 
 PCOD8242891
Probable space group: P M M N
;
_chemical_formula_sum "Si O2"
_cell_formula_units_Z 64
_cell_length_a 18.117824
_cell_length_b 9.242547
_cell_length_c 19.972562
_cell_angle_alpha 90.000000
_cell_angle_beta 90.000000
_cell_angle_gamma 90.000000
_cell_volume 3344.502171
_symmetry_space_group_name_H-M "P M M N"
_symmetry_group_IT_number 59
_space_group.IT_coordinate_system_code '2'
_symmetry_cell_setting 'orthorhombic'
loop_
_space_group_symop_operation_xyz
x,y,z
1/2-x,1/2-y,z
1/2+x,-y,-z
-x,1/2+y,-z
-x,-y,-z
1/2+x,1/2+y,-z
1/2-x,y,z
x,1/2-y,z
loop_
_atom_site_type_symbol
_atom_site_label
_atom_site_fract_x
_atom_site_fract_y
_atom_site_fract_z
Si Si1 0.665006 0.908582 0.842375
Si Si2 0.943427 0.081797 0.093664
Si Si3 0.429864 0.081884 0.530628
Si Si4 0.334487 0.412367 0.403076
Si Si5 0.338501 0.911827 0.280271
Si Si6 0.411824 0.582985 0.057292
Si Si7 0.331720 0.920935 0.793467
Si Si8 0.835804 0.420179 0.359462
O O1 0.750000 0.887980 0.826656
O O2 0.627523 0.750000 0.848644
O O3 0.628217 0.996044 0.781037
O O4 0.657336 0.000272 0.910502
O O5 0.963030 0.250000 0.105395
O O6 0.890374 0.019311 0.152153
O O7 0.904562 0.060621 0.021889
O O8 0.017192 0.988288 0.092460
O O9 0.449228 0.250000 0.545644
O O10 0.367618 0.066728 0.475376
O O11 0.500000 0.000000 0.500000
O O12 0.395313 0.007791 0.596526
O O13 0.250000 0.452697 0.411888
O O14 0.345692 0.250000 0.375769
O O15 0.370383 0.519741 0.348711
O O16 0.250000 0.914698 0.279512
O O17 0.369145 0.750000 0.274412
O O18 0.410698 0.750000 0.077029
O O19 0.250000 0.984688 0.809239
O O20 0.327965 0.750000 0.800924
O O21 0.354340 0.961466 0.717571
O O22 0.750000 0.461092 0.375424
O O23 0.847742 0.250000 0.372188
#
# Coordination Sequence:
#
# PCOD8242891 Si02
#       8
#     8   8   8   8   8   8   8   8
#     4  10  20  34  52  74 103 140 180 219 263 318
#     4   9  18  34  55  77 105 143 183 223 270 326
#     4  11  23  38  55  78 111 147 183 224 270 322
#     4   9  18  34  55  76  99 134 178 217 260 320
#     4   9  17  30  50  76 103 128 161 210 259 303
#     4  10  20  33  51  76 107 143 183 227 273 323
#     4   8  15  31  57  86 110 136 178 228 274 326
#     4   9  18  35  60  86 111 141 179 225 278 335
#
# _framework density 19.135883
#
# number of rings (size 3 to 8) (size 9 to 14) (size 15 to 20)
#    0.000    2.625    0.000    2.625    0.000    5.000 
#    2.250    3.125    0.000    1.125    0.000    0.000 
#    0.000    0.000    0.000    0.000    0.000    0.000 
#
# Total GULP energy -793255.129361 kJ/mol
# GULP energy per Si atom -12394.611396 kJ/mol
# Density = 1.909233 g / cm^3
# Si number density = 19.135883 Si / 1000 Ang^3
#
#
#
# Elastic Constant Matrix: (Units=GPa)
#
#
# Indices 1 2 3 4 5 6 
#
# 1 58.2228 38.7639 52.2972 0.0000 0.0000 0.0000
# 2 38.7639 113.5129 59.3129 0.0000 0.0000 0.0000
# 3 52.2972 59.3129 118.8396 0.0000 0.0000 0.0000
# 4 0.0000 0.0000 0.0000 33.3411 0.0000 0.0000
# 5 0.0000 0.0000 0.0000 0.0000 32.1062 0.0000
# 6 0.0000 0.0000 0.0000 0.0000 0.0000 25.9827
#
#
#
# Elastic Compliance Matrix: (Units=1/GPa)
#
#
# Indices 1 2 3 4 5 6 
#
# 1 0.030032 -0.004532 -0.010954 0.000000 0.000000 0.000000
# 2 -0.004532 0.012601 -0.004295 0.000000 0.000000 0.000000
# 3 -0.010954 -0.004295 0.015379 0.000000 0.000000 0.000000
# 4 0.000000 0.000000 0.000000 0.029993 0.000000 0.000000
# 5 0.000000 0.000000 0.000000 0.000000 0.031147 0.000000
# 6 0.000000 0.000000 0.000000 0.000000 0.000000 0.038487
#
#
# Mechanical properties :
#
#
# Convention : Reuss Voigt Hill
#
# Bulk Modulus (GPa) = 54.20028 65.70259 59.95144
# Shear Modulus (GPa) = 24.58796 27.63276 26.11036
#
# Velocity S-wave (km/s) = 3.58846 3.80416 3.69788
# Velocity P-wave (km/s) = 6.74943 7.32836 7.04484
#
# Compressibility (1/GPa) = 0.01845009
#
# Stress axis : x y z
#
# Youngs Moduli (GPa) = 33.29774 79.35591 65.02410
#
# Poissons Ratio (x) = 0.35964 0.71229
# Poissons Ratio (y) = 0.15090 0.27928
# Poissons Ratio (z) = 0.36475 0.34084
#
# Static dielectric constant tensor:
#      x y z
#    x 3.732620 0.000000 0.000000 
#    y 0.000000 3.588550 0.000000 
#    z 0.000000 0.000000 3.674720 
# 
# 
# High freq. dielectric constant tensor:
#      x y z
#    x 1.719660 0.000000 0.000000 
#    y 0.000000 1.738160 0.000000 
#    z 0.000000 0.000000 1.753380 
# 
# From -- ./inp_files/28264.got.cif
#   From: 2010.03.12/outbox.cif.g09.slc.cpg/sg59_15_cif.got.tgz:28264.got - 2010.04.16 16:29:54.
