data_PCOD8242699
_publ_section_title
;
Structure prediction by ZEFSAII (Michael W. Deem and Ramdas Pophale) SiO2 
 PCOD8242699
Probable space group: P M M N
;
_chemical_formula_sum "Si O2"
_cell_formula_units_Z 48
_cell_length_a 14.866613
_cell_length_b 13.355524
_cell_length_c 12.928331
_cell_angle_alpha 90.000000
_cell_angle_beta 90.000000
_cell_angle_gamma 90.000000
_cell_volume 2566.938307
_symmetry_space_group_name_H-M "P M M N"
_symmetry_group_IT_number 59
_space_group.IT_coordinate_system_code '2'
_symmetry_cell_setting 'orthorhombic'
loop_
_space_group_symop_operation_xyz
x,y,z
1/2-x,1/2-y,z
1/2+x,-y,-z
-x,1/2+y,-z
-x,-y,-z
1/2+x,1/2+y,-z
1/2-x,y,z
x,1/2-y,z
loop_
_atom_site_type_symbol
_atom_site_label
_atom_site_fract_x
_atom_site_fract_y
_atom_site_fract_z
Si Si1 0.648869 0.935716 0.499635
Si Si2 0.530667 0.561305 0.689139
Si Si3 0.551865 0.636348 0.307245
Si Si4 0.348517 0.368351 0.896205
Si Si5 0.853576 0.632679 0.874647
Si Si6 0.148436 0.636046 0.611234
O O1 0.750000 0.911124 0.533354
O O2 0.585253 0.895179 0.591262
O O3 0.628138 0.873886 0.395137
O O4 0.636218 0.055479 0.481088
O O5 0.527399 0.441550 0.668426
O O6 0.581902 0.577093 0.795541
O O7 0.430785 0.611656 0.694323
O O8 0.515972 0.750000 0.302182
O O9 0.588067 0.596820 0.196540
O O10 0.250000 0.416556 0.879717
O O11 0.338598 0.250000 0.891931
O O12 0.385220 0.399191 0.009725
O O13 0.750000 0.600772 0.856898
O O14 0.864663 0.750000 0.857171
O O15 0.250000 0.623840 0.659056
O O16 0.136239 0.750000 0.569800
#
# Coordination Sequence:
#
# PCOD8242699 Si02
#       6
#     8   8   8   8   8   8
#     4  10  21  34  49  73 100 127 163 206 251 297
#     4  11  21  32  50  75 105 132 161 203 248 302
#     4  10  20  33  50  72 100 135 171 207 246 288
#     4   8  15  30  51  73  97 127 167 212 252 291
#     4   9  18  33  53  76 101 129 162 205 257 303
#     4   9  18  33  50  67  93 130 167 200 238 291
#
# _framework density 18.699318999999999
#
# number of rings (size 3 to 8) (size 9 to 14) (size 15 to 20)
#    0.000    2.500    0.000    4.500    0.000    5.667 
#    0.000    0.000    0.000    1.500    0.000    0.000 
#    0.000    5.333    0.000    0.167    0.000    0.000 
#
# Total GULP energy -594771.657314 kJ/mol
# GULP energy per Si atom -12391.076194 kJ/mol
# Density = 1.865676 g / cm^3
# Si number density = 18.699319 Si / 1000 Ang^3
#
#
#
# Elastic Constant Matrix: (Units=GPa)
#
#
# Indices 1 2 3 4 5 6 
#
# 1 93.5904 19.2644 53.3873 0.0000 0.0000 0.0000
# 2 19.2644 60.7366 13.1561 0.0000 0.0000 0.0000
# 3 53.3873 13.1561 116.9146 0.0000 0.0000 0.0000
# 4 0.0000 0.0000 0.0000 19.0067 0.0000 0.0000
# 5 0.0000 0.0000 0.0000 0.0000 24.2650 0.0000
# 6 0.0000 0.0000 0.0000 0.0000 0.0000 16.0978
#
#
#
# Elastic Compliance Matrix: (Units=1/GPa)
#
#
# Indices 1 2 3 4 5 6 
#
# 1 0.015095 -0.003377 -0.006513 0.000000 0.000000 0.000000
# 2 -0.003377 0.017631 -0.000442 0.000000 0.000000 0.000000
# 3 -0.006513 -0.000442 0.011577 0.000000 0.000000 0.000000
# 4 0.000000 0.000000 0.000000 0.052613 0.000000 0.000000
# 5 0.000000 0.000000 0.000000 0.000000 0.041212 0.000000
# 6 0.000000 0.000000 0.000000 0.000000 0.000000 0.062120
#
#
# Mechanical properties :
#
#
# Convention : Reuss Voigt Hill
#
# Bulk Modulus (GPa) = 42.30181 49.20635 45.75408
# Shear Modulus (GPa) = 21.85385 24.23615 23.04500
#
# Velocity S-wave (km/s) = 3.42233 3.60404 3.51436
# Velocity P-wave (km/s) = 6.18770 6.60988 6.40227
#
# Compressibility (1/GPa) = 0.02363965
#
# Stress axis : x y z
#
# Youngs Moduli (GPa) = 66.24602 56.71693 86.37779
#
# Poissons Ratio (x) = 0.19154 0.56258
# Poissons Ratio (y) = 0.22372 0.03817
# Poissons Ratio (z) = 0.43146 0.02506
#
# Static dielectric constant tensor:
#      x y z
#    x 3.554340 0.000000 0.000000 
#    y 0.000000 3.274560 0.000000 
#    z 0.000000 0.000000 3.552870 
# 
# 
# High freq. dielectric constant tensor:
#      x y z
#    x 1.719660 0.000000 0.000000 
#    y 0.000000 1.708900 0.000000 
#    z 0.000000 0.000000 1.716530 
# 
# From -- ./inp_files/16860.got.cif
#   From: 2010.03.12/outbox.cif.g09.slc.cpg/sg59_9_cif.got.tgz:16860.got - 2010.04.16 16:29:54.
