data_PCOD8242457
_publ_section_title
;
Structure prediction by ZEFSAII (Michael W. Deem and Ramdas Pophale) SiO2 
 PCOD8242457
Probable space group: P M M N
;
_chemical_formula_sum "Si O2"
_cell_formula_units_Z 48
_cell_length_a 15.463581
_cell_length_b 9.464839
_cell_length_c 18.218722
_cell_angle_alpha 90.000000
_cell_angle_beta 90.000000
_cell_angle_gamma 90.000000
_cell_volume 2666.497700
_symmetry_space_group_name_H-M "P M M N"
_symmetry_group_IT_number 59
_space_group.IT_coordinate_system_code '2'
_symmetry_cell_setting 'orthorhombic'
loop_
_space_group_symop_operation_xyz
x,y,z
1/2-x,1/2-y,z
1/2+x,-y,-z
-x,1/2+y,-z
-x,-y,-z
1/2+x,1/2+y,-z
1/2-x,y,z
x,1/2-y,z
loop_
_atom_site_type_symbol
_atom_site_label
_atom_site_fract_x
_atom_site_fract_y
_atom_site_fract_z
Si Si1 0.151578 0.586190 0.058261
Si Si2 0.512547 0.084762 0.821921
Si Si3 0.155335 0.910320 0.586418
Si Si4 0.918687 0.586560 0.528127
Si Si5 0.992538 0.911091 0.678507
Si Si6 0.652192 0.586042 0.086978
O O1 0.250000 0.556929 0.084309
O O2 0.137243 0.750000 0.039703
O O3 0.085857 0.535331 0.120954
O O4 0.129338 0.500351 0.985461
O O5 0.519631 0.250000 0.806651
O O6 0.416702 0.043326 0.850542
O O7 0.532784 0.007121 0.746420
O O8 0.250000 0.916588 0.623474
O O9 0.131338 0.750000 0.562461
O O10 0.084543 0.963036 0.645128
O O11 0.160223 0.009531 0.513488
O O12 0.923187 0.750000 0.504166
O O13 0.000000 0.500000 0.500000
O O14 0.916971 0.574531 0.616783
O O15 0.000304 0.750000 0.705539
O O16 0.750000 0.552352 0.114595
O O17 0.641982 0.750000 0.066720
#
# Coordination Sequence:
#
# PCOD8242457 Si02
#       6
#     8   8   8   8   8   8
#     4   9  18  33  51  70  92 121 162 207 244 283
#     4  10  20  32  48  71  99 130 161 197 242 290
#     4   9  18  33  52  74  99 126 159 201 246 292
#     4   9  17  31  50  70  93 123 160 199 237 281
#     4   9  19  33  48  69  98 129 159 194 237 287
#     4   9  18  32  49  71  98 125 156 197 243 290
#
# _framework density 18.001141000000001
#
# number of rings (size 3 to 8) (size 9 to 14) (size 15 to 20)
#    0.000    2.833    0.000    2.000    0.000    5.667 
#    0.000    0.833    0.000    3.000    0.000    0.000 
#    0.000    0.000    0.000    0.000    0.000    0.000 
#
# Total GULP energy -594931.632511 kJ/mol
# GULP energy per Si atom -12394.409011 kJ/mol
# Density = 1.796017 g / cm^3
# Si number density = 18.001141 Si / 1000 Ang^3
#
#
#
# Elastic Constant Matrix: (Units=GPa)
#
#
# Indices 1 2 3 4 5 6 
#
# 1 45.7214 11.5797 13.5058 0.0000 0.0000 0.0000
# 2 11.5797 62.0989 39.4267 0.0000 0.0000 0.0000
# 3 13.5058 39.4267 81.3489 0.0000 0.0000 0.0000
# 4 0.0000 0.0000 0.0000 36.0178 0.0000 0.0000
# 5 0.0000 0.0000 0.0000 0.0000 19.4293 0.0000
# 6 0.0000 0.0000 0.0000 0.0000 0.0000 19.5048
#
#
#
# Elastic Compliance Matrix: (Units=1/GPa)
#
#
# Indices 1 2 3 4 5 6 
#
# 1 0.023316 -0.002730 -0.002548 0.000000 0.000000 0.000000
# 2 -0.002730 0.023581 -0.010975 0.000000 0.000000 0.000000
# 3 -0.002548 -0.010975 0.018035 0.000000 0.000000 0.000000
# 4 0.000000 0.000000 0.000000 0.027764 0.000000 0.000000
# 5 0.000000 0.000000 0.000000 0.000000 0.051469 0.000000
# 6 0.000000 0.000000 0.000000 0.000000 0.000000 0.051270
#
#
# Mechanical properties :
#
#
# Convention : Reuss Voigt Hill
#
# Bulk Modulus (GPa) = 30.84055 35.35486 33.09770
# Shear Modulus (GPa) = 20.94253 23.30084 22.12169
#
# Velocity S-wave (km/s) = 3.41457 3.60169 3.50938
# Velocity P-wave (km/s) = 5.71974 6.08106 5.90316
#
# Compressibility (1/GPa) = 0.03242485
#
# Stress axis : x y z
#
# Youngs Moduli (GPa) = 42.88971 42.40744 55.44744
#
# Poissons Ratio (x) = 0.11578 0.14127
# Poissons Ratio (y) = 0.11709 0.60856
# Poissons Ratio (z) = 0.10927 0.46544
#
# Static dielectric constant tensor:
#      x y z
#    x 3.674130 0.000000 0.000000 
#    y 0.000000 3.530160 0.000000 
#    z 0.000000 0.000000 3.247740 
# 
# 
# High freq. dielectric constant tensor:
#      x y z
#    x 1.694000 0.000000 0.000000 
#    y 0.000000 1.698800 0.000000 
#    z 0.000000 0.000000 1.678190 
# 
# From -- ./inp_files/23628.got.cif
#   From: 2010.03.12/outbox.cif.g09.slc.cpg/sg59_12_cif.got.tgz:23628.got - 2010.04.16 16:29:54.
