data_PCOD8242401
_publ_section_title
;
Structure prediction by ZEFSAII (Michael W. Deem and Ramdas Pophale) SiO2 
 PCOD8242401
Probable space group: P M M N
;
_chemical_formula_sum "Si O2"
_cell_formula_units_Z 64
_cell_length_a 9.363209
_cell_length_b 17.642408
_cell_length_c 22.622848
_cell_angle_alpha 90.000000
_cell_angle_beta 90.000000
_cell_angle_gamma 90.000000
_cell_volume 3737.058157
_symmetry_space_group_name_H-M "P M M N"
_symmetry_group_IT_number 59
_space_group.IT_coordinate_system_code '2'
_symmetry_cell_setting 'orthorhombic'
loop_
_space_group_symop_operation_xyz
x,y,z
1/2-x,1/2-y,z
1/2+x,-y,-z
-x,1/2+y,-z
-x,-y,-z
1/2+x,1/2+y,-z
1/2-x,y,z
x,1/2-y,z
loop_
_atom_site_type_symbol
_atom_site_label
_atom_site_fract_x
_atom_site_fract_y
_atom_site_fract_z
Si Si1 0.919167 0.022048 0.236124
Si Si2 0.915660 0.834958 0.796042
Si Si3 0.912368 0.060901 0.466111
Si Si4 0.914369 0.164445 0.960695
Si Si5 0.915447 0.962834 0.362799
Si Si6 0.585578 0.462262 0.873571
Si Si7 0.582138 0.335386 0.565839
Si Si8 0.411106 0.378267 0.073927
O O1 0.750000 0.030185 0.227500
O O2 0.986912 0.106166 0.239869
O O3 0.959221 0.976731 0.295362
O O4 0.986106 0.973781 0.183064
O O5 0.750000 0.858706 0.788389
O O6 0.943703 0.750000 0.772091
O O7 0.956358 0.837783 0.865165
O O8 0.750000 0.042318 0.480225
O O9 0.948822 0.142388 0.496190
O O10 0.943311 0.044349 0.396660
O O11 0.000000 0.000000 0.500000
O O12 0.750000 0.144703 0.971893
O O13 0.937410 0.250000 0.938988
O O14 0.972990 0.111058 0.908363
O O15 0.990156 0.151862 0.022544
O O16 0.750000 0.939777 0.368007
O O17 0.005303 0.893047 0.389270
O O18 0.750000 0.453121 0.852560
O O19 0.571370 0.531764 0.918920
O O20 0.750000 0.339004 0.579575
O O21 0.524105 0.250000 0.575231
O O22 0.250000 0.356340 0.057087
#
# Coordination Sequence:
#
# PCOD8242401 Si02
#       8
#     8   8   8   8   8   8   8   8
#     4  10  20  33  50  72  95 123 165 205 232 269
#     4   9  18  33  51  71  97 127 156 189 235 288
#     4   8  14  27  46  67  93 122 150 183 226 275
#     4  10  20  32  47  69  94 118 149 194 245 292
#     4   9  18  32  49  70  97 130 163 195 237 284
#     4   9  19  35  50  65  91 127 161 193 236 288
#     4   9  17  29  48  75 100 123 158 200 236 275
#     4   9  17  30  49  70  91 118 151 186 231 291
#
# _framework density 17.125772000000001
#
# number of rings (size 3 to 8) (size 9 to 14) (size 15 to 20)
#    0.000    2.875    0.000    1.875    0.000    4.750 
#    0.000    1.250    0.000    4.500    0.000    0.000 
#    0.000    0.000    0.000    0.000    0.000    0.000 
#
# Total GULP energy -793034.185919 kJ/mol
# GULP energy per Si atom -12391.159155 kJ/mol
# Density = 1.708679 g / cm^3
# Si number density = 17.125772 Si / 1000 Ang^3
#
#
#
# Elastic Constant Matrix: (Units=GPa)
#
#
# Indices 1 2 3 4 5 6 
#
# 1 54.8506 37.7062 37.0708 0.0000 0.0000 0.0000
# 2 37.7062 107.7573 46.8798 0.0000 0.0000 0.0000
# 3 37.0708 46.8798 74.2932 0.0000 0.0000 0.0000
# 4 0.0000 0.0000 0.0000 18.9816 0.0000 0.0000
# 5 0.0000 0.0000 0.0000 0.0000 24.8609 0.0000
# 6 0.0000 0.0000 0.0000 0.0000 0.0000 23.0327
#
#
#
# Elastic Compliance Matrix: (Units=1/GPa)
#
#
# Indices 1 2 3 4 5 6 
#
# 1 0.029645 -0.005428 -0.011367 0.000000 0.000000 0.000000
# 2 -0.005428 0.013786 -0.005990 0.000000 0.000000 0.000000
# 3 -0.011367 -0.005990 0.022912 0.000000 0.000000 0.000000
# 4 0.000000 0.000000 0.000000 0.052683 0.000000 0.000000
# 5 0.000000 0.000000 0.000000 0.000000 0.040224 0.000000
# 6 0.000000 0.000000 0.000000 0.000000 0.000000 0.043417
#
#
# Mechanical properties :
#
#
# Convention : Reuss Voigt Hill
#
# Bulk Modulus (GPa) = 48.14235 53.35721 50.74978
# Shear Modulus (GPa) = 19.59544 21.05798 20.32671
#
# Velocity S-wave (km/s) = 3.38628 3.51038 3.44889
# Velocity P-wave (km/s) = 6.59252 6.90319 6.74964
#
# Compressibility (1/GPa) = 0.02077173
#
# Stress axis : x y z
#
# Youngs Moduli (GPa) = 33.73208 72.53940 43.64497
#
# Poissons Ratio (x) = 0.39375 0.49612
# Poissons Ratio (y) = 0.18310 0.26145
# Poissons Ratio (z) = 0.38344 0.43453
#
# Static dielectric constant tensor:
#      x y z
#    x 3.164580 0.000000 0.000000 
#    y 0.000000 3.416400 0.000000 
#    z 0.000000 0.000000 3.367440 
# 
# 
# High freq. dielectric constant tensor:
#      x y z
#    x 1.659830 0.000000 0.000000 
#    y 0.000000 1.656900 0.000000 
#    z 0.000000 0.000000 1.646310 
# 
# From -- ./inp_files/31755.got.cif
#   From: 2010.03.12/outbox.cif.g09.slc.cpg/sg59_16_cif.got.tgz:31755.got - 2010.04.16 16:29:54.
