data_PCOD8242549
_publ_section_title
;
Structure prediction by ZEFSAII (Michael W. Deem and Ramdas Pophale) SiO2 
 PCOD8242549
Probable space group: P M M N
;
_chemical_formula_sum "Si O2"
_cell_formula_units_Z 56
_cell_length_a 9.291339
_cell_length_b 22.991838
_cell_length_c 15.195918
_cell_angle_alpha 90.000000
_cell_angle_beta 90.000000
_cell_angle_gamma 90.000000
_cell_volume 3246.227391
_symmetry_space_group_name_H-M "P M M N"
_symmetry_group_IT_number 59
_space_group.IT_coordinate_system_code '2'
_symmetry_cell_setting 'orthorhombic'
loop_
_space_group_symop_operation_xyz
x,y,z
1/2-x,1/2-y,z
1/2+x,-y,-z
-x,1/2+y,-z
-x,-y,-z
1/2+x,1/2+y,-z
1/2-x,y,z
x,1/2-y,z
loop_
_atom_site_type_symbol
_atom_site_label
_atom_site_fract_x
_atom_site_fract_y
_atom_site_fract_z
Si Si1 0.418917 0.682837 0.326463
Si Si2 0.579863 0.871982 0.169540
Si Si3 0.591422 0.318896 0.477299
Si Si4 0.418633 0.182451 0.310244
Si Si5 0.583808 0.117830 0.158419
Si Si6 0.586165 0.183476 0.983874
Si Si7 0.915866 0.505899 0.090161
O O1 0.250000 0.675293 0.307142
O O2 0.463810 0.750000 0.312265
O O3 0.510983 0.641775 0.263478
O O4 0.456697 0.661131 0.425286
O O5 0.750000 0.863762 0.175191
O O6 0.534610 0.937296 0.143373
O O7 0.517481 0.827490 0.098045
O O8 0.750000 0.344119 0.454681
O O9 0.600395 0.250000 0.478937
O O10 0.479459 0.340261 0.403696
O O11 0.250000 0.172059 0.310845
O O12 0.458009 0.250000 0.294665
O O13 0.486464 0.144210 0.234010
O O14 0.750000 0.133198 0.177847
O O15 0.535136 0.144550 0.065405
O O16 0.556552 0.048872 0.153998
O O17 0.750000 0.168114 0.956624
O O18 0.572526 0.250000 0.013320
O O19 0.750000 0.510055 0.063158
O O20 0.000000 0.500000 0.000000
#
# Coordination Sequence:
#
# PCOD8242549 Si02
#       7
#     8   8   8   8   8   8   8
#     4   9  18  33  53  77 104 136 173 207 243 297
#     4  11  22  33  49  75 104 132 164 209 261 304
#     4   8  15  30  52  75 100 133 171 206 241 292
#     4  10  20  32  49  78 111 136 160 200 257 310
#     4  10  20  35  54  72  95 133 176 213 247 292
#     4  10  20  33  50  72  98 132 171 206 244 297
#     4  10  21  37  55  73  95 129 176 219 254 295
#
# _framework density 17.250795
#
# number of rings (size 3 to 8) (size 9 to 14) (size 15 to 20)
#    0.000    2.286    1.429    2.571    0.000    6.000 
#    0.000    1.429    0.000    0.857    0.000    0.000 
#    0.000    0.000    0.000    0.000    0.000    0.000 
#
# Total GULP energy -694456.750925 kJ/mol
# GULP energy per Si atom -12401.013409 kJ/mol
# Density = 1.721153 g / cm^3
# Si number density = 17.250795 Si / 1000 Ang^3
#
#
#
# Elastic Constant Matrix: (Units=GPa)
#
#
# Indices 1 2 3 4 5 6 
#
# 1 80.1931 36.6420 65.5731 0.0000 0.0000 0.0000
# 2 36.6420 69.8396 38.1842 0.0000 0.0000 0.0000
# 3 65.5731 38.1842 124.7028 0.0000 0.0000 0.0000
# 4 0.0000 0.0000 0.0000 11.2886 0.0000 0.0000
# 5 0.0000 0.0000 0.0000 0.0000 29.9661 0.0000
# 6 0.0000 0.0000 0.0000 0.0000 0.0000 23.5037
#
#
#
# Elastic Compliance Matrix: (Units=1/GPa)
#
#
# Indices 1 2 3 4 5 6 
#
# 1 0.024394 -0.006949 -0.010699 0.000000 0.000000 0.000000
# 2 -0.006949 0.019177 -0.002218 0.000000 0.000000 0.000000
# 3 -0.010699 -0.002218 0.014324 0.000000 0.000000 0.000000
# 4 0.000000 0.000000 0.000000 0.088585 0.000000 0.000000
# 5 0.000000 0.000000 0.000000 0.000000 0.033371 0.000000
# 6 0.000000 0.000000 0.000000 0.000000 0.000000 0.042547
#
#
# Mechanical properties :
#
#
# Convention : Reuss Voigt Hill
#
# Bulk Modulus (GPa) = 55.05798 61.72602 58.39200
# Shear Modulus (GPa) = 18.64394 21.90743 20.27568
#
# Velocity S-wave (km/s) = 3.29106 3.56748 3.43205
# Velocity P-wave (km/s) = 6.81373 7.26832 7.04469
#
# Compressibility (1/GPa) = 0.01816267
#
# Stress axis : x y z
#
# Youngs Moduli (GPa) = 40.99429 52.14594 69.81098
#
# Poissons Ratio (x) = 0.36234 0.74693
# Poissons Ratio (y) = 0.28485 0.15486
# Poissons Ratio (z) = 0.43861 0.11567
#
# Static dielectric constant tensor:
#      x y z
#    x 3.271290 0.000000 0.000000 
#    y 0.000000 3.150210 0.000000 
#    z 0.000000 0.000000 3.337390 
# 
# 
# High freq. dielectric constant tensor:
#      x y z
#    x 1.666940 0.000000 0.000000 
#    y 0.000000 1.645330 0.000000 
#    z 0.000000 0.000000 1.668650 
# 
# From -- ./inp_files/21053.got.cif
#   From: 2010.03.12/outbox.cif.g09.slc.cpg/sg59_11_cif.got.tgz:21053.got - 2010.04.16 16:29:54.
