data_PCOD8242706
_publ_section_title
;
Structure prediction by ZEFSAII (Michael W. Deem and Ramdas Pophale) SiO2 
 PCOD8242706
Probable space group: P M M N
;
_chemical_formula_sum "Si O2"
_cell_formula_units_Z 48
_cell_length_a 9.515992
_cell_length_b 9.089287
_cell_length_c 31.182131
_cell_angle_alpha 90.000000
_cell_angle_beta 90.000000
_cell_angle_gamma 90.000000
_cell_volume 2697.054216
_symmetry_space_group_name_H-M "P M M N"
_symmetry_group_IT_number 59
_space_group.IT_coordinate_system_code '2'
_symmetry_cell_setting 'orthorhombic'
loop_
_space_group_symop_operation_xyz
x,y,z
1/2-x,1/2-y,z
1/2+x,-y,-z
-x,1/2+y,-z
-x,-y,-z
1/2+x,1/2+y,-z
1/2-x,y,z
x,1/2-y,z
loop_
_atom_site_type_symbol
_atom_site_label
_atom_site_fract_x
_atom_site_fract_y
_atom_site_fract_z
Si Si1 0.416988 0.413548 0.120353
Si Si2 0.914132 0.078774 0.963215
Si Si3 0.406617 0.425227 0.213854
Si Si4 0.085169 0.577941 0.537222
Si Si5 0.413455 0.921816 0.706886
Si Si6 0.583112 0.915847 0.377434
O O1 0.250000 0.405067 0.121524
O O2 0.478479 0.250000 0.111675
O O3 0.469196 0.520871 0.082769
O O4 0.465976 0.474847 0.167041
O O5 0.750000 0.043088 0.969410
O O6 0.945942 0.250000 0.965486
O O7 0.000000 0.000000 0.000000
O O8 0.250000 0.488364 0.221840
O O9 0.402220 0.250000 0.214059
O O10 0.507683 0.484360 0.251235
O O11 0.250000 0.548432 0.530187
O O12 0.050526 0.750000 0.537666
O O13 0.031336 0.508931 0.581820
O O14 0.000000 0.500000 0.500000
O O15 0.250000 0.953470 0.713893
O O16 0.442906 0.750000 0.699503
O O17 0.473971 0.007487 0.665672
O O18 0.750000 0.915471 0.376190
O O19 0.523661 0.750000 0.380549
#
# Coordination Sequence:
#
# PCOD8242706 Si02
#       6
#     8   8   8   8   8   8
#     4   8  14  27  47  67  89 121 157 190 228 279
#     4  10  20  33  50  72  96 124 159 197 238 285
#     4   8  14  26  45  67  90 119 154 188 226 275
#     4  10  20  34  53  76 100 127 161 200 241 287
#     4   9  16  27  45  68  91 116 151 194 233 270
#     4   9  17  30  48  68  92 125 161 193 230 281
#
# _framework density 17.797194999999999
#
# number of rings (size 3 to 8) (size 9 to 14) (size 15 to 20)
#    0.000    3.000    0.000    2.500    0.000    4.000 
#    0.000    2.500    0.000    7.500    0.000    0.000 
#    0.000    0.000    0.000    0.000    0.000    0.000 
#
# Total GULP energy -595030.408915 kJ/mol
# GULP energy per Si atom -12396.466852 kJ/mol
# Density = 1.775669 g / cm^3
# Si number density = 17.797195 Si / 1000 Ang^3
#
#
#
# Elastic Constant Matrix: (Units=GPa)
#
#
# Indices 1 2 3 4 5 6 
#
# 1 40.6103 37.7909 57.9880 0.0000 0.0000 0.0000
# 2 37.7909 102.1363 84.8015 0.0000 0.0000 0.0000
# 3 57.9880 84.8015 208.0472 0.0000 0.0000 0.0000
# 4 0.0000 0.0000 0.0000 32.8122 0.0000 0.0000
# 5 0.0000 0.0000 0.0000 0.0000 32.4982 0.0000
# 6 0.0000 0.0000 0.0000 0.0000 0.0000 17.3903
#
#
#
# Elastic Compliance Matrix: (Units=1/GPa)
#
#
# Indices 1 2 3 4 5 6 
#
# 1 0.046550 -0.009751 -0.009000 0.000000 0.000000 0.000000
# 2 -0.009751 0.016842 -0.004147 0.000000 0.000000 0.000000
# 3 -0.009000 -0.004147 0.009005 0.000000 0.000000 0.000000
# 4 0.000000 0.000000 0.000000 0.030476 0.000000 0.000000
# 5 0.000000 0.000000 0.000000 0.000000 0.030771 0.000000
# 6 0.000000 0.000000 0.000000 0.000000 0.000000 0.057503
#
#
# Mechanical properties :
#
#
# Convention : Reuss Voigt Hill
#
# Bulk Modulus (GPa) = 37.59275 79.10606 58.34940
# Shear Modulus (GPa) = 20.34083 27.88769 24.11426
#
# Velocity S-wave (km/s) = 3.38438 3.96279 3.68495
# Velocity P-wave (km/s) = 6.03662 8.09218 7.13877
#
# Compressibility (1/GPa) = 0.02660088
#
# Stress axis : x y z
#
# Youngs Moduli (GPa) = 21.48247 59.37538 111.04374
#
# Poissons Ratio (x) = 0.57898 0.99938
# Poissons Ratio (y) = 0.20948 0.46050
# Poissons Ratio (z) = 0.19334 0.24623
#
# Static dielectric constant tensor:
#      x y z
#    x 2.893790 0.000000 0.000000 
#    y 0.000000 3.531660 0.000000 
#    z 0.000000 0.000000 3.772430 
# 
# 
# High freq. dielectric constant tensor:
#      x y z
#    x 1.645460 0.000000 0.000000 
#    y 0.000000 1.676090 0.000000 
#    z 0.000000 0.000000 1.708730 
# 
# From -- ./inp_files/31220.got.cif
#   From: 2010.03.12/outbox.cif.g09.slc.cpg/sg59_16_cif.got.tgz:31220.got - 2010.04.16 16:29:54.
