data_PCOD8242287
_publ_section_title
;
Structure prediction by ZEFSAII (Michael W. Deem and Ramdas Pophale) SiO2 
 PCOD8242287
Probable space group: P M M N
;
_chemical_formula_sum "Si O2"
_cell_formula_units_Z 64
_cell_length_a 24.145362
_cell_length_b 9.197926
_cell_length_c 18.527507
_cell_angle_alpha 90.000000
_cell_angle_beta 90.000000
_cell_angle_gamma 90.000000
_cell_volume 4114.723133
_symmetry_space_group_name_H-M "P M M N"
_symmetry_group_IT_number 59
_space_group.IT_coordinate_system_code '2'
_symmetry_cell_setting 'orthorhombic'
loop_
_space_group_symop_operation_xyz
x,y,z
1/2-x,1/2-y,z
1/2+x,-y,-z
-x,1/2+y,-z
-x,-y,-z
1/2+x,1/2+y,-z
1/2-x,y,z
x,1/2-y,z
loop_
_atom_site_type_symbol
_atom_site_label
_atom_site_fract_x
_atom_site_fract_y
_atom_site_fract_z
Si Si1 0.001984 0.918054 0.744235
Si Si2 0.078375 0.589279 0.529167
Si Si3 0.488938 0.580011 0.108438
Si Si4 0.956807 0.910455 0.594940
Si Si5 0.685244 0.588942 0.210855
Si Si6 0.378492 0.917696 0.677737
Si Si7 0.185569 0.578889 0.931782
Si Si8 0.087051 0.079516 0.998466
O O1 0.989405 0.750000 0.764269
O O2 0.963807 0.970178 0.676621
O O3 0.065453 0.935063 0.722527
O O4 0.989850 0.024221 0.810077
O O5 0.099270 0.750000 0.511273
O O6 0.085443 0.502128 0.454390
O O7 0.114687 0.525529 0.595272
O O8 0.015584 0.593395 0.555786
O O9 0.473971 0.750000 0.106667
O O10 0.441323 0.490800 0.068066
O O11 0.548421 0.551254 0.071345
O O12 0.931576 0.750000 0.599289
O O13 0.750000 0.606257 0.214126
O O14 0.658554 0.750000 0.199643
O O15 0.666994 0.519441 0.286165
O O16 0.667977 0.483113 0.145981
O O17 0.359312 0.750000 0.678150
O O18 0.250000 0.545943 0.949783
O O19 0.173472 0.750000 0.932332
O O20 0.146603 0.498057 0.989431
O O21 0.096342 0.250000 0.012123
#
# Coordination Sequence:
#
# PCOD8242287 Si02
#       8
#     8   8   8   8   8   8   8   8
#     4   9  17  28  41  59  84 112 142 175 210 249
#     4   8  14  24  37  55  78 104 135 168 200 234
#     4  10  20  31  44  64  88 116 149 181 217 261
#     4   8  14  24  37  54  78 107 135 164 199 237
#     4  10  20  31  42  59  83 109 140 178 214 248
#     4   9  17  28  42  59  81 111 144 176 210 250
#     4  10  20  33  49  67  87 113 144 179 219 260
#     4  10  20  33  48  65  87 115 146 181 219 259
#
# _framework density 15.553902000000001
#
# number of rings (size 3 to 8) (size 9 to 14) (size 15 to 20)
#    0.000    2.750    0.000    3.750    0.000    6.500 
#    0.000    2.500    0.000    0.000    0.000    0.000 
#    0.000    1.000    0.000    7.000    0.000    5.875 
#
# Total GULP energy -793270.367096 kJ/mol
# GULP energy per Si atom -12394.849486 kJ/mol
# Density = 1.551850 g / cm^3
# Si number density = 15.553902 Si / 1000 Ang^3
#
#
#
# Elastic Constant Matrix: (Units=GPa)
#
#
# Indices 1 2 3 4 5 6 
#
# 1 30.3604 27.0481 17.5047 0.0000 0.0000 0.0000
# 2 27.0481 92.0302 45.8363 0.0000 0.0000 0.0000
# 3 17.5047 45.8363 89.0847 0.0000 0.0000 0.0000
# 4 0.0000 0.0000 0.0000 31.3915 0.0000 0.0000
# 5 0.0000 0.0000 0.0000 0.0000 23.0933 0.0000
# 6 0.0000 0.0000 0.0000 0.0000 0.0000 22.1578
#
#
#
# Elastic Compliance Matrix: (Units=1/GPa)
#
#
# Indices 1 2 3 4 5 6 
#
# 1 0.045115 -0.011892 -0.002746 0.000000 0.000000 0.000000
# 2 -0.011892 0.017745 -0.006793 0.000000 0.000000 0.000000
# 3 -0.002746 -0.006793 0.015260 0.000000 0.000000 0.000000
# 4 0.000000 0.000000 0.000000 0.031856 0.000000 0.000000
# 5 0.000000 0.000000 0.000000 0.000000 0.043303 0.000000
# 6 0.000000 0.000000 0.000000 0.000000 0.000000 0.045131
#
#
# Mechanical properties :
#
#
# Convention : Reuss Voigt Hill
#
# Bulk Modulus (GPa) = 28.36288 43.58369 35.97329
# Shear Modulus (GPa) = 19.76089 23.40091 21.58090
#
# Velocity S-wave (km/s) = 3.56824 3.88300 3.72895
# Velocity P-wave (km/s) = 5.93728 6.94158 6.45898
#
# Compressibility (1/GPa) = 0.03525734
#
# Stress axis : x y z
#
# Youngs Moduli (GPa) = 22.16534 56.35544 65.52975
#
# Poissons Ratio (x) = 0.67017 0.17997
# Poissons Ratio (y) = 0.26359 0.44516
# Poissons Ratio (z) = 0.06087 0.38284
#
# Static dielectric constant tensor:
#      x y z
#    x 2.669390 0.000000 0.000000 
#    y 0.000000 3.176950 0.000000 
#    z 0.000000 0.000000 3.082540 
# 
# 
# High freq. dielectric constant tensor:
#      x y z
#    x 1.552110 0.000000 0.000000 
#    y 0.000000 1.607290 0.000000 
#    z 0.000000 0.000000 1.590410 
# 
# From -- ./inp_files/28428.got.cif
#   From: 2010.03.12/outbox.cif.g09.slc.cpg/sg59_15_cif.got.tgz:28428.got - 2010.04.16 16:29:54.
