data_PCOD8242921
_publ_section_title
;
Structure prediction by ZEFSAII (Michael W. Deem and Ramdas Pophale) SiO2 
 PCOD8242921
Probable space group: P M M N
;
_chemical_formula_sum "Si O2"
_cell_formula_units_Z 64
_cell_length_a 13.729820
_cell_length_b 9.337617
_cell_length_c 25.830065
_cell_angle_alpha 90.000000
_cell_angle_beta 90.000000
_cell_angle_gamma 90.000000
_cell_volume 3311.512504
_symmetry_space_group_name_H-M "P M M N"
_symmetry_group_IT_number 59
_space_group.IT_coordinate_system_code '2'
_symmetry_cell_setting 'orthorhombic'
loop_
_space_group_symop_operation_xyz
x,y,z
1/2-x,1/2-y,z
1/2+x,-y,-z
-x,1/2+y,-z
-x,-y,-z
1/2+x,1/2+y,-z
1/2-x,y,z
x,1/2-y,z
loop_
_atom_site_type_symbol
_atom_site_label
_atom_site_fract_x
_atom_site_fract_y
_atom_site_fract_z
Si Si1 0.862867 0.084866 0.719207
Si Si2 0.633969 0.087889 0.015840
Si Si3 0.859596 0.586496 0.115394
Si Si4 0.409904 0.089382 0.484873
Si Si5 0.855655 0.585373 0.405815
Si Si6 0.365052 0.089302 0.080907
Si Si7 0.452405 0.081985 0.375114
Si Si8 0.048915 0.585916 0.172583
O O1 0.750000 0.054328 0.731130
O O2 0.880137 0.250000 0.704449
O O3 0.926105 0.040626 0.769132
O O4 0.898462 0.987547 0.672714
O O5 0.750000 0.086149 0.012548
O O6 0.593985 0.250000 0.013646
O O7 0.601378 0.014720 0.069497
O O8 0.589602 0.998434 0.967623
O O9 0.750000 0.544428 0.133136
O O10 0.861347 0.750000 0.095125
O O11 0.932714 0.566157 0.163707
O O12 0.447754 0.250000 0.482864
O O13 0.334597 0.066610 0.531823
O O14 0.381691 0.050101 0.425313
O O15 0.500000 0.000000 0.500000
O O16 0.750000 0.549182 0.380252
O O17 0.885304 0.750000 0.393980
O O18 0.939425 0.483595 0.383276
O O19 0.250000 0.094782 0.075271
O O20 0.408334 0.250000 0.080412
O O21 0.390329 0.012858 0.134314
O O22 0.464853 0.250000 0.364375
O O23 0.080962 0.750000 0.162683
#
# Coordination Sequence:
#
# PCOD8242921 Si02
#       8
#     8   8   8   8   8   8   8   8
#     4  10  22  40  59  78 103 136 176 223 271 321
#     4   9  17  30  50  76 106 140 174 206 246 304
#     4   9  18  34  55  78 104 132 165 209 259 309
#     4   8  15  28  47  73 105 141 179 218 260 306
#     4   9  17  31  53  80 112 150 187 222 263 315
#     4  10  20  33  51  77 108 139 172 214 262 310
#     4  10  20  34  54  80 111 145 181 225 273 321
#     4  10  21  37  57  78 101 134 175 219 265 311
#
# _framework density 19.326516999999999
#
# number of rings (size 3 to 8) (size 9 to 14) (size 15 to 20)
#    0.000    2.625    0.000    1.500    0.000    5.750 
#    0.000    1.875    0.000    2.250    0.000    0.000 
#    0.000    0.000    0.000    0.000    0.000    0.000 
#
# Total GULP energy -793032.122780 kJ/mol
# GULP energy per Si atom -12391.126918 kJ/mol
# Density = 1.928253 g / cm^3
# Si number density = 19.326517 Si / 1000 Ang^3
#
#
#
# Elastic Constant Matrix: (Units=GPa)
#
#
# Indices 1 2 3 4 5 6 
#
# 1 62.7284 36.1304 37.9141 0.0000 0.0000 0.0000
# 2 36.1304 102.7492 63.4329 0.0000 0.0000 0.0000
# 3 37.9141 63.4329 118.0478 0.0000 0.0000 0.0000
# 4 0.0000 0.0000 0.0000 32.9766 0.0000 0.0000
# 5 0.0000 0.0000 0.0000 0.0000 22.9978 0.0000
# 6 0.0000 0.0000 0.0000 0.0000 0.0000 20.3622
#
#
#
# Elastic Compliance Matrix: (Units=1/GPa)
#
#
# Indices 1 2 3 4 5 6 
#
# 1 0.021306 -0.004889 -0.004216 0.000000 0.000000 0.000000
# 2 -0.004889 0.015686 -0.006858 0.000000 0.000000 0.000000
# 3 -0.004216 -0.006858 0.013510 0.000000 0.000000 0.000000
# 4 0.000000 0.000000 0.000000 0.030325 0.000000 0.000000
# 5 0.000000 0.000000 0.000000 0.000000 0.043482 0.000000
# 6 0.000000 0.000000 0.000000 0.000000 0.000000 0.049110
#
#
# Mechanical properties :
#
#
# Convention : Reuss Voigt Hill
#
# Bulk Modulus (GPa) = 53.83482 62.05336 57.94409
# Shear Modulus (GPa) = 23.63638 25.00386 24.32012
#
# Velocity S-wave (km/s) = 3.50094 3.60079 3.55122
# Velocity P-wave (km/s) = 6.65267 7.03315 6.84555
#
# Compressibility (1/GPa) = 0.01857534
#
# Stress axis : x y z
#
# Youngs Moduli (GPa) = 46.93523 63.75187 74.01675
#
# Poissons Ratio (x) = 0.31171 0.31203
# Poissons Ratio (y) = 0.22949 0.50764
# Poissons Ratio (z) = 0.19786 0.43724
#
# Static dielectric constant tensor:
#      x y z
#    x 3.340150 0.000000 0.000000 
#    y 0.000000 3.643000 0.000000 
#    z 0.000000 0.000000 2.384700 
# 
# 
# High freq. dielectric constant tensor:
#      x y z
#    x 1.750450 0.000000 0.000000 
#    y 0.000000 1.754640 0.000000 
#    z 0.000000 0.000000 1.737060 
# 
# From -- ./inp_files/32134.got.cif
#   From: 2010.03.12/outbox.cif.g09.slc.cpg/sg59_17_cif.got.tgz:32134.got - 2010.04.16 16:29:54.
