data_PCOD8242155
_publ_section_title
;
Structure prediction by ZEFSAII (Michael W. Deem and Ramdas Pophale) SiO2 
 PCOD8242155
Probable space group: P M M N
;
_chemical_formula_sum "Si O2"
_cell_formula_units_Z 64
_cell_length_a 17.472354
_cell_length_b 15.287940
_cell_length_c 11.861254
_cell_angle_alpha 90.000000
_cell_angle_beta 90.000000
_cell_angle_gamma 90.000000
_cell_volume 3168.334277
_symmetry_space_group_name_H-M "P M M N"
_symmetry_group_IT_number 59
_space_group.IT_coordinate_system_code '2'
_symmetry_cell_setting 'orthorhombic'
loop_
_space_group_symop_operation_xyz
x,y,z
1/2-x,1/2-y,z
1/2+x,-y,-z
-x,1/2+y,-z
-x,-y,-z
1/2+x,1/2+y,-z
1/2-x,y,z
x,1/2-y,z
loop_
_atom_site_type_symbol
_atom_site_label
_atom_site_fract_x
_atom_site_fract_y
_atom_site_fract_z
Si Si1 0.063373 0.938713 0.549173
Si Si2 0.413193 0.852558 0.127213
Si Si3 0.413893 0.353898 0.887078
Si Si4 0.378464 0.650614 0.881291
Si Si5 0.162884 0.646060 0.354919
Si Si6 0.663962 0.645621 0.880498
Si Si7 0.664563 0.989735 0.266709
Si Si8 0.474517 0.347577 0.253390
O O1 0.106342 0.882601 0.454593
O O2 0.016680 0.880869 0.636956
O O3 0.126574 0.995107 0.612706
O O4 0.000000 0.000000 0.500000
O O5 0.419962 0.750000 0.143461
O O6 0.499071 0.889025 0.113980
O O7 0.369412 0.892185 0.235937
O O8 0.366337 0.873614 0.012836
O O9 0.407440 0.250000 0.866483
O O10 0.375065 0.405806 0.786355
O O11 0.369819 0.383677 0.999522
O O12 0.347930 0.750000 0.856014
O O13 0.335024 0.578840 0.807302
O O14 0.469088 0.647379 0.854372
O O15 0.250000 0.611665 0.373025
O O16 0.163282 0.750000 0.352397
O O17 0.750000 0.608129 0.863580
O O18 0.664914 0.750000 0.875912
O O19 0.606115 0.606733 0.784195
O O20 0.750000 0.961625 0.291338
O O21 0.451759 0.250000 0.282965
#
# Coordination Sequence:
#
# PCOD8242155 Si02
#       8
#     8   8   8   8   8   8   8   8
#     4  11  23  41  58  78 108 151 198 244 293 342
#     4   9  17  33  59  89 119 153 192 233 282 349
#     4  10  19  35  59  85 119 157 190 229 281 350
#     4   9  18  35  58  86 121 155 187 228 285 350
#     4  10  21  38  61  86 113 151 200 249 294 343
#     4   9  16  29  53  84 116 145 178 229 287 340
#     4  11  24  38  56  86 118 149 192 243 292 347
#     4   9  17  34  59  83 107 143 190 238 284 343
#
# _framework density 20.199888999999999
#
# number of rings (size 3 to 8) (size 9 to 14) (size 15 to 20)
#    0.000    2.250    1.250    1.875    0.000    2.500 
#    2.250    3.125    0.000    0.000    0.000    0.000 
#    0.000    0.000    0.000    0.000    0.000    0.000 
#
# Total GULP energy -793140.096694 kJ/mol
# GULP energy per Si atom -12392.814011 kJ/mol
# Density = 2.015391 g / cm^3
# Si number density = 20.199889 Si / 1000 Ang^3
#
#
#
# Elastic Constant Matrix: (Units=GPa)
#
#
# Indices 1 2 3 4 5 6 
#
# 1 83.0678 3.8598 25.0231 0.0000 0.0000 0.0000
# 2 3.8598 37.5923 11.4753 0.0000 0.0000 0.0000
# 3 25.0231 11.4753 112.8290 0.0000 0.0000 0.0000
# 4 0.0000 0.0000 0.0000 14.2263 0.0000 0.0000
# 5 0.0000 0.0000 0.0000 0.0000 30.4548 0.0000
# 6 0.0000 0.0000 0.0000 0.0000 0.0000 20.0883
#
#
#
# Elastic Compliance Matrix: (Units=1/GPa)
#
#
# Indices 1 2 3 4 5 6 
#
# 1 0.012908 -0.000466 -0.002815 0.000000 0.000000 0.000000
# 2 -0.000466 0.027470 -0.002691 0.000000 0.000000 0.000000
# 3 -0.002815 -0.002691 0.009761 0.000000 0.000000 0.000000
# 4 0.000000 0.000000 0.000000 0.070293 0.000000 0.000000
# 5 0.000000 0.000000 0.000000 0.000000 0.032836 0.000000
# 6 0.000000 0.000000 0.000000 0.000000 0.000000 0.049780
#
#
# Mechanical properties :
#
#
# Convention : Reuss Voigt Hill
#
# Bulk Modulus (GPa) = 26.18089 34.91170 30.54630
# Shear Modulus (GPa) = 21.95647 25.82927 23.89287
#
# Velocity S-wave (km/s) = 3.30048 3.57975 3.44295
# Velocity P-wave (km/s) = 5.24531 5.86573 5.56417
#
# Compressibility (1/GPa) = 0.03819580
#
# Stress axis : x y z
#
# Youngs Moduli (GPa) = 77.47080 36.40288 102.44852
#
# Poissons Ratio (x) = 0.01696 0.28843
# Poissons Ratio (y) = 0.03610 0.27564
# Poissons Ratio (z) = 0.21811 0.09794
#
# Static dielectric constant tensor:
#      x y z
#    x 3.888450 0.000000 0.000000 
#    y 0.000000 3.336960 0.000000 
#    z 0.000000 0.000000 2.068690 
# 
# 
# High freq. dielectric constant tensor:
#      x y z
#    x 1.796880 0.000000 0.000000 
#    y 0.000000 1.768080 0.000000 
#    z 0.000000 0.000000 1.784330 
# 
# From -- ./inp_files/17840.got.cif
#   From: 2010.03.12/outbox.cif.g09.slc.cpg/sg59_9_cif.got.tgz:17840.got - 2010.04.16 16:29:54.
