data_PCOD8242898
_publ_section_title
;
Structure prediction by ZEFSAII (Michael W. Deem and Ramdas Pophale) SiO2 
 PCOD8242898
Probable space group: P M M N
;
_chemical_formula_sum "Si O2"
_cell_formula_units_Z 64
_cell_length_a 14.450766
_cell_length_b 9.265615
_cell_length_c 26.442422
_cell_angle_alpha 90.000000
_cell_angle_beta 90.000000
_cell_angle_gamma 90.000000
_cell_volume 3540.514287
_symmetry_space_group_name_H-M "P M M N"
_symmetry_group_IT_number 59
_space_group.IT_coordinate_system_code '2'
_symmetry_cell_setting 'orthorhombic'
loop_
_space_group_symop_operation_xyz
x,y,z
1/2-x,1/2-y,z
1/2+x,-y,-z
-x,1/2+y,-z
-x,-y,-z
1/2+x,1/2+y,-z
1/2-x,y,z
x,1/2-y,z
loop_
_atom_site_type_symbol
_atom_site_label
_atom_site_fract_x
_atom_site_fract_y
_atom_site_fract_z
Si Si1 0.857703 0.418942 0.863163
Si Si2 0.500762 0.415099 0.948492
Si Si3 0.502188 0.079107 0.318569
Si Si4 0.644998 0.419096 0.399466
Si Si5 0.139607 0.089628 0.505117
Si Si6 0.857487 0.581747 0.136111
Si Si7 0.999302 0.077148 0.204083
Si Si8 0.147817 0.422554 0.394900
O O1 0.750000 0.462219 0.866897
O O2 0.870442 0.250000 0.850231
O O3 0.907938 0.455565 0.916121
O O4 0.906923 0.513164 0.819926
O O5 0.503430 0.250000 0.964142
O O6 0.407693 0.450826 0.917099
O O7 0.500000 0.500000 0.000000
O O8 0.496085 0.250000 0.316594
O O9 0.593446 0.028880 0.348741
O O10 0.503158 0.020505 0.261685
O O11 0.415106 0.016213 0.349683
O O12 0.750000 0.468040 0.391793
O O13 0.633915 0.250000 0.407334
O O14 0.601300 0.489610 0.449845
O O15 0.250000 0.091520 0.504979
O O16 0.100541 0.250000 0.514301
O O17 0.108270 0.028993 0.449999
O O18 0.750000 0.537937 0.131824
O O19 0.869592 0.750000 0.150369
O O20 0.906492 0.484974 0.178608
O O21 0.000035 0.250000 0.199182
O O22 0.250000 0.485691 0.385473
O O23 0.150065 0.250000 0.394882
#
# Coordination Sequence:
#
# PCOD8242898 Si02
#       8
#     8   8   8   8   8   8   8   8
#     4   9  19  37  57  74 100 142 180 205 242 300
#     4   9  18  32  51  78 110 139 168 205 247 291
#     4   9  18  30  44  66  94 121 151 189 239 295
#     4   9  17  29  44  62  88 121 150 179 225 286
#     4   8  14  26  44  64  85 111 147 189 227 269
#     4   9  19  37  57  74  99 140 180 207 243 300
#     4  10  20  33  51  77 104 127 163 220 266 293
#     4   8  14  26  44  64  87 116 148 184 230 284
#
# _framework density 18.07647
#
# number of rings (size 3 to 8) (size 9 to 14) (size 15 to 20)
#    0.000    3.125    0.000    1.875    0.000    4.500 
#    0.000    3.750    0.000    3.000    0.000    1.750 
#    0.000    0.000    0.000    0.000    0.000    0.000 
#
# Total GULP energy -793242.321131 kJ/mol
# GULP energy per Si atom -12394.411268 kJ/mol
# Density = 1.803533 g / cm^3
# Si number density = 18.076470 Si / 1000 Ang^3
#
#
#
# Elastic Constant Matrix: (Units=GPa)
#
#
# Indices 1 2 3 4 5 6 
#
# 1 137.2274 39.3497 79.4924 0.0000 0.0000 0.0000
# 2 39.3497 47.2554 57.7859 0.0000 0.0000 0.0000
# 3 79.4924 57.7859 185.0143 0.0000 0.0000 0.0000
# 4 0.0000 0.0000 0.0000 27.4831 0.0000 0.0000
# 5 0.0000 0.0000 0.0000 0.0000 20.2490 0.0000
# 6 0.0000 0.0000 0.0000 0.0000 0.0000 19.6982
#
#
#
# Elastic Compliance Matrix: (Units=1/GPa)
#
#
# Indices 1 2 3 4 5 6 
#
# 1 0.010433 -0.005187 -0.002862 0.000000 0.000000 0.000000
# 2 -0.005187 0.036817 -0.009271 0.000000 0.000000 0.000000
# 3 -0.002862 -0.009271 0.009530 0.000000 0.000000 0.000000
# 4 0.000000 0.000000 0.000000 0.036386 0.000000 0.000000
# 5 0.000000 0.000000 0.000000 0.000000 0.049385 0.000000
# 6 0.000000 0.000000 0.000000 0.000000 0.000000 0.050766
#
#
# Mechanical properties :
#
#
# Convention : Reuss Voigt Hill
#
# Bulk Modulus (GPa) = 45.16651 80.30587 62.73619
# Shear Modulus (GPa) = 21.24606 26.34400 23.79503
#
# Velocity S-wave (km/s) = 3.43205 3.82169 3.63209
# Velocity P-wave (km/s) = 6.38325 7.99974 7.23677
#
# Compressibility (1/GPa) = 0.02214030
#
# Stress axis : x y z
#
# Youngs Moduli (GPa) = 95.85288 27.16107 104.92842
#
# Poissons Ratio (x) = 0.14089 0.30034
# Poissons Ratio (y) = 0.49720 0.97275
# Poissons Ratio (z) = 0.27436 0.25180
#
# Static dielectric constant tensor:
#      x y z
#    x 3.533090 0.000000 0.000000 
#    y 0.000000 3.100760 0.000000 
#    z 0.000000 0.000000 3.494420 
# 
# 
# High freq. dielectric constant tensor:
#      x y z
#    x 1.703190 0.000000 0.000000 
#    y 0.000000 1.670140 0.000000 
#    z 0.000000 0.000000 1.701610 
# 
# From -- ./inp_files/32192.got.cif
#   From: 2010.03.12/outbox.cif.g09.slc.cpg/sg59_17_cif.got.tgz:32192.got - 2010.04.16 16:29:54.
