data_PCOD8242559
_publ_section_title
;
Structure prediction by ZEFSAII (Michael W. Deem and Ramdas Pophale) SiO2 
 PCOD8242559
Probable space group: P M M N
;
_chemical_formula_sum "Si O2"
_cell_formula_units_Z 56
_cell_length_a 9.176130
_cell_length_b 14.549574
_cell_length_c 22.325114
_cell_angle_alpha 90.000000
_cell_angle_beta 90.000000
_cell_angle_gamma 90.000000
_cell_volume 2980.598789
_symmetry_space_group_name_H-M "P M M N"
_symmetry_group_IT_number 59
_space_group.IT_coordinate_system_code '2'
_symmetry_cell_setting 'orthorhombic'
loop_
_space_group_symop_operation_xyz
x,y,z
1/2-x,1/2-y,z
1/2+x,-y,-z
-x,1/2+y,-z
-x,-y,-z
1/2+x,1/2+y,-z
1/2-x,y,z
x,1/2-y,z
loop_
_atom_site_type_symbol
_atom_site_label
_atom_site_fract_x
_atom_site_fract_y
_atom_site_fract_z
Si Si1 0.080011 0.416284 0.325351
Si Si2 0.419939 0.750000 0.468018
Si Si3 0.918104 0.114747 0.633026
Si Si4 0.414732 0.152467 0.747470
Si Si5 0.580887 0.357017 0.982378
Si Si6 0.078804 0.250000 0.406967
Si Si7 0.579571 0.539296 0.913863
Si Si8 0.922732 0.037905 0.206753
O O1 0.250000 0.408481 0.307903
O O2 0.046320 0.506985 0.364124
O O3 0.026777 0.336789 0.368932
O O4 0.986719 0.409578 0.264424
O O5 0.250000 0.750000 0.483491
O O6 0.465112 0.841214 0.430404
O O7 0.506552 0.750000 0.528910
O O8 0.750000 0.135498 0.643725
O O9 0.998801 0.165156 0.686474
O O10 0.250000 0.130327 0.728864
O O11 0.427851 0.250000 0.782782
O O12 0.470376 0.069322 0.788331
O O13 0.750000 0.364077 0.001558
O O14 0.543556 0.250000 0.964568
O O15 0.550089 0.430905 0.928957
O O16 0.480218 0.390407 0.036573
O O17 0.250000 0.250000 0.417347
O O18 0.750000 0.557581 0.906195
O O19 0.498128 0.571246 0.853732
O O20 0.750000 0.054264 0.202830
#
# Coordination Sequence:
#
# PCOD8242559 Si02
#       8
#     8   4   8   8   8   4   8   8
#     4   9  19  37  56  73 100 136 175 221 267 310
#     4  10  20  32  50  78 106 132 167 210 259 324
#     4   9  17  31  51  74 100 131 166 207 258 318
#     4   9  17  29  47  73 104 135 169 213 264 316
#     4   9  19  37  59  82 112 147 182 223 267 311
#     4  10  22  38  54  74 100 134 175 220 267 308
#     4  10  20  35  56  83 113 145 182 223 266 315
#     4  10  20  34  53  78 107 141 179 218 264 317
#
# _framework density 18.788170000000001
#
# number of rings (size 3 to 8) (size 9 to 14) (size 15 to 20)
#    0.000    2.571    0.714    0.857    0.000    3.714 
#    1.286    0.000    0.000    0.000    0.000    0.000 
#    0.000    0.000    0.000    0.000    0.000    0.000 
#
# Total GULP energy -694017.686012 kJ/mol
# GULP energy per Si atom -12393.172965 kJ/mol
# Density = 1.874541 g / cm^3
# Si number density = 18.788170 Si / 1000 Ang^3
#
#
#
# Elastic Constant Matrix: (Units=GPa)
#
#
# Indices 1 2 3 4 5 6 
#
# 1 65.0916 19.5008 48.8445 0.0000 0.0000 0.0000
# 2 19.5008 80.5951 24.3312 0.0000 0.0000 0.0000
# 3 48.8445 24.3312 113.9832 0.0000 0.0000 0.0000
# 4 0.0000 0.0000 0.0000 14.8975 0.0000 0.0000
# 5 0.0000 0.0000 0.0000 0.0000 33.9547 0.0000
# 6 0.0000 0.0000 0.0000 0.0000 0.0000 14.6023
#
#
#
# Elastic Compliance Matrix: (Units=1/GPa)
#
#
# Indices 1 2 3 4 5 6 
#
# 1 0.023219 -0.002794 -0.009353 0.000000 0.000000 0.000000
# 2 -0.002794 0.013599 -0.001705 0.000000 0.000000 0.000000
# 3 -0.009353 -0.001705 0.013145 0.000000 0.000000 0.000000
# 4 0.000000 0.000000 0.000000 0.067125 0.000000 0.000000
# 5 0.000000 0.000000 0.000000 0.000000 0.029451 0.000000
# 6 0.000000 0.000000 0.000000 0.000000 0.000000 0.068482
#
#
# Mechanical properties :
#
#
# Convention : Reuss Voigt Hill
#
# Bulk Modulus (GPa) = 44.93009 49.44702 47.18856
# Shear Modulus (GPa) = 19.98829 23.82380 21.90604
#
# Velocity S-wave (km/s) = 3.26525 3.56479 3.41830
# Velocity P-wave (km/s) = 6.17914 6.58171 6.38360
#
# Compressibility (1/GPa) = 0.02225680
#
# Stress axis : x y z
#
# Youngs Moduli (GPa) = 43.06845 73.53669 76.07229
#
# Poissons Ratio (x) = 0.20548 0.71153
# Poissons Ratio (y) = 0.12035 0.12973
# Poissons Ratio (z) = 0.40283 0.12541
#
# Static dielectric constant tensor:
#      x y z
#    x 3.394570 0.000000 0.000000 
#    y 0.000000 3.890940 0.000000 
#    z 0.000000 0.000000 3.241290 
# 
# 
# High freq. dielectric constant tensor:
#      x y z
#    x 1.728940 0.000000 0.000000 
#    y 0.000000 1.733450 0.000000 
#    z 0.000000 0.000000 1.713670 
# 
# From -- ./inp_files/29242.got.cif
#   From: 2010.03.12/outbox.cif.g09.slc.cpg/sg59_15_cif.got.tgz:29242.got - 2010.04.16 16:29:54.
