data_PCOD8242675
_publ_section_title
;
Structure prediction by ZEFSAII (Michael W. Deem and Ramdas Pophale) SiO2 
 PCOD8242675
Probable space group: P M M N
;
_chemical_formula_sum "Si O2"
_cell_formula_units_Z 64
_cell_length_a 23.834334
_cell_length_b 9.007091
_cell_length_c 16.208480
_cell_angle_alpha 90.000000
_cell_angle_beta 90.000000
_cell_angle_gamma 90.000000
_cell_volume 3479.604317
_symmetry_space_group_name_H-M "P M M N"
_symmetry_group_IT_number 59
_space_group.IT_coordinate_system_code '2'
_symmetry_cell_setting 'orthorhombic'
loop_
_space_group_symop_operation_xyz
x,y,z
1/2-x,1/2-y,z
1/2+x,-y,-z
-x,1/2+y,-z
-x,-y,-z
1/2+x,1/2+y,-z
1/2-x,y,z
x,1/2-y,z
loop_
_atom_site_type_symbol
_atom_site_label
_atom_site_fract_x
_atom_site_fract_y
_atom_site_fract_z
Si Si1 0.815083 0.574131 0.351420
Si Si2 0.911348 0.574124 0.778602
Si Si3 0.036132 0.076726 0.394063
Si Si4 0.038803 0.409739 0.057717
Si Si5 0.815803 0.081716 0.180801
Si Si6 0.086027 0.924273 0.549712
Si Si7 0.312254 0.917863 0.142707
Si Si8 0.841095 0.913911 0.017403
O O1 0.750000 0.533763 0.374013
O O2 0.822919 0.750000 0.347981
O O3 0.831983 0.506262 0.263381
O O4 0.858373 0.507294 0.417928
O O5 0.902606 0.750000 0.786348
O O6 0.940440 0.527296 0.694172
O O7 0.951204 0.515361 0.852839
O O8 0.850723 0.499253 0.789518
O O9 0.046496 0.250000 0.412567
O O10 0.969460 0.041380 0.395334
O O11 0.071768 0.981174 0.458448
O O12 0.010297 0.250000 0.071707
O O13 0.096254 0.391370 0.010606
O O14 0.000000 0.500000 0.000000
O O15 0.750000 0.081252 0.166503
O O16 0.838742 0.250000 0.188528
O O17 0.843158 0.002119 0.102936
O O18 0.099285 0.750000 0.547187
O O19 0.250000 0.919947 0.180599
O O20 0.333920 0.750000 0.129657
O O21 0.308958 0.995994 0.053444
O O22 0.813406 0.750000 0.029654
#
# Coordination Sequence:
#
# PCOD8242675 Si02
#       8
#     8   8   8   8   8   8   8   8
#     4  10  21  37  56  79 110 146 181 218 263 318
#     4   9  19  36  55  75 102 136 175 217 261 313
#     4   9  19  37  59  82 108 139 177 220 265 317
#     4   9  19  33  48  70  99 132 170 211 255 303
#     4  10  20  33  50  74 103 134 171 214 257 302
#     4  10  20  35  58  86 112 139 173 217 267 316
#     4  10  20  33  50  74 103 134 172 218 266 314
#     4  10  20  33  49  71  99 133 175 216 255 305
#
# _framework density 18.392896
#
# number of rings (size 3 to 8) (size 9 to 14) (size 15 to 20)
#    0.000    2.375    0.000    3.000    0.000    8.500 
#    0.000    1.875    0.000    0.750    0.000    0.000 
#    0.000    0.000    0.000    0.000    0.000    0.000 
#
# Total GULP energy -793360.636219 kJ/mol
# GULP energy per Si atom -12396.259941 kJ/mol
# Density = 1.835103 g / cm^3
# Si number density = 18.392896 Si / 1000 Ang^3
#
#
#
# Elastic Constant Matrix: (Units=GPa)
#
#
# Indices 1 2 3 4 5 6 
#
# 1 83.9793 47.1668 71.8596 0.0000 0.0000 0.0000
# 2 47.1668 107.1043 60.1847 0.0000 0.0000 0.0000
# 3 71.8596 60.1847 126.5010 0.0000 0.0000 0.0000
# 4 0.0000 0.0000 0.0000 32.9886 0.0000 0.0000
# 5 0.0000 0.0000 0.0000 0.0000 12.4692 0.0000
# 6 0.0000 0.0000 0.0000 0.0000 0.0000 30.4770
#
#
#
# Elastic Compliance Matrix: (Units=1/GPa)
#
#
# Indices 1 2 3 4 5 6 
#
# 1 0.024383 -0.004033 -0.011932 0.000000 0.000000 0.000000
# 2 -0.004033 0.013411 -0.004089 0.000000 0.000000 0.000000
# 3 -0.011932 -0.004089 0.016629 0.000000 0.000000 0.000000
# 4 0.000000 0.000000 0.000000 0.030314 0.000000 0.000000
# 5 0.000000 0.000000 0.000000 0.000000 0.080197 0.000000
# 6 0.000000 0.000000 0.000000 0.000000 0.000000 0.032812
#
#
# Mechanical properties :
#
#
# Convention : Reuss Voigt Hill
#
# Bulk Modulus (GPa) = 69.86411 75.11186 72.48798
# Shear Modulus (GPa) = 20.60796 24.41186 22.50991
#
# Velocity S-wave (km/s) = 3.35091 3.64709 3.50213
# Velocity P-wave (km/s) = 7.28274 7.65905 7.47326
#
# Compressibility (1/GPa) = 0.01431350
#
# Stress axis : x y z
#
# Youngs Moduli (GPa) = 41.01252 74.56771 60.13658
#
# Poissons Ratio (x) = 0.30071 0.71756
# Poissons Ratio (y) = 0.16539 0.24593
# Poissons Ratio (z) = 0.48937 0.30494
#
# Static dielectric constant tensor:
#      x y z
#    x 3.293560 0.000000 0.000000 
#    y 0.000000 3.584970 0.000000 
#    z 0.000000 0.000000 3.347550 
# 
# 
# High freq. dielectric constant tensor:
#      x y z
#    x 1.707180 0.000000 0.000000 
#    y 0.000000 1.724410 0.000000 
#    z 0.000000 0.000000 1.705050 
# 
# From -- ./inp_files/24751.got.cif
#   From: 2010.03.12/outbox.cif.g09.slc.cpg/sg59_13_cif.got.tgz:24751.got - 2010.04.16 16:29:54.
