data_PCOD8242514
_publ_section_title
;
Structure prediction by ZEFSAII (Michael W. Deem and Ramdas Pophale) SiO2 
 PCOD8242514
Probable space group: P M M N
;
_chemical_formula_sum "Si O2"
_cell_formula_units_Z 56
_cell_length_a 9.344941
_cell_length_b 14.346660
_cell_length_c 23.546010
_cell_angle_alpha 90.000000
_cell_angle_beta 90.000000
_cell_angle_gamma 90.000000
_cell_volume 3156.782745
_symmetry_space_group_name_H-M "P M M N"
_symmetry_group_IT_number 59
_space_group.IT_coordinate_system_code '2'
_symmetry_cell_setting 'orthorhombic'
loop_
_space_group_symop_operation_xyz
x,y,z
1/2-x,1/2-y,z
1/2+x,-y,-z
-x,1/2+y,-z
-x,-y,-z
1/2+x,1/2+y,-z
1/2-x,y,z
x,1/2-y,z
loop_
_atom_site_type_symbol
_atom_site_label
_atom_site_fract_x
_atom_site_fract_y
_atom_site_fract_z
Si Si1 0.090250 0.359725 0.930440
Si Si2 0.915990 0.142212 0.347537
Si Si3 0.417482 0.992387 0.141293
Si Si4 0.082337 0.358212 0.654359
Si Si5 0.079574 0.352847 0.055909
Si Si6 0.580868 0.501580 0.727495
Si Si7 0.913373 0.998201 0.442717
O O1 0.250000 0.400187 0.922633
O O2 0.092277 0.250000 0.923443
O O3 0.990151 0.398808 0.881057
O O4 0.029720 0.386133 0.993148
O O5 0.750000 0.129831 0.330148
O O6 0.959499 0.250000 0.352988
O O7 0.944855 0.092568 0.407746
O O8 0.014357 0.094105 0.300269
O O9 0.250000 0.981000 0.132355
O O10 0.456068 0.008805 0.206437
O O11 0.479250 0.078089 0.104125
O O12 0.250000 0.371480 0.668304
O O13 0.039350 0.250000 0.650490
O O14 0.044261 0.407951 0.594796
O O15 0.990919 0.407269 0.703700
O O16 0.250000 0.348543 0.056249
O O17 0.017810 0.250000 0.069376
O O18 0.750000 0.498395 0.715654
O O19 0.750000 0.992086 0.460993
O O20 0.000000 0.000000 0.500000
#
# Coordination Sequence:
#
# PCOD8242514 Si02
#       7
#     8   8   8   8   8   8   8
#     4   9  18  32  50  71  94 124 163 202 240 290
#     4   9  19  37  57  74  99 138 175 205 243 291
#     4  10  20  32  49  73  99 128 159 198 251 299
#     4   9  19  37  57  73  96 136 177 208 244 291
#     4   8  15  30  50  70  94 125 160 197 241 296
#     4  10  21  34  49  75 105 130 165 212 255 296
#     4   9  18  32  51  78 108 133 162 202 245 292
#
# _framework density 17.739581000000001
#
# number of rings (size 3 to 8) (size 9 to 14) (size 15 to 20)
#    0.000    2.857    0.000    2.571    0.000    6.000 
#    0.000    4.286    0.000    1.286    0.000    0.000 
#    0.000    0.000    0.000    0.000    0.000    0.000 
#
# Total GULP energy -694306.232185 kJ/mol
# GULP energy per Si atom -12398.325575 kJ/mol
# Density = 1.769921 g / cm^3
# Si number density = 17.739581 Si / 1000 Ang^3
#
#
#
# Elastic Constant Matrix: (Units=GPa)
#
#
# Indices 1 2 3 4 5 6 
#
# 1 58.8848 46.7290 66.4578 0.0000 0.0000 0.0000
# 2 46.7290 129.1964 64.7777 0.0000 0.0000 0.0000
# 3 66.4578 64.7777 133.5978 0.0000 0.0000 0.0000
# 4 0.0000 0.0000 0.0000 15.5141 0.0000 0.0000
# 5 0.0000 0.0000 0.0000 0.0000 28.7871 0.0000
# 6 0.0000 0.0000 0.0000 0.0000 0.0000 23.9084
#
#
#
# Elastic Compliance Matrix: (Units=1/GPa)
#
#
# Indices 1 2 3 4 5 6 
#
# 1 0.042241 -0.006266 -0.017974 0.000000 0.000000 0.000000
# 2 -0.006266 0.011156 -0.002292 0.000000 0.000000 0.000000
# 3 -0.017974 -0.002292 0.017538 0.000000 0.000000 0.000000
# 4 0.000000 0.000000 0.000000 0.064457 0.000000 0.000000
# 5 0.000000 0.000000 0.000000 0.000000 0.034738 0.000000
# 6 0.000000 0.000000 0.000000 0.000000 0.000000 0.041826
#
#
# Mechanical properties :
#
#
# Convention : Reuss Voigt Hill
#
# Bulk Modulus (GPa) = 55.96136 75.28978 65.62557
# Shear Modulus (GPa) = 18.45177 23.22289 20.83733
#
# Velocity S-wave (km/s) = 3.22863 3.62207 3.43100
# Velocity P-wave (km/s) = 6.74635 7.74767 7.26428
#
# Compressibility (1/GPa) = 0.01786947
#
# Stress axis : x y z
#
# Youngs Moduli (GPa) = 23.67393 89.64014 57.01966
#
# Poissons Ratio (x) = 0.56167 1.02489
# Poissons Ratio (y) = 0.14834 0.13070
# Poissons Ratio (z) = 0.42552 0.20547
#
# Static dielectric constant tensor:
#      x y z
#    x 3.147870 0.000000 0.000000 
#    y 0.000000 3.508650 0.000000 
#    z 0.000000 0.000000 3.269280 
# 
# 
# High freq. dielectric constant tensor:
#      x y z
#    x 1.671370 0.000000 0.000000 
#    y 0.000000 1.691180 0.000000 
#    z 0.000000 0.000000 1.684860 
# 
# From -- ./inp_files/29155.got.cif
#   From: 2010.03.12/outbox.cif.g09.slc.cpg/sg59_15_cif.got.tgz:29155.got - 2010.04.16 16:29:54.
