data_PCOD8242241
_publ_section_title
;
Structure prediction by ZEFSAII (Michael W. Deem and Ramdas Pophale) SiO2 
 PCOD8242241
Probable space group: P M M N
;
_chemical_formula_sum "Si O2"
_cell_formula_units_Z 56
_cell_length_a 9.355395
_cell_length_b 16.107478
_cell_length_c 19.160616
_cell_angle_alpha 90.000000
_cell_angle_beta 90.000000
_cell_angle_gamma 90.000000
_cell_volume 2887.348081
_symmetry_space_group_name_H-M "P M M N"
_symmetry_group_IT_number 59
_space_group.IT_coordinate_system_code '2'
_symmetry_cell_setting 'orthorhombic'
loop_
_space_group_symop_operation_xyz
x,y,z
1/2-x,1/2-y,z
1/2+x,-y,-z
-x,1/2+y,-z
-x,-y,-z
1/2+x,1/2+y,-z
1/2-x,y,z
x,1/2-y,z
loop_
_atom_site_type_symbol
_atom_site_label
_atom_site_fract_x
_atom_site_fract_y
_atom_site_fract_z
Si Si1 0.421112 0.750000 0.421601
Si Si2 0.084455 0.600368 0.202786
Si Si3 0.416451 0.004875 0.071208
Si Si4 0.593330 0.983318 0.673033
Si Si5 0.922958 0.750000 0.271977
Si Si6 0.589820 0.427393 0.536010
Si Si7 0.587617 0.841760 0.840076
Si Si8 0.413040 0.658676 0.699430
O O1 0.250000 0.750000 0.405177
O O2 0.509251 0.750000 0.349301
O O3 0.462732 0.831200 0.468997
O O4 0.250000 0.630345 0.209219
O O5 0.048370 0.571622 0.123758
O O6 0.059849 0.519058 0.250496
O O7 0.975834 0.671050 0.227465
O O8 0.250000 0.005502 0.053688
O O9 0.466256 0.092040 0.104042
O O10 0.500000 0.000000 0.000000
O O11 0.750000 0.942563 0.671042
O O12 0.483155 0.910842 0.649774
O O13 0.583956 0.058566 0.619017
O O14 0.750000 0.750000 0.277202
O O15 0.500000 0.500000 0.500000
O O16 0.750000 0.435158 0.505887
O O17 0.750000 0.862209 0.817036
O O18 0.576636 0.750000 0.873850
O O19 0.490273 0.846431 0.772754
O O20 0.250000 0.635498 0.711237
O O21 0.430087 0.750000 0.665450
#
# Coordination Sequence:
#
# PCOD8242241 Si02
#       8
#     4   8   8   8   4   8   8   8
#     4  10  20  42  68  88 120 171 208 237 300 379
#     4  10  20  39  62  83 114 154 196 238 293 369
#     4  10  21  37  57  81 111 151 191 236 294 351
#     4  10  19  36  62  85 109 149 197 239 285 350
#     4  12  24  36  60  98 124 147 192 259 310 341
#     4  10  22  40  64  89 118 158 201 247 298 355
#     4   9  17  33  56  77 101 139 184 223 266 331
#     4  10  20  32  50  81 116 145 178 229 284 330
#
# _framework density 19.394959
#
# number of rings (size 3 to 8) (size 9 to 14) (size 15 to 20)
#    0.000    2.000    2.857    1.071    0.000    3.714 
#    2.571    0.000    0.000    0.000    0.000    0.000 
#    0.000    0.000    0.000    0.000    0.000    0.000 
#
# Total GULP energy -694051.105569 kJ/mol
# GULP energy per Si atom -12393.769742 kJ/mol
# Density = 1.935082 g / cm^3
# Si number density = 19.394959 Si / 1000 Ang^3
#
#
#
# Elastic Constant Matrix: (Units=GPa)
#
#
# Indices 1 2 3 4 5 6 
#
# 1 91.5233 62.6906 18.5092 0.0000 0.0000 0.0000
# 2 62.6906 140.3346 28.9043 0.0000 0.0000 0.0000
# 3 18.5092 28.9043 47.5897 0.0000 0.0000 0.0000
# 4 0.0000 0.0000 0.0000 25.3022 0.0000 0.0000
# 5 0.0000 0.0000 0.0000 0.0000 31.1498 0.0000
# 6 0.0000 0.0000 0.0000 0.0000 0.0000 31.8660
#
#
#
# Elastic Compliance Matrix: (Units=1/GPa)
#
#
# Indices 1 2 3 4 5 6 
#
# 1 0.015932 -0.006676 -0.002142 0.000000 0.000000 0.000000
# 2 -0.006676 0.010942 -0.004049 0.000000 0.000000 0.000000
# 3 -0.002142 -0.004049 0.024305 0.000000 0.000000 0.000000
# 4 0.000000 0.000000 0.000000 0.039522 0.000000 0.000000
# 5 0.000000 0.000000 0.000000 0.000000 0.032103 0.000000
# 6 0.000000 0.000000 0.000000 0.000000 0.000000 0.031381
#
#
# Mechanical properties :
#
#
# Convention : Reuss Voigt Hill
#
# Bulk Modulus (GPa) = 39.29983 55.51732 47.40857
# Shear Modulus (GPa) = 26.53887 28.95316 27.74602
#
# Velocity S-wave (km/s) = 3.70312 3.86789 3.78640
# Velocity P-wave (km/s) = 6.21217 6.97382 6.60399
#
# Compressibility (1/GPa) = 0.02544540
#
# Stress axis : x y z
#
# Youngs Moduli (GPa) = 62.76557 91.38868 41.14320
#
# Poissons Ratio (x) = 0.61013 0.08812
# Poissons Ratio (y) = 0.41904 0.16660
# Poissons Ratio (z) = 0.13443 0.37007
#
# Static dielectric constant tensor:
#      x y z
#    x 3.468630 0.000000 0.000000 
#    y 0.000000 4.021250 0.000000 
#    z 0.000000 0.000000 3.300970 
# 
# 
# High freq. dielectric constant tensor:
#      x y z
#    x 1.745620 0.000000 0.000000 
#    y 0.000000 1.772140 0.000000 
#    z 0.000000 0.000000 1.733260 
# 
# From -- ./inp_files/29212.got.cif
#   From: 2010.03.12/outbox.cif.g09.slc.cpg/sg59_15_cif.got.tgz:29212.got - 2010.04.16 16:29:54.
