data_PCOD8242284
_publ_section_title
;
Structure prediction by ZEFSAII (Michael W. Deem and Ramdas Pophale) SiO2 
 PCOD8242284
Probable space group: P M M N
;
_chemical_formula_sum "Si O2"
_cell_formula_units_Z 56
_cell_length_a 9.208472
_cell_length_b 17.979176
_cell_length_c 20.685282
_cell_angle_alpha 90.000000
_cell_angle_beta 90.000000
_cell_angle_gamma 90.000000
_cell_volume 3424.670570
_symmetry_space_group_name_H-M "P M M N"
_symmetry_group_IT_number 59
_space_group.IT_coordinate_system_code '2'
_symmetry_cell_setting 'orthorhombic'
loop_
_space_group_symop_operation_xyz
x,y,z
1/2-x,1/2-y,z
1/2+x,-y,-z
-x,1/2+y,-z
-x,-y,-z
1/2+x,1/2+y,-z
1/2-x,y,z
x,1/2-y,z
loop_
_atom_site_type_symbol
_atom_site_label
_atom_site_fract_x
_atom_site_fract_y
_atom_site_fract_z
Si Si1 0.420816 0.664592 0.549188
Si Si2 0.418194 0.539786 0.647782
Si Si3 0.586401 0.665704 0.871925
Si Si4 0.422623 0.547841 0.791610
Si Si5 0.410475 0.455135 0.909180
Si Si6 0.411419 0.891015 0.985217
Si Si7 0.080190 0.435663 0.538037
O O1 0.250000 0.653132 0.537456
O O2 0.457487 0.750000 0.566508
O O3 0.479988 0.610226 0.606409
O O4 0.504025 0.642022 0.482353
O O5 0.250000 0.556649 0.655991
O O6 0.485711 0.534667 0.719484
O O7 0.442498 0.459461 0.613105
O O8 0.750000 0.633648 0.877907
O O9 0.589016 0.750000 0.848021
O O10 0.497652 0.621629 0.818063
O O11 0.511304 0.662421 0.942183
O O12 0.250000 0.560450 0.793957
O O13 0.463506 0.476922 0.836748
O O14 0.250000 0.418929 0.906681
O O15 0.404366 0.529560 0.951221
O O16 0.520925 0.397627 0.942667
O O17 0.250000 0.857100 0.991846
O O18 0.250000 0.432782 0.520363
O O19 0.000000 0.500000 0.500000
#
# Coordination Sequence:
#
# PCOD8242284 Si02
#       7
#     8   8   8   8   8   8   8
#     4   9  17  29  45  66  92 120 150 185 224 263
#     4   8  15  28  45  65  88 116 150 184 218 258
#     4  10  20  31  41  57  85 116 142 172 211 251
#     4   9  17  29  45  63  83 111 145 175 205 249
#     4   8  14  24  39  60  82 101 126 167 212 244
#     4   9  16  26  42  60  77 103 138 172 204 240
#     4   9  16  28  46  65  87 115 148 187 226 263
#
# _framework density 16.351937
#
# number of rings (size 3 to 8) (size 9 to 14) (size 15 to 20)
#    0.000    3.143    0.000    3.000    0.000    5.429 
#    0.000    5.000    0.000    0.000    0.000    1.000 
#    0.000    3.429    0.000    0.000    0.000    0.000 
#
# Total GULP energy -693848.162458 kJ/mol
# GULP energy per Si atom -12390.145758 kJ/mol
# Density = 1.631472 g / cm^3
# Si number density = 16.351937 Si / 1000 Ang^3
#
#
#
# Elastic Constant Matrix: (Units=GPa)
#
#
# Indices 1 2 3 4 5 6 
#
# 1 69.2576 16.8022 42.4116 0.0000 0.0000 0.0000
# 2 16.8022 31.0865 45.5648 0.0000 0.0000 0.0000
# 3 42.4116 45.5648 129.7449 0.0000 0.0000 0.0000
# 4 0.0000 0.0000 0.0000 16.0330 0.0000 0.0000
# 5 0.0000 0.0000 0.0000 0.0000 20.2504 0.0000
# 6 0.0000 0.0000 0.0000 0.0000 0.0000 21.5444
#
#
#
# Elastic Compliance Matrix: (Units=1/GPa)
#
#
# Indices 1 2 3 4 5 6 
#
# 1 0.018131 -0.002293 -0.005122 0.000000 0.000000 0.000000
# 2 -0.002293 0.066583 -0.022633 0.000000 0.000000 0.000000
# 3 -0.005122 -0.022633 0.017330 0.000000 0.000000 0.000000
# 4 0.000000 0.000000 0.000000 0.062371 0.000000 0.000000
# 5 0.000000 0.000000 0.000000 0.000000 0.049382 0.000000
# 6 0.000000 0.000000 0.000000 0.000000 0.000000 0.046416
#
#
# Mechanical properties :
#
#
# Convention : Reuss Voigt Hill
#
# Bulk Modulus (GPa) = 23.83901 48.84958 36.34429
# Shear Modulus (GPa) = 14.95699 19.91958 17.43828
#
# Velocity S-wave (km/s) = 3.02767 3.49403 3.26917
# Velocity P-wave (km/s) = 5.18003 6.79826 6.04355
#
# Compressibility (1/GPa) = 0.04194805
#
# Stress axis : x y z
#
# Youngs Moduli (GPa) = 55.15265 15.01896 57.70275
#
# Poissons Ratio (x) = 0.03444 0.29553
# Poissons Ratio (y) = 0.12647 1.30601
# Poissons Ratio (z) = 0.28247 0.33993
#
# Static dielectric constant tensor:
#      x y z
#    x 3.217290 0.000000 0.000000 
#    y 0.000000 2.964910 0.000000 
#    z 0.000000 0.000000 3.445340 
# 
# 
# High freq. dielectric constant tensor:
#      x y z
#    x 1.627100 0.000000 0.000000 
#    y 0.000000 1.589800 0.000000 
#    z 0.000000 0.000000 1.617820 
# 
# From -- ./inp_files/31696.got.cif
#   From: 2010.03.12/outbox.cif.g09.slc.cpg/sg59_16_cif.got.tgz:31696.got - 2010.04.16 16:29:54.
