data_PCOD8242719
_publ_section_title
;
Structure prediction by ZEFSAII (Michael W. Deem and Ramdas Pophale) SiO2 
 PCOD8242719
Probable space group: P M M N
;
_chemical_formula_sum "Si O2"
_cell_formula_units_Z 64
_cell_length_a 19.171820
_cell_length_b 8.900314
_cell_length_c 21.593535
_cell_angle_alpha 90.000000
_cell_angle_beta 90.000000
_cell_angle_gamma 90.000000
_cell_volume 3684.617551
_symmetry_space_group_name_H-M "P M M N"
_symmetry_group_IT_number 59
_space_group.IT_coordinate_system_code '2'
_symmetry_cell_setting 'orthorhombic'
loop_
_space_group_symop_operation_xyz
x,y,z
1/2-x,1/2-y,z
1/2+x,-y,-z
-x,1/2+y,-z
-x,-y,-z
1/2+x,1/2+y,-z
1/2-x,y,z
x,1/2-y,z
loop_
_atom_site_type_symbol
_atom_site_label
_atom_site_fract_x
_atom_site_fract_y
_atom_site_fract_z
Si Si1 0.894856 0.415234 0.488897
Si Si2 0.034732 0.084229 0.411384
Si Si3 0.958954 0.572210 0.304171
Si Si4 0.328949 0.573666 0.017116
Si Si5 0.329128 0.572938 0.634059
Si Si6 0.049370 0.573214 0.822103
Si Si7 0.170382 0.077071 0.886305
Si Si8 0.460746 0.426327 0.057558
O O1 0.871426 0.250000 0.511364
O O2 0.899400 0.520490 0.549531
O O3 0.840482 0.477901 0.437622
O O4 0.969609 0.404746 0.456679
O O5 0.054337 0.250000 0.386443
O O6 0.016645 0.975610 0.354391
O O7 0.958006 0.750000 0.298215
O O8 0.881316 0.515909 0.321334
O O9 0.982803 0.497859 0.239777
O O10 0.250000 0.535740 0.038045
O O11 0.343413 0.750000 0.017250
O O12 0.382355 0.491863 0.063395
O O13 0.343868 0.514759 0.948523
O O14 0.250000 0.535952 0.653693
O O15 0.346164 0.750000 0.639770
O O16 0.059520 0.750000 0.813813
O O17 0.124355 0.496082 0.832534
O O18 0.998836 0.532654 0.878809
O O19 0.250000 0.062218 0.864741
O O20 0.149597 0.250000 0.897638
O O21 0.457794 0.250000 0.046203
O O22 0.500000 0.500000 0.000000
#
# Coordination Sequence:
#
# PCOD8242719 Si02
#       8
#     8   8   8   8   8   8   8   8
#     4   8  14  25  44  70  95 121 157 198 239 281
#     4   9  16  28  46  67  93 123 156 197 243 288
#     4  11  22  34  49  69  96 131 170 212 251 296
#     4  10  20  34  53  77 104 133 164 201 252 313
#     4   9  18  33  51  71 100 138 174 207 244 289
#     4  11  23  37  52  72  99 135 175 215 263 319
#     4  10  20  33  50  72  98 130 169 211 253 301
#     4  11  22  35  55  79 104 133 168 216 271 321
#
# _framework density 17.369509999999998
#
# number of rings (size 3 to 8) (size 9 to 14) (size 15 to 20)
#    0.000    2.125    1.250    3.750    0.000    6.750 
#    0.000    0.000    0.000    0.000    0.000    0.875 
#    0.000    5.000    0.000    0.000    0.000    0.000 
#
# Total GULP energy -793553.317492 kJ/mol
# GULP energy per Si atom -12399.270586 kJ/mol
# Density = 1.732998 g / cm^3
# Si number density = 17.369510 Si / 1000 Ang^3
#
#
#
# Elastic Constant Matrix: (Units=GPa)
#
#
# Indices 1 2 3 4 5 6 
#
# 1 55.1809 37.5829 38.8183 0.0000 0.0000 0.0000
# 2 37.5829 99.3645 51.4155 0.0000 0.0000 0.0000
# 3 38.8183 51.4155 98.6515 0.0000 0.0000 0.0000
# 4 0.0000 0.0000 0.0000 30.5423 0.0000 0.0000
# 5 0.0000 0.0000 0.0000 0.0000 18.4152 0.0000
# 6 0.0000 0.0000 0.0000 0.0000 0.0000 24.7915
#
#
#
# Elastic Compliance Matrix: (Units=1/GPa)
#
#
# Indices 1 2 3 4 5 6 
#
# 1 0.027966 -0.006687 -0.007519 0.000000 0.000000 0.000000
# 2 -0.006687 0.015379 -0.005384 0.000000 0.000000 0.000000
# 3 -0.007519 -0.005384 0.015902 0.000000 0.000000 0.000000
# 4 0.000000 0.000000 0.000000 0.032742 0.000000 0.000000
# 5 0.000000 0.000000 0.000000 0.000000 0.054303 0.000000
# 6 0.000000 0.000000 0.000000 0.000000 0.000000 0.040336
#
#
# Mechanical properties :
#
#
# Convention : Reuss Voigt Hill
#
# Bulk Modulus (GPa) = 49.83492 56.53669 53.18580
# Shear Modulus (GPa) = 21.50565 23.10848 22.30706
#
# Velocity S-wave (km/s) = 3.52252 3.65143 3.58755
# Velocity P-wave (km/s) = 6.73034 7.09910 6.91718
#
# Compressibility (1/GPa) = 0.02006625
#
# Stress axis : x y z
#
# Youngs Moduli (GPa) = 35.75747 65.02315 62.88693
#
# Poissons Ratio (x) = 0.43480 0.47286
# Poissons Ratio (y) = 0.23911 0.33859
# Poissons Ratio (z) = 0.26887 0.35009
#
# Static dielectric constant tensor:
#      x y z
#    x 3.328050 0.000000 0.000000 
#    y 0.000000 3.411990 0.000000 
#    z 0.000000 0.000000 3.135910 
# 
# 
# High freq. dielectric constant tensor:
#      x y z
#    x 1.644620 0.000000 0.000000 
#    y 0.000000 1.684650 0.000000 
#    z 0.000000 0.000000 1.651990 
# 
# From -- ./inp_files/31022.got.cif
#   From: 2010.03.12/outbox.cif.g09.slc.cpg/sg59_16_cif.got.tgz:31022.got - 2010.04.16 16:29:54.
