data_PCOD8242612
_publ_section_title
;
Structure prediction by ZEFSAII (Michael W. Deem and Ramdas Pophale) SiO2 
 PCOD8242612
Probable space group: P M M N
;
_chemical_formula_sum "Si O2"
_cell_formula_units_Z 48
_cell_length_a 20.424813
_cell_length_b 9.083675
_cell_length_c 15.078456
_cell_angle_alpha 90.000000
_cell_angle_beta 90.000000
_cell_angle_gamma 90.000000
_cell_volume 2797.541576
_symmetry_space_group_name_H-M "P M M N"
_symmetry_group_IT_number 59
_space_group.IT_coordinate_system_code '2'
_symmetry_cell_setting 'orthorhombic'
loop_
_space_group_symop_operation_xyz
x,y,z
1/2-x,1/2-y,z
1/2+x,-y,-z
-x,1/2+y,-z
-x,-y,-z
1/2+x,1/2+y,-z
1/2-x,y,z
x,1/2-y,z
loop_
_atom_site_type_symbol
_atom_site_label
_atom_site_fract_x
_atom_site_fract_y
_atom_site_fract_z
Si Si1 0.007145 0.915644 0.745605
Si Si2 0.154612 0.914705 0.701359
Si Si3 0.447305 0.423751 0.436071
Si Si4 0.179562 0.422224 0.874759
Si Si5 0.537466 0.924554 0.079624
Si Si6 0.177269 0.579870 0.504006
O O1 0.992113 0.750000 0.779997
O O2 0.076827 0.922919 0.698535
O O3 0.957913 0.963770 0.667617
O O4 0.003269 0.026297 0.828649
O O5 0.178883 0.750000 0.722369
O O6 0.180478 0.967611 0.606655
O O7 0.184483 0.018693 0.775554
O O8 0.500000 0.500000 0.500000
O O9 0.453312 0.250000 0.451806
O O10 0.373868 0.477340 0.453749
O O11 0.250000 0.461320 0.922354
O O12 0.170887 0.250000 0.867091
O O13 0.113828 0.481240 0.923846
O O14 0.531862 0.750000 0.070482
O O15 0.500000 0.000000 0.000000
O O16 0.250000 0.556881 0.463193
O O17 0.154945 0.750000 0.496159
#
# Coordination Sequence:
#
# PCOD8242612 Si02
#       6
#     8   8   8   8   8   8
#     4   9  18  33  52  74 100 132 170 213 254 301
#     4   9  16  29  47  69  99 134 168 200 245 302
#     4  11  21  34  53  75 103 138 180 220 258 307
#     4   9  18  31  47  71 102 131 161 199 246 301
#     4  10  20  34  54  78 103 132 165 207 256 307
#     4  10  20  33  48  70 104 142 178 218 264 309
#
# _framework density 17.157921999999999
#
# number of rings (size 3 to 8) (size 9 to 14) (size 15 to 20)
#    0.000    2.333    1.667    1.500    0.000    4.000 
#    0.000    0.000    0.000    1.000    0.000    2.333 
#    0.000    0.000    0.000    0.000    0.000    0.000 
#
# Total GULP energy -594885.827457 kJ/mol
# GULP energy per Si atom -12393.454739 kJ/mol
# Density = 1.711887 g / cm^3
# Si number density = 17.157922 Si / 1000 Ang^3
#
#
#
# Elastic Constant Matrix: (Units=GPa)
#
#
# Indices 1 2 3 4 5 6 
#
# 1 120.8922 45.5444 64.8129 0.0000 0.0000 0.0000
# 2 45.5444 53.9528 43.9997 0.0000 0.0000 0.0000
# 3 64.8129 43.9997 88.2348 0.0000 0.0000 0.0000
# 4 0.0000 0.0000 0.0000 29.3962 0.0000 0.0000
# 5 0.0000 0.0000 0.0000 0.0000 5.5863 0.0000
# 6 0.0000 0.0000 0.0000 0.0000 0.0000 21.5116
#
#
#
# Elastic Compliance Matrix: (Units=1/GPa)
#
#
# Indices 1 2 3 4 5 6 
#
# 1 0.014745 -0.006091 -0.007793 0.000000 0.000000 0.000000
# 2 -0.006091 0.033755 -0.012358 0.000000 0.000000 0.000000
# 3 -0.007793 -0.012358 0.023220 0.000000 0.000000 0.000000
# 4 0.000000 0.000000 0.000000 0.034018 0.000000 0.000000
# 5 0.000000 0.000000 0.000000 0.000000 0.179009 0.000000
# 6 0.000000 0.000000 0.000000 0.000000 0.000000 0.046487
#
#
# Mechanical properties :
#
#
# Convention : Reuss Voigt Hill
#
# Bulk Modulus (GPa) = 51.98864 63.53263 57.76064
# Shear Modulus (GPa) = 12.81620 18.54700 15.68160
#
# Velocity S-wave (km/s) = 2.73601 3.29136 3.02645
# Velocity P-wave (km/s) = 6.35192 7.18001 6.77862
#
# Compressibility (1/GPa) = 0.01923497
#
# Stress axis : x y z
#
# Youngs Moduli (GPa) = 67.82071 29.62526 43.06540
#
# Poissons Ratio (x) = 0.18045 0.33562
# Poissons Ratio (y) = 0.41311 0.53221
# Poissons Ratio (z) = 0.52854 0.36611
#
# Static dielectric constant tensor:
#      x y z
#    x 3.520390 0.000000 0.000000 
#    y 0.000000 3.460420 0.000000 
#    z 0.000000 0.000000 2.979710 
# 
# 
# High freq. dielectric constant tensor:
#      x y z
#    x 1.668320 0.000000 0.000000 
#    y 0.000000 1.662120 0.000000 
#    z 0.000000 0.000000 1.630810 
# 
# From -- ./inp_files/20724.got.cif
#   From: 2010.03.12/outbox.cif.g09.slc.cpg/sg59_11_cif.got.tgz:20724.got - 2010.04.16 16:29:54.
