data_PCOD8242049
_publ_section_title
;
Structure prediction by ZEFSAII (Michael W. Deem and Ramdas Pophale) SiO2 
 PCOD8242049
Probable space group: P M M N
;
_chemical_formula_sum "Si O2"
_cell_formula_units_Z 64
_cell_length_a 21.597638
_cell_length_b 15.020738
_cell_length_c 9.862145
_cell_angle_alpha 90.000000
_cell_angle_beta 90.000000
_cell_angle_gamma 90.000000
_cell_volume 3199.402738
_symmetry_space_group_name_H-M "P M M N"
_symmetry_group_IT_number 59
_space_group.IT_coordinate_system_code '2'
_symmetry_cell_setting 'orthorhombic'
loop_
_space_group_symop_operation_xyz
x,y,z
1/2-x,1/2-y,z
1/2+x,-y,-z
-x,1/2+y,-z
-x,-y,-z
1/2+x,1/2+y,-z
1/2-x,y,z
x,1/2-y,z
loop_
_atom_site_type_symbol
_atom_site_label
_atom_site_fract_x
_atom_site_fract_y
_atom_site_fract_z
Si Si1 0.493232 0.611935 0.642942
Si Si2 0.897571 0.648503 0.840607
Si Si3 0.393528 0.855965 0.043804
Si Si4 0.862957 0.347640 0.261216
Si Si5 0.556057 0.917679 0.374795
Si Si6 0.678813 0.482522 0.758081
Si Si7 0.318982 0.504538 0.550520
Si Si8 0.530280 0.648619 0.089687
O O1 0.540304 0.647729 0.753038
O O2 0.428702 0.661811 0.662860
O O3 0.481707 0.506871 0.659267
O O4 0.521388 0.633977 0.495293
O O5 0.871087 0.750000 0.843898
O O6 0.846596 0.581959 0.782385
O O7 0.917116 0.610347 0.988944
O O8 0.388523 0.750000 0.068801
O O9 0.462774 0.894667 0.066503
O O10 0.351699 0.905453 0.153464
O O11 0.372009 0.882200 0.892490
O O12 0.831836 0.250000 0.260472
O O13 0.819244 0.414509 0.342786
O O14 0.627971 0.933664 0.412551
O O15 0.554347 0.857346 0.242370
O O16 0.750000 0.484560 0.798227
O O17 0.667938 0.458271 0.600316
O O18 0.250000 0.460835 0.556861
O O19 0.522257 0.750000 0.045670
#
# Coordination Sequence:
#
# PCOD8242049 Si02
#       8
#     8   8   8   8   8   8   8   8
#     4  10  19  34  59  89 118 149 190 239 298 359
#     4  11  22  39  62  88 119 156 200 249 303 354
#     4  10  22  40  62  93 127 156 192 240 302 370
#     4  10  21  37  60  91 123 154 190 239 298 361
#     4  10  21  36  56  89 118 153 198 241 297 357
#     4  11  25  43  62  85 117 162 208 250 297 348
#     4  10  23  42  58  80 115 156 204 244 287 348
#     4  10  22  37  58  90 123 152 186 241 308 364
#
# _framework density 20.003734000000001
#
# number of rings (size 3 to 8) (size 9 to 14) (size 15 to 20)
#    0.000    1.750    2.500    1.125    7.000    3.750 
#    0.000    2.500    0.000    1.125    0.000    0.000 
#    0.000    0.000    0.000    0.000    0.000    0.000 
#
# Total GULP energy -793537.380896 kJ/mol
# GULP energy per Si atom -12399.021577 kJ/mol
# Density = 1.995820 g / cm^3
# Si number density = 20.003734 Si / 1000 Ang^3
#
#
#
# Elastic Constant Matrix: (Units=GPa)
#
#
# Indices 1 2 3 4 5 6 
#
# 1 92.0495 24.4346 43.5513 0.0000 0.0000 0.0000
# 2 24.4346 54.3709 27.7342 0.0000 0.0000 0.0000
# 3 43.5513 27.7342 141.2156 0.0000 0.0000 0.0000
# 4 0.0000 0.0000 0.0000 19.1060 0.0000 0.0000
# 5 0.0000 0.0000 0.0000 0.0000 18.5765 0.0000
# 6 0.0000 0.0000 0.0000 0.0000 0.0000 8.7263
#
#
#
# Elastic Compliance Matrix: (Units=1/GPa)
#
#
# Indices 1 2 3 4 5 6 
#
# 1 0.013612 -0.004419 -0.003330 0.000000 0.000000 0.000000
# 2 -0.004419 0.021874 -0.002933 0.000000 0.000000 0.000000
# 3 -0.003330 -0.002933 0.008685 0.000000 0.000000 0.000000
# 4 0.000000 0.000000 0.000000 0.052340 0.000000 0.000000
# 5 0.000000 0.000000 0.000000 0.000000 0.053831 0.000000
# 6 0.000000 0.000000 0.000000 0.000000 0.000000 0.114596
#
#
# Mechanical properties :
#
#
# Convention : Reuss Voigt Hill
#
# Bulk Modulus (GPa) = 43.84701 53.23070 48.53885
# Shear Modulus (GPa) = 17.01230 22.07615 19.54423
#
# Velocity S-wave (km/s) = 2.91942 3.32565 3.12914
# Velocity P-wave (km/s) = 5.77330 6.43543 6.11334
#
# Compressibility (1/GPa) = 0.02280657
#
# Stress axis : x y z
#
# Youngs Moduli (GPa) = 73.46288 45.71589 115.14747
#
# Poissons Ratio (x) = 0.20201 0.38347
# Poissons Ratio (y) = 0.32461 0.33776
# Poissons Ratio (z) = 0.24465 0.13410
#
# Static dielectric constant tensor:
#      x y z
#    x 3.609630 0.000000 0.000000 
#    y 0.000000 3.441700 0.000000 
#    z 0.000000 0.000000 3.793650 
# 
# 
# High freq. dielectric constant tensor:
#      x y z
#    x 1.769600 0.000000 0.000000 
#    y 0.000000 1.765070 0.000000 
#    z 0.000000 0.000000 1.797610 
# 
# From -- ./inp_files/12191.got.cif
#   From: 2010.03.12/outbox.cif.g09.slc.cpg/sg59_7_cif.got.tgz:12191.got - 2010.04.16 16:29:54.
