data_PCOD8242782
_publ_section_title
;
Structure prediction by ZEFSAII (Michael W. Deem and Ramdas Pophale) SiO2 
 PCOD8242782
Probable space group: P M M N
;
_chemical_formula_sum "Si O2"
_cell_formula_units_Z 56
_cell_length_a 21.538375
_cell_length_b 8.779982
_cell_length_c 16.893989
_cell_angle_alpha 90.000000
_cell_angle_beta 90.000000
_cell_angle_gamma 90.000000
_cell_volume 3194.763888
_symmetry_space_group_name_H-M "P M M N"
_symmetry_group_IT_number 59
_space_group.IT_coordinate_system_code '2'
_symmetry_cell_setting 'orthorhombic'
loop_
_space_group_symop_operation_xyz
x,y,z
1/2-x,1/2-y,z
1/2+x,-y,-z
-x,1/2+y,-z
-x,-y,-z
1/2+x,1/2+y,-z
1/2-x,y,z
x,1/2-y,z
loop_
_atom_site_type_symbol
_atom_site_label
_atom_site_fract_x
_atom_site_fract_y
_atom_site_fract_z
Si Si1 0.938823 0.426496 0.538778
Si Si2 0.524305 0.070880 0.875504
Si Si3 0.376415 0.570020 0.692124
Si Si4 0.320759 0.070678 0.542715
Si Si5 0.585159 0.428120 0.028636
Si Si6 0.993813 0.073772 0.701681
Si Si7 0.182640 0.929444 0.852195
O O1 0.938070 0.250000 0.513955
O O2 0.873390 0.499793 0.513929
O O3 0.000000 0.500000 0.500000
O O4 0.942030 0.446817 0.633997
O O5 0.522474 0.250000 0.870224
O O6 0.532714 0.008447 0.785758
O O7 0.461012 0.014634 0.913408
O O8 0.579404 0.019643 0.936464
O O9 0.370903 0.750000 0.683653
O O10 0.329169 0.494139 0.630727
O O11 0.446375 0.520311 0.673791
O O12 0.358578 0.509472 0.779464
O O13 0.250000 0.031185 0.514489
O O14 0.331236 0.250000 0.543885
O O15 0.569849 0.250000 0.036839
O O16 0.652918 0.468586 0.062336
O O17 0.013467 0.250000 0.709753
O O18 0.250000 0.007843 0.850130
O O19 0.189082 0.750000 0.842048
#
# Coordination Sequence:
#
# PCOD8242782 Si02
#       7
#     8   8   8   8   8   8   8
#     4  11  22  36  56  79 106 139 178 223 268 317
#     4   9  17  29  47  69  96 127 159 201 251 296
#     4  11  20  31  51  76 104 137 172 209 254 312
#     4  11  24  40  56  76 106 141 178 220 267 321
#     4   9  16  28  46  68  94 127 166 201 239 290
#     4  10  20  33  50  74 106 136 165 212 266 312
#     4   9  17  28  43  68 101 132 164 203 244 293
#
# _framework density 17.528680999999999
#
# number of rings (size 3 to 8) (size 9 to 14) (size 15 to 20)
#    0.000    2.000    2.857    1.714    0.000    2.286 
#    0.000    0.000    0.000    2.143    0.000    4.000 
#    0.000    0.000    0.000    0.000    0.000    0.000 
#
# Total GULP energy -693956.967339 kJ/mol
# GULP energy per Si atom -12392.088702 kJ/mol
# Density = 1.748879 g / cm^3
# Si number density = 17.528681 Si / 1000 Ang^3
#
#
#
# Elastic Constant Matrix: (Units=GPa)
#
#
# Indices 1 2 3 4 5 6 
#
# 1 113.8909 34.8670 57.9119 0.0000 0.0000 0.0000
# 2 34.8670 48.1355 29.9437 0.0000 0.0000 0.0000
# 3 57.9119 29.9437 121.0357 0.0000 0.0000 0.0000
# 4 0.0000 0.0000 0.0000 18.9636 0.0000 0.0000
# 5 0.0000 0.0000 0.0000 0.0000 25.8634 0.0000
# 6 0.0000 0.0000 0.0000 0.0000 0.0000 21.7002
#
#
#
# Elastic Compliance Matrix: (Units=1/GPa)
#
#
# Indices 1 2 3 4 5 6 
#
# 1 0.013189 -0.006651 -0.004665 0.000000 0.000000 0.000000
# 2 -0.006651 0.027908 -0.003722 0.000000 0.000000 0.000000
# 3 -0.004665 -0.003722 0.011415 0.000000 0.000000 0.000000
# 4 0.000000 0.000000 0.000000 0.052733 0.000000 0.000000
# 5 0.000000 0.000000 0.000000 0.000000 0.038665 0.000000
# 6 0.000000 0.000000 0.000000 0.000000 0.000000 0.046083
#
#
# Mechanical properties :
#
#
# Convention : Reuss Voigt Hill
#
# Bulk Modulus (GPa) = 44.57275 58.72303 51.64789
# Shear Modulus (GPa) = 21.97364 23.99473 22.98419
#
# Velocity S-wave (km/s) = 3.54444 3.70386 3.62502
# Velocity P-wave (km/s) = 6.49880 7.20175 6.85929
#
# Compressibility (1/GPa) = 0.02243523
#
# Stress axis : x y z
#
# Youngs Moduli (GPa) = 75.82318 35.83230 87.60580
#
# Poissons Ratio (x) = 0.23833 0.40867
# Poissons Ratio (y) = 0.50432 0.32605
# Poissons Ratio (z) = 0.35370 0.13336
#
# Static dielectric constant tensor:
#      x y z
#    x 3.248810 0.000000 0.000000 
#    y 0.000000 3.188640 0.000000 
#    z 0.000000 0.000000 3.688210 
# 
# 
# High freq. dielectric constant tensor:
#      x y z
#    x 1.655440 0.000000 0.000000 
#    y 0.000000 1.669070 0.000000 
#    z 0.000000 0.000000 1.685280 
# 
# From -- ./inp_files/28065.got.cif
#   From: 2010.03.12/outbox.cif.g09.slc.cpg/sg59_15_cif.got.tgz:28065.got - 2010.04.16 16:29:54.
