data_PCOD8242180
_publ_section_title
;
Structure prediction by ZEFSAII (Michael W. Deem and Ramdas Pophale) SiO2 
 PCOD8242180
Probable space group: P M M N
;
_chemical_formula_sum "Si O2"
_cell_formula_units_Z 64
_cell_length_a 10.194006
_cell_length_b 28.306810
_cell_length_c 11.372048
_cell_angle_alpha 90.000000
_cell_angle_beta 90.000000
_cell_angle_gamma 90.000000
_cell_volume 3281.515794
_symmetry_space_group_name_H-M "P M M N"
_symmetry_group_IT_number 59
_space_group.IT_coordinate_system_code '2'
_symmetry_cell_setting 'orthorhombic'
loop_
_space_group_symop_operation_xyz
x,y,z
1/2-x,1/2-y,z
1/2+x,-y,-z
-x,1/2+y,-z
-x,-y,-z
1/2+x,1/2+y,-z
1/2-x,y,z
x,1/2-y,z
loop_
_atom_site_type_symbol
_atom_site_label
_atom_site_fract_x
_atom_site_fract_y
_atom_site_fract_z
Si Si1 0.975515 0.959958 0.826213
Si Si2 0.097921 0.805425 0.600891
Si Si3 0.398928 0.035594 0.438021
Si Si4 0.393068 0.052315 0.920712
Si Si5 0.400184 0.144988 0.809424
Si Si6 0.601682 0.862546 0.463859
Si Si7 0.597643 0.359654 0.172340
Si Si8 0.900112 0.195707 0.947990
O O1 0.900853 0.967356 0.703802
O O2 0.071963 0.915321 0.818541
O O3 0.881368 0.951931 0.937979
O O4 0.051551 0.007294 0.855143
O O5 0.250000 0.818420 0.573060
O O6 0.082337 0.750000 0.620556
O O7 0.040836 0.832486 0.714741
O O8 0.003170 0.822154 0.496149
O O9 0.250000 0.023522 0.478618
O O10 0.438898 0.088165 0.476056
O O11 0.500000 0.000000 0.500000
O O12 0.250000 0.057643 0.866680
O O13 0.463471 0.100582 0.881334
O O14 0.250000 0.158186 0.846269
O O15 0.406157 0.131101 0.674483
O O16 0.500486 0.187658 0.838637
O O17 0.750000 0.848032 0.502182
O O18 0.750000 0.349692 0.170315
O O19 0.541065 0.335735 0.054689
O O20 0.750000 0.181693 0.913885
O O21 0.905144 0.250000 0.986465
#
# Coordination Sequence:
#
# PCOD8242180 Si02
#       8
#     8   8   8   8   8   8   8   8
#     4  11  20  36  62  88 116 153 198 238 289 350
#     4  10  21  38  61  89 120 155 199 249 299 351
#     4  11  24  41  62  89 121 158 200 245 294 351
#     4  10  21  36  57  87 121 153 190 238 291 348
#     4  10  21  39  59  82 117 159 196 239 294 350
#     4  10  22  40  60  84 118 157 201 247 296 351
#     4  10  19  35  60  89 119 152 192 240 297 356
#     4  10  21  38  60  87 118 152 194 245 297 350
#
# _framework density 19.503181999999999
#
# number of rings (size 3 to 8) (size 9 to 14) (size 15 to 20)
#    0.000    1.750    2.500    1.875    0.000    5.500 
#    0.000    5.000    0.000    1.500    0.000    0.000 
#    0.000    0.000    0.000    0.000    0.000    0.000 
#
# Total GULP energy -793299.884512 kJ/mol
# GULP energy per Si atom -12395.310696 kJ/mol
# Density = 1.945879 g / cm^3
# Si number density = 19.503182 Si / 1000 Ang^3
#
#
#
# Elastic Constant Matrix: (Units=GPa)
#
#
# Indices 1 2 3 4 5 6 
#
# 1 83.0170 45.2136 38.6026 0.0000 0.0000 0.0000
# 2 45.2136 84.8610 31.0269 0.0000 0.0000 0.0000
# 3 38.6026 31.0269 82.9618 0.0000 0.0000 0.0000
# 4 0.0000 0.0000 0.0000 32.9700 0.0000 0.0000
# 5 0.0000 0.0000 0.0000 0.0000 11.4404 0.0000
# 6 0.0000 0.0000 0.0000 0.0000 0.0000 19.6804
#
#
#
# Elastic Compliance Matrix: (Units=1/GPa)
#
#
# Indices 1 2 3 4 5 6 
#
# 1 0.019185 -0.008060 -0.005912 0.000000 0.000000 0.000000
# 2 -0.008060 0.017037 -0.002621 0.000000 0.000000 0.000000
# 3 -0.005912 -0.002621 0.015785 0.000000 0.000000 0.000000
# 4 0.000000 0.000000 0.000000 0.030331 0.000000 0.000000
# 5 0.000000 0.000000 0.000000 0.000000 0.087410 0.000000
# 6 0.000000 0.000000 0.000000 0.000000 0.000000 0.050812
#
#
# Mechanical properties :
#
#
# Convention : Reuss Voigt Hill
#
# Bulk Modulus (GPa) = 53.13659 53.39175 53.26417
# Shear Modulus (GPa) = 19.22939 21.88460 20.55700
#
# Velocity S-wave (km/s) = 3.14341 3.35342 3.25011
# Velocity P-wave (km/s) = 6.36231 6.51377 6.43848
#
# Compressibility (1/GPa) = 0.01881942
#
# Stress axis : x y z
#
# Youngs Moduli (GPa) = 52.12526 58.69727 63.35068
#
# Poissons Ratio (x) = 0.47309 0.37456
# Poissons Ratio (y) = 0.42012 0.16606
# Poissons Ratio (z) = 0.30819 0.15386
#
# Static dielectric constant tensor:
#      x y z
#    x 3.488520 0.000000 0.000000 
#    y 0.000000 3.524880 0.000000 
#    z 0.000000 0.000000 3.644860 
# 
# 
# High freq. dielectric constant tensor:
#      x y z
#    x 1.749480 0.000000 0.000000 
#    y 0.000000 1.764320 0.000000 
#    z 0.000000 0.000000 1.765050 
# 
# From -- ./inp_files/14939.got.cif
#   From: 2010.03.12/outbox.cif.g09.slc.cpg/sg59_8_cif.got.tgz:14939.got - 2010.04.16 16:29:54.
