data_PCOD8242671
_publ_section_title
;
Structure prediction by ZEFSAII (Michael W. Deem and Ramdas Pophale) SiO2 
 PCOD8242671
Probable space group: P M M N
;
_chemical_formula_sum "Si O2"
_cell_formula_units_Z 64
_cell_length_a 23.496771
_cell_length_b 9.418190
_cell_length_c 15.280735
_cell_angle_alpha 90.000000
_cell_angle_beta 90.000000
_cell_angle_gamma 90.000000
_cell_volume 3381.581633
_symmetry_space_group_name_H-M "P M M N"
_symmetry_group_IT_number 59
_space_group.IT_coordinate_system_code '2'
_symmetry_cell_setting 'orthorhombic'
loop_
_space_group_symop_operation_xyz
x,y,z
1/2-x,1/2-y,z
1/2+x,-y,-z
-x,1/2+y,-z
-x,-y,-z
1/2+x,1/2+y,-z
1/2-x,y,z
x,1/2-y,z
loop_
_atom_site_type_symbol
_atom_site_label
_atom_site_fract_x
_atom_site_fract_y
_atom_site_fract_z
Si Si1 0.995557 0.585465 0.722083
Si Si2 0.817532 0.092663 0.811484
Si Si3 0.375353 0.410006 0.867665
Si Si4 0.606962 0.586269 0.324338
Si Si5 0.685431 0.918228 0.479666
Si Si6 0.315560 0.096295 0.036427
Si Si7 0.519461 0.084784 0.084784
Si Si8 0.628289 0.583883 0.660193
O O1 0.011877 0.750000 0.710381
O O2 0.046930 0.495005 0.681113
O O3 0.984031 0.553129 0.825617
O O4 0.938424 0.546050 0.669121
O O5 0.750000 0.101763 0.815821
O O6 0.844034 0.250000 0.804347
O O7 0.843216 0.021575 0.900174
O O8 0.834471 0.000267 0.729137
O O9 0.401031 0.250000 0.879835
O O10 0.357910 0.429381 0.766551
O O11 0.417685 0.533811 0.894210
O O12 0.322579 0.435091 0.933073
O O13 0.592361 0.750000 0.345042
O O14 0.648521 0.521720 0.398326
O O15 0.750000 0.981172 0.479213
O O16 0.689474 0.750000 0.472966
O O17 0.651309 0.964904 0.566032
O O18 0.250000 0.103589 0.058430
O O19 0.343750 0.250000 0.058596
O O20 0.518540 0.250000 0.061100
O O21 0.500000 0.000000 0.000000
O O22 0.638626 0.750000 0.676476
#
# Coordination Sequence:
#
# PCOD8242671 Si02
#       8
#     8   8   8   8   8   8   8   8
#     4   9  20  36  52  75 107 142 180 221 267 317
#     4  10  21  35  50  73 106 139 173 220 273 320
#     4   9  18  32  50  73 102 134 170 213 258 309
#     4   9  18  34  55  79 108 139 174 219 267 317
#     4   9  18  33  56  85 110 135 174 222 270 319
#     4   9  18  32  50  72  99 135 176 213 256 315
#     4  10  20  33  49  71 101 137 176 220 264 310
#     4  10  20  35  56  79 105 141 182 221 263 320
#
# _framework density 18.926055000000002
#
# number of rings (size 3 to 8) (size 9 to 14) (size 15 to 20)
#    0.000    2.625    0.000    1.125    1.750    3.750 
#    0.000    3.125    0.000    1.125    0.000    3.500 
#    0.000    0.000    0.000    0.000    0.000    0.000 
#
# Total GULP energy -793110.224287 kJ/mol
# GULP energy per Si atom -12392.347254 kJ/mol
# Density = 1.888298 g / cm^3
# Si number density = 18.926055 Si / 1000 Ang^3
#
#
#
# Elastic Constant Matrix: (Units=GPa)
#
#
# Indices 1 2 3 4 5 6 
#
# 1 75.2733 37.7754 67.0123 0.0000 0.0000 0.0000
# 2 37.7754 74.1940 59.2695 0.0000 0.0000 0.0000
# 3 67.0123 59.2695 165.9724 0.0000 0.0000 0.0000
# 4 0.0000 0.0000 0.0000 16.4503 0.0000 0.0000
# 5 0.0000 0.0000 0.0000 0.0000 36.0637 0.0000
# 6 0.0000 0.0000 0.0000 0.0000 0.0000 22.6182
#
#
#
# Elastic Compliance Matrix: (Units=1/GPa)
#
#
# Indices 1 2 3 4 5 6 
#
# 1 0.022421 -0.005854 -0.006962 0.000000 0.000000 0.000000
# 2 -0.005854 0.020386 -0.004917 0.000000 0.000000 0.000000
# 3 -0.006962 -0.004917 0.010592 0.000000 0.000000 0.000000
# 4 0.000000 0.000000 0.000000 0.060789 0.000000 0.000000
# 5 0.000000 0.000000 0.000000 0.000000 0.027729 0.000000
# 6 0.000000 0.000000 0.000000 0.000000 0.000000 0.044212
#
#
# Mechanical properties :
#
#
# Convention : Reuss Voigt Hill
#
# Bulk Modulus (GPa) = 55.76026 71.50601 63.63313
# Shear Modulus (GPa) = 21.97119 25.11860 23.54489
#
# Velocity S-wave (km/s) = 3.41089 3.64702 3.53093
# Velocity P-wave (km/s) = 6.71106 7.45642 7.09354
#
# Compressibility (1/GPa) = 0.01793392
#
# Stress axis : x y z
#
# Youngs Moduli (GPa) = 44.60203 49.05318 94.41298
#
# Poissons Ratio (x) = 0.28714 0.65731
# Poissons Ratio (y) = 0.26108 0.46418
# Poissons Ratio (z) = 0.31052 0.24117
#
# Static dielectric constant tensor:
#      x y z
#    x 3.353490 0.000000 0.000000 
#    y 0.000000 3.492530 0.000000 
#    z 0.000000 0.000000 3.879380 
# 
# 
# High freq. dielectric constant tensor:
#      x y z
#    x 1.718490 0.000000 0.000000 
#    y 0.000000 1.721220 0.000000 
#    z 0.000000 0.000000 1.745380 
# 
# From -- ./inp_files/21458.got.cif
#   From: 2010.03.12/outbox.cif.g09.slc.cpg/sg59_11_cif.got.tgz:21458.got - 2010.04.16 16:29:54.
