data_PCOD8242138
_publ_section_title
;
Structure prediction by ZEFSAII (Michael W. Deem and Ramdas Pophale) SiO2 
 PCOD8242138
Probable space group: P M M N
;
_chemical_formula_sum "Si O2"
_cell_formula_units_Z 64
_cell_length_a 24.715349
_cell_length_b 8.867705
_cell_length_c 15.116669
_cell_angle_alpha 90.000000
_cell_angle_beta 90.000000
_cell_angle_gamma 90.000000
_cell_volume 3313.096519
_symmetry_space_group_name_H-M "P M M N"
_symmetry_group_IT_number 59
_space_group.IT_coordinate_system_code '2'
_symmetry_cell_setting 'orthorhombic'
loop_
_space_group_symop_operation_xyz
x,y,z
1/2-x,1/2-y,z
1/2+x,-y,-z
-x,1/2+y,-z
-x,-y,-z
1/2+x,1/2+y,-z
1/2-x,y,z
x,1/2-y,z
loop_
_atom_site_type_symbol
_atom_site_label
_atom_site_fract_x
_atom_site_fract_y
_atom_site_fract_z
Si Si1 0.811304 0.073432 0.702127
Si Si2 0.812056 0.426523 0.349990
Si Si3 0.187090 0.415690 0.475906
Si Si4 0.933686 0.913221 0.073462
Si Si5 0.943483 0.413844 0.911219
Si Si6 0.503668 0.429973 0.598569
Si Si7 0.082017 0.427748 0.262543
Si Si8 0.408238 0.428275 0.732459
O O1 0.750000 0.023190 0.727960
O O2 0.818867 0.250000 0.717439
O O3 0.824278 0.034082 0.600822
O O4 0.855794 0.979633 0.756048
O O5 0.750000 0.469702 0.327857
O O6 0.817426 0.250000 0.366198
O O7 0.836245 0.512347 0.435329
O O8 0.851279 0.484197 0.273513
O O9 0.250000 0.392526 0.489480
O O10 0.160355 0.250000 0.457554
O O11 0.904218 0.750000 0.069171
O O12 0.928014 0.982804 0.171318
O O13 0.996477 0.887848 0.053787
O O14 0.909492 0.016130 0.993913
O O15 0.918161 0.250000 0.885689
O O16 0.947875 0.522351 0.826494
O O17 0.500000 0.500000 0.500000
O O18 0.508990 0.250000 0.591094
O O19 0.556336 0.493460 0.650418
O O20 0.451241 0.477105 0.656837
O O21 0.078442 0.250000 0.275367
O O22 0.399110 0.250000 0.727896
#
# Coordination Sequence:
#
# PCOD8242138 Si02
#       8
#     8   8   8   8   8   8   8   8
#     4  10  21  37  57  80 108 145 189 237 286 333
#     4  10  21  35  52  77 109 146 190 236 280 329
#     4   9  17  31  51  74 101 136 183 233 277 323
#     4   9  18  35  57  84 113 143 180 230 286 339
#     4  10  19  35  58  85 115 145 181 232 283 334
#     4  11  24  42  58  81 117 157 196 236 283 338
#     4  12  24  38  59  85 116 154 192 232 280 341
#     4  10  21  38  59  81 113 150 189 234 281 336
#
# _framework density 19.317274999999999
#
# number of rings (size 3 to 8) (size 9 to 14) (size 15 to 20)
#    0.000    1.875    1.250    3.000    1.750    5.000 
#    0.000    0.000    0.000    0.750    0.000    3.500 
#    0.000    0.000    0.000    0.000    0.000    0.000 
#
# Total GULP energy -793115.043245 kJ/mol
# GULP energy per Si atom -12392.422551 kJ/mol
# Density = 1.927331 g / cm^3
# Si number density = 19.317275 Si / 1000 Ang^3
#
#
#
# Elastic Constant Matrix: (Units=GPa)
#
#
# Indices 1 2 3 4 5 6 
#
# 1 68.1165 32.5157 17.5834 0.0000 0.0000 0.0000
# 2 32.5157 100.3225 40.8130 0.0000 0.0000 0.0000
# 3 17.5834 40.8130 111.9125 0.0000 0.0000 0.0000
# 4 0.0000 0.0000 0.0000 31.8485 0.0000 0.0000
# 5 0.0000 0.0000 0.0000 0.0000 17.3281 0.0000
# 6 0.0000 0.0000 0.0000 0.0000 0.0000 26.4458
#
#
#
# Elastic Compliance Matrix: (Units=1/GPa)
#
#
# Indices 1 2 3 4 5 6 
#
# 1 0.017428 -0.005325 -0.000796 0.000000 0.000000 0.000000
# 2 -0.005325 0.013331 -0.004025 0.000000 0.000000 0.000000
# 3 -0.000796 -0.004025 0.010529 0.000000 0.000000 0.000000
# 4 0.000000 0.000000 0.000000 0.031399 0.000000 0.000000
# 5 0.000000 0.000000 0.000000 0.000000 0.057710 0.000000
# 6 0.000000 0.000000 0.000000 0.000000 0.000000 0.037813
#
#
# Mechanical properties :
#
#
# Convention : Reuss Voigt Hill
#
# Bulk Modulus (GPa) = 47.62936 51.35286 49.49111
# Shear Modulus (GPa) = 25.57542 27.75377 26.66460
#
# Velocity S-wave (km/s) = 3.64258 3.79454 3.71934
# Velocity P-wave (km/s) = 6.51161 6.77050 6.64232
#
# Compressibility (1/GPa) = 0.02099545
#
# Stress axis : x y z
#
# Youngs Moduli (GPa) = 57.37870 75.01246 94.97958
#
# Poissons Ratio (x) = 0.39942 0.07564
# Poissons Ratio (y) = 0.30552 0.38230
# Poissons Ratio (z) = 0.04570 0.30193
#
# Static dielectric constant tensor:
#      x y z
#    x 3.447740 0.000000 0.000000 
#    y 0.000000 3.803440 0.000000 
#    z 0.000000 0.000000 3.465430 
# 
# 
# High freq. dielectric constant tensor:
#      x y z
#    x 1.726030 0.000000 0.000000 
#    y 0.000000 1.762000 0.000000 
#    z 0.000000 0.000000 1.741780 
# 
# From -- ./inp_files/24688.got.cif
#   From: 2010.03.12/outbox.cif.g09.slc.cpg/sg59_13_cif.got.tgz:24688.got - 2010.04.16 16:29:54.
