data_PCOD8242135
_publ_section_title
;
Structure prediction by ZEFSAII (Michael W. Deem and Ramdas Pophale) SiO2 
 PCOD8242135
Probable space group: P M M N
;
_chemical_formula_sum "Si O2"
_cell_formula_units_Z 64
_cell_length_a 8.663468
_cell_length_b 28.335661
_cell_length_c 13.084042
_cell_angle_alpha 90.000000
_cell_angle_beta 90.000000
_cell_angle_gamma 90.000000
_cell_volume 3211.937258
_symmetry_space_group_name_H-M "P M M N"
_symmetry_group_IT_number 59
_space_group.IT_coordinate_system_code '2'
_symmetry_cell_setting 'orthorhombic'
loop_
_space_group_symop_operation_xyz
x,y,z
1/2-x,1/2-y,z
1/2+x,-y,-z
-x,1/2+y,-z
-x,-y,-z
1/2+x,1/2+y,-z
1/2-x,y,z
x,1/2-y,z
loop_
_atom_site_type_symbol
_atom_site_label
_atom_site_fract_x
_atom_site_fract_y
_atom_site_fract_z
Si Si1 0.067824 0.548910 0.962664
Si Si2 0.933445 0.641943 0.034583
Si Si3 0.572067 0.640611 0.643922
Si Si4 0.434327 0.303238 0.165277
Si Si5 0.065747 0.133668 0.579364
Si Si6 0.567208 0.973182 0.403139
Si Si7 0.071745 0.456701 0.253899
Si Si8 0.433822 0.303309 0.764646
O O1 0.250000 0.546359 0.965948
O O2 0.010390 0.559956 0.848962
O O3 0.000000 0.500000 0.000000
O O4 0.008694 0.590234 0.037279
O O5 0.750000 0.636323 0.034245
O O6 0.991580 0.670495 0.133485
O O7 0.993923 0.669784 0.935006
O O8 0.750000 0.654866 0.642540
O O9 0.494170 0.671881 0.733389
O O10 0.501357 0.650854 0.531505
O O11 0.552672 0.585068 0.664372
O O12 0.250000 0.304911 0.166530
O O13 0.496244 0.250000 0.161787
O O14 0.250000 0.133995 0.578191
O O15 0.007963 0.080604 0.600593
O O16 0.001085 0.168745 0.666036
O O17 0.750000 0.976035 0.408972
O O18 0.500000 0.000000 0.500000
O O19 0.508195 0.996788 0.298633
O O20 0.250000 0.467367 0.230245
O O21 0.250000 0.302433 0.762610
O O22 0.499215 0.250000 0.763130
#
# Coordination Sequence:
#
# PCOD8242135 Si02
#       8
#     8   8   8   8   8   8   8   8
#     4  12  26  42  60  87 119 154 193 234 293 359
#     4  10  19  35  58  84 117 153 192 240 292 346
#     4   9  16  29  49  77 113 150 186 235 293 343
#     4   9  16  27  49  80 109 143 191 243 295 348
#     4   9  18  31  48  76 115 154 195 244 294 341
#     4  11  21  34  54  83 117 158 203 249 299 357
#     4  11  21  38  59  83 117 154 192 240 299 360
#     4   9  18  32  53  82 116 155 198 248 301 349
#
# _framework density 19.925668000000002
#
# number of rings (size 3 to 8) (size 9 to 14) (size 15 to 20)
#    0.000    2.000    2.500    2.250    1.750    2.000 
#    0.000    2.500    0.000    1.500    0.000    0.000 
#    0.000    1.000    0.000    0.000    0.000    0.000 
#
# Total GULP energy -793588.086423 kJ/mol
# GULP energy per Si atom -12399.813850 kJ/mol
# Density = 1.988032 g / cm^3
# Si number density = 19.925668 Si / 1000 Ang^3
#
#
#
# Elastic Constant Matrix: (Units=GPa)
#
#
# Indices 1 2 3 4 5 6 
#
# 1 53.3258 31.0882 24.7636 0.0000 0.0000 0.0000
# 2 31.0882 162.2622 85.0167 0.0000 0.0000 0.0000
# 3 24.7636 85.0167 167.7712 0.0000 0.0000 0.0000
# 4 0.0000 0.0000 0.0000 37.3549 0.0000 0.0000
# 5 0.0000 0.0000 0.0000 0.0000 19.2848 0.0000
# 6 0.0000 0.0000 0.0000 0.0000 0.0000 20.7063
#
#
#
# Elastic Compliance Matrix: (Units=1/GPa)
#
#
# Indices 1 2 3 4 5 6 
#
# 1 0.021374 -0.003325 -0.001470 0.000000 0.000000 0.000000
# 2 -0.003325 0.008908 -0.004023 0.000000 0.000000 0.000000
# 3 -0.001470 -0.004023 0.008216 0.000000 0.000000 0.000000
# 4 0.000000 0.000000 0.000000 0.026770 0.000000 0.000000
# 5 0.000000 0.000000 0.000000 0.000000 0.051854 0.000000
# 6 0.000000 0.000000 0.000000 0.000000 0.000000 0.048294
#
#
# Mechanical properties :
#
#
# Convention : Reuss Voigt Hill
#
# Bulk Modulus (GPa) = 47.93499 73.89957 60.91728
# Shear Modulus (GPa) = 26.31488 31.63524 28.97506
#
# Velocity S-wave (km/s) = 3.63802 3.98887 3.81748
# Velocity P-wave (km/s) = 6.46189 7.64087 7.07598
#
# Compressibility (1/GPa) = 0.02086159
#
# Stress axis : x y z
#
# Youngs Moduli (GPa) = 46.78668 112.26088 121.71067
#
# Poissons Ratio (x) = 0.37325 0.17891
# Poissons Ratio (y) = 0.15556 0.48967
# Poissons Ratio (z) = 0.06878 0.45165
#
# Static dielectric constant tensor:
#      x y z
#    x 3.126840 0.000000 0.000000 
#    y 0.000000 3.788720 0.000000 
#    z 0.000000 0.000000 3.935880 
# 
# 
# High freq. dielectric constant tensor:
#      x y z
#    x 1.720630 0.000000 0.000000 
#    y 0.000000 1.785310 0.000000 
#    z 0.000000 0.000000 1.792920 
# 
# From -- ./inp_files/15038.got.cif
#   From: 2010.03.12/outbox.cif.g09.slc.cpg/sg59_8_cif.got.tgz:15038.got - 2010.04.16 16:29:54.
