data_PCOD8242604
_publ_section_title
;
Structure prediction by ZEFSAII (Michael W. Deem and Ramdas Pophale) SiO2 
 PCOD8242604
Probable space group: P M M N
;
_chemical_formula_sum "Si O2"
_cell_formula_units_Z 64
_cell_length_a 17.750630
_cell_length_b 9.198488
_cell_length_c 20.918067
_cell_angle_alpha 90.000000
_cell_angle_beta 90.000000
_cell_angle_gamma 90.000000
_cell_volume 3415.480163
_symmetry_space_group_name_H-M "P M M N"
_symmetry_group_IT_number 59
_space_group.IT_coordinate_system_code '2'
_symmetry_cell_setting 'orthorhombic'
loop_
_space_group_symop_operation_xyz
x,y,z
1/2-x,1/2-y,z
1/2+x,-y,-z
-x,1/2+y,-z
-x,-y,-z
1/2+x,1/2+y,-z
1/2-x,y,z
x,1/2-y,z
loop_
_atom_site_type_symbol
_atom_site_label
_atom_site_fract_x
_atom_site_fract_y
_atom_site_fract_z
Si Si1 0.338789 0.581830 0.247516
Si Si2 0.663349 0.078904 0.232522
Si Si3 0.597165 0.577720 0.872669
Si Si4 0.336443 0.583186 0.011073
Si Si5 0.925597 0.421747 0.110784
Si Si6 0.839895 0.912993 0.629072
Si Si7 0.159920 0.086846 0.644417
Si Si8 0.667362 0.577242 0.492094
O O1 0.250000 0.557521 0.238582
O O2 0.360700 0.750000 0.241119
O O3 0.382179 0.488971 0.195181
O O4 0.366657 0.524391 0.316469
O O5 0.750000 0.033344 0.222135
O O6 0.653988 0.250000 0.237751
O O7 0.615889 0.014027 0.173305
O O8 0.630066 0.013315 0.298153
O O9 0.607416 0.750000 0.869436
O O10 0.651735 0.513175 0.926277
O O11 0.512226 0.531216 0.889516
O O12 0.250000 0.572377 0.989565
O O13 0.358190 0.750000 0.026875
O O14 0.386734 0.517894 0.953557
O O15 0.915218 0.250000 0.111705
O O16 0.750000 0.911801 0.623555
O O17 0.868182 0.750000 0.646128
O O18 0.873533 0.964877 0.559481
O O19 0.250000 0.081627 0.640325
O O20 0.132008 0.250000 0.658584
O O21 0.127151 0.030485 0.575105
O O22 0.750000 0.504642 0.492900
O O23 0.675797 0.750000 0.490365
#
# Coordination Sequence:
#
# PCOD8242604 Si02
#       8
#     8   8   8   8   8   8   8   8
#     4  10  20  33  48  68  96 128 160 196 240 287
#     4   9  16  28  47  69  93 123 160 198 233 275
#     4  11  22  35  52  73  98 127 159 196 233 273
#     4  10  20  36  58  79  99 125 155 189 233 283
#     4   9  19  35  53  73  97 127 161 193 230 278
#     4   8  13  23  41  64  89 120 159 198 235 279
#     4   8  13  22  37  60  92 126 157 191 234 282
#     4   7  10  18  34  57  87 122 155 188 231 283
#
# _framework density 18.738215
#
# number of rings (size 3 to 8) (size 9 to 14) (size 15 to 20)
#    0.000    3.000    0.000    3.375    0.000    4.000 
#    0.000    3.125    0.000    5.250    0.000    0.875 
#    0.000    0.000    0.000    0.000    0.000    0.000 
#
# Total GULP energy -793092.429250 kJ/mol
# GULP energy per Si atom -12392.069207 kJ/mol
# Density = 1.869557 g / cm^3
# Si number density = 18.738215 Si / 1000 Ang^3
#
#
#
# Elastic Constant Matrix: (Units=GPa)
#
#
# Indices 1 2 3 4 5 6 
#
# 1 39.1924 20.5627 23.7202 0.0000 0.0000 0.0000
# 2 20.5627 56.8802 38.9467 0.0000 0.0000 0.0000
# 3 23.7202 38.9467 146.4445 0.0000 0.0000 0.0000
# 4 0.0000 0.0000 0.0000 32.5051 0.0000 0.0000
# 5 0.0000 0.0000 0.0000 0.0000 6.1412 0.0000
# 6 0.0000 0.0000 0.0000 0.0000 0.0000 14.4139
#
#
#
# Elastic Compliance Matrix: (Units=1/GPa)
#
#
# Indices 1 2 3 4 5 6 
#
# 1 0.032276 -0.009889 -0.002598 0.000000 0.000000 0.000000
# 2 -0.009889 0.024525 -0.004921 0.000000 0.000000 0.000000
# 3 -0.002598 -0.004921 0.008558 0.000000 0.000000 0.000000
# 4 0.000000 0.000000 0.000000 0.030764 0.000000 0.000000
# 5 0.000000 0.000000 0.000000 0.000000 0.162834 0.000000
# 6 0.000000 0.000000 0.000000 0.000000 0.000000 0.069378
#
#
# Mechanical properties :
#
#
# Convention : Reuss Voigt Hill
#
# Bulk Modulus (GPa) = 32.74014 45.44181 39.09098
# Shear Modulus (GPa) = 13.39293 21.23120 17.31206
#
# Velocity S-wave (km/s) = 2.67636 3.36972 3.04285
# Velocity P-wave (km/s) = 5.20201 6.28041 5.76647
#
# Compressibility (1/GPa) = 0.03054355
#
# Stress axis : x y z
#
# Youngs Moduli (GPa) = 30.98285 40.77457 116.85055
#
# Poissons Ratio (x) = 0.40323 0.30356
# Poissons Ratio (y) = 0.30640 0.57498
# Poissons Ratio (z) = 0.08049 0.20064
#
# Static dielectric constant tensor:
#      x y z
#    x 3.033970 0.000000 0.000000 
#    y 0.000000 3.176830 0.000000 
#    z 0.000000 0.000000 3.963130 
# 
# 
# High freq. dielectric constant tensor:
#      x y z
#    x 1.678540 0.000000 0.000000 
#    y 0.000000 1.697800 0.000000 
#    z 0.000000 0.000000 1.755340 
# 
# From -- ./inp_files/30737.got.cif
#   From: 2010.03.12/outbox.cif.g09.slc.cpg/sg59_16_cif.got.tgz:30737.got - 2010.04.16 16:29:54.
