data_PCOD8242772
_publ_section_title
;
Structure prediction by ZEFSAII (Michael W. Deem and Ramdas Pophale) SiO2 
 PCOD8242772
Probable space group: P M M N
;
_chemical_formula_sum "Si O2"
_cell_formula_units_Z 64
_cell_length_a 9.075423
_cell_length_b 18.372075
_cell_length_c 21.857388
_cell_angle_alpha 90.000000
_cell_angle_beta 90.000000
_cell_angle_gamma 90.000000
_cell_volume 3644.377425
_symmetry_space_group_name_H-M "P M M N"
_symmetry_group_IT_number 59
_space_group.IT_coordinate_system_code '2'
_symmetry_cell_setting 'orthorhombic'
loop_
_space_group_symop_operation_xyz
x,y,z
1/2-x,1/2-y,z
1/2+x,-y,-z
-x,1/2+y,-z
-x,-y,-z
1/2+x,1/2+y,-z
1/2-x,y,z
x,1/2-y,z
loop_
_atom_site_type_symbol
_atom_site_label
_atom_site_fract_x
_atom_site_fract_y
_atom_site_fract_z
Si Si1 0.422963 0.956484 0.945948
Si Si2 0.418197 0.333491 0.999668
Si Si3 0.586952 0.391721 0.480625
Si Si4 0.579064 0.833214 0.632044
Si Si5 0.912394 0.546527 0.417523
Si Si6 0.421641 0.037312 0.821216
Si Si7 0.424244 0.961424 0.696934
Si Si8 0.078411 0.667119 0.127818
O O1 0.250000 0.952206 0.957693
O O2 0.461077 0.991416 0.881146
O O3 0.493717 0.875967 0.947418
O O4 0.500000 0.000000 0.000000
O O5 0.250000 0.361145 0.994761
O O6 0.426132 0.250000 0.018568
O O7 0.492623 0.348897 0.934644
O O8 0.750000 0.357374 0.486024
O O9 0.490477 0.342772 0.435176
O O10 0.515297 0.394466 0.548539
O O11 0.597418 0.473128 0.456283
O O12 0.750000 0.853922 0.627367
O O13 0.556454 0.750000 0.653390
O O14 0.503758 0.885183 0.682402
O O15 0.750000 0.581455 0.411574
O O16 0.974625 0.524638 0.350594
O O17 0.250000 0.057333 0.817308
O O18 0.513659 0.112594 0.821104
O O19 0.470366 0.988164 0.763980
O O20 0.250000 0.947604 0.690385
O O21 0.250000 0.651728 0.116764
O O22 0.051718 0.750000 0.149760
#
# Coordination Sequence:
#
# PCOD8242772 Si02
#       8
#     8   8   8   8   8   8   8   8
#     4  11  21  33  52  77 105 135 170 216 269 321
#     4  10  20  34  52  74 101 133 168 209 261 318
#     4   9  16  26  45  72  98 126 160 199 246 296
#     4  10  20  33  50  74 104 138 177 220 264 306
#     4   8  14  26  45  69  97 124 155 201 248 293
#     4  10  21  36  54  77 104 136 175 217 261 315
#     4   9  19  35  53  74 100 136 181 219 257 309
#     4  10  20  33  52  78 103 128 161 204 257 316
#
# _framework density 17.561298000000001
#
# number of rings (size 3 to 8) (size 9 to 14) (size 15 to 20)
#    0.000    2.375    1.250    2.625    0.000    6.500 
#    0.000    0.625    0.000    4.500    0.000    1.750 
#    0.000    0.000    0.000    0.000    0.000    0.000 
#
# Total GULP energy -793499.871312 kJ/mol
# GULP energy per Si atom -12398.435489 kJ/mol
# Density = 1.752133 g / cm^3
# Si number density = 17.561298 Si / 1000 Ang^3
#
#
#
# Elastic Constant Matrix: (Units=GPa)
#
#
# Indices 1 2 3 4 5 6 
#
# 1 110.0563 59.2895 57.3999 0.0000 0.0000 0.0000
# 2 59.2895 92.5613 55.1122 0.0000 0.0000 0.0000
# 3 57.3999 55.1122 116.6895 0.0000 0.0000 0.0000
# 4 0.0000 0.0000 0.0000 19.6983 0.0000 0.0000
# 5 0.0000 0.0000 0.0000 0.0000 25.1422 0.0000
# 6 0.0000 0.0000 0.0000 0.0000 0.0000 29.6189
#
#
#
# Elastic Compliance Matrix: (Units=1/GPa)
#
#
# Indices 1 2 3 4 5 6 
#
# 1 0.015093 -0.007300 -0.003976 0.000000 0.000000 0.000000
# 2 -0.007300 0.018561 -0.005176 0.000000 0.000000 0.000000
# 3 -0.003976 -0.005176 0.012970 0.000000 0.000000 0.000000
# 4 0.000000 0.000000 0.000000 0.050766 0.000000 0.000000
# 5 0.000000 0.000000 0.000000 0.000000 0.039774 0.000000
# 6 0.000000 0.000000 0.000000 0.000000 0.000000 0.033762
#
#
# Mechanical properties :
#
#
# Convention : Reuss Voigt Hill
#
# Bulk Modulus (GPa) = 72.88481 73.65669 73.27075
# Shear Modulus (GPa) = 23.99196 24.72559 24.35878
#
# Velocity S-wave (km/s) = 3.70020 3.75635 3.72838
# Velocity P-wave (km/s) = 7.73618 7.80046 7.76839
#
# Compressibility (1/GPa) = 0.01372028
#
# Stress axis : x y z
#
# Youngs Moduli (GPa) = 66.25670 53.87599 77.09999
#
# Poissons Ratio (x) = 0.39329 0.30658
# Poissons Ratio (y) = 0.48367 0.39903
# Poissons Ratio (z) = 0.26347 0.27884
#
# Static dielectric constant tensor:
#      x y z
#    x 3.483090 0.000000 0.000000 
#    y 0.000000 3.313370 0.000000 
#    z 0.000000 0.000000 3.233370 
# 
# 
# High freq. dielectric constant tensor:
#      x y z
#    x 1.690570 0.000000 0.000000 
#    y 0.000000 1.663490 0.000000 
#    z 0.000000 0.000000 1.655770 
# 
# From -- ./inp_files/31766.got.cif
#   From: 2010.03.12/outbox.cif.g09.slc.cpg/sg59_16_cif.got.tgz:31766.got - 2010.04.16 16:29:54.
