data_PCOD8242841
_publ_section_title
;
Structure prediction by ZEFSAII (Michael W. Deem and Ramdas Pophale) SiO2 
 PCOD8242841
Probable space group: P M M N
;
_chemical_formula_sum "Si O2"
_cell_formula_units_Z 64
_cell_length_a 29.268504
_cell_length_b 8.546968
_cell_length_c 14.840196
_cell_angle_alpha 90.000000
_cell_angle_beta 90.000000
_cell_angle_gamma 90.000000
_cell_volume 3712.378422
_symmetry_space_group_name_H-M "P M M N"
_symmetry_group_IT_number 59
_space_group.IT_coordinate_system_code '2'
_symmetry_cell_setting 'orthorhombic'
loop_
_space_group_symop_operation_xyz
x,y,z
1/2-x,1/2-y,z
1/2+x,-y,-z
-x,1/2+y,-z
-x,-y,-z
1/2+x,1/2+y,-z
1/2-x,y,z
x,1/2-y,z
loop_
_atom_site_type_symbol
_atom_site_label
_atom_site_fract_x
_atom_site_fract_y
_atom_site_fract_z
Si Si1 0.934314 0.067615 0.451613
Si Si2 0.396025 0.069596 0.046576
Si Si3 0.966715 0.931552 0.628278
Si Si4 0.698499 0.429112 0.213982
Si Si5 0.059004 0.931618 0.872315
Si Si6 0.199423 0.070525 0.977116
Si Si7 0.612870 0.930446 0.290343
Si Si8 0.535129 0.069228 0.821581
O O1 0.924374 0.250000 0.461168
O O2 0.981951 0.032862 0.402240
O O3 0.932769 0.990775 0.550350
O O4 0.895458 0.985357 0.392396
O O5 0.405464 0.250000 0.069199
O O6 0.418676 0.963667 0.123209
O O7 0.341379 0.033563 0.047218
O O8 0.416771 0.033677 0.948588
O O9 0.958427 0.750000 0.647104
O O10 0.956022 0.026139 0.718323
O O11 0.750000 0.464847 0.245022
O O12 0.684918 0.250000 0.232380
O O13 0.692599 0.459201 0.108119
O O14 0.666142 0.542405 0.270976
O O15 0.064800 0.750000 0.896018
O O16 0.081884 0.966950 0.776418
O O17 0.005402 0.969685 0.866527
O O18 0.250000 0.041568 0.020536
O O19 0.195099 0.250000 0.944026
O O20 0.599858 0.750000 0.278070
O O21 0.522009 0.250000 0.828698
#
# Coordination Sequence:
#
# PCOD8242841 Si02
#       8
#     8   8   8   8   8   8   8   8
#     4  10  20  34  54  77 104 135 169 211 256 306
#     4  11  22  36  53  75 104 139 177 216 261 313
#     4  10  20  35  54  76 103 134 171 215 258 303
#     4  10  20  33  51  75 104 137 173 215 261 309
#     4  12  23  36  51  72 104 140 180 219 257 306
#     4   9  18  33  53  75 100 132 171 215 261 309
#     4  12  22  33  52  77 106 141 177 213 257 312
#     4  12  24  37  53  73 103 141 181 220 260 307
#
# _framework density 17.239622000000001
#
# number of rings (size 3 to 8) (size 9 to 14) (size 15 to 20)
#    0.000    1.250    2.500    5.250    0.000    2.250 
#    0.000    0.000    0.000    0.000    0.000    0.875 
#    0.000    5.000    0.000    0.000    0.000    0.000 
#
# Total GULP energy -793864.461411 kJ/mol
# GULP energy per Si atom -12404.132210 kJ/mol
# Density = 1.720038 g / cm^3
# Si number density = 17.239622 Si / 1000 Ang^3
#
#
#
# Elastic Constant Matrix: (Units=GPa)
#
#
# Indices 1 2 3 4 5 6 
#
# 1 98.5654 24.1435 35.8230 0.0000 0.0000 0.0000
# 2 24.1435 61.7597 16.2229 0.0000 0.0000 0.0000
# 3 35.8230 16.2229 69.6551 0.0000 0.0000 0.0000
# 4 0.0000 0.0000 0.0000 29.3099 0.0000 0.0000
# 5 0.0000 0.0000 0.0000 0.0000 21.8750 0.0000
# 6 0.0000 0.0000 0.0000 0.0000 0.0000 23.3462
#
#
#
# Elastic Compliance Matrix: (Units=1/GPa)
#
#
# Indices 1 2 3 4 5 6 
#
# 1 0.013186 -0.003593 -0.005945 0.000000 0.000000 0.000000
# 2 -0.003593 0.018226 -0.002397 0.000000 0.000000 0.000000
# 3 -0.005945 -0.002397 0.017972 0.000000 0.000000 0.000000
# 4 0.000000 0.000000 0.000000 0.034118 0.000000 0.000000
# 5 0.000000 0.000000 0.000000 0.000000 0.045714 0.000000
# 6 0.000000 0.000000 0.000000 0.000000 0.000000 0.042833
#
#
# Mechanical properties :
#
#
# Convention : Reuss Voigt Hill
#
# Bulk Modulus (GPa) = 39.19333 42.48436 40.83884
# Shear Modulus (GPa) = 24.45883 25.15894 24.80889
#
# Velocity S-wave (km/s) = 3.77073 3.82431 3.79761
# Velocity P-wave (km/s) = 6.46078 6.64811 6.55511
#
# Compressibility (1/GPa) = 0.02551455
#
# Stress axis : x y z
#
# Youngs Moduli (GPa) = 75.83631 54.86630 55.64211
#
# Poissons Ratio (x) = 0.19715 0.33078
# Poissons Ratio (y) = 0.27251 0.13337
# Poissons Ratio (z) = 0.45082 0.13151
#
# Static dielectric constant tensor:
#      x y z
#    x 3.306220 0.000000 0.000000 
#    y 0.000000 3.283400 0.000000 
#    z 0.000000 0.000000 3.072170 
# 
# 
# High freq. dielectric constant tensor:
#      x y z
#    x 1.652460 0.000000 0.000000 
#    y 0.000000 1.682510 0.000000 
#    z 0.000000 0.000000 1.640910 
# 
# From -- ./inp_files/25049.got.cif
#   From: 2010.03.12/outbox.cif.g09.slc.cpg/sg59_13_cif.got.tgz:25049.got - 2010.04.16 16:29:54.
