data_PCOD8242463
_publ_section_title
;
Structure prediction by ZEFSAII (Michael W. Deem and Ramdas Pophale) SiO2 
 PCOD8242463
Probable space group: P M M N
;
_chemical_formula_sum "Si O2"
_cell_formula_units_Z 64
_cell_length_a 32.847698
_cell_length_b 9.218124
_cell_length_c 11.338051
_cell_angle_alpha 90.000000
_cell_angle_beta 90.000000
_cell_angle_gamma 90.000000
_cell_volume 3433.095552
_symmetry_space_group_name_H-M "P M M N"
_symmetry_group_IT_number 59
_space_group.IT_coordinate_system_code '2'
_symmetry_cell_setting 'orthorhombic'
loop_
_space_group_symop_operation_xyz
x,y,z
1/2-x,1/2-y,z
1/2+x,-y,-z
-x,1/2+y,-z
-x,-y,-z
1/2+x,1/2+y,-z
1/2-x,y,z
x,1/2-y,z
loop_
_atom_site_type_symbol
_atom_site_label
_atom_site_fract_x
_atom_site_fract_y
_atom_site_fract_z
Si Si1 0.704764 0.578797 0.940016
Si Si2 0.023675 0.581683 0.832861
Si Si3 0.636615 0.916944 0.533340
Si Si4 0.204066 0.585328 0.589144
Si Si5 0.910783 0.916122 0.302687
Si Si6 0.627454 0.918973 0.800322
Si Si7 0.174504 0.419255 0.807768
Si Si8 0.553342 0.081173 0.905564
O O1 0.750000 0.512463 0.916456
O O2 0.708535 0.750000 0.947745
O O3 0.686591 0.521119 0.063735
O O4 0.673551 0.535122 0.835924
O O5 0.015243 0.750000 0.809555
O O6 0.052012 0.520259 0.729381
O O7 0.980758 0.499199 0.828014
O O8 0.045672 0.553621 0.956849
O O9 0.650239 0.750000 0.522485
O O10 0.601685 0.951310 0.437552
O O11 0.619913 0.952322 0.662960
O O12 0.676307 0.012482 0.510305
O O13 0.250000 0.577333 0.542267
O O14 0.189592 0.750000 0.607697
O O15 0.201424 0.504157 0.713550
O O16 0.924977 0.750000 0.289076
O O17 0.873140 0.948794 0.215512
O O18 0.619934 0.750000 0.830123
O O19 0.596984 0.014665 0.876669
O O20 0.184429 0.250000 0.792944
O O21 0.552504 0.250000 0.873411
#
# Coordination Sequence:
#
# PCOD8242463 Si02
#       8
#     8   8   8   8   8   8   8   8
#     4   9  17  29  49  78 106 133 169 213 259 305
#     4  10  20  34  55  83 109 134 168 206 248 304
#     4   9  20  36  53  73  98 135 179 217 255 304
#     4  10  20  32  48  72 101 133 171 218 266 306
#     4   9  17  31  51  76 104 134 171 215 261 302
#     4  10  20  36  56  76 102 136 175 216 254 300
#     4   9  17  30  50  75 104 137 170 207 255 311
#     4  10  21  36  55  80 109 138 166 203 253 306
#
# _framework density 18.642067999999998
#
# number of rings (size 3 to 8) (size 9 to 14) (size 15 to 20)
#    0.000    2.500    0.000    3.000    0.000    7.000 
#    0.000    2.500    0.000    1.125    0.000    0.000 
#    0.000    0.000    0.000    0.000    0.000    0.000 
#
# Total GULP energy -793672.296603 kJ/mol
# GULP energy per Si atom -12401.129634 kJ/mol
# Density = 1.859964 g / cm^3
# Si number density = 18.642068 Si / 1000 Ang^3
#
#
#
# Elastic Constant Matrix: (Units=GPa)
#
#
# Indices 1 2 3 4 5 6 
#
# 1 100.8546 39.4513 38.1684 0.0000 0.0000 0.0000
# 2 39.4513 75.4855 27.9270 0.0000 0.0000 0.0000
# 3 38.1684 27.9270 76.0299 0.0000 0.0000 0.0000
# 4 0.0000 0.0000 0.0000 17.5039 0.0000 0.0000
# 5 0.0000 0.0000 0.0000 0.0000 17.5691 0.0000
# 6 0.0000 0.0000 0.0000 0.0000 0.0000 32.2076
#
#
#
# Elastic Compliance Matrix: (Units=1/GPa)
#
#
# Indices 1 2 3 4 5 6 
#
# 1 0.013932 -0.005432 -0.004999 0.000000 0.000000 0.000000
# 2 -0.005432 0.017449 -0.003682 0.000000 0.000000 0.000000
# 3 -0.004999 -0.003682 0.017015 0.000000 0.000000 0.000000
# 4 0.000000 0.000000 0.000000 0.057130 0.000000 0.000000
# 5 0.000000 0.000000 0.000000 0.000000 0.056918 0.000000
# 6 0.000000 0.000000 0.000000 0.000000 0.000000 0.031049
#
#
# Mechanical properties :
#
#
# Convention : Reuss Voigt Hill
#
# Bulk Modulus (GPa) = 49.58008 51.49595 50.53802
# Shear Modulus (GPa) = 21.88745 23.24434 22.56590
#
# Velocity S-wave (km/s) = 3.43022 3.53494 3.48297
# Velocity P-wave (km/s) = 6.50708 6.65917 6.58356
#
# Compressibility (1/GPa) = 0.02016939
#
# Stress axis : x y z
#
# Youngs Moduli (GPa) = 71.77786 57.31060 58.77234
#
# Poissons Ratio (x) = 0.31130 0.29379
# Poissons Ratio (y) = 0.38989 0.21642
# Poissons Ratio (z) = 0.35881 0.21104
#
# Static dielectric constant tensor:
#      x y z
#    x 3.398980 0.000000 0.000000 
#    y 0.000000 3.299650 0.000000 
#    z 0.000000 0.000000 3.396960 
# 
# 
# High freq. dielectric constant tensor:
#      x y z
#    x 1.722330 0.000000 0.000000 
#    y 0.000000 1.710010 0.000000 
#    z 0.000000 0.000000 1.713070 
# 
# From -- ./inp_files/19224.got.cif
#   From: 2010.03.12/outbox.cif.g09.slc.cpg/sg59_10_cif.got.tgz:19224.got - 2010.04.16 16:29:54.
