data_PCOD8242957
_publ_section_title
;
Structure prediction by ZEFSAII (Michael W. Deem and Ramdas Pophale) SiO2 
 PCOD8242957
Probable space group: P M M N
;
_chemical_formula_sum "Si O2"
_cell_formula_units_Z 64
_cell_length_a 22.232787
_cell_length_b 9.590125
_cell_length_c 16.481238
_cell_angle_alpha 90.000000
_cell_angle_beta 90.000000
_cell_angle_gamma 90.000000
_cell_volume 3514.050562
_symmetry_space_group_name_H-M "P M M N"
_symmetry_group_IT_number 59
_space_group.IT_coordinate_system_code '2'
_symmetry_cell_setting 'orthorhombic'
loop_
_space_group_symop_operation_xyz
x,y,z
1/2-x,1/2-y,z
1/2+x,-y,-z
-x,1/2+y,-z
-x,-y,-z
1/2+x,1/2+y,-z
1/2-x,y,z
x,1/2-y,z
loop_
_atom_site_type_symbol
_atom_site_label
_atom_site_fract_x
_atom_site_fract_y
_atom_site_fract_z
Si Si1 0.817795 0.398512 0.307002
Si Si2 0.913229 0.911789 0.036617
Si Si3 0.354222 0.094246 0.557994
Si Si4 0.180240 0.913133 0.868666
Si Si5 0.583647 0.086727 0.711918
Si Si6 0.459722 0.910037 0.108397
Si Si7 0.179258 0.413589 0.378643
Si Si8 0.990834 0.905840 0.423553
O O1 0.750000 0.366495 0.281976
O O2 0.848183 0.250000 0.332916
O O3 0.815475 0.502979 0.381635
O O4 0.845074 0.453091 0.221801
O O5 0.898323 0.750000 0.021334
O O6 0.968481 0.928601 0.099544
O O7 0.855087 0.989071 0.069969
O O8 0.927317 0.982841 0.950874
O O9 0.327755 0.250000 0.559138
O O10 0.348033 0.038721 0.465855
O O11 0.420492 0.088815 0.596257
O O12 0.250000 0.949304 0.881364
O O13 0.167484 0.750000 0.886171
O O14 0.598473 0.250000 0.703290
O O15 0.561328 0.049373 0.801519
O O16 0.529228 0.040441 0.652607
O O17 0.643781 0.000174 0.690000
O O18 0.441875 0.750000 0.087726
O O19 0.250000 0.449964 0.374385
O O20 0.168012 0.250000 0.363862
O O21 0.010871 0.750000 0.446907
O O22 0.000000 0.000000 0.500000
#
# Coordination Sequence:
#
# PCOD8242957 Si02
#       8
#     8   8   8   8   8   8   8   8
#     4   9  19  34  50  73 106 142 181 220 255 303
#     4  10  20  35  59  87 111 137 176 221 267 323
#     4  10  20  33  52  76 105 142 179 217 268 320
#     4   9  19  36  55  77 111 150 181 215 266 325
#     4  10  21  37  57  81 108 140 180 223 266 316
#     4   9  20  38  58  80 111 144 174 218 274 329
#     4  10  21  37  55  76 106 144 184 227 273 318
#     4  10  20  34  53  77 107 139 174 216 262 314
#
# _framework density 18.212600999999999
#
# number of rings (size 3 to 8) (size 9 to 14) (size 15 to 20)
#    0.000    2.375    1.250    1.500    1.750    3.750 
#    0.000    1.875    0.000    0.750    0.000    0.000 
#    0.000    0.000    0.000    0.000    0.000    0.000 
#
# Total GULP energy -793290.862828 kJ/mol
# GULP energy per Si atom -12395.169732 kJ/mol
# Density = 1.817115 g / cm^3
# Si number density = 18.212601 Si / 1000 Ang^3
#
#
#
# Elastic Constant Matrix: (Units=GPa)
#
#
# Indices 1 2 3 4 5 6 
#
# 1 88.3930 48.2164 57.7909 0.0000 0.0000 0.0000
# 2 48.2164 90.8949 68.8157 0.0000 0.0000 0.0000
# 3 57.7909 68.8157 125.8032 0.0000 0.0000 0.0000
# 4 0.0000 0.0000 0.0000 32.0785 0.0000 0.0000
# 5 0.0000 0.0000 0.0000 0.0000 28.2167 0.0000
# 6 0.0000 0.0000 0.0000 0.0000 0.0000 30.1816
#
#
#
# Elastic Compliance Matrix: (Units=1/GPa)
#
#
# Indices 1 2 3 4 5 6 
#
# 1 0.017647 -0.005502 -0.005097 0.000000 0.000000 0.000000
# 2 -0.005502 0.020494 -0.008683 0.000000 0.000000 0.000000
# 3 -0.005097 -0.008683 0.015040 0.000000 0.000000 0.000000
# 4 0.000000 0.000000 0.000000 0.031174 0.000000 0.000000
# 5 0.000000 0.000000 0.000000 0.000000 0.035440 0.000000
# 6 0.000000 0.000000 0.000000 0.000000 0.000000 0.033133
#
#
# Mechanical properties :
#
#
# Convention : Reuss Voigt Hill
#
# Bulk Modulus (GPa) = 68.41341 72.74855 70.58098
# Shear Modulus (GPa) = 25.46303 26.77990 26.12146
#
# Velocity S-wave (km/s) = 3.74317 3.83875 3.79126
# Velocity P-wave (km/s) = 7.50514 7.72520 7.61597
#
# Compressibility (1/GPa) = 0.01461702
#
# Stress axis : x y z
#
# Youngs Moduli (GPa) = 56.66809 48.79417 66.48992
#
# Poissons Ratio (x) = 0.26848 0.33887
# Poissons Ratio (y) = 0.31180 0.57733
# Poissons Ratio (z) = 0.28882 0.42368
#
# Static dielectric constant tensor:
#      x y z
#    x 3.432960 0.000000 0.000000 
#    y 0.000000 3.373500 0.000000 
#    z 0.000000 0.000000 3.247930 
# 
# 
# High freq. dielectric constant tensor:
#      x y z
#    x 1.698500 0.000000 0.000000 
#    y 0.000000 1.707490 0.000000 
#    z 0.000000 0.000000 1.699950 
# 
# From -- ./inp_files/24788.got.cif
#   From: 2010.03.12/outbox.cif.g09.slc.cpg/sg59_13_cif.got.tgz:24788.got - 2010.04.16 16:29:54.
