data_PCOD8242390
_publ_section_title
;
Structure prediction by ZEFSAII (Michael W. Deem and Ramdas Pophale) SiO2 
 PCOD8242390
Probable space group: P M M N
;
_chemical_formula_sum "Si O2"
_cell_formula_units_Z 56
_cell_length_a 14.928919
_cell_length_b 9.470311
_cell_length_c 20.630729
_cell_angle_alpha 90.000000
_cell_angle_beta 90.000000
_cell_angle_gamma 90.000000
_cell_volume 2916.803532
_symmetry_space_group_name_H-M "P M M N"
_symmetry_group_IT_number 59
_space_group.IT_coordinate_system_code '2'
_symmetry_cell_setting 'orthorhombic'
loop_
_space_group_symop_operation_xyz
x,y,z
1/2-x,1/2-y,z
1/2+x,-y,-z
-x,1/2+y,-z
-x,-y,-z
1/2+x,1/2+y,-z
1/2-x,y,z
x,1/2-y,z
loop_
_atom_site_type_symbol
_atom_site_label
_atom_site_fract_x
_atom_site_fract_y
_atom_site_fract_z
Si Si1 0.527880 0.088726 0.913563
Si Si2 0.150479 0.409402 0.476345
Si Si3 0.098215 0.903584 0.588124
Si Si4 0.652334 0.413266 0.277536
Si Si5 0.145846 0.084396 0.990959
Si Si6 0.590864 0.593425 0.656843
Si Si7 0.986502 0.086530 0.764180
O O1 0.545153 0.250000 0.934485
O O2 0.543991 0.067642 0.837665
O O3 0.604191 0.994041 0.946883
O O4 0.424199 0.048525 0.932294
O O5 0.250000 0.416750 0.504715
O O6 0.112479 0.250000 0.474874
O O7 0.089970 0.495295 0.526352
O O8 0.152630 0.466175 0.401863
O O9 0.127454 0.750000 0.561646
O O10 0.163698 0.953415 0.646036
O O11 0.004694 0.896705 0.623984
O O12 0.750000 0.434211 0.245145
O O13 0.619952 0.250000 0.270901
O O14 0.583466 0.515160 0.241775
O O15 0.250000 0.035803 0.976592
O O16 0.146303 0.250000 0.005906
O O17 0.622544 0.750000 0.680100
O O18 0.587716 0.488239 0.718174
O O19 0.994094 0.250000 0.744215
#
# Coordination Sequence:
#
# PCOD8242390 Si02
#       7
#     8   8   8   8   8   8   8
#     4   9  19  35  54  79 112 143 170 209 258 301
#     4  10  20  32  47  68  91 116 153 204 256 299
#     4   9  17  30  48  67  89 121 157 195 245 301
#     4   9  18  32  48  69 100 134 166 202 248 303
#     4   9  18  34  57  83 109 139 175 210 246 296
#     4   9  19  35  50  65  92 128 162 198 242 295
#     4  10  20  33  51  74  99 131 169 205 243 288
#
# _framework density 19.199100000000001
#
# number of rings (size 3 to 8) (size 9 to 14) (size 15 to 20)
#    0.000    2.714    0.000    2.143    0.000    6.000 
#    0.000    2.143    0.000    2.571    0.000    0.000 
#    0.000    0.000    0.000    0.000    0.000    0.000 
#
# Total GULP energy -693742.818148 kJ/mol
# GULP energy per Si atom -12388.264610 kJ/mol
# Density = 1.915540 g / cm^3
# Si number density = 19.199100 Si / 1000 Ang^3
#
#
#
# Elastic Constant Matrix: (Units=GPa)
#
#
# Indices 1 2 3 4 5 6 
#
# 1 51.6448 8.7035 6.2860 0.0000 0.0000 0.0000
# 2 8.7035 70.1737 41.8173 0.0000 0.0000 0.0000
# 3 6.2860 41.8173 85.8631 0.0000 0.0000 0.0000
# 4 0.0000 0.0000 0.0000 32.6942 0.0000 0.0000
# 5 0.0000 0.0000 0.0000 0.0000 34.4710 0.0000
# 6 0.0000 0.0000 0.0000 0.0000 0.0000 23.5905
#
#
#
# Elastic Compliance Matrix: (Units=1/GPa)
#
#
# Indices 1 2 3 4 5 6 
#
# 1 0.019784 -0.002241 -0.000357 0.000000 0.000000 0.000000
# 2 -0.002241 0.020331 -0.009738 0.000000 0.000000 0.000000
# 3 -0.000357 -0.009738 0.016415 0.000000 0.000000 0.000000
# 4 0.000000 0.000000 0.000000 0.030586 0.000000 0.000000
# 5 0.000000 0.000000 0.000000 0.000000 0.029010 0.000000
# 6 0.000000 0.000000 0.000000 0.000000 0.000000 0.042390
#
#
# Mechanical properties :
#
#
# Convention : Reuss Voigt Hill
#
# Bulk Modulus (GPa) = 31.38836 35.69949 33.54393
# Shear Modulus (GPa) = 25.79878 28.20946 27.00412
#
# Velocity S-wave (km/s) = 3.66970 3.83732 3.75444
# Velocity P-wave (km/s) = 5.86003 6.18612 6.02528
#
# Compressibility (1/GPa) = 0.03185894
#
# Stress axis : x y z
#
# Youngs Moduli (GPa) = 50.54551 49.18573 60.91976
#
# Poissons Ratio (x) = 0.11023 0.02174
# Poissons Ratio (y) = 0.11328 0.59322
# Poissons Ratio (z) = 0.01804 0.47895
#
# Static dielectric constant tensor:
#      x y z
#    x 3.970360 0.000000 0.000000 
#    y 0.000000 3.516290 0.000000 
#    z 0.000000 0.000000 3.513070 
# 
# 
# High freq. dielectric constant tensor:
#      x y z
#    x 1.739640 0.000000 0.000000 
#    y 0.000000 1.737650 0.000000 
#    z 0.000000 0.000000 1.734530 
# 
# From -- ./inp_files/30631.got.cif
#   From: 2010.03.12/outbox.cif.g09.slc.cpg/sg59_16_cif.got.tgz:30631.got - 2010.04.16 16:29:54.
