data_PCOD8242151
_publ_section_title
;
Structure prediction by ZEFSAII (Michael W. Deem and Ramdas Pophale) SiO2 
 PCOD8242151
Probable space group: P M M N
;
_chemical_formula_sum "Si O2"
_cell_formula_units_Z 64
_cell_length_a 9.074333
_cell_length_b 30.429128
_cell_length_c 11.988005
_cell_angle_alpha 90.000000
_cell_angle_beta 90.000000
_cell_angle_gamma 90.000000
_cell_volume 3310.176377
_symmetry_space_group_name_H-M "P M M N"
_symmetry_group_IT_number 59
_space_group.IT_coordinate_system_code '2'
_symmetry_cell_setting 'orthorhombic'
loop_
_space_group_symop_operation_xyz
x,y,z
1/2-x,1/2-y,z
1/2+x,-y,-z
-x,1/2+y,-z
-x,-y,-z
1/2+x,1/2+y,-z
1/2-x,y,z
x,1/2-y,z
loop_
_atom_site_type_symbol
_atom_site_label
_atom_site_fract_x
_atom_site_fract_y
_atom_site_fract_z
Si Si1 0.077986 0.625324 0.351152
Si Si2 0.575398 0.860077 0.118856
Si Si3 0.422453 0.972163 0.405437
Si Si4 0.916189 0.066533 0.011508
Si Si5 0.083860 0.009115 0.170254
Si Si6 0.415555 0.302203 0.250310
Si Si7 0.084591 0.801761 0.965111
Si Si8 0.578471 0.300367 0.472904
O O1 0.250000 0.625604 0.317979
O O2 0.037994 0.579734 0.413845
O O3 0.036113 0.667176 0.426594
O O4 0.983219 0.628074 0.240060
O O5 0.750000 0.857913 0.122585
O O6 0.521669 0.894452 0.026279
O O7 0.507821 0.814038 0.076064
O O8 0.250000 0.979004 0.419256
O O9 0.500000 0.000000 0.500000
O O10 0.477271 0.990899 0.286982
O O11 0.750000 0.083476 0.030754
O O12 0.919748 0.030226 0.916604
O O13 0.977778 0.047937 0.128423
O O14 0.250000 0.027302 0.182253
O O15 0.250000 0.321202 0.245745
O O16 0.413768 0.250000 0.244368
O O17 0.506849 0.321321 0.145854
O O18 0.490517 0.317207 0.365288
O O19 0.250000 0.820996 0.972544
O O20 0.089512 0.750000 0.958000
O O21 0.750000 0.303724 0.443626
O O22 0.536685 0.250000 0.505663
#
# Coordination Sequence:
#
# PCOD8242151 Si02
#       8
#     8   8   8   8   8   8   8   8
#     4  10  21  40  60  81 115 155 197 242 291 348
#     4  12  24  37  57  85 118 152 189 239 295 350
#     4  10  21  39  60  82 113 153 193 240 294 348
#     4  10  19  35  59  84 111 144 185 232 281 343
#     4   9  18  35  58  83 111 144 184 232 284 335
#     4   9  17  32  55  81 112 147 184 233 289 338
#     4  10  21  38  60  84 113 153 197 236 282 344
#     4   9  18  34  59  87 114 151 198 242 285 342
#
# _framework density 19.334318
#
# number of rings (size 3 to 8) (size 9 to 14) (size 15 to 20)
#    0.000    2.125    1.250    2.250    0.000    4.750 
#    2.250    1.250    0.000    0.000    0.000    0.000 
#    0.000    0.000    0.000    0.000    0.000    0.000 
#
# Total GULP energy -793593.098712 kJ/mol
# GULP energy per Si atom -12399.892167 kJ/mol
# Density = 1.929031 g / cm^3
# Si number density = 19.334318 Si / 1000 Ang^3
#
#
#
# Elastic Constant Matrix: (Units=GPa)
#
#
# Indices 1 2 3 4 5 6 
#
# 1 120.2385 45.1044 59.4426 0.0000 0.0000 0.0000
# 2 45.1044 76.4537 55.4761 0.0000 0.0000 0.0000
# 3 59.4426 55.4761 102.7460 0.0000 0.0000 0.0000
# 4 0.0000 0.0000 0.0000 29.2318 0.0000 0.0000
# 5 0.0000 0.0000 0.0000 0.0000 35.5809 0.0000
# 6 0.0000 0.0000 0.0000 0.0000 0.0000 25.8650
#
#
#
# Elastic Compliance Matrix: (Units=1/GPa)
#
#
# Indices 1 2 3 4 5 6 
#
# 1 0.012164 -0.003403 -0.005200 0.000000 0.000000 0.000000
# 2 -0.003403 0.022457 -0.010157 0.000000 0.000000 0.000000
# 3 -0.005200 -0.010157 0.018225 0.000000 0.000000 0.000000
# 4 0.000000 0.000000 0.000000 0.034209 0.000000 0.000000
# 5 0.000000 0.000000 0.000000 0.000000 0.028105 0.000000
# 6 0.000000 0.000000 0.000000 0.000000 0.000000 0.038662
#
#
# Mechanical properties :
#
#
# Convention : Reuss Voigt Hill
#
# Bulk Modulus (GPa) = 65.24418 68.83160 67.03789
# Shear Modulus (GPa) = 25.45157 27.42988 26.44073
#
# Velocity S-wave (km/s) = 3.63215 3.77067 3.70206
# Velocity P-wave (km/s) = 7.16998 7.39157 7.28162
#
# Compressibility (1/GPa) = 0.01532704
#
# Stress axis : x y z
#
# Youngs Moduli (GPa) = 82.20907 44.52887 54.86959
#
# Poissons Ratio (x) = 0.15154 0.28532
# Poissons Ratio (y) = 0.27977 0.55729
# Poissons Ratio (z) = 0.42748 0.45226
#
# Static dielectric constant tensor:
#      x y z
#    x 3.673060 0.000000 0.000000 
#    y 0.000000 3.553880 0.000000 
#    z 0.000000 0.000000 3.574250 
# 
# 
# High freq. dielectric constant tensor:
#      x y z
#    x 1.754400 0.000000 0.000000 
#    y 0.000000 1.743820 0.000000 
#    z 0.000000 0.000000 1.750210 
# 
# From -- ./inp_files/15075.got.cif
#   From: 2010.03.12/outbox.cif.g09.slc.cpg/sg59_8_cif.got.tgz:15075.got - 2010.04.16 16:29:54.
