data_PCOD8242765
_publ_section_title
;
Structure prediction by ZEFSAII (Michael W. Deem and Ramdas Pophale) SiO2 
 PCOD8242765
Probable space group: P M M N
;
_chemical_formula_sum "Si O2"
_cell_formula_units_Z 56
_cell_length_a 13.591175
_cell_length_b 9.232272
_cell_length_c 23.645198
_cell_angle_alpha 90.000000
_cell_angle_beta 90.000000
_cell_angle_gamma 90.000000
_cell_volume 2966.938544
_symmetry_space_group_name_H-M "P M M N"
_symmetry_group_IT_number 59
_space_group.IT_coordinate_system_code '2'
_symmetry_cell_setting 'orthorhombic'
loop_
_space_group_symop_operation_xyz
x,y,z
1/2-x,1/2-y,z
1/2+x,-y,-z
-x,1/2+y,-z
-x,-y,-z
1/2+x,1/2+y,-z
1/2-x,y,z
x,1/2-y,z
loop_
_atom_site_type_symbol
_atom_site_label
_atom_site_fract_x
_atom_site_fract_y
_atom_site_fract_z
Si Si1 0.462586 0.078034 0.310998
Si Si2 0.361951 0.419009 0.644365
Si Si3 0.361849 0.419223 0.969540
Si Si4 0.866747 0.087418 0.587654
Si Si5 0.031665 0.419822 0.084467
Si Si6 0.367461 0.411034 0.517761
Si Si7 0.360250 0.078087 0.195800
O O1 0.465679 0.250000 0.316979
O O2 0.415972 0.027170 0.252002
O O3 0.572601 0.013313 0.312965
O O4 0.396247 0.013240 0.360546
O O5 0.250000 0.472882 0.650154
O O6 0.369520 0.250000 0.659421
O O7 0.405070 0.448110 0.581110
O O8 0.250000 0.471051 0.962490
O O9 0.373180 0.250000 0.957914
O O10 0.426922 0.502866 0.923498
O O11 0.396009 0.458314 0.032853
O O12 0.750000 0.088606 0.584183
O O13 0.908607 0.250000 0.595811
O O14 0.909517 0.024644 0.528255
O O15 0.011623 0.250000 0.088802
O O16 0.081527 0.481338 0.141305
O O17 0.250000 0.415807 0.520260
O O18 0.401646 0.250000 0.500017
O O19 0.250000 0.013111 0.196064
O O20 0.354558 0.250000 0.192773
#
# Coordination Sequence:
#
# PCOD8242765 Si02
#       7
#     8   8   8   8   8   8   8
#     4  11  22  34  52  76 100 130 169 212 254 298
#     4   9  19  37  57  74  96 128 165 208 258 309
#     4   9  17  30  50  78 111 142 170 206 255 305
#     4  10  20  33  50  74 104 134 163 201 252 308
#     4   9  17  31  53  78 103 136 178 217 251 292
#     4   8  15  30  52  74  95 123 161 204 251 304
#     4   9  18  34  55  77 101 132 172 213 250 292
#
# _framework density 18.874673999999999
#
# number of rings (size 3 to 8) (size 9 to 14) (size 15 to 20)
#    0.000    2.714    0.000    2.571    0.000    4.857 
#    0.000    3.571    0.000    7.286    0.000    0.000 
#    0.000    0.000    0.000    0.000    0.000    0.000 
#
# Total GULP energy -694439.700259 kJ/mol
# GULP energy per Si atom -12400.708933 kJ/mol
# Density = 1.883171 g / cm^3
# Si number density = 18.874674 Si / 1000 Ang^3
#
#
#
# Elastic Constant Matrix: (Units=GPa)
#
#
# Indices 1 2 3 4 5 6 
#
# 1 116.0345 46.6580 71.6788 0.0000 0.0000 0.0000
# 2 46.6580 66.0702 48.8569 0.0000 0.0000 0.0000
# 3 71.6788 48.8569 135.2558 0.0000 0.0000 0.0000
# 4 0.0000 0.0000 0.0000 23.9837 0.0000 0.0000
# 5 0.0000 0.0000 0.0000 0.0000 31.1053 0.0000
# 6 0.0000 0.0000 0.0000 0.0000 0.0000 31.3462
#
#
#
# Elastic Compliance Matrix: (Units=1/GPa)
#
#
# Indices 1 2 3 4 5 6 
#
# 1 0.014463 -0.006203 -0.005424 0.000000 0.000000 0.000000
# 2 -0.006203 0.023312 -0.005134 0.000000 0.000000 0.000000
# 3 -0.005424 -0.005134 0.012122 0.000000 0.000000 0.000000
# 4 0.000000 0.000000 0.000000 0.041695 0.000000 0.000000
# 5 0.000000 0.000000 0.000000 0.000000 0.032149 0.000000
# 6 0.000000 0.000000 0.000000 0.000000 0.000000 0.031902
#
#
# Mechanical properties :
#
#
# Convention : Reuss Voigt Hill
#
# Bulk Modulus (GPa) = 61.06371 72.41644 66.74007
# Shear Modulus (GPa) = 25.69087 27.29818 26.49452
#
# Velocity S-wave (km/s) = 3.69335 3.80713 3.75067
# Velocity P-wave (km/s) = 7.11409 7.60105 7.36160
#
# Compressibility (1/GPa) = 0.01637634
#
# Stress axis : x y z
#
# Youngs Moduli (GPa) = 69.14258 42.89694 82.49291
#
# Poissons Ratio (x) = 0.26607 0.44745
# Poissons Ratio (y) = 0.42886 0.42348
# Poissons Ratio (z) = 0.37504 0.22021
#
# Static dielectric constant tensor:
#      x y z
#    x 3.556150 0.000000 0.000000 
#    y 0.000000 3.333140 0.000000 
#    z 0.000000 0.000000 3.457150 
# 
# 
# High freq. dielectric constant tensor:
#      x y z
#    x 1.747140 0.000000 0.000000 
#    y 0.000000 1.715510 0.000000 
#    z 0.000000 0.000000 1.719270 
# 
# From -- ./inp_files/30394.got.cif
#   From: 2010.03.12/outbox.cif.g09.slc.cpg/sg59_16_cif.got.tgz:30394.got - 2010.04.16 16:29:54.
