data_PCOD8242341
_publ_section_title
;
Structure prediction by ZEFSAII (Michael W. Deem and Ramdas Pophale) SiO2 
 PCOD8242341
Probable space group: P M M N
;
_chemical_formula_sum "Si O2"
_cell_formula_units_Z 40
_cell_length_a 15.000082
_cell_length_b 9.320773
_cell_length_c 15.315235
_cell_angle_alpha 90.000000
_cell_angle_beta 90.000000
_cell_angle_gamma 90.000000
_cell_volume 2141.259139
_symmetry_space_group_name_H-M "P M M N"
_symmetry_group_IT_number 59
_space_group.IT_coordinate_system_code '2'
_symmetry_cell_setting 'orthorhombic'
loop_
_space_group_symop_operation_xyz
x,y,z
1/2-x,1/2-y,z
1/2+x,-y,-z
-x,1/2+y,-z
-x,-y,-z
1/2+x,1/2+y,-z
1/2-x,y,z
x,1/2-y,z
loop_
_atom_site_type_symbol
_atom_site_label
_atom_site_fract_x
_atom_site_fract_y
_atom_site_fract_z
Si Si1 0.564539 0.919157 0.065319
Si Si2 0.250000 0.079862 0.654726
Si Si3 0.750000 0.916156 0.984974
Si Si4 0.250000 0.079874 0.453639
Si Si5 0.250000 0.910382 0.189357
Si Si6 0.114269 0.915975 0.339182
Si Si7 0.431006 0.079797 0.738285
O O1 0.546413 0.750000 0.057435
O O2 0.549740 0.976127 0.163875
O O3 0.664932 0.961548 0.041023
O O4 0.500000 0.000000 0.000000
O O5 0.250000 0.250000 0.663928
O O6 0.250000 0.034653 0.554132
O O7 0.338506 0.015497 0.700848
O O8 0.750000 0.750000 0.965320
O O9 0.750000 0.984877 0.890733
O O10 0.250000 0.250000 0.439668
O O11 0.160301 0.014873 0.411751
O O12 0.250000 0.750000 0.151789
O O13 0.162303 0.937932 0.246625
O O14 0.122156 0.750000 0.368804
O O15 0.011848 0.964825 0.326178
O O16 0.423745 0.250000 0.742192
#
# Coordination Sequence:
#
# PCOD8242341 Si02
#       7
#     8   4   4   4   4   8   8
#     4  10  20  34  52  75 102 132 168 208 247 289
#     4   9  18  32  52  78 103 128 166 209 245 291
#     4  10  20  31  47  73 102 130 162 205 254 294
#     4  10  20  33  51  78 105 126 155 204 258 298
#     4   9  17  30  48  71  98 130 169 206 241 289
#     4   9  18  33  53  74  97 129 168 204 242 295
#     4   9  17  32  53  73  97 133 171 204 241 291
#
# _framework density 18.680596000000001
#
# number of rings (size 3 to 8) (size 9 to 14) (size 15 to 20)
#    0.000    2.600    0.000    2.700    0.000    7.200 
#    0.000    1.000    0.000    3.600    0.000    0.000 
#    0.000    0.000    0.000    0.000    0.000    0.000 
#
# Total GULP energy -495950.101880 kJ/mol
# GULP energy per Si atom -12398.752547 kJ/mol
# Density = 1.863808 g / cm^3
# Si number density = 18.680596 Si / 1000 Ang^3
#
#
#
# Elastic Constant Matrix: (Units=GPa)
#
#
# Indices 1 2 3 4 5 6 
#
# 1 162.9468 42.7631 74.1849 0.0000 0.0000 0.0000
# 2 42.7631 35.7761 39.0411 0.0000 0.0000 0.0000
# 3 74.1849 39.0411 134.7565 0.0000 0.0000 0.0000
# 4 0.0000 0.0000 0.0000 25.1762 0.0000 0.0000
# 5 0.0000 0.0000 0.0000 0.0000 26.8674 0.0000
# 6 0.0000 0.0000 0.0000 0.0000 0.0000 17.2617
#
#
#
# Elastic Compliance Matrix: (Units=1/GPa)
#
#
# Indices 1 2 3 4 5 6 
#
# 1 0.009651 -0.008391 -0.002882 0.000000 0.000000 0.000000
# 2 -0.008391 0.048169 -0.009336 0.000000 0.000000 0.000000
# 3 -0.002882 -0.009336 0.011712 0.000000 0.000000 0.000000
# 4 0.000000 0.000000 0.000000 0.039720 0.000000 0.000000
# 5 0.000000 0.000000 0.000000 0.000000 0.037220 0.000000
# 6 0.000000 0.000000 0.000000 0.000000 0.000000 0.057932
#
#
# Mechanical properties :
#
#
# Convention : Reuss Voigt Hill
#
# Bulk Modulus (GPa) = 35.31759 71.71751 53.51755
# Shear Modulus (GPa) = 19.60315 25.69373 22.64844
#
# Velocity S-wave (km/s) = 3.24294 3.71269 3.48574
# Velocity P-wave (km/s) = 5.74189 7.54013 6.70160
#
# Compressibility (1/GPa) = 0.02831450
#
# Stress axis : x y z
#
# Youngs Moduli (GPa) = 103.61429 20.76009 85.38060
#
# Poissons Ratio (x) = 0.17420 0.24608
# Poissons Ratio (y) = 0.86941 0.79713
# Poissons Ratio (z) = 0.29863 0.19382
#
# Static dielectric constant tensor:
#      x y z
#    x 3.908970 0.000000 0.000000 
#    y 0.000000 3.092900 0.000000 
#    z 0.000000 0.000000 3.444710 
# 
# 
# High freq. dielectric constant tensor:
#      x y z
#    x 1.742900 0.000000 0.000000 
#    y 0.000000 1.684520 0.000000 
#    z 0.000000 0.000000 1.726860 
# 
# From -- ./inp_files/20066.got.cif
#   From: 2010.03.12/outbox.cif.g09.slc.cpg/sg59_11_cif.got.tgz:20066.got - 2010.04.16 16:29:54.
