data_PCOD8242989
_publ_section_title
;
Structure prediction by ZEFSAII (Michael W. Deem and Ramdas Pophale) SiO2 
 PCOD8242989
Probable space group: P M M N
;
_chemical_formula_sum "Si O2"
_cell_formula_units_Z 40
_cell_length_a 9.516877
_cell_length_b 9.037914
_cell_length_c 25.642535
_cell_angle_alpha 90.000000
_cell_angle_beta 90.000000
_cell_angle_gamma 90.000000
_cell_volume 2205.584077
_symmetry_space_group_name_H-M "P M M N"
_symmetry_group_IT_number 59
_space_group.IT_coordinate_system_code '2'
_symmetry_cell_setting 'orthorhombic'
loop_
_space_group_symop_operation_xyz
x,y,z
1/2-x,1/2-y,z
1/2+x,-y,-z
-x,1/2+y,-z
-x,-y,-z
1/2+x,1/2+y,-z
1/2-x,y,z
x,1/2-y,z
loop_
_atom_site_type_symbol
_atom_site_label
_atom_site_fract_x
_atom_site_fract_y
_atom_site_fract_z
Si Si1 0.083201 0.086000 0.841602
Si Si2 0.587977 0.422714 0.651651
Si Si3 0.091433 0.424609 0.956352
Si Si4 0.086378 0.421988 0.455110
Si Si5 0.916019 0.080344 0.259884
O O1 0.250000 0.095226 0.843938
O O2 0.023594 0.250000 0.828448
O O3 0.031040 0.033226 0.898791
O O4 0.033351 0.971458 0.797425
O O5 0.750000 0.456015 0.665154
O O6 0.560952 0.250000 0.642854
O O7 0.541417 0.507360 0.599631
O O8 0.492365 0.479266 0.698253
O O9 0.250000 0.483328 0.962462
O O10 0.085699 0.250000 0.963696
O O11 0.000000 0.500000 0.000000
O O12 0.250000 0.448750 0.466267
O O13 0.047728 0.250000 0.453543
O O14 0.000000 0.500000 0.500000
O O15 0.750000 0.058488 0.266598
O O16 0.960775 0.250000 0.267385
#
# Coordination Sequence:
#
# PCOD8242989 Si02
#       5
#     8   8   8   8   8
#     4   8  15  30  50  70  96 131 168 207 250 295
#     4  10  21  37  56  77 103 137 173 208 251 301
#     4   9  18  32  50  73 100 130 166 207 251 300
#     4  10  21  37  57  80 106 137 172 210 253 299
#     4  10  20  33  52  79 105 130 166 210 253 300
#
# _framework density 18.135787000000001
#
# number of rings (size 3 to 8) (size 9 to 14) (size 15 to 20)
#    0.000    2.600    0.000    3.000    0.000    5.600 
#    0.000    3.000    0.000    1.200    0.000    0.000 
#    0.000    0.000    0.000    0.000    0.000    0.000 
#
# Total GULP energy -495972.750657 kJ/mol
# GULP energy per Si atom -12399.318766 kJ/mol
# Density = 1.809451 g / cm^3
# Si number density = 18.135787 Si / 1000 Ang^3
#
#
#
# Elastic Constant Matrix: (Units=GPa)
#
#
# Indices 1 2 3 4 5 6 
#
# 1 46.7308 37.8264 54.5727 0.0000 0.0000 0.0000
# 2 37.8264 97.1468 69.8133 0.0000 0.0000 0.0000
# 3 54.5727 69.8133 156.5189 0.0000 0.0000 0.0000
# 4 0.0000 0.0000 0.0000 41.2676 0.0000 0.0000
# 5 0.0000 0.0000 0.0000 0.0000 32.7480 0.0000
# 6 0.0000 0.0000 0.0000 0.0000 0.0000 28.4967
#
#
#
# Elastic Compliance Matrix: (Units=1/GPa)
#
#
# Indices 1 2 3 4 5 6 
#
# 1 0.040083 -0.008189 -0.010323 0.000000 0.000000 0.000000
# 2 -0.008189 0.016823 -0.004648 0.000000 0.000000 0.000000
# 3 -0.010323 -0.004648 0.012062 0.000000 0.000000 0.000000
# 4 0.000000 0.000000 0.000000 0.024232 0.000000 0.000000
# 5 0.000000 0.000000 0.000000 0.000000 0.030536 0.000000
# 6 0.000000 0.000000 0.000000 0.000000 0.000000 0.035092
#
#
# Mechanical properties :
#
#
# Convention : Reuss Voigt Hill
#
# Bulk Modulus (GPa) = 44.15617 69.42457 56.79037
# Shear Modulus (GPa) = 23.50767 29.71473 26.61120
#
# Velocity S-wave (km/s) = 3.60419 4.05218 3.83473
# Velocity P-wave (km/s) = 6.45915 7.76254 7.14065
#
# Compressibility (1/GPa) = 0.02264689
#
# Stress axis : x y z
#
# Youngs Moduli (GPa) = 24.94836 59.44344 82.90722
#
# Poissons Ratio (x) = 0.48676 0.85585
# Poissons Ratio (y) = 0.20429 0.38539
# Poissons Ratio (z) = 0.25754 0.27632
#
# Static dielectric constant tensor:
#      x y z
#    x 3.150190 0.000000 0.000000 
#    y 0.000000 2.704800 0.000000 
#    z 0.000000 0.000000 3.807570 
# 
# 
# High freq. dielectric constant tensor:
#      x y z
#    x 1.674210 0.000000 0.000000 
#    y 0.000000 1.710200 0.000000 
#    z 0.000000 0.000000 1.717690 
# 
# From -- ./inp_files/28722.got.cif
#   From: 2010.03.12/outbox.cif.g09.slc.cpg/sg59_15_cif.got.tgz:28722.got - 2010.04.16 16:29:54.
