data_PCOD8242776
_publ_section_title
;
Structure prediction by ZEFSAII (Michael W. Deem and Ramdas Pophale) SiO2 
 PCOD8242776
Probable space group: P M M N
;
_chemical_formula_sum "Si O2"
_cell_formula_units_Z 56
_cell_length_a 8.868451
_cell_length_b 23.196291
_cell_length_c 15.441873
_cell_angle_alpha 90.000000
_cell_angle_beta 90.000000
_cell_angle_gamma 90.000000
_cell_volume 3176.627531
_symmetry_space_group_name_H-M "P M M N"
_symmetry_group_IT_number 59
_space_group.IT_coordinate_system_code '2'
_symmetry_cell_setting 'orthorhombic'
loop_
_space_group_symop_operation_xyz
x,y,z
1/2-x,1/2-y,z
1/2+x,-y,-z
-x,1/2+y,-z
-x,-y,-z
1/2+x,1/2+y,-z
1/2-x,y,z
x,1/2-y,z
loop_
_atom_site_type_symbol
_atom_site_label
_atom_site_fract_x
_atom_site_fract_y
_atom_site_fract_z
Si Si1 0.923991 0.383310 0.660195
Si Si2 0.582523 0.818587 0.002817
Si Si3 0.572117 0.314769 0.826226
Si Si4 0.070302 0.185625 0.185844
Si Si5 0.577701 0.183658 0.487549
Si Si6 0.571963 0.503414 0.405650
Si Si7 0.071955 0.390586 0.344591
O O1 0.750000 0.403235 0.667862
O O2 0.985506 0.355273 0.748836
O O3 0.941978 0.335241 0.586503
O O4 0.028019 0.437749 0.641106
O O5 0.750000 0.843785 0.016671
O O6 0.587142 0.750000 0.001504
O O7 0.480489 0.841381 0.081822
O O8 0.516882 0.837850 0.908748
O O9 0.750000 0.312385 0.825064
O O10 0.506543 0.250000 0.813947
O O11 0.250000 0.188544 0.186264
O O12 0.005942 0.250000 0.204205
O O13 0.011240 0.142742 0.259817
O O14 0.750000 0.173757 0.457152
O O15 0.530413 0.250000 0.479847
O O16 0.466146 0.146412 0.429234
O O17 0.500000 0.500000 0.500000
O O18 0.750000 0.498929 0.416366
O O19 0.512404 0.451395 0.346674
O O20 0.250000 0.401088 0.341602
#
# Coordination Sequence:
#
# PCOD8242776 Si02
#       7
#     8   8   8   8   8   8   8
#     4  10  20  35  54  74 102 138 173 210 254 307
#     4   8  14  27  48  73 103 138 171 204 245 298
#     4   9  17  30  50  78 109 138 167 203 253 308
#     4   8  15  29  50  77 107 137 169 206 253 306
#     4  10  20  33  50  74 105 138 168 204 254 308
#     4  12  24  39  56  74  98 132 176 221 260 304
#     4  11  21  34  54  77 102 135 174 217 258 305
#
# _framework density 17.628758999999999
#
# number of rings (size 3 to 8) (size 9 to 14) (size 15 to 20)
#    0.000    2.286    1.429    3.429    0.000    3.143 
#    0.000    1.429    0.000    6.857    0.000    0.000 
#    0.000    0.000    0.000    0.000    0.000    0.000 
#
# Total GULP energy -694324.572426 kJ/mol
# GULP energy per Si atom -12398.653079 kJ/mol
# Density = 1.758863 g / cm^3
# Si number density = 17.628759 Si / 1000 Ang^3
#
#
#
# Elastic Constant Matrix: (Units=GPa)
#
#
# Indices 1 2 3 4 5 6 
#
# 1 59.9411 30.6432 31.1676 0.0000 0.0000 0.0000
# 2 30.6432 85.3946 40.5572 0.0000 0.0000 0.0000
# 3 31.1676 40.5572 133.3075 0.0000 0.0000 0.0000
# 4 0.0000 0.0000 0.0000 16.2626 0.0000 0.0000
# 5 0.0000 0.0000 0.0000 0.0000 23.6783 0.0000
# 6 0.0000 0.0000 0.0000 0.0000 0.0000 24.3076
#
#
#
# Elastic Compliance Matrix: (Units=1/GPa)
#
#
# Indices 1 2 3 4 5 6 
#
# 1 0.021494 -0.006226 -0.003131 0.000000 0.000000 0.000000
# 2 -0.006226 0.015492 -0.003258 0.000000 0.000000 0.000000
# 3 -0.003131 -0.003258 0.009225 0.000000 0.000000 0.000000
# 4 0.000000 0.000000 0.000000 0.061491 0.000000 0.000000
# 5 0.000000 0.000000 0.000000 0.000000 0.042233 0.000000
# 6 0.000000 0.000000 0.000000 0.000000 0.000000 0.041139
#
#
# Mechanical properties :
#
#
# Convention : Reuss Voigt Hill
#
# Bulk Modulus (GPa) = 47.66206 53.70877 50.68541
# Shear Modulus (GPa) = 22.39182 24.60138 23.49660
#
# Velocity S-wave (km/s) = 3.56783 3.73973 3.65479
# Velocity P-wave (km/s) = 6.63836 7.01285 6.82817
#
# Compressibility (1/GPa) = 0.02098105
#
# Stress axis : x y z
#
# Youngs Moduli (GPa) = 46.52469 64.55131 108.40583
#
# Poissons Ratio (x) = 0.40188 0.33944
# Poissons Ratio (y) = 0.28965 0.35313
# Poissons Ratio (z) = 0.14568 0.21028
#
# Static dielectric constant tensor:
#      x y z
#    x 3.144190 0.000000 0.000000 
#    y 0.000000 3.272860 0.000000 
#    z 0.000000 0.000000 3.582240 
# 
# 
# High freq. dielectric constant tensor:
#      x y z
#    x 1.665570 0.000000 0.000000 
#    y 0.000000 1.660860 0.000000 
#    z 0.000000 0.000000 1.689310 
# 
# From -- ./inp_files/20902.got.cif
#   From: 2010.03.12/outbox.cif.g09.slc.cpg/sg59_11_cif.got.tgz:20902.got - 2010.04.16 16:29:54.
