data_PCOD8242300
_publ_section_title
;
Structure prediction by ZEFSAII (Michael W. Deem and Ramdas Pophale) SiO2 
 PCOD8242300
Probable space group: P M M N
;
_chemical_formula_sum "Si O2"
_cell_formula_units_Z 64
_cell_length_a 9.269617
_cell_length_b 17.625802
_cell_length_c 23.132671
_cell_angle_alpha 90.000000
_cell_angle_beta 90.000000
_cell_angle_gamma 90.000000
_cell_volume 3779.518355
_symmetry_space_group_name_H-M "P M M N"
_symmetry_group_IT_number 59
_space_group.IT_coordinate_system_code '2'
_symmetry_cell_setting 'orthorhombic'
loop_
_space_group_symop_operation_xyz
x,y,z
1/2-x,1/2-y,z
1/2+x,-y,-z
-x,1/2+y,-z
-x,-y,-z
1/2+x,1/2+y,-z
1/2-x,y,z
x,1/2-y,z
loop_
_atom_site_type_symbol
_atom_site_label
_atom_site_fract_x
_atom_site_fract_y
_atom_site_fract_z
Si Si1 0.916976 0.031534 0.366333
Si Si2 0.915157 0.550899 0.128766
Si Si3 0.419153 0.836669 0.549830
Si Si4 0.081022 0.067463 0.531424
Si Si5 0.413123 0.336377 0.171272
Si Si6 0.079079 0.541723 0.761873
Si Si7 0.919243 0.163557 0.944102
Si Si8 0.583071 0.104811 0.067853
O O1 0.750000 0.048748 0.359021
O O2 0.978766 0.105655 0.400616
O O3 0.981738 0.021964 0.302053
O O4 0.941521 0.951864 0.400475
O O5 0.750000 0.576323 0.127790
O O6 0.961674 0.525366 0.193403
O O7 0.943271 0.482759 0.083701
O O8 0.008670 0.623071 0.110706
O O9 0.250000 0.849761 0.538073
O O10 0.451087 0.750000 0.568248
O O11 0.505027 0.854770 0.489787
O O12 0.250000 0.068975 0.515597
O O13 0.000000 0.000000 0.500000
O O14 0.250000 0.367971 0.167302
O O15 0.413685 0.250000 0.191576
O O16 0.502302 0.381260 0.219329
O O17 0.486754 0.342561 0.108679
O O18 0.250000 0.555734 0.763922
O O19 0.750000 0.159530 0.934725
O O20 0.973426 0.250000 0.947282
O O21 0.966015 0.120087 0.002406
O O22 0.750000 0.127506 0.077096
#
# Coordination Sequence:
#
# PCOD8242300 Si02
#       8
#     8   8   8   8   8   8   8   8
#     4   8  15  29  49  70  90 118 159 199 227 261
#     4   9  18  31  48  70  92 116 148 188 233 275
#     4   9  17  29  46  71 102 129 152 184 228 275
#     4   9  16  28  47  69  93 122 155 189 227 269
#     4  10  20  31  43  65  97 126 151 184 228 275
#     4   9  18  33  51  68  87 118 161 198 227 265
#     4  10  20  32  48  70  93 118 149 186 230 280
#     4   9  18  33  51  69  89 117 154 189 224 275
#
# _framework density 16.933374000000001
#
# number of rings (size 3 to 8) (size 9 to 14) (size 15 to 20)
#    0.000    2.875    0.000    3.000    0.000    5.000 
#    0.000    4.375    0.000    0.750    0.000    5.250 
#    0.000    0.000    0.000    0.000    0.000    0.000 
#
# Total GULP energy -793229.217348 kJ/mol
# GULP energy per Si atom -12394.206521 kJ/mol
# Density = 1.689483 g / cm^3
# Si number density = 16.933374 Si / 1000 Ang^3
#
#
#
# Elastic Constant Matrix: (Units=GPa)
#
#
# Indices 1 2 3 4 5 6 
#
# 1 52.2346 27.7693 39.5864 0.0000 0.0000 0.0000
# 2 27.7693 72.7960 57.9240 0.0000 0.0000 0.0000
# 3 39.5864 57.9240 128.9688 0.0000 0.0000 0.0000
# 4 0.0000 0.0000 0.0000 16.6243 0.0000 0.0000
# 5 0.0000 0.0000 0.0000 0.0000 19.2539 0.0000
# 6 0.0000 0.0000 0.0000 0.0000 0.0000 28.5505
#
#
#
# Elastic Compliance Matrix: (Units=1/GPa)
#
#
# Indices 1 2 3 4 5 6 
#
# 1 0.026350 -0.005627 -0.005561 0.000000 0.000000 0.000000
# 2 -0.005627 0.022578 -0.008413 0.000000 0.000000 0.000000
# 3 -0.005561 -0.008413 0.013239 0.000000 0.000000 0.000000
# 4 0.000000 0.000000 0.000000 0.060153 0.000000 0.000000
# 5 0.000000 0.000000 0.000000 0.000000 0.051938 0.000000
# 6 0.000000 0.000000 0.000000 0.000000 0.000000 0.035026
#
#
# Mechanical properties :
#
#
# Convention : Reuss Voigt Hill
#
# Bulk Modulus (GPa) = 43.54387 56.06206 49.80296
# Shear Modulus (GPa) = 19.52049 21.46704 20.49376
#
# Velocity S-wave (km/s) = 3.39895 3.56439 3.48265
# Velocity P-wave (km/s) = 6.41673 7.07949 6.75624
#
# Compressibility (1/GPa) = 0.02296534
#
# Stress axis : x y z
#
# Youngs Moduli (GPa) = 37.95045 44.29081 75.53224
#
# Poissons Ratio (x) = 0.24922 0.42002
# Poissons Ratio (y) = 0.21355 0.63548
# Poissons Ratio (z) = 0.21104 0.37263
#
# Static dielectric constant tensor:
#      x y z
#    x 3.151410 0.000000 0.000000 
#    y 0.000000 3.141610 0.000000 
#    z 0.000000 0.000000 3.444490 
# 
# 
# High freq. dielectric constant tensor:
#      x y z
#    x 1.644400 0.000000 0.000000 
#    y 0.000000 1.635200 0.000000 
#    z 0.000000 0.000000 1.643390 
# 
# From -- ./inp_files/31743.got.cif
#   From: 2010.03.12/outbox.cif.g09.slc.cpg/sg59_16_cif.got.tgz:31743.got - 2010.04.16 16:29:54.
