data_PCOD8242683
_publ_section_title
;
Structure prediction by ZEFSAII (Michael W. Deem and Ramdas Pophale) SiO2 
 PCOD8242683
Probable space group: P M M N
;
_chemical_formula_sum "Si O2"
_cell_formula_units_Z 40
_cell_length_a 9.038681
_cell_length_b 17.705912
_cell_length_c 13.869945
_cell_angle_alpha 90.000000
_cell_angle_beta 90.000000
_cell_angle_gamma 90.000000
_cell_volume 2219.719512
_symmetry_space_group_name_H-M "P M M N"
_symmetry_group_IT_number 59
_space_group.IT_coordinate_system_code '2'
_symmetry_cell_setting 'orthorhombic'
loop_
_space_group_symop_operation_xyz
x,y,z
1/2-x,1/2-y,z
1/2+x,-y,-z
-x,1/2+y,-z
-x,-y,-z
1/2+x,1/2+y,-z
1/2-x,y,z
x,1/2-y,z
loop_
_atom_site_type_symbol
_atom_site_label
_atom_site_fract_x
_atom_site_fract_y
_atom_site_fract_z
Si Si1 0.579712 0.333356 0.204192
Si Si2 0.922217 0.603050 0.619662
Si Si3 0.425212 0.982802 0.899458
Si Si4 0.076241 0.551358 0.280230
Si Si5 0.077509 0.338503 0.584717
O O1 0.750000 0.345307 0.229782
O O2 0.549081 0.250000 0.160225
O O3 0.494656 0.340384 0.304448
O O4 0.530320 0.396631 0.127395
O O5 0.750000 0.619768 0.624531
O O6 0.960695 0.516794 0.646236
O O7 0.981226 0.622098 0.513153
O O8 0.250000 0.994680 0.906434
O O9 0.491458 0.039304 0.820100
O O10 0.500000 0.000000 0.000000
O O11 0.250000 0.557963 0.259091
O O12 0.016115 0.628173 0.326845
O O13 0.250000 0.355961 0.601760
O O14 0.046063 0.250000 0.578830
#
# Coordination Sequence:
#
# PCOD8242683 Si02
#       5
#     8   8   8   8   8
#     4   9  18  32  51  77 105 130 160 204 256 303
#     4   9  18  32  51  75 103 136 171 206 248 299
#     4  10  20  36  57  77 100 131 168 211 258 309
#     4  10  20  34  53  76 101 132 172 213 253 302
#     4  10  20  33  49  72 105 142 175 208 249 296
#
# _framework density 18.020294
#
# number of rings (size 3 to 8) (size 9 to 14) (size 15 to 20)
#    0.000    2.400    0.000    2.400    0.000    4.000 
#    0.000    1.000    0.000    3.600    0.000    0.000 
#    0.000    0.000    0.000    0.000    0.000    0.000 
#
# Total GULP energy -496059.464150 kJ/mol
# GULP energy per Si atom -12401.486604 kJ/mol
# Density = 1.797928 g / cm^3
# Si number density = 18.020294 Si / 1000 Ang^3
#
#
#
# Elastic Constant Matrix: (Units=GPa)
#
#
# Indices 1 2 3 4 5 6 
#
# 1 68.3876 37.2371 57.4682 0.0000 0.0000 0.0000
# 2 37.2371 71.9837 58.1471 0.0000 0.0000 0.0000
# 3 57.4682 58.1471 143.5321 0.0000 0.0000 0.0000
# 4 0.0000 0.0000 0.0000 19.1939 0.0000 0.0000
# 5 0.0000 0.0000 0.0000 0.0000 33.2299 0.0000
# 6 0.0000 0.0000 0.0000 0.0000 0.0000 26.5731
#
#
#
# Elastic Compliance Matrix: (Units=1/GPa)
#
#
# Indices 1 2 3 4 5 6 
#
# 1 0.024180 -0.006968 -0.006858 0.000000 0.000000 0.000000
# 2 -0.006968 0.022658 -0.006389 0.000000 0.000000 0.000000
# 3 -0.006858 -0.006389 0.012301 0.000000 0.000000 0.000000
# 4 0.000000 0.000000 0.000000 0.052100 0.000000 0.000000
# 5 0.000000 0.000000 0.000000 0.000000 0.030093 0.000000
# 6 0.000000 0.000000 0.000000 0.000000 0.000000 0.037632
#
#
# Mechanical properties :
#
#
# Convention : Reuss Voigt Hill
#
# Bulk Modulus (GPa) = 53.45359 65.51201 59.48280
# Shear Modulus (GPa) = 22.16003 24.53611 23.34807
#
# Velocity S-wave (km/s) = 3.51055 3.69397 3.60342
# Velocity P-wave (km/s) = 6.79407 7.39103 7.09883
#
# Compressibility (1/GPa) = 0.01870782
#
# Stress axis : x y z
#
# Youngs Moduli (GPa) = 41.35636 44.13537 81.29175
#
# Poissons Ratio (x) = 0.30754 0.55753
# Poissons Ratio (y) = 0.28818 0.51937
# Poissons Ratio (z) = 0.28364 0.28198
#
# Static dielectric constant tensor:
#      x y z
#    x 3.319200 0.000000 0.000000 
#    y 0.000000 3.408200 0.000000 
#    z 0.000000 0.000000 3.257110 
# 
# 
# High freq. dielectric constant tensor:
#      x y z
#    x 1.700790 0.000000 0.000000 
#    y 0.000000 1.697050 0.000000 
#    z 0.000000 0.000000 1.686320 
# 
# From -- ./inp_files/13831.got.cif
#   From: 2010.03.12/outbox.cif.g09.slc.cpg/sg59_7_cif.got.tgz:13831.got - 2010.04.16 16:29:54.
