data_PCOD8242087
_publ_section_title
;
Structure prediction by ZEFSAII (Michael W. Deem and Ramdas Pophale) SiO2 
 PCOD8242087
Probable space group: P M M N
;
_chemical_formula_sum "Si O2"
_cell_formula_units_Z 48
_cell_length_a 9.230055
_cell_length_b 15.938848
_cell_length_c 17.033401
_cell_angle_alpha 90.000000
_cell_angle_beta 90.000000
_cell_angle_gamma 90.000000
_cell_volume 2505.893379
_symmetry_space_group_name_H-M "P M M N"
_symmetry_group_IT_number 59
_space_group.IT_coordinate_system_code '2'
_symmetry_cell_setting 'orthorhombic'
loop_
_space_group_symop_operation_xyz
x,y,z
1/2-x,1/2-y,z
1/2+x,-y,-z
-x,1/2+y,-z
-x,-y,-z
1/2+x,1/2+y,-z
1/2-x,y,z
x,1/2-y,z
loop_
_atom_site_type_symbol
_atom_site_label
_atom_site_fract_x
_atom_site_fract_y
_atom_site_fract_z
Si Si1 0.083571 0.348384 0.483997
Si Si2 0.079741 0.417141 0.029208
Si Si3 0.080692 0.916528 0.663025
Si Si4 0.577008 0.750000 0.233952
Si Si5 0.922521 0.750000 0.057343
Si Si6 0.086124 0.154254 0.194252
Si Si7 0.919495 0.606532 0.345419
O O1 0.250000 0.377790 0.476197
O O2 0.069547 0.250000 0.470649
O O3 0.016301 0.373750 0.568409
O O4 0.990035 0.395305 0.419523
O O5 0.250000 0.428070 0.013674
O O6 0.046070 0.405569 0.121486
O O7 0.019809 0.334756 0.984142
O O8 0.000000 0.500000 0.000000
O O9 0.250000 0.898823 0.656179
O O10 0.019094 0.860699 0.733033
O O11 0.045516 0.012978 0.682347
O O12 0.750000 0.750000 0.230590
O O13 0.515835 0.750000 0.145871
O O14 0.515734 0.831477 0.279650
O O15 0.750000 0.750000 0.053527
O O16 0.250000 0.136875 0.222615
O O17 0.070083 0.250000 0.165494
O O18 0.750000 0.624412 0.352189
#
# Coordination Sequence:
#
# PCOD8242087 Si02
#       7
#     8   8   8   4   4   8   8
#     4  10  19  35  57  77 103 145 189 219 260 328
#     4  10  21  38  60  88 116 149 190 234 284 340
#     4  11  23  34  52  85 115 138 177 233 286 324
#     4   9  16  30  54  80 105 134 176 229 269 311
#     4   9  18  34  59  86 113 146 188 233 279 335
#     4  10  21  40  60  78 109 153 195 226 263 327
#     4   9  18  33  52  79 109 139 178 225 272 325
#
# _framework density 19.154845999999999
#
# number of rings (size 3 to 8) (size 9 to 14) (size 15 to 20)
#    0.000    2.167    1.667    1.500    2.333    3.333 
#    0.000    1.250    0.000    0.000    0.000    0.000 
#    0.000    0.000    0.000    0.000    0.000    0.000 
#
# Total GULP energy -595238.095803 kJ/mol
# GULP energy per Si atom -12400.793663 kJ/mol
# Density = 1.911125 g / cm^3
# Si number density = 19.154846 Si / 1000 Ang^3
#
#
#
# Elastic Constant Matrix: (Units=GPa)
#
#
# Indices 1 2 3 4 5 6 
#
# 1 48.7439 29.9926 31.1968 0.0000 0.0000 0.0000
# 2 29.9926 96.6642 40.0401 0.0000 0.0000 0.0000
# 3 31.1968 40.0401 118.5080 0.0000 0.0000 0.0000
# 4 0.0000 0.0000 0.0000 34.7646 0.0000 0.0000
# 5 0.0000 0.0000 0.0000 0.0000 17.5407 0.0000
# 6 0.0000 0.0000 0.0000 0.0000 0.0000 26.7064
#
#
#
# Elastic Compliance Matrix: (Units=1/GPa)
#
#
# Indices 1 2 3 4 5 6 
#
# 1 0.027793 -0.006503 -0.005119 0.000000 0.000000 0.000000
# 2 -0.006503 0.013550 -0.002866 0.000000 0.000000 0.000000
# 3 -0.005119 -0.002866 0.010754 0.000000 0.000000 0.000000
# 4 0.000000 0.000000 0.000000 0.028765 0.000000 0.000000
# 5 0.000000 0.000000 0.000000 0.000000 0.057010 0.000000
# 6 0.000000 0.000000 0.000000 0.000000 0.000000 0.037444
#
#
# Mechanical properties :
#
#
# Convention : Reuss Voigt Hill
#
# Bulk Modulus (GPa) = 43.25184 51.81949 47.53566
# Shear Modulus (GPa) = 23.58478 26.64811 25.11645
#
# Velocity S-wave (km/s) = 3.51275 3.73392 3.62502
# Velocity P-wave (km/s) = 6.25154 6.76027 6.51087
#
# Compressibility (1/GPa) = 0.02312040
#
# Stress axis : x y z
#
# Youngs Moduli (GPa) = 35.97999 73.80024 92.98615
#
# Poissons Ratio (x) = 0.47993 0.47602
# Poissons Ratio (y) = 0.23398 0.26652
# Poissons Ratio (z) = 0.18419 0.21153
#
# Static dielectric constant tensor:
#      x y z
#    x 3.112690 0.000000 0.000000 
#    y 0.000000 3.597690 0.000000 
#    z 0.000000 0.000000 3.629380 
# 
# 
# High freq. dielectric constant tensor:
#      x y z
#    x 1.701060 0.000000 0.000000 
#    y 0.000000 1.756610 0.000000 
#    z 0.000000 0.000000 1.759250 
# 
# From -- ./inp_files/25618.got.cif
#   From: 2010.03.12/outbox.cif.g09.slc.cpg/sg59_13_cif.got.tgz:25618.got - 2010.04.16 16:29:54.
