data_PCOD8242147
_publ_section_title
;
Structure prediction by ZEFSAII (Michael W. Deem and Ramdas Pophale) SiO2 
 PCOD8242147
Probable space group: P M M N
;
_chemical_formula_sum "Si O2"
_cell_formula_units_Z 64
_cell_length_a 8.966031
_cell_length_b 27.806216
_cell_length_c 12.666736
_cell_angle_alpha 90.000000
_cell_angle_beta 90.000000
_cell_angle_gamma 90.000000
_cell_volume 3157.961618
_symmetry_space_group_name_H-M "P M M N"
_symmetry_group_IT_number 59
_space_group.IT_coordinate_system_code '2'
_symmetry_cell_setting 'orthorhombic'
loop_
_space_group_symop_operation_xyz
x,y,z
1/2-x,1/2-y,z
1/2+x,-y,-z
-x,1/2+y,-z
-x,-y,-z
1/2+x,1/2+y,-z
1/2-x,y,z
x,1/2-y,z
loop_
_atom_site_type_symbol
_atom_site_label
_atom_site_fract_x
_atom_site_fract_y
_atom_site_fract_z
Si Si1 0.085199 0.933699 0.266007
Si Si2 0.923376 0.949816 0.477807
Si Si3 0.418586 0.803484 0.418639
Si Si4 0.578671 0.642997 0.596957
Si Si5 0.086646 0.673159 0.191186
Si Si6 0.573338 0.194533 0.209699
Si Si7 0.576657 0.649021 0.993074
Si Si8 0.075360 0.458588 0.933969
O O1 0.250000 0.956948 0.283585
O O2 0.103713 0.882604 0.213371
O O3 0.000164 0.926919 0.375617
O O4 0.989225 0.965012 0.184105
O O5 0.750000 0.957656 0.453776
O O6 0.944786 0.914322 0.578751
O O7 0.000000 0.000000 0.500000
O O8 0.250000 0.825829 0.423430
O O9 0.415307 0.750000 0.465668
O O10 0.535344 0.833421 0.485887
O O11 0.474182 0.801395 0.297089
O O12 0.750000 0.654747 0.623485
O O13 0.476857 0.664017 0.688926
O O14 0.250000 0.694227 0.160714
O O15 0.974018 0.680945 0.093883
O O16 0.750000 0.193198 0.205100
O O17 0.516862 0.250000 0.216389
O O18 0.510554 0.167790 0.108025
O O19 0.750000 0.657694 0.973954
O O20 0.539917 0.592925 0.012432
O O21 0.250000 0.467538 0.928032
O O22 0.000000 0.500000 0.000000
#
# Coordination Sequence:
#
# PCOD8242147 Si02
#       8
#     8   8   8   8   8   8   8   8
#     4  10  19  35  59  83 114 156 197 244 302 358
#     4  11  24  40  60  88 120 158 203 252 308 370
#     4  10  20  35  58  88 120 155 196 239 287 349
#     4  11  24  41  62  88 121 157 200 253 308 365
#     4   9  18  34  57  85 118 156 195 238 292 354
#     4  11  25  44  66  90 120 164 214 261 313 378
#     4  10  22  39  61  89 122 158 202 256 310 365
#     4  10  21  37  59  89 124 162 206 255 308 369
#
# _framework density 20.266238000000001
#
# number of rings (size 3 to 8) (size 9 to 14) (size 15 to 20)
#    0.000    1.750    1.250    2.625    0.000    8.250 
#    0.000    2.500    0.000    0.000    0.000    0.000 
#    0.000    0.000    0.000    0.000    0.000    0.000 
#
# Total GULP energy -793481.649254 kJ/mol
# GULP energy per Si atom -12398.150770 kJ/mol
# Density = 2.022011 g / cm^3
# Si number density = 20.266238 Si / 1000 Ang^3
#
#
#
# Elastic Constant Matrix: (Units=GPa)
#
#
# Indices 1 2 3 4 5 6 
#
# 1 120.2144 46.8039 55.3612 0.0000 0.0000 0.0000
# 2 46.8039 68.6247 36.6240 0.0000 0.0000 0.0000
# 3 55.3612 36.6240 118.8479 0.0000 0.0000 0.0000
# 4 0.0000 0.0000 0.0000 25.9302 0.0000 0.0000
# 5 0.0000 0.0000 0.0000 0.0000 40.1374 0.0000
# 6 0.0000 0.0000 0.0000 0.0000 0.0000 23.6772
#
#
#
# Elastic Compliance Matrix: (Units=1/GPa)
#
#
# Indices 1 2 3 4 5 6 
#
# 1 0.012659 -0.006567 -0.003873 0.000000 0.000000 0.000000
# 2 -0.006567 0.020847 -0.003365 0.000000 0.000000 0.000000
# 3 -0.003873 -0.003365 0.011255 0.000000 0.000000 0.000000
# 4 0.000000 0.000000 0.000000 0.038565 0.000000 0.000000
# 5 0.000000 0.000000 0.000000 0.000000 0.024914 0.000000
# 6 0.000000 0.000000 0.000000 0.000000 0.000000 0.042235
#
#
# Mechanical properties :
#
#
# Convention : Reuss Voigt Hill
#
# Bulk Modulus (GPa) = 58.30640 65.02947 61.66793
# Shear Modulus (GPa) = 27.20326 29.20882 28.20604
#
# Velocity S-wave (km/s) = 3.66771 3.80051 3.73470
# Velocity P-wave (km/s) = 6.83877 7.17047 7.00659
#
# Compressibility (1/GPa) = 0.01715078
#
# Stress axis : x y z
#
# Youngs Moduli (GPa) = 78.99704 47.96955 88.84720
#
# Poissons Ratio (x) = 0.31500 0.34411
# Poissons Ratio (y) = 0.51874 0.29899
# Poissons Ratio (z) = 0.30596 0.16143
#
# Static dielectric constant tensor:
#      x y z
#    x 3.505040 0.000000 0.000000 
#    y 0.000000 3.723510 0.000000 
#    z 0.000000 0.000000 3.939050 
# 
# 
# High freq. dielectric constant tensor:
#      x y z
#    x 1.798460 0.000000 0.000000 
#    y 0.000000 1.786450 0.000000 
#    z 0.000000 0.000000 1.795020 
# 
# From -- ./inp_files/15027.got.cif
#   From: 2010.03.12/outbox.cif.g09.slc.cpg/sg59_8_cif.got.tgz:15027.got - 2010.04.16 16:29:54.
