data_PCOD8242447
_publ_section_title
;
Structure prediction by ZEFSAII (Michael W. Deem and Ramdas Pophale) SiO2 
 PCOD8242447
Probable space group: P M M N
;
_chemical_formula_sum "Si O2"
_cell_formula_units_Z 64
_cell_length_a 30.357648
_cell_length_b 8.773898
_cell_length_c 14.402518
_cell_angle_alpha 90.000000
_cell_angle_beta 90.000000
_cell_angle_gamma 90.000000
_cell_volume 3836.181343
_symmetry_space_group_name_H-M "P M M N"
_symmetry_group_IT_number 59
_space_group.IT_coordinate_system_code '2'
_symmetry_cell_setting 'orthorhombic'
loop_
_space_group_symop_operation_xyz
x,y,z
1/2-x,1/2-y,z
1/2+x,-y,-z
-x,1/2+y,-z
-x,-y,-z
1/2+x,1/2+y,-z
1/2-x,y,z
x,1/2-y,z
loop_
_atom_site_type_symbol
_atom_site_label
_atom_site_fract_x
_atom_site_fract_y
_atom_site_fract_z
Si Si1 0.701934 0.428263 0.849008
Si Si2 0.961527 0.073129 0.062065
Si Si3 0.065302 0.079351 0.248603
Si Si4 0.115022 0.078220 0.436642
Si Si5 0.700906 0.571470 0.652991
Si Si6 0.110919 0.925147 0.081555
Si Si7 0.524664 0.928300 0.257962
Si Si8 0.041921 0.928655 0.552208
O O1 0.750000 0.494694 0.880970
O O2 0.706292 0.250000 0.837223
O O3 0.688106 0.491507 0.749014
O O4 0.663206 0.466951 0.923547
O O5 0.973223 0.250000 0.073175
O O6 0.957616 0.996049 0.161966
O O7 0.913315 0.049865 0.016451
O O8 0.000000 0.000000 0.000000
O O9 0.045377 0.250000 0.239701
O O10 0.099788 0.071282 0.330752
O O11 0.088541 0.038204 0.153360
O O12 0.027001 0.959219 0.268987
O O13 0.109633 0.250000 0.476509
O O14 0.166462 0.027703 0.429526
O O15 0.087312 0.962530 0.498898
O O16 0.750000 0.523535 0.620238
O O17 0.697726 0.750000 0.672674
O O18 0.104886 0.750000 0.114725
O O19 0.534093 0.750000 0.259781
O O20 0.548893 0.005771 0.344910
O O21 0.033367 0.750000 0.557228
O O22 0.000000 0.000000 0.500000
#
# Coordination Sequence:
#
# PCOD8242447 Si02
#       8
#     8   8   8   8   8   8   8   8
#     4   9  17  29  46  70 100 132 166 204 246 294
#     4  11  22  35  51  73 101 134 173 212 250 299
#     4  11  20  30  49  73 102 136 171 209 246 292
#     4  10  20  33  49  74 104 137 173 207 246 296
#     4   9  17  30  48  71 101 135 168 203 245 293
#     4  10  20  32  48  71 101 136 172 206 248 296
#     4  12  24  38  53  71  99 134 171 215 256 298
#     4  12  24  37  54  75 100 133 170 210 253 302
#
# _framework density 16.683257000000001
#
# number of rings (size 3 to 8) (size 9 to 14) (size 15 to 20)
#    0.000    1.500    3.750    3.000    0.000    1.500 
#    0.000    0.000    0.000    0.000    0.000    0.875 
#    0.000    3.000    0.000    0.000    0.000    0.000 
#
# Total GULP energy -793365.715169 kJ/mol
# GULP energy per Si atom -12396.339300 kJ/mol
# Density = 1.664529 g / cm^3
# Si number density = 16.683257 Si / 1000 Ang^3
#
#
#
# Elastic Constant Matrix: (Units=GPa)
#
#
# Indices 1 2 3 4 5 6 
#
# 1 112.5324 29.5586 40.5265 0.0000 0.0000 0.0000
# 2 29.5586 86.3388 39.9077 0.0000 0.0000 0.0000
# 3 40.5265 39.9077 91.4314 0.0000 0.0000 0.0000
# 4 0.0000 0.0000 0.0000 25.6207 0.0000 0.0000
# 5 0.0000 0.0000 0.0000 0.0000 23.1615 0.0000
# 6 0.0000 0.0000 0.0000 0.0000 0.0000 17.3875
#
#
#
# Elastic Compliance Matrix: (Units=1/GPa)
#
#
# Indices 1 2 3 4 5 6 
#
# 1 0.010808 -0.001861 -0.003978 0.000000 0.000000 0.000000
# 2 -0.001861 0.014830 -0.005648 0.000000 0.000000 0.000000
# 3 -0.003978 -0.005648 0.015166 0.000000 0.000000 0.000000
# 4 0.000000 0.000000 0.000000 0.039031 0.000000 0.000000
# 5 0.000000 0.000000 0.000000 0.000000 0.043175 0.000000
# 6 0.000000 0.000000 0.000000 0.000000 0.000000 0.057513
#
#
# Mechanical properties :
#
#
# Convention : Reuss Voigt Hill
#
# Bulk Modulus (GPa) = 56.08905 56.69868 56.39386
# Shear Modulus (GPa) = 23.87318 25.25460 24.56389
#
# Velocity S-wave (km/s) = 3.78692 3.89494 3.84131
# Velocity P-wave (km/s) = 7.26732 7.36794 7.31780
#
# Compressibility (1/GPa) = 0.01782879
#
# Stress axis : x y z
#
# Youngs Moduli (GPa) = 92.52498 67.43021 65.93856
#
# Poissons Ratio (x) = 0.12551 0.26231
# Poissons Ratio (y) = 0.17222 0.37242
# Poissons Ratio (z) = 0.36807 0.38084
#
# Static dielectric constant tensor:
#      x y z
#    x 3.800230 0.000000 0.000000 
#    y 0.000000 3.241860 0.000000 
#    z 0.000000 0.000000 3.020310 
# 
# 
# High freq. dielectric constant tensor:
#      x y z
#    x 1.640400 0.000000 0.000000 
#    y 0.000000 1.651390 0.000000 
#    z 0.000000 0.000000 1.613050 
# 
# From -- ./inp_files/25084.got.cif
#   From: 2010.03.12/outbox.cif.g09.slc.cpg/sg59_13_cif.got.tgz:25084.got - 2010.04.16 16:29:54.
