data_PCOD8242598
_publ_section_title
;
Structure prediction by ZEFSAII (Michael W. Deem and Ramdas Pophale) SiO2 
 PCOD8242598
Probable space group: P M M N
;
_chemical_formula_sum "Si O2"
_cell_formula_units_Z 64
_cell_length_a 19.955021
_cell_length_b 9.289012
_cell_length_c 17.704386
_cell_angle_alpha 90.000000
_cell_angle_beta 90.000000
_cell_angle_gamma 90.000000
_cell_volume 3281.728002
_symmetry_space_group_name_H-M "P M M N"
_symmetry_group_IT_number 59
_space_group.IT_coordinate_system_code '2'
_symmetry_cell_setting 'orthorhombic'
loop_
_space_group_symop_operation_xyz
x,y,z
1/2-x,1/2-y,z
1/2+x,-y,-z
-x,1/2+y,-z
-x,-y,-z
1/2+x,1/2+y,-z
1/2-x,y,z
x,1/2-y,z
loop_
_atom_site_type_symbol
_atom_site_label
_atom_site_fract_x
_atom_site_fract_y
_atom_site_fract_z
Si Si1 0.534859 0.918720 0.721957
Si Si2 0.324672 0.920111 0.624467
Si Si3 0.854260 0.417651 0.923350
Si Si4 0.464683 0.578910 0.568316
Si Si5 0.997925 0.412242 0.865261
Si Si6 0.826838 0.094042 0.210453
Si Si7 0.862955 0.584765 0.069780
Si Si8 0.322694 0.085119 0.221042
O O1 0.525225 0.750000 0.729737
O O2 0.504048 0.973090 0.643482
O O3 0.614364 0.962965 0.726698
O O4 0.494135 0.986854 0.792034
O O5 0.250000 0.986706 0.604705
O O6 0.317943 0.750000 0.620147
O O7 0.385799 0.969610 0.569757
O O8 0.352341 0.962681 0.708033
O O9 0.835635 0.250000 0.928359
O O10 0.816083 0.487510 0.853267
O O11 0.932443 0.448729 0.912861
O O12 0.832136 0.493214 0.001163
O O13 0.500000 0.500000 0.500000
O O14 0.471108 0.750000 0.558342
O O15 0.995720 0.250000 0.833896
O O16 0.057236 0.434647 0.924961
O O17 0.750000 0.124936 0.224547
O O18 0.860340 0.250000 0.188270
O O19 0.834511 0.971990 0.148376
O O20 0.841423 0.750000 0.059087
O O21 0.250000 0.069151 0.263326
O O22 0.334084 0.250000 0.195559
#
# Coordination Sequence:
#
# PCOD8242598 Si02
#       8
#     8   8   8   8   8   8   8   8
#     4   9  18  33  54  77  99 129 169 209 252 305
#     4   8  15  31  55  78 101 135 177 213 245 292
#     4  10  20  33  48  67  94 128 168 213 257 302
#     4  10  20  34  54  82 113 140 168 205 250 301
#     4   9  19  33  49  71  96 124 162 209 257 302
#     4   9  18  33  52  72  93 122 164 208 246 288
#     4  11  21  31  45  68  99 131 163 204 257 311
#     4   9  18  34  54  73  95 127 168 214 264 314
#
# _framework density 19.501920999999999
#
# number of rings (size 3 to 8) (size 9 to 14) (size 15 to 20)
#    0.000    2.625    0.000    2.625    0.000    4.000 
#    0.000    1.250    0.000    1.875    0.000    0.000 
#    0.000    0.000    0.000    0.000    0.000    0.000 
#
# Total GULP energy -793063.326950 kJ/mol
# GULP energy per Si atom -12391.614484 kJ/mol
# Density = 1.945753 g / cm^3
# Si number density = 19.501921 Si / 1000 Ang^3
#
#
#
# Elastic Constant Matrix: (Units=GPa)
#
#
# Indices 1 2 3 4 5 6 
#
# 1 93.1081 23.4325 42.7993 0.0000 0.0000 0.0000
# 2 23.4325 65.0352 37.9782 0.0000 0.0000 0.0000
# 3 42.7993 37.9782 92.4611 0.0000 0.0000 0.0000
# 4 0.0000 0.0000 0.0000 30.7442 0.0000 0.0000
# 5 0.0000 0.0000 0.0000 0.0000 12.3838 0.0000
# 6 0.0000 0.0000 0.0000 0.0000 0.0000 19.2884
#
#
#
# Elastic Compliance Matrix: (Units=1/GPa)
#
#
# Indices 1 2 3 4 5 6 
#
# 1 0.013773 -0.001631 -0.005706 0.000000 0.000000 0.000000
# 2 -0.001631 0.020421 -0.007633 0.000000 0.000000 0.000000
# 3 -0.005706 -0.007633 0.016592 0.000000 0.000000 0.000000
# 4 0.000000 0.000000 0.000000 0.032527 0.000000 0.000000
# 5 0.000000 0.000000 0.000000 0.000000 0.080751 0.000000
# 6 0.000000 0.000000 0.000000 0.000000 0.000000 0.051845
#
#
# Mechanical properties :
#
#
# Convention : Reuss Voigt Hill
#
# Bulk Modulus (GPa) = 47.96789 51.00271 49.48530
# Shear Modulus (GPa) = 19.77874 22.24289 21.01082
#
# Velocity S-wave (km/s) = 3.18810 3.38086 3.28589
# Velocity P-wave (km/s) = 6.18076 6.43815 6.31077
#
# Compressibility (1/GPa) = 0.02084728
#
# Stress axis : x y z
#
# Youngs Moduli (GPa) = 72.60384 48.96837 60.27066
#
# Poissons Ratio (x) = 0.07985 0.34389
# Poissons Ratio (y) = 0.11839 0.46006
# Poissons Ratio (z) = 0.41426 0.37379
#
# Static dielectric constant tensor:
#      x y z
#    x 4.043330 0.000000 0.000000 
#    y 0.000000 3.378910 0.000000 
#    z 0.000000 0.000000 3.333590 
# 
# 
# High freq. dielectric constant tensor:
#      x y z
#    x 1.777030 0.000000 0.000000 
#    y 0.000000 1.741110 0.000000 
#    z 0.000000 0.000000 1.728130 
# 
# From -- ./inp_files/28282.got.cif
#   From: 2010.03.12/outbox.cif.g09.slc.cpg/sg59_15_cif.got.tgz:28282.got - 2010.04.16 16:29:54.
