data_PCOD8242884
_publ_section_title
;
Structure prediction by ZEFSAII (Michael W. Deem and Ramdas Pophale) SiO2 
 PCOD8242884
Probable space group: P M M N
;
_chemical_formula_sum "Si O2"
_cell_formula_units_Z 64
_cell_length_a 8.794402
_cell_length_b 22.509009
_cell_length_c 16.236859
_cell_angle_alpha 90.000000
_cell_angle_beta 90.000000
_cell_angle_gamma 90.000000
_cell_volume 3214.139395
_symmetry_space_group_name_H-M "P M M N"
_symmetry_group_IT_number 59
_space_group.IT_coordinate_system_code '2'
_symmetry_cell_setting 'orthorhombic'
loop_
_space_group_symop_operation_xyz
x,y,z
1/2-x,1/2-y,z
1/2+x,-y,-z
-x,1/2+y,-z
-x,-y,-z
1/2+x,1/2+y,-z
1/2-x,y,z
x,1/2-y,z
loop_
_atom_site_type_symbol
_atom_site_label
_atom_site_fract_x
_atom_site_fract_y
_atom_site_fract_z
Si Si1 0.424077 0.072147 0.728568
Si Si2 0.076750 0.183838 0.636529
Si Si3 0.930005 0.318616 0.167143
Si Si4 0.416120 0.681164 0.523325
Si Si5 0.925718 0.628517 0.671564
Si Si6 0.070294 0.497973 0.409347
Si Si7 0.928503 0.908519 0.954880
Si Si8 0.572870 0.462716 0.893432
O O1 0.250000 0.053448 0.747365
O O2 0.439321 0.143362 0.717888
O O3 0.535579 0.050990 0.799614
O O4 0.480301 0.046483 0.642340
O O5 0.250000 0.185432 0.605901
O O6 0.019817 0.250000 0.659927
O O7 0.983922 0.154254 0.560771
O O8 0.750000 0.319404 0.164714
O O9 0.988679 0.250000 0.169743
O O10 0.983172 0.356089 0.246004
O O11 0.991598 0.351502 0.085675
O O12 0.250000 0.652206 0.540626
O O13 0.398344 0.750000 0.507249
O O14 0.526954 0.673660 0.600315
O O15 0.750000 0.636172 0.693342
O O16 0.963849 0.563537 0.637460
O O17 0.250000 0.510795 0.413525
O O18 0.000000 0.500000 0.500000
O O19 0.750000 0.897302 0.952092
O O20 0.976120 0.969092 0.908184
O O21 0.981712 0.916466 0.049225
O O22 0.750000 0.454176 0.911042
#
# Coordination Sequence:
#
# PCOD8242884 Si02
#       8
#     8   8   8   8   8   8   8   8
#     4  11  22  36  57  84 111 143 185 228 275 333
#     4   9  19  36  55  75 103 139 178 221 267 317
#     4  11  24  40  59  86 120 156 194 239 293 351
#     4  10  20  33  51  76 104 137 181 230 276 321
#     4  11  23  37  54  78 109 148 193 235 280 339
#     4  11  24  39  55  80 115 153 193 240 293 345
#     4  10  21  39  63  89 115 147 188 230 279 340
#     4  10  21  38  62  90 118 148 184 231 284 337
#
# _framework density 19.912016999999999
#
# number of rings (size 3 to 8) (size 9 to 14) (size 15 to 20)
#    0.000    1.625    0.000    4.500    0.000   13.750 
#    0.000    0.625    0.000    2.250    0.000    0.000 
#    0.000    0.000    0.000    0.000    0.000    0.000 
#
# Total GULP energy -793617.837149 kJ/mol
# GULP energy per Si atom -12400.278705 kJ/mol
# Density = 1.986670 g / cm^3
# Si number density = 19.912017 Si / 1000 Ang^3
#
#
#
# Elastic Constant Matrix: (Units=GPa)
#
#
# Indices 1 2 3 4 5 6 
#
# 1 73.4510 41.9105 21.9924 0.0000 0.0000 0.0000
# 2 41.9105 78.9661 43.3012 0.0000 0.0000 0.0000
# 3 21.9924 43.3012 95.7054 0.0000 0.0000 0.0000
# 4 0.0000 0.0000 0.0000 30.1028 0.0000 0.0000
# 5 0.0000 0.0000 0.0000 0.0000 40.7746 0.0000
# 6 0.0000 0.0000 0.0000 0.0000 0.0000 26.2383
#
#
#
# Elastic Compliance Matrix: (Units=1/GPa)
#
#
# Indices 1 2 3 4 5 6 
#
# 1 0.019534 -0.010515 0.000269 0.000000 0.000000 0.000000
# 2 -0.010515 0.022502 -0.007765 0.000000 0.000000 0.000000
# 3 0.000269 -0.007765 0.013900 0.000000 0.000000 0.000000
# 4 0.000000 0.000000 0.000000 0.033219 0.000000 0.000000
# 5 0.000000 0.000000 0.000000 0.000000 0.024525 0.000000
# 6 0.000000 0.000000 0.000000 0.000000 0.000000 0.038112
#
#
# Mechanical properties :
#
#
# Convention : Reuss Voigt Hill
#
# Bulk Modulus (GPa) = 50.21517 51.39231 50.80374
# Shear Modulus (GPa) = 25.71331 28.81769 27.26550
#
# Velocity S-wave (km/s) = 3.59743 3.80840 3.70442
# Velocity P-wave (km/s) = 6.52140 6.72341 6.62318
#
# Compressibility (1/GPa) = 0.01991430
#
# Stress axis : x y z
#
# Youngs Moduli (GPa) = 51.19384 44.44068 71.94194
#
# Poissons Ratio (x) = 0.46727 -0.01932
# Poissons Ratio (y) = 0.53828 0.55861
# Poissons Ratio (z) = -0.01375 0.34507
#
# Static dielectric constant tensor:
#      x y z
#    x 3.820340 0.000000 0.000000 
#    y 0.000000 3.785700 0.000000 
#    z 0.000000 0.000000 3.503920 
# 
# 
# High freq. dielectric constant tensor:
#      x y z
#    x 1.788170 0.000000 0.000000 
#    y 0.000000 1.777090 0.000000 
#    z 0.000000 0.000000 1.770560 
# 
# From -- ./inp_files/21628.got.cif
#   From: 2010.03.12/outbox.cif.g09.slc.cpg/sg59_11_cif.got.tgz:21628.got - 2010.04.16 16:29:54.
