data_PCOD8242567
_publ_section_title
;
Structure prediction by ZEFSAII (Michael W. Deem and Ramdas Pophale) SiO2 
 PCOD8242567
Probable space group: P M M N
;
_chemical_formula_sum "Si O2"
_cell_formula_units_Z 64
_cell_length_a 15.842433
_cell_length_b 12.860081
_cell_length_c 15.226652
_cell_angle_alpha 90.000000
_cell_angle_beta 90.000000
_cell_angle_gamma 90.000000
_cell_volume 3102.201513
_symmetry_space_group_name_H-M "P M M N"
_symmetry_group_IT_number 59
_space_group.IT_coordinate_system_code '2'
_symmetry_cell_setting 'orthorhombic'
loop_
_space_group_symop_operation_xyz
x,y,z
1/2-x,1/2-y,z
1/2+x,-y,-z
-x,1/2+y,-z
-x,-y,-z
1/2+x,1/2+y,-z
1/2-x,y,z
x,1/2-y,z
loop_
_atom_site_type_symbol
_atom_site_label
_atom_site_fract_x
_atom_site_fract_y
_atom_site_fract_z
Si Si1 0.449224 0.129323 0.795547
Si Si2 0.408623 0.991905 0.298929
Si Si3 0.477073 0.129818 0.996975
Si Si4 0.156085 0.559519 0.752498
Si Si5 0.345923 0.370284 0.143473
Si Si6 0.843284 0.370109 0.547098
Si Si7 0.538966 0.132315 0.392027
Si Si8 0.157123 0.871103 0.949038
O O1 0.435076 0.250000 0.771477
O O2 0.537824 0.090664 0.757339
O O3 0.375768 0.059909 0.753227
O O4 0.443991 0.110377 0.899603
O O5 0.344979 0.928169 0.359550
O O6 0.359093 0.066133 0.232716
O O7 0.461539 0.059070 0.368556
O O8 0.490517 0.250000 0.016038
O O9 0.408591 0.088189 0.067396
O O10 0.428973 0.923663 0.990740
O O11 0.250000 0.555887 0.716140
O O12 0.102863 0.632617 0.689338
O O13 0.149310 0.614118 0.845926
O O14 0.250000 0.386190 0.110379
O O15 0.363658 0.250000 0.165351
O O16 0.750000 0.386561 0.506683
O O17 0.861286 0.250000 0.565863
O O18 0.912997 0.411699 0.478167
O O19 0.507325 0.250000 0.407365
O O20 0.250000 0.916791 0.980930
O O21 0.157342 0.750000 0.973240
#
# Coordination Sequence:
#
# PCOD8242567 Si02
#       8
#     8   8   8   8   8   8   8   8
#     4  10  22  37  53  73 103 145 187 228 272 322
#     4  11  21  36  57  81 110 142 182 225 274 329
#     4   9  18  35  54  73 104 145 186 229 276 324
#     4  10  20  32  51  79 106 135 174 220 273 332
#     4  10  21  36  56  83 113 146 185 229 277 330
#     4  10  21  37  57  81 110 143 179 221 269 325
#     4  10  20  35  58  85 110 139 176 222 277 334
#     4   9  17  30  50  77 107 135 168 220 283 337
#
# _framework density 20.630509
#
# number of rings (size 3 to 8) (size 9 to 14) (size 15 to 20)
#    0.000    2.125    0.000    3.750    0.000    5.000 
#    0.000    3.750    0.000    3.750    0.000    0.000 
#    0.000    0.000    0.000    0.000    0.000    0.000 
#
# Total GULP energy -793276.606370 kJ/mol
# GULP energy per Si atom -12394.946975 kJ/mol
# Density = 2.058355 g / cm^3
# Si number density = 20.630509 Si / 1000 Ang^3
#
#
#
# Elastic Constant Matrix: (Units=GPa)
#
#
# Indices 1 2 3 4 5 6 
#
# 1 99.5725 6.9664 16.8178 0.0000 0.0000 0.0000
# 2 6.9664 60.4991 22.7222 0.0000 0.0000 0.0000
# 3 16.8178 22.7222 77.7846 0.0000 0.0000 0.0000
# 4 0.0000 0.0000 0.0000 34.5650 0.0000 0.0000
# 5 0.0000 0.0000 0.0000 0.0000 -163.4340 0.0000
# 6 0.0000 0.0000 0.0000 0.0000 0.0000 -5.5949
#
#
#
# Elastic Compliance Matrix: (Units=1/GPa)
#
#
# Indices 1 2 3 4 5 6 
#
# 1 0.010432 -0.000398 -0.002139 0.000000 0.000000 0.000000
# 2 -0.000398 0.018581 -0.005342 0.000000 0.000000 0.000000
# 3 -0.002139 -0.005342 0.014879 0.000000 0.000000 0.000000
# 4 0.000000 0.000000 0.000000 0.028931 0.000000 0.000000
# 5 0.000000 0.000000 0.000000 0.000000 -0.006119 0.000000
# 6 0.000000 0.000000 0.000000 0.000000 0.000000 -0.178734
#
#
# Mechanical properties :
#
#
# Convention : Reuss Voigt Hill
#
# Bulk Modulus (GPa) = 35.54366 36.76322 36.15344
# Shear Modulus (GPa) = -57.54188 -14.13612 -35.83900
#
# Velocity S-wave (km/s) = -5.28698 -2.62048 -4.17248
# Velocity P-wave (km/s) = 4.47253 2.95002 2.37706
#
# Compressibility (1/GPa) = 0.02813441
#
# Stress axis : x y z
#
# Youngs Moduli (GPa) = 95.85802 53.81757 67.20875
#
# Poissons Ratio (x) = 0.02141 0.14378
# Poissons Ratio (y) = 0.03813 0.35902
# Poissons Ratio (z) = 0.20507 0.28749
#
# Static dielectric constant tensor:
#      x y z
#    x 3.963280 0.000000 0.000000 
#    y 0.000000 3.713660 0.000000 
#    z 0.000000 0.000000 3.591330 
# 
# 
# High freq. dielectric constant tensor:
#      x y z
#    x 1.809180 0.000000 0.000000 
#    y 0.000000 1.812590 0.000000 
#    z 0.000000 0.000000 1.796440 
# 
# From -- ./inp_files/23944.got.cif
#   From: 2010.03.12/outbox.cif.g09.slc.cpg/sg59_12_cif.got.tgz:23944.got - 2010.04.16 16:29:54.
