data_PCOD8242774
_publ_section_title
;
Structure prediction by ZEFSAII (Michael W. Deem and Ramdas Pophale) SiO2 
 PCOD8242774
Probable space group: P M M N
;
_chemical_formula_sum "Si O2"
_cell_formula_units_Z 64
_cell_length_a 9.082787
_cell_length_b 22.346298
_cell_length_c 16.143431
_cell_angle_alpha 90.000000
_cell_angle_beta 90.000000
_cell_angle_gamma 90.000000
_cell_volume 3276.578351
_symmetry_space_group_name_H-M "P M M N"
_symmetry_group_IT_number 59
_space_group.IT_coordinate_system_code '2'
_symmetry_cell_setting 'orthorhombic'
loop_
_space_group_symop_operation_xyz
x,y,z
1/2-x,1/2-y,z
1/2+x,-y,-z
-x,1/2+y,-z
-x,-y,-z
1/2+x,1/2+y,-z
1/2-x,y,z
x,1/2-y,z
loop_
_atom_site_type_symbol
_atom_site_label
_atom_site_fract_x
_atom_site_fract_y
_atom_site_fract_z
Si Si1 0.921980 0.037447 0.386471
Si Si2 0.420141 0.416673 0.229080
Si Si3 0.588620 0.818613 0.016646
Si Si4 0.082069 0.507785 0.086004
Si Si5 0.918962 0.179483 0.142472
Si Si6 0.422075 0.409188 0.538187
Si Si7 0.922555 0.320145 0.657373
Si Si8 0.077043 0.631639 0.164367
O O1 0.750000 0.052332 0.383689
O O2 0.995114 0.046045 0.297917
O O3 0.997608 0.083179 0.450358
O O4 0.952373 0.968622 0.408705
O O5 0.250000 0.410302 0.254285
O O6 0.441171 0.449970 0.142072
O O7 0.493429 0.351410 0.218129
O O8 0.750000 0.850610 0.016480
O O9 0.613664 0.750000 0.996971
O O10 0.508996 0.823713 0.104388
O O11 0.486758 0.844929 0.943845
O O12 0.250000 0.517988 0.062212
O O13 0.027163 0.564818 0.139393
O O14 0.000000 0.500000 0.000000
O O15 0.750000 0.159314 0.144404
O O16 0.935595 0.250000 0.154040
O O17 0.250000 0.398787 0.522502
O O18 0.488037 0.351291 0.583579
O O19 0.750000 0.329206 0.640826
O O20 0.963504 0.250000 0.661077
O O21 0.970769 0.352684 0.742334
O O22 0.250000 0.642770 0.153638
#
# Coordination Sequence:
#
# PCOD8242774 Si02
#       8
#     8   8   8   8   8   8   8   8
#     4  10  21  38  62  89 115 146 184 227 278 337
#     4  11  22  37  58  84 113 143 180 227 277 327
#     4  10  20  33  50  74 104 139 183 233 278 319
#     4  10  22  36  52  78 112 150 188 232 283 331
#     4  10  21  37  56  77 104 140 180 222 270 325
#     4  10  21  38  61  88 116 147 184 229 280 334
#     4  10  21  37  58  84 116 155 196 240 291 348
#     4  10  20  35  54  76 106 147 193 233 275 333
#
# _framework density 19.532571000000001
#
# number of rings (size 3 to 8) (size 9 to 14) (size 15 to 20)
#    0.000    1.875    0.000    3.750    0.000    8.750 
#    0.000    0.625    0.000    3.750    0.000    0.000 
#    0.000    0.000    0.000    0.000    0.000    0.000 
#
# Total GULP energy -793708.008418 kJ/mol
# GULP energy per Si atom -12401.687632 kJ/mol
# Density = 1.948811 g / cm^3
# Si number density = 19.532571 Si / 1000 Ang^3
#
#
#
# Elastic Constant Matrix: (Units=GPa)
#
#
# Indices 1 2 3 4 5 6 
#
# 1 97.5919 42.6265 43.7838 0.0000 0.0000 0.0000
# 2 42.6265 76.8892 36.3378 0.0000 0.0000 0.0000
# 3 43.7838 36.3378 78.7839 0.0000 0.0000 0.0000
# 4 0.0000 0.0000 0.0000 34.8233 0.0000 0.0000
# 5 0.0000 0.0000 0.0000 0.0000 35.7860 0.0000
# 6 0.0000 0.0000 0.0000 0.0000 0.0000 30.3974
#
#
#
# Elastic Compliance Matrix: (Units=1/GPa)
#
#
# Indices 1 2 3 4 5 6 
#
# 1 0.015411 -0.005749 -0.005913 0.000000 0.000000 0.000000
# 2 -0.005749 0.018776 -0.005465 0.000000 0.000000 0.000000
# 3 -0.005913 -0.005465 0.018500 0.000000 0.000000 0.000000
# 4 0.000000 0.000000 0.000000 0.028716 0.000000 0.000000
# 5 0.000000 0.000000 0.000000 0.000000 0.027944 0.000000
# 6 0.000000 0.000000 0.000000 0.000000 0.000000 0.032898
#
#
# Mechanical properties :
#
#
# Convention : Reuss Voigt Hill
#
# Bulk Modulus (GPa) = 54.25252 55.41789 54.83520
# Shear Modulus (GPa) = 27.37608 28.90244 28.13926
#
# Velocity S-wave (km/s) = 3.74780 3.85087 3.79968
# Velocity P-wave (km/s) = 6.82376 6.94304 6.88366
#
# Compressibility (1/GPa) = 0.01843232
#
# Stress axis : x y z
#
# Youngs Moduli (GPa) = 64.89071 53.26030 54.05549
#
# Poissons Ratio (x) = 0.30620 0.31961
# Poissons Ratio (y) = 0.37306 0.29541
# Poissons Ratio (z) = 0.38368 0.29107
#
# Static dielectric constant tensor:
#      x y z
#    x 3.675180 0.000000 0.000000 
#    y 0.000000 3.539880 0.000000 
#    z 0.000000 0.000000 3.466590 
# 
# 
# High freq. dielectric constant tensor:
#      x y z
#    x 1.769030 0.000000 0.000000 
#    y 0.000000 1.758610 0.000000 
#    z 0.000000 0.000000 1.754930 
# 
# From -- ./inp_files/21457.got.cif
#   From: 2010.03.12/outbox.cif.g09.slc.cpg/sg59_11_cif.got.tgz:21457.got - 2010.04.16 16:29:54.
