data_PCOD8242352
_publ_section_title
;
Structure prediction by ZEFSAII (Michael W. Deem and Ramdas Pophale) SiO2 
 PCOD8242352
Probable space group: P M M N
;
_chemical_formula_sum "Si O2"
_cell_formula_units_Z 64
_cell_length_a 9.098406
_cell_length_b 24.808560
_cell_length_c 18.704120
_cell_angle_alpha 90.000000
_cell_angle_beta 90.000000
_cell_angle_gamma 90.000000
_cell_volume 4221.863126
_symmetry_space_group_name_H-M "P M M N"
_symmetry_group_IT_number 59
_space_group.IT_coordinate_system_code '2'
_symmetry_cell_setting 'orthorhombic'
loop_
_space_group_symop_operation_xyz
x,y,z
1/2-x,1/2-y,z
1/2+x,-y,-z
-x,1/2+y,-z
-x,-y,-z
1/2+x,1/2+y,-z
1/2-x,y,z
x,1/2-y,z
loop_
_atom_site_type_symbol
_atom_site_label
_atom_site_fract_x
_atom_site_fract_y
_atom_site_fract_z
Si Si1 0.424507 0.393654 0.825517
Si Si2 0.916479 0.312476 0.729105
Si Si3 0.078441 0.006488 0.392730
Si Si4 0.087618 0.453781 0.089927
Si Si5 0.586449 0.076053 0.961800
Si Si6 0.580236 0.810229 0.416758
Si Si7 0.920906 0.580069 0.480899
Si Si8 0.922416 0.497541 0.767722
O O1 0.250000 0.395615 0.827296
O O2 0.480377 0.340087 0.787303
O O3 0.483829 0.392067 0.906583
O O4 0.484110 0.444159 0.780888
O O5 0.750000 0.335311 0.732084
O O6 0.918977 0.250000 0.747941
O O7 0.979147 0.323192 0.650542
O O8 0.250000 0.995932 0.401016
O O9 0.027000 0.056948 0.442062
O O10 0.038223 0.020209 0.310723
O O11 0.000568 0.951518 0.416931
O O12 0.250000 0.428081 0.084372
O O13 0.091259 0.514125 0.060232
O O14 0.036247 0.456849 0.173116
O O15 0.977733 0.417961 0.042266
O O16 0.750000 0.100972 0.961216
O O17 0.750000 0.814195 0.392615
O O18 0.546817 0.750000 0.447404
O O19 0.544207 0.855827 0.476426
O O20 0.750000 0.569126 0.469995
O O21 0.750000 0.482763 0.775340
#
# Coordination Sequence:
#
# PCOD8242352 Si02
#       8
#     8   8   8   8   8   8   8   8
#     4  11  20  28  41  59  80 106 135 166 199 238
#     4  10  20  32  44  58  78 104 134 168 203 238
#     4   9  17  28  41  57  79 108 138 168 203 243
#     4   8  14  24  37  54  76 101 130 163 195 226
#     4   9  16  26  39  55  77 104 132 160 191 229
#     4   9  17  29  44  61  81 105 134 169 206 242
#     4   9  17  28  41  58  80 106 136 168 203 244
#     4   9  17  28  41  57  79 107 138 169 200 239
#
# _framework density 15.159185000000001
#
# number of rings (size 3 to 8) (size 9 to 14) (size 15 to 20)
#    0.000    2.750    0.000    3.375    0.000    6.750 
#    0.000    0.000    0.000    0.000    0.000    0.000 
#    0.000    1.000    0.000    7.000    0.000    1.125 
#
# Total GULP energy -793284.552716 kJ/mol
# GULP energy per Si atom -12395.071136 kJ/mol
# Density = 1.512468 g / cm^3
# Si number density = 15.159185 Si / 1000 Ang^3
#
#
#
# Elastic Constant Matrix: (Units=GPa)
#
#
# Indices 1 2 3 4 5 6 
#
# 1 80.4551 30.0341 44.5411 0.0000 0.0000 0.0000
# 2 30.0341 65.7593 45.6474 0.0000 0.0000 0.0000
# 3 44.5411 45.6474 121.3213 0.0000 0.0000 0.0000
# 4 0.0000 0.0000 0.0000 18.7839 0.0000 0.0000
# 5 0.0000 0.0000 0.0000 0.0000 21.8064 0.0000
# 6 0.0000 0.0000 0.0000 0.0000 0.0000 17.1077
#
#
#
# Elastic Compliance Matrix: (Units=1/GPa)
#
#
# Indices 1 2 3 4 5 6 
#
# 1 0.016536 -0.004518 -0.004371 0.000000 0.000000 0.000000
# 2 -0.004518 0.021817 -0.006550 0.000000 0.000000 0.000000
# 3 -0.004371 -0.006550 0.012312 0.000000 0.000000 0.000000
# 4 0.000000 0.000000 0.000000 0.053237 0.000000 0.000000
# 5 0.000000 0.000000 0.000000 0.000000 0.045858 0.000000
# 6 0.000000 0.000000 0.000000 0.000000 0.000000 0.058453
#
#
# Mechanical properties :
#
#
# Convention : Reuss Voigt Hill
#
# Bulk Modulus (GPa) = 50.53933 56.44231 53.49082
# Shear Modulus (GPa) = 20.35112 21.36048 20.85580
#
# Velocity S-wave (km/s) = 3.66798 3.75784 3.71318
# Velocity P-wave (km/s) = 7.16591 7.49282 7.33119
#
# Compressibility (1/GPa) = 0.01978657
#
# Stress axis : x y z
#
# Youngs Moduli (GPa) = 60.47518 45.83517 81.22359
#
# Poissons Ratio (x) = 0.20710 0.35501
# Poissons Ratio (y) = 0.27324 0.53201
# Poissons Ratio (z) = 0.26433 0.30022
#
# Static dielectric constant tensor:
#      x y z
#    x 3.048920 0.000000 0.000000 
#    y 0.000000 2.718060 0.000000 
#    z 0.000000 0.000000 3.123330 
# 
# 
# High freq. dielectric constant tensor:
#      x y z
#    x 1.589500 0.000000 0.000000 
#    y 0.000000 1.536150 0.000000 
#    z 0.000000 0.000000 1.575670 
# 
# From -- ./inp_files/29855.got.cif
#   From: 2010.03.12/outbox.cif.g09.slc.cpg/sg59_15_cif.got.tgz:29855.got - 2010.04.16 16:29:54.
