data_PCOD8242003
_publ_section_title
;
Structure prediction by ZEFSAII (Michael W. Deem and Ramdas Pophale) SiO2 
 PCOD8242003
Probable space group: P M M N
;
_chemical_formula_sum "Si O2"
_cell_formula_units_Z 64
_cell_length_a 19.662430
_cell_length_b 8.903688
_cell_length_c 19.046524
_cell_angle_alpha 90.000000
_cell_angle_beta 90.000000
_cell_angle_gamma 90.000000
_cell_volume 3334.439569
_symmetry_space_group_name_H-M "P M M N"
_symmetry_group_IT_number 59
_space_group.IT_coordinate_system_code '2'
_symmetry_cell_setting 'orthorhombic'
loop_
_space_group_symop_operation_xyz
x,y,z
1/2-x,1/2-y,z
1/2+x,-y,-z
-x,1/2+y,-z
-x,-y,-z
1/2+x,1/2+y,-z
1/2-x,y,z
x,1/2-y,z
loop_
_atom_site_type_symbol
_atom_site_label
_atom_site_fract_x
_atom_site_fract_y
_atom_site_fract_z
Si Si1 0.172014 0.572923 0.190327
Si Si2 0.591874 0.574212 0.935024
Si Si3 0.552644 0.426207 0.708958
Si Si4 0.823438 0.572602 0.482034
Si Si5 0.829696 0.920311 0.326619
Si Si6 0.546198 0.572306 0.559676
Si Si7 0.064131 0.578607 0.929531
Si Si8 0.928712 0.422150 0.225804
O O1 0.250000 0.519809 0.203553
O O2 0.168355 0.750000 0.180168
O O3 0.143538 0.501510 0.119134
O O4 0.125422 0.525294 0.257438
O O5 0.603632 0.750000 0.928592
O O6 0.514203 0.525981 0.920115
O O7 0.606687 0.520124 0.014783
O O8 0.550455 0.250000 0.694451
O O9 0.533713 0.509619 0.636859
O O10 0.494288 0.473082 0.763255
O O11 0.750000 0.502572 0.502430
O O12 0.816408 0.750000 0.476603
O O13 0.846507 0.518450 0.404753
O O14 0.876763 0.524946 0.540931
O O15 0.750000 0.926940 0.311861
O O16 0.856831 0.750000 0.316384
O O17 0.866523 0.032495 0.274529
O O18 0.500000 0.500000 0.500000
O O19 0.534490 0.750000 0.558956
O O20 0.065988 0.750000 0.955817
O O21 0.098343 0.558071 0.853590
O O22 0.950031 0.250000 0.240127
#
# Coordination Sequence:
#
# PCOD8242003 Si02
#       8
#     8   8   8   8   8   8   8   8
#     4  10  22  40  60  82 114 157 199 241 293 348
#     4  10  19  34  57  84 111 141 185 233 279 334
#     4  11  23  38  57  81 113 151 192 233 284 344
#     4   8  16  33  55  76 100 136 180 222 269 327
#     4   9  18  34  56  81 110 144 182 225 277 339
#     4  11  22  36  57  84 114 145 183 234 288 342
#     4   9  19  34  54  81 113 145 181 227 280 334
#     4  11  21  35  56  83 114 146 186 235 280 331
#
# _framework density 19.193631
#
# number of rings (size 3 to 8) (size 9 to 14) (size 15 to 20)
#    0.000    2.125    1.250    3.000    0.000    4.000 
#    0.000    1.250    0.000    3.375    0.000    0.000 
#    0.000    0.000    0.000    0.000    0.000    0.000 
#
# Total GULP energy -793461.246620 kJ/mol
# GULP energy per Si atom -12397.831978 kJ/mol
# Density = 1.914995 g / cm^3
# Si number density = 19.193631 Si / 1000 Ang^3
#
#
#
# Elastic Constant Matrix: (Units=GPa)
#
#
# Indices 1 2 3 4 5 6 
#
# 1 64.3312 28.9660 35.9987 0.0000 0.0000 0.0000
# 2 28.9660 57.2957 37.8062 0.0000 0.0000 0.0000
# 3 35.9987 37.8062 105.7007 0.0000 0.0000 0.0000
# 4 0.0000 0.0000 0.0000 30.5992 0.0000 0.0000
# 5 0.0000 0.0000 0.0000 0.0000 27.4075 0.0000
# 6 0.0000 0.0000 0.0000 0.0000 0.0000 24.1582
#
#
#
# Elastic Compliance Matrix: (Units=1/GPa)
#
#
# Indices 1 2 3 4 5 6 
#
# 1 0.021665 -0.007964 -0.004530 0.000000 0.000000 0.000000
# 2 -0.007964 0.025772 -0.006506 0.000000 0.000000 0.000000
# 3 -0.004530 -0.006506 0.013330 0.000000 0.000000 0.000000
# 4 0.000000 0.000000 0.000000 0.032681 0.000000 0.000000
# 5 0.000000 0.000000 0.000000 0.000000 0.036486 0.000000
# 6 0.000000 0.000000 0.000000 0.000000 0.000000 0.041394
#
#
# Mechanical properties :
#
#
# Convention : Reuss Voigt Hill
#
# Bulk Modulus (GPa) = 43.92016 48.09659 46.00837
# Shear Modulus (GPa) = 23.05020 24.73675 23.89348
#
# Velocity S-wave (km/s) = 3.46920 3.59388 3.53209
# Velocity P-wave (km/s) = 6.24336 6.50648 6.37628
#
# Compressibility (1/GPa) = 0.02276859
#
# Stress axis : x y z
#
# Youngs Moduli (GPa) = 46.15662 38.80152 75.01606
#
# Poissons Ratio (x) = 0.30901 0.33984
# Poissons Ratio (y) = 0.36758 0.48804
# Poissons Ratio (z) = 0.20910 0.25243
#
# Static dielectric constant tensor:
#      x y z
#    x 3.082410 0.000000 0.000000 
#    y 0.000000 3.418760 0.000000 
#    z 0.000000 0.000000 3.619300 
# 
# 
# High freq. dielectric constant tensor:
#      x y z
#    x 1.735470 0.000000 0.000000 
#    y 0.000000 1.736990 0.000000 
#    z 0.000000 0.000000 1.753810 
# 
# From -- ./inp_files/28134.got.cif
#   From: 2010.03.12/outbox.cif.g09.slc.cpg/sg59_15_cif.got.tgz:28134.got - 2010.04.16 16:29:54.
