data_PCOD8242696
_publ_section_title
;
Structure prediction by ZEFSAII (Michael W. Deem and Ramdas Pophale) SiO2 
 PCOD8242696
Probable space group: P M M N
;
_chemical_formula_sum "Si O2"
_cell_formula_units_Z 48
_cell_length_a 9.380377
_cell_length_b 18.985922
_cell_length_c 15.349432
_cell_angle_alpha 90.000000
_cell_angle_beta 90.000000
_cell_angle_gamma 90.000000
_cell_volume 2733.658720
_symmetry_space_group_name_H-M "P M M N"
_symmetry_group_IT_number 59
_space_group.IT_coordinate_system_code '2'
_symmetry_cell_setting 'orthorhombic'
loop_
_space_group_symop_operation_xyz
x,y,z
1/2-x,1/2-y,z
1/2+x,-y,-z
-x,1/2+y,-z
-x,-y,-z
1/2+x,1/2+y,-z
1/2-x,y,z
x,1/2-y,z
loop_
_atom_site_type_symbol
_atom_site_label
_atom_site_fract_x
_atom_site_fract_y
_atom_site_fract_z
Si Si1 0.414596 0.919041 0.083194
Si Si2 0.090056 0.333930 0.583042
Si Si3 0.584300 0.582797 0.913318
Si Si4 0.907846 0.166416 0.424085
Si Si5 0.415232 0.831641 0.250652
Si Si6 0.084813 0.667824 0.771693
O O1 0.250000 0.904122 0.060397
O O2 0.464740 0.874821 0.166467
O O3 0.441487 0.000560 0.103841
O O4 0.508616 0.893133 0.002269
O O5 0.250000 0.363884 0.587548
O O6 0.089656 0.250000 0.580181
O O7 0.016530 0.364632 0.495641
O O8 0.004538 0.360314 0.667507
O O9 0.750000 0.601639 0.920593
O O10 0.517211 0.624178 0.833527
O O11 0.750000 0.136107 0.443295
O O12 0.901720 0.250000 0.431125
O O13 0.956395 0.145441 0.326834
O O14 0.250000 0.844493 0.272124
O O15 0.446851 0.750000 0.232101
O O16 0.250000 0.650114 0.790505
O O17 0.055809 0.750000 0.787001
#
# Coordination Sequence:
#
# PCOD8242696 Si02
#       6
#     8   8   8   8   8   8
#     4   9  19  35  51  68  93 126 162 195 232 284
#     4   9  16  25  40  66  98 125 148 183 232 278
#     4  10  20  33  50  71  95 124 157 196 240 284
#     4   8  14  26  44  65  90 122 157 188 222 271
#     4   9  17  30  49  70  91 120 158 195 229 270
#     4   9  18  32  50  72  97 125 158 196 235 277
#
# _framework density 17.558886000000001
#
# number of rings (size 3 to 8) (size 9 to 14) (size 15 to 20)
#    0.000    3.000    0.000    2.000    0.000    5.000 
#    0.000    3.333    0.000    1.000    0.000    0.000 
#    0.000    0.000    0.000    0.000    0.000    0.000 
#
# Total GULP energy -595155.781325 kJ/mol
# GULP energy per Si atom -12399.078778 kJ/mol
# Density = 1.751892 g / cm^3
# Si number density = 17.558886 Si / 1000 Ang^3
#
#
#
# Elastic Constant Matrix: (Units=GPa)
#
#
# Indices 1 2 3 4 5 6 
#
# 1 118.4120 35.4850 102.3475 0.0000 0.0000 0.0000
# 2 35.4850 32.2305 49.3460 0.0000 0.0000 0.0000
# 3 102.3475 49.3460 178.8828 0.0000 0.0000 0.0000
# 4 0.0000 0.0000 0.0000 -6.3477 0.0000 0.0000
# 5 0.0000 0.0000 0.0000 0.0000 31.8466 0.0000
# 6 0.0000 0.0000 0.0000 0.0000 0.0000 20.2911
#
#
#
# Elastic Compliance Matrix: (Units=1/GPa)
#
#
# Indices 1 2 3 4 5 6 
#
# 1 0.017535 -0.006830 -0.008148 0.000000 0.000000 0.000000
# 2 -0.006830 0.056371 -0.011643 0.000000 0.000000 0.000000
# 3 -0.008148 -0.011643 0.013464 0.000000 0.000000 0.000000
# 4 0.000000 0.000000 0.000000 -0.157537 0.000000 0.000000
# 5 0.000000 0.000000 0.000000 0.000000 0.031400 0.000000
# 6 0.000000 0.000000 0.000000 0.000000 0.000000 0.049283
#
#
# Mechanical properties :
#
#
# Convention : Reuss Voigt Hill
#
# Bulk Modulus (GPa) = 29.30124 78.20913 53.75519
# Shear Modulus (GPa) = 66.54713 18.64780 42.59746
#
# Velocity S-wave (km/s) = 6.16293 3.26239 4.93076
# Velocity P-wave (km/s) = 8.20767 7.66999 7.94338
#
# Compressibility (1/GPa) = 0.03412825
#
# Stress axis : x y z
#
# Youngs Moduli (GPa) = 57.02945 17.73951 74.27156
#
# Poissons Ratio (x) = 0.12116 0.60520
# Poissons Ratio (y) = 0.38950 0.86472
# Poissons Ratio (z) = 0.46470 0.20654
#
# Static dielectric constant tensor:
#      x y z
#    x 3.404940 0.000000 0.000000 
#    y 0.000000 2.865610 0.000000 
#    z 0.000000 0.000000 3.437820 
# 
# 
# High freq. dielectric constant tensor:
#      x y z
#    x 1.682150 0.000000 0.000000 
#    y 0.000000 1.633830 0.000000 
#    z 0.000000 0.000000 1.691660 
# 
# From -- ./inp_files/20455.got.cif
#   From: 2010.03.12/outbox.cif.g09.slc.cpg/sg59_11_cif.got.tgz:20455.got - 2010.04.16 16:29:54.
