data_PCOD8242399
_publ_section_title
;
Structure prediction by ZEFSAII (Michael W. Deem and Ramdas Pophale) SiO2 
 PCOD8242399
Probable space group: P M M N
;
_chemical_formula_sum "Si O2"
_cell_formula_units_Z 64
_cell_length_a 19.435325
_cell_length_b 8.870236
_cell_length_c 19.086578
_cell_angle_alpha 90.000000
_cell_angle_beta 90.000000
_cell_angle_gamma 90.000000
_cell_volume 3290.448164
_symmetry_space_group_name_H-M "P M M N"
_symmetry_group_IT_number 59
_space_group.IT_coordinate_system_code '2'
_symmetry_cell_setting 'orthorhombic'
loop_
_space_group_symop_operation_xyz
x,y,z
1/2-x,1/2-y,z
1/2+x,-y,-z
-x,1/2+y,-z
-x,-y,-z
1/2+x,1/2+y,-z
1/2-x,y,z
x,1/2-y,z
loop_
_atom_site_type_symbol
_atom_site_label
_atom_site_fract_x
_atom_site_fract_y
_atom_site_fract_z
Si Si1 0.827550 0.413074 0.341437
Si Si2 0.172887 0.077856 0.525827
Si Si3 0.954447 0.575748 0.560197
Si Si4 0.431677 0.069408 0.135163
Si Si5 0.023994 0.074633 0.285454
Si Si6 0.893857 0.919530 0.234663
Si Si7 0.570539 0.924842 0.080270
Si Si8 0.830521 0.070785 0.965607
O O1 0.750000 0.389639 0.364133
O O2 0.861819 0.250000 0.325479
O O3 0.862697 0.487266 0.409808
O O4 0.825384 0.524989 0.273795
O O5 0.250000 0.024135 0.506201
O O6 0.173677 0.250000 0.550657
O O7 0.125760 0.054798 0.457997
O O8 0.976721 0.750000 0.562723
O O9 0.959066 0.502075 0.638503
O O10 0.000000 0.500000 0.500000
O O11 0.433824 0.250000 0.128777
O O12 0.434808 0.013513 0.216455
O O13 0.495940 0.003778 0.089267
O O14 0.360103 0.002815 0.105731
O O15 0.038429 0.250000 0.289830
O O16 0.945468 0.037902 0.270056
O O17 0.915027 0.750000 0.254168
O O18 0.887055 0.937907 0.152113
O O19 0.559249 0.750000 0.058342
O O20 0.620457 0.007867 0.026503
O O21 0.750000 0.023992 0.975519
O O22 0.837313 0.250000 0.962487
#
# Coordination Sequence:
#
# PCOD8242399 Si02
#       8
#     8   8   8   8   8   8   8   8
#     4  10  20  32  47  68  97 135 175 214 259 314
#     4   9  18  33  51  70  96 132 173 216 261 312
#     4  10  20  33  51  78 108 137 172 215 265 313
#     4  10  20  37  61  84 109 144 184 223 266 320
#     4   9  19  35  54  78 107 137 172 216 263 314
#     4  10  20  33  51  76 104 135 171 212 258 309
#     4  10  21  37  58  83 111 143 180 222 267 320
#     4  11  24  40  58  82 113 146 180 223 273 321
#
# _framework density 19.450237999999999
#
# number of rings (size 3 to 8) (size 9 to 14) (size 15 to 20)
#    0.000    2.125    0.000    3.000    0.000    7.250 
#    0.000    3.125    0.000    2.250    0.000    1.750 
#    0.000    0.000    0.000    0.000    0.000    0.000 
#
# Total GULP energy -792902.138344 kJ/mol
# GULP energy per Si atom -12389.095912 kJ/mol
# Density = 1.940597 g / cm^3
# Si number density = 19.450238 Si / 1000 Ang^3
#
#
#
# Elastic Constant Matrix: (Units=GPa)
#
#
# Indices 1 2 3 4 5 6 
#
# 1 86.8406 35.5151 57.3256 0.0000 0.0000 0.0000
# 2 35.5151 69.1722 46.6059 0.0000 0.0000 0.0000
# 3 57.3256 46.6059 135.0996 0.0000 0.0000 0.0000
# 4 0.0000 0.0000 0.0000 27.7955 0.0000 0.0000
# 5 0.0000 0.0000 0.0000 0.0000 26.5553 0.0000
# 6 0.0000 0.0000 0.0000 0.0000 0.0000 26.4451
#
#
#
# Elastic Compliance Matrix: (Units=1/GPa)
#
#
# Indices 1 2 3 4 5 6 
#
# 1 0.017286 -0.005124 -0.005567 0.000000 0.000000 0.000000
# 2 -0.005124 0.020353 -0.004847 0.000000 0.000000 0.000000
# 3 -0.005567 -0.004847 0.011436 0.000000 0.000000 0.000000
# 4 0.000000 0.000000 0.000000 0.035977 0.000000 0.000000
# 5 0.000000 0.000000 0.000000 0.000000 0.037657 0.000000
# 6 0.000000 0.000000 0.000000 0.000000 0.000000 0.037814
#
#
# Mechanical properties :
#
#
# Convention : Reuss Voigt Hill
#
# Bulk Modulus (GPa) = 55.55898 63.33395 59.44647
# Shear Modulus (GPa) = 25.30358 26.27025 25.78691
#
# Velocity S-wave (km/s) = 3.61077 3.67909 3.64509
# Velocity P-wave (km/s) = 6.78308 7.11901 6.95308
#
# Compressibility (1/GPa) = 0.01799889
#
# Stress axis : x y z
#
# Youngs Moduli (GPa) = 57.85036 49.13183 87.44101
#
# Poissons Ratio (x) = 0.25176 0.48679
# Poissons Ratio (y) = 0.29644 0.42383
# Poissons Ratio (z) = 0.32206 0.23815
#
# Static dielectric constant tensor:
#      x y z
#    x 3.575890 0.000000 0.000000 
#    y 0.000000 3.721760 0.000000 
#    z 0.000000 0.000000 3.850310 
# 
# 
# High freq. dielectric constant tensor:
#      x y z
#    x 1.740670 0.000000 0.000000 
#    y 0.000000 1.759610 0.000000 
#    z 0.000000 0.000000 1.765610 
# 
# From -- ./inp_files/28234.got.cif
#   From: 2010.03.12/outbox.cif.g09.slc.cpg/sg59_15_cif.got.tgz:28234.got - 2010.04.16 16:29:54.
