data_PCOD8242044
_publ_section_title
;
Structure prediction by ZEFSAII (Michael W. Deem and Ramdas Pophale) SiO2 
 PCOD8242044
Probable space group: P M M N
;
_chemical_formula_sum "Si O2"
_cell_formula_units_Z 48
_cell_length_a 20.263632
_cell_length_b 8.657651
_cell_length_c 14.490215
_cell_angle_alpha 90.000000
_cell_angle_beta 90.000000
_cell_angle_gamma 90.000000
_cell_volume 2542.097445
_symmetry_space_group_name_H-M "P M M N"
_symmetry_group_IT_number 59
_space_group.IT_coordinate_system_code '2'
_symmetry_cell_setting 'orthorhombic'
loop_
_space_group_symop_operation_xyz
x,y,z
1/2-x,1/2-y,z
1/2+x,-y,-z
-x,1/2+y,-z
-x,-y,-z
1/2+x,1/2+y,-z
1/2-x,y,z
x,1/2-y,z
loop_
_atom_site_type_symbol
_atom_site_label
_atom_site_fract_x
_atom_site_fract_y
_atom_site_fract_z
Si Si1 0.823148 0.433412 0.060874
Si Si2 0.973499 0.569320 0.744738
Si Si3 0.939123 0.068530 0.556115
Si Si4 0.373047 0.931241 0.741685
Si Si5 0.941900 0.067476 0.938812
Si Si6 0.325506 0.072396 0.559062
O O1 0.750000 0.499332 0.040511
O O2 0.822141 0.250000 0.063525
O O3 0.848277 0.493301 0.159868
O O4 0.872550 0.491515 0.981321
O O5 0.961553 0.750000 0.755533
O O6 0.934160 0.506153 0.656948
O O7 0.944577 0.487202 0.834288
O O8 0.050054 0.529967 0.731907
O O9 0.949583 0.250000 0.564676
O O10 0.870895 0.034564 0.504512
O O11 0.000000 0.000000 0.500000
O O12 0.359444 0.750000 0.728814
O O13 0.332983 0.024435 0.665310
O O14 0.947439 0.250000 0.943845
O O15 0.000000 0.000000 0.000000
O O16 0.250000 0.047555 0.528637
O O17 0.346966 0.250000 0.547290
#
# Coordination Sequence:
#
# PCOD8242044 Si02
#       6
#     8   8   8   8   8   8
#     4   9  18  34  56  83 115 151 194 240 287 342
#     4  11  22  38  60  90 119 151 197 247 295 352
#     4  12  24  40  63  89 118 157 200 246 297 355
#     4  10  19  34  59  87 117 154 194 242 297 355
#     4  11  21  36  58  85 117 155 197 244 296 351
#     4  11  24  40  59  88 125 160 195 243 300 356
#
# _framework density 18.882045000000002
#
# number of rings (size 3 to 8) (size 9 to 14) (size 15 to 20)
#    0.000    1.333    3.333    3.500    0.000    2.667 
#    0.000    0.833    0.000    6.000    0.000    0.000 
#    0.000    0.000    0.000    0.000    0.000    0.000 
#
# Total GULP energy -595402.771821 kJ/mol
# GULP energy per Si atom -12404.224413 kJ/mol
# Density = 1.883907 g / cm^3
# Si number density = 18.882045 Si / 1000 Ang^3
#
#
#
# Elastic Constant Matrix: (Units=GPa)
#
#
# Indices 1 2 3 4 5 6 
#
# 1 104.0994 35.4582 45.1401 0.0000 0.0000 0.0000
# 2 35.4582 52.0318 19.3426 0.0000 0.0000 0.0000
# 3 45.1401 19.3426 125.4104 0.0000 0.0000 0.0000
# 4 0.0000 0.0000 0.0000 35.8659 0.0000 0.0000
# 5 0.0000 0.0000 0.0000 0.0000 32.0633 0.0000
# 6 0.0000 0.0000 0.0000 0.0000 0.0000 24.4490
#
#
#
# Elastic Compliance Matrix: (Units=1/GPa)
#
#
# Indices 1 2 3 4 5 6 
#
# 1 0.014026 -0.008149 -0.003792 0.000000 0.000000 0.000000
# 2 -0.008149 0.025122 -0.000942 0.000000 0.000000 0.000000
# 3 -0.003792 -0.000942 0.009484 0.000000 0.000000 0.000000
# 4 0.000000 0.000000 0.000000 0.027882 0.000000 0.000000
# 5 0.000000 0.000000 0.000000 0.000000 0.031188 0.000000
# 6 0.000000 0.000000 0.000000 0.000000 0.000000 0.040901
#
#
# Mechanical properties :
#
#
# Convention : Reuss Voigt Hill
#
# Bulk Modulus (GPa) = 43.72955 53.49150 48.61053
# Shear Modulus (GPa) = 27.47399 30.58234 29.02817
#
# Velocity S-wave (km/s) = 3.81863 4.02886 3.92515
# Velocity P-wave (km/s) = 6.53086 7.07340 6.80754
#
# Compressibility (1/GPa) = 0.02286783
#
# Stress axis : x y z
#
# Youngs Moduli (GPa) = 71.29623 39.80540 105.44269
#
# Poissons Ratio (x) = 0.32437 0.39980
# Poissons Ratio (y) = 0.58098 0.09929
# Poissons Ratio (z) = 0.27033 0.03748
#
# Static dielectric constant tensor:
#      x y z
#    x 3.650380 0.000000 0.000000 
#    y 0.000000 3.418710 0.000000 
#    z 0.000000 0.000000 3.634610 
# 
# 
# High freq. dielectric constant tensor:
#      x y z
#    x 1.733510 0.000000 0.000000 
#    y 0.000000 1.728600 0.000000 
#    z 0.000000 0.000000 1.739810 
# 
# From -- ./inp_files/20433.got.cif
#   From: 2010.03.12/outbox.cif.g09.slc.cpg/sg59_11_cif.got.tgz:20433.got - 2010.04.16 16:29:54.
