data_PCOD8242258
_publ_section_title
;
Structure prediction by ZEFSAII (Michael W. Deem and Ramdas Pophale) SiO2 
 PCOD8242258
Probable space group: P M M N
;
_chemical_formula_sum "Si O2"
_cell_formula_units_Z 56
_cell_length_a 8.984468
_cell_length_b 20.150739
_cell_length_c 15.890587
_cell_angle_alpha 90.000000
_cell_angle_beta 90.000000
_cell_angle_gamma 90.000000
_cell_volume 2876.890185
_symmetry_space_group_name_H-M "P M M N"
_symmetry_group_IT_number 59
_space_group.IT_coordinate_system_code '2'
_symmetry_cell_setting 'orthorhombic'
loop_
_space_group_symop_operation_xyz
x,y,z
1/2-x,1/2-y,z
1/2+x,-y,-z
-x,1/2+y,-z
-x,-y,-z
1/2+x,1/2+y,-z
1/2-x,y,z
x,1/2-y,z
loop_
_atom_site_type_symbol
_atom_site_label
_atom_site_fract_x
_atom_site_fract_y
_atom_site_fract_z
Si Si1 0.589978 0.823214 0.353624
Si Si2 0.916621 0.506888 0.755273
Si Si3 0.419266 0.324928 0.968036
Si Si4 0.576441 0.547889 0.932323
Si Si5 0.083934 0.854890 0.199260
Si Si6 0.923391 0.327866 0.486915
Si Si7 0.571660 0.545602 0.573016
O O1 0.750000 0.862187 0.354903
O O2 0.623885 0.750000 0.386369
O O3 0.525679 0.815832 0.260280
O O4 0.468390 0.851863 0.418488
O O5 0.750000 0.535113 0.750211
O O6 0.993772 0.539603 0.838284
O O7 0.921010 0.429414 0.770175
O O8 0.990474 0.521517 0.664569
O O9 0.250000 0.331268 0.935015
O O10 0.453038 0.250000 0.998706
O O11 0.530258 0.346409 0.895207
O O12 0.446948 0.374978 0.045002
O O13 0.750000 0.527395 0.930818
O O14 0.500000 0.500000 0.000000
O O15 0.250000 0.825675 0.205550
O O16 0.750000 0.342700 0.475415
O O17 0.957393 0.250000 0.467209
O O18 0.019521 0.377264 0.428979
O O19 0.500000 0.500000 0.500000
O O20 0.750000 0.540738 0.565284
#
# Coordination Sequence:
#
# PCOD8242258 Si02
#       7
#     8   8   8   8   8   8   8
#     4  10  20  33  50  75 108 145 188 235 284 347
#     4   9  20  36  55  81 111 143 187 238 288 340
#     4  10  21  35  53  80 113 147 185 233 287 341
#     4  10  19  37  60  81 109 146 189 236 283 336
#     4  11  20  32  52  78 111 148 185 229 285 347
#     4  10  21  38  58  80 111 152 196 245 301 357
#     4  11  22  38  60  87 120 156 197 251 303 354
#
# _framework density 19.465461999999999
#
# number of rings (size 3 to 8) (size 9 to 14) (size 15 to 20)
#    0.000    1.857    1.429    3.000    0.000    4.857 
#    0.000    4.286    0.000    2.571    0.000    0.000 
#    0.000    0.000    0.000    0.000    0.000    0.000 
#
# Total GULP energy -693874.396706 kJ/mol
# GULP energy per Si atom -12390.614227 kJ/mol
# Density = 1.942116 g / cm^3
# Si number density = 19.465462 Si / 1000 Ang^3
#
#
#
# Elastic Constant Matrix: (Units=GPa)
#
#
# Indices 1 2 3 4 5 6 
#
# 1 89.1436 37.5126 37.7312 0.0000 0.0000 0.0000
# 2 37.5126 95.4401 59.1488 0.0000 0.0000 0.0000
# 3 37.7312 59.1488 145.1313 0.0000 0.0000 0.0000
# 4 0.0000 0.0000 0.0000 43.7058 0.0000 0.0000
# 5 0.0000 0.0000 0.0000 0.0000 25.4597 0.0000
# 6 0.0000 0.0000 0.0000 0.0000 0.0000 19.0366
#
#
#
# Elastic Compliance Matrix: (Units=1/GPa)
#
#
# Indices 1 2 3 4 5 6 
#
# 1 0.013800 -0.004282 -0.001842 0.000000 0.000000 0.000000
# 2 -0.004282 0.015347 -0.005142 0.000000 0.000000 0.000000
# 3 -0.001842 -0.005142 0.009465 0.000000 0.000000 0.000000
# 4 0.000000 0.000000 0.000000 0.022880 0.000000 0.000000
# 5 0.000000 0.000000 0.000000 0.000000 0.039278 0.000000
# 6 0.000000 0.000000 0.000000 0.000000 0.000000 0.052530
#
#
# Mechanical properties :
#
#
# Convention : Reuss Voigt Hill
#
# Bulk Modulus (GPa) = 62.19099 66.50003 64.34551
# Shear Modulus (GPa) = 27.59499 30.66191 29.12845
#
# Velocity S-wave (km/s) = 3.76924 3.97318 3.87255
# Velocity P-wave (km/s) = 7.13874 7.43542 7.28859
#
# Compressibility (1/GPa) = 0.01607950
#
# Stress axis : x y z
#
# Youngs Moduli (GPa) = 72.46566 65.15788 105.65462
#
# Poissons Ratio (x) = 0.27901 0.19466
# Poissons Ratio (y) = 0.31030 0.54324
# Poissons Ratio (z) = 0.13351 0.33502
#
# Static dielectric constant tensor:
#      x y z
#    x 3.143640 0.000000 0.000000 
#    y 0.000000 3.616330 0.000000 
#    z 0.000000 0.000000 3.691470 
# 
# 
# High freq. dielectric constant tensor:
#      x y z
#    x 1.751610 0.000000 0.000000 
#    y 0.000000 1.757700 0.000000 
#    z 0.000000 0.000000 1.748620 
# 
# From -- ./inp_files/20968.got.cif
#   From: 2010.03.12/outbox.cif.g09.slc.cpg/sg59_11_cif.got.tgz:20968.got - 2010.04.16 16:29:54.
