data_PCOD8242383
_publ_section_title
;
Structure prediction by ZEFSAII (Michael W. Deem and Ramdas Pophale) SiO2 
 PCOD8242383
Probable space group: P M M N
;
_chemical_formula_sum "Si O2"
_cell_formula_units_Z 40
_cell_length_a 9.250795
_cell_length_b 14.921753
_cell_length_c 15.323431
_cell_angle_alpha 90.000000
_cell_angle_beta 90.000000
_cell_angle_gamma 90.000000
_cell_volume 2115.216964
_symmetry_space_group_name_H-M "P M M N"
_symmetry_group_IT_number 59
_space_group.IT_coordinate_system_code '2'
_symmetry_cell_setting 'orthorhombic'
loop_
_space_group_symop_operation_xyz
x,y,z
1/2-x,1/2-y,z
1/2+x,-y,-z
-x,1/2+y,-z
-x,-y,-z
1/2+x,1/2+y,-z
1/2-x,y,z
x,1/2-y,z
loop_
_atom_site_type_symbol
_atom_site_label
_atom_site_fract_x
_atom_site_fract_y
_atom_site_fract_z
Si Si1 0.420340 0.923076 0.736241
Si Si2 0.421035 0.109450 0.668122
Si Si3 0.421998 0.250000 0.531141
Si Si4 0.922945 0.750000 0.666573
Si Si5 0.920800 0.750000 0.193338
Si Si6 0.915896 0.250000 0.985864
Si Si7 0.916152 0.063100 0.065339
O O1 0.250000 0.900063 0.727216
O O2 0.515142 0.837546 0.712926
O O3 0.457386 0.954579 0.834270
O O4 0.468875 0.005420 0.673035
O O5 0.250000 0.114616 0.667360
O O6 0.479481 0.160292 0.581217
O O7 0.474739 0.162346 0.754003
O O8 0.250000 0.250000 0.530999
O O9 0.480522 0.250000 0.432974
O O10 0.750000 0.750000 0.672922
O O11 0.750000 0.750000 0.181497
O O12 0.988179 0.750000 0.099147
O O13 0.750000 0.250000 0.956083
O O14 0.954242 0.165651 0.045536
O O15 0.750000 0.041448 0.049164
O O16 0.000000 0.000000 0.000000
#
# Coordination Sequence:
#
# PCOD8242383 Si02
#       7
#     8   8   4   4   4   4   8
#     4  10  20  36  56  76 102 139 178 213 254 308
#     4   8  15  30  55  80 100 128 168 213 259 308
#     4   8  16  32  52  79 109 130 159 212 270 315
#     4  11  23  36  52  76 107 140 174 215 261 307
#     4   9  16  30  54  80 100 126 171 214 247 298
#     4  10  20  32  46  69 106 142 164 199 262 312
#     4  10  21  36  54  77 105 137 174 215 256 301
#
# _framework density 18.910589999999999
#
# number of rings (size 3 to 8) (size 9 to 14) (size 15 to 20)
#    0.000    2.600    0.000    3.300    0.000    5.600 
#    0.000    2.000    0.000    6.000    0.000    0.000 
#    0.000    0.000    0.000    0.000    0.000    0.000 
#
# Total GULP energy -495835.612496 kJ/mol
# GULP energy per Si atom -12395.890312 kJ/mol
# Density = 1.886755 g / cm^3
# Si number density = 18.910590 Si / 1000 Ang^3
#
#
#
# Elastic Constant Matrix: (Units=GPa)
#
#
# Indices 1 2 3 4 5 6 
#
# 1 43.6537 45.9611 36.1240 0.0000 0.0000 0.0000
# 2 45.9611 146.6928 52.7480 0.0000 0.0000 0.0000
# 3 36.1240 52.7480 104.0592 0.0000 0.0000 0.0000
# 4 0.0000 0.0000 0.0000 12.0983 0.0000 0.0000
# 5 0.0000 0.0000 0.0000 0.0000 22.8032 0.0000
# 6 0.0000 0.0000 0.0000 0.0000 0.0000 22.0285
#
#
#
# Elastic Compliance Matrix: (Units=1/GPa)
#
#
# Indices 1 2 3 4 5 6 
#
# 1 0.040420 -0.009317 -0.009309 0.000000 0.000000 0.000000
# 2 -0.009317 0.010484 -0.002080 0.000000 0.000000 0.000000
# 3 -0.009309 -0.002080 0.013896 0.000000 0.000000 0.000000
# 4 0.000000 0.000000 0.000000 0.082657 0.000000 0.000000
# 5 0.000000 0.000000 0.000000 0.000000 0.043854 0.000000
# 6 0.000000 0.000000 0.000000 0.000000 0.000000 0.045396
#
#
# Mechanical properties :
#
#
# Convention : Reuss Voigt Hill
#
# Bulk Modulus (GPa) = 42.75659 62.67467 52.71563
# Shear Modulus (GPa) = 17.48776 22.02417 19.75596
#
# Velocity S-wave (km/s) = 3.04429 3.41640 3.23569
# Velocity P-wave (km/s) = 5.91742 6.98405 6.47274
#
# Compressibility (1/GPa) = 0.02338821
#
# Stress axis : x y z
#
# Youngs Moduli (GPa) = 24.74002 95.38287 71.96356
#
# Poissons Ratio (x) = 0.88868 0.66991
# Poissons Ratio (y) = 0.23050 0.14969
# Poissons Ratio (z) = 0.23031 0.19840
#
# Static dielectric constant tensor:
#      x y z
#    x 3.111770 0.000000 0.000000 
#    y 0.000000 3.866610 0.000000 
#    z 0.000000 0.000000 3.728700 
# 
# 
# High freq. dielectric constant tensor:
#      x y z
#    x 1.694880 0.000000 0.000000 
#    y 0.000000 1.749850 0.000000 
#    z 0.000000 0.000000 1.739280 
# 
# From -- ./inp_files/20043.got.cif
#   From: 2010.03.12/outbox.cif.g09.slc.cpg/sg59_11_cif.got.tgz:20043.got - 2010.04.16 16:29:54.
