data_PCOD8242141
_publ_section_title
;
Structure prediction by ZEFSAII (Michael W. Deem and Ramdas Pophale) SiO2 
 PCOD8242141
Probable space group: P M M N
;
_chemical_formula_sum "Si O2"
_cell_formula_units_Z 48
_cell_length_a 9.422514
_cell_length_b 9.124561
_cell_length_c 29.161943
_cell_angle_alpha 90.000000
_cell_angle_beta 90.000000
_cell_angle_gamma 90.000000
_cell_volume 2507.236070
_symmetry_space_group_name_H-M "P M M N"
_symmetry_group_IT_number 59
_space_group.IT_coordinate_system_code '2'
_symmetry_cell_setting 'orthorhombic'
loop_
_space_group_symop_operation_xyz
x,y,z
1/2-x,1/2-y,z
1/2+x,-y,-z
-x,1/2+y,-z
-x,-y,-z
1/2+x,1/2+y,-z
1/2-x,y,z
x,1/2-y,z
loop_
_atom_site_type_symbol
_atom_site_label
_atom_site_fract_x
_atom_site_fract_y
_atom_site_fract_z
Si Si1 0.415369 0.078643 0.131171
Si Si2 0.750000 0.076739 0.433420
Si Si3 0.750000 0.422467 0.535761
Si Si4 0.594956 0.076544 0.706049
Si Si5 0.585585 0.422078 0.039956
Si Si6 0.488076 0.923579 0.394891
Si Si7 0.587964 0.575682 0.210264
O O1 0.250000 0.033734 0.124938
O O2 0.428979 0.250000 0.141854
O O3 0.504574 0.035451 0.086370
O O4 0.485507 0.989746 0.172126
O O5 0.750000 0.250000 0.436067
O O6 0.750000 0.007420 0.484891
O O7 0.623276 0.019324 0.403380
O O8 0.750000 0.250000 0.531130
O O9 0.614932 0.473517 0.564399
O O10 0.750000 0.017312 0.721734
O O11 0.595960 0.250000 0.706806
O O12 0.569132 0.024284 0.654269
O O13 0.473187 0.020471 0.740714
O O14 0.750000 0.475717 0.042192
O O15 0.579642 0.250000 0.030863
O O16 0.500000 0.500000 0.000000
O O17 0.518945 0.750000 0.395739
O O18 0.750000 0.518709 0.205243
O O19 0.583055 0.750000 0.206222
#
# Coordination Sequence:
#
# PCOD8242141 Si02
#       7
#     8   4   4   8   8   8   8
#     4  10  21  38  59  82 111 150 192 229 270 327
#     4  11  23  35  49  77 117 145 169 217 272 321
#     4   9  18  35  57  81 105 135 181 227 266 317
#     4   9  17  32  56  82 105 132 175 229 274 315
#     4  10  21  37  58  84 114 150 192 236 281 327
#     4  10  19  35  59  81 101 137 184 223 264 322
#     4  10  21  35  55  85 115 140 173 224 281 329
#
# _framework density 19.144587999999999
#
# number of rings (size 3 to 8) (size 9 to 14) (size 15 to 20)
#    0.000    2.167    0.833    2.250    1.167    3.667 
#    0.000    2.083    0.000    1.000    0.000    0.000 
#    0.000    0.000    0.000    0.000    0.000    0.000 
#
# Total GULP energy -595029.464614 kJ/mol
# GULP energy per Si atom -12396.447179 kJ/mol
# Density = 1.910101 g / cm^3
# Si number density = 19.144588 Si / 1000 Ang^3
#
#
#
# Elastic Constant Matrix: (Units=GPa)
#
#
# Indices 1 2 3 4 5 6 
#
# 1 173.3884 30.8484 65.8059 0.0000 0.0000 0.0000
# 2 30.8484 25.5764 25.3445 0.0000 0.0000 0.0000
# 3 65.8059 25.3445 119.2993 0.0000 0.0000 0.0000
# 4 0.0000 0.0000 0.0000 26.4773 0.0000 0.0000
# 5 0.0000 0.0000 0.0000 0.0000 37.5177 0.0000
# 6 0.0000 0.0000 0.0000 0.0000 0.0000 53.9389
#
#
#
# Elastic Compliance Matrix: (Units=1/GPa)
#
#
# Indices 1 2 3 4 5 6 
#
# 1 0.008130 -0.006792 -0.003042 0.000000 0.000000 0.000000
# 2 -0.006792 0.055198 -0.007980 0.000000 0.000000 0.000000
# 3 -0.003042 -0.007980 0.011755 0.000000 0.000000 0.000000
# 4 0.000000 0.000000 0.000000 0.037768 0.000000 0.000000
# 5 0.000000 0.000000 0.000000 0.000000 0.026654 0.000000
# 6 0.000000 0.000000 0.000000 0.000000 0.000000 0.018539
#
#
# Mechanical properties :
#
#
# Convention : Reuss Voigt Hill
#
# Bulk Modulus (GPa) = 25.34446 62.47353 43.90900
# Shear Modulus (GPa) = 24.17498 36.67114 30.42306
#
# Velocity S-wave (km/s) = 3.55739 4.38137 3.99070
# Velocity P-wave (km/s) = 5.49004 7.63535 6.64978
#
# Compressibility (1/GPa) = 0.03945635
#
# Stress axis : x y z
#
# Youngs Moduli (GPa) = 122.99796 18.11650 85.06695
#
# Poissons Ratio (x) = 0.12305 0.25875
# Poissons Ratio (y) = 0.83539 0.67884
# Poissons Ratio (z) = 0.37413 0.14457
#
# Static dielectric constant tensor:
#      x y z
#    x 3.994150 0.000000 0.000000 
#    y 0.000000 3.141850 0.000000 
#    z 0.000000 0.000000 3.784530 
# 
# 
# High freq. dielectric constant tensor:
#      x y z
#    x 1.764670 0.000000 0.000000 
#    y 0.000000 1.706450 0.000000 
#    z 0.000000 0.000000 1.759330 
# 
# From -- ./inp_files/32936.got.cif
#   From: 2010.03.12/outbox.cif.g09.slc.cpg/sg59_17_cif.got.tgz:32936.got - 2010.04.16 16:29:54.
