data_PCOD8242175
_publ_section_title
;
Structure prediction by ZEFSAII (Michael W. Deem and Ramdas Pophale) SiO2 
 PCOD8242175
Probable space group: P M M N
;
_chemical_formula_sum "Si O2"
_cell_formula_units_Z 64
_cell_length_a 19.202488
_cell_length_b 16.907975
_cell_length_c 10.026894
_cell_angle_alpha 90.000000
_cell_angle_beta 90.000000
_cell_angle_gamma 90.000000
_cell_volume 3255.483685
_symmetry_space_group_name_H-M "P M M N"
_symmetry_group_IT_number 59
_space_group.IT_coordinate_system_code '2'
_symmetry_cell_setting 'orthorhombic'
loop_
_space_group_symop_operation_xyz
x,y,z
1/2-x,1/2-y,z
1/2+x,-y,-z
-x,1/2+y,-z
-x,-y,-z
1/2+x,1/2+y,-z
1/2-x,y,z
x,1/2-y,z
loop_
_atom_site_type_symbol
_atom_site_label
_atom_site_fract_x
_atom_site_fract_y
_atom_site_fract_z
Si Si1 0.572236 0.343401 0.780350
Si Si2 0.072670 0.156441 0.890484
Si Si3 0.925074 0.340964 0.254695
Si Si4 0.331350 0.076079 0.407478
Si Si5 0.585453 0.840277 0.816642
Si Si6 0.328944 0.844023 0.988396
Si Si7 0.068354 0.555325 0.484281
Si Si8 0.673787 0.657374 0.328248
O O1 0.574492 0.250000 0.751192
O O2 0.506678 0.368920 0.870270
O O3 0.562389 0.385914 0.639857
O O4 0.638486 0.371459 0.868936
O O5 0.077435 0.250000 0.881756
O O6 0.120252 0.117216 0.775072
O O7 0.100545 0.129004 0.033972
O O8 0.906633 0.250000 0.289595
O O9 0.874154 0.373963 0.138176
O O10 0.916482 0.394089 0.384718
O O11 0.003800 0.347712 0.206344
O O12 0.250000 0.066536 0.376808
O O13 0.370722 0.101883 0.275013
O O14 0.347994 0.141461 0.519761
O O15 0.361974 0.994347 0.460401
O O16 0.610437 0.750000 0.795387
O O17 0.250000 0.876741 0.978391
O O18 0.330446 0.750000 0.985897
O O19 0.000000 0.500000 0.500000
O O20 0.750000 0.620416 0.301014
O O21 0.675137 0.750000 0.305834
#
# Coordination Sequence:
#
# PCOD8242175 Si02
#       8
#     8   8   8   8   8   8   8   8
#     4  10  20  37  61  88 115 147 192 242 293 349
#     4   9  17  31  56  88 115 140 182 240 289 335
#     4  10  20  38  63  91 116 146 194 246 297 355
#     4  11  24  40  55  79 119 161 197 236 287 348
#     4  10  19  35  60  88 116 148 189 238 291 349
#     4   9  18  36  63  91 117 146 187 246 309 357
#     4  12  24  39  58  85 119 160 197 240 290 346
#     4   9  18  34  56  81 110 148 193 237 282 335
#
# _framework density 19.659137000000001
#
# number of rings (size 3 to 8) (size 9 to 14) (size 15 to 20)
#    0.000    2.000    2.500    1.500    0.000    2.250 
#    0.000    5.000    0.000    3.750    0.000    0.000 
#    0.000    0.000    0.000    0.000    0.000    0.000 
#
# Total GULP energy -793386.542925 kJ/mol
# GULP energy per Si atom -12396.664733 kJ/mol
# Density = 1.961439 g / cm^3
# Si number density = 19.659137 Si / 1000 Ang^3
#
#
#
# Elastic Constant Matrix: (Units=GPa)
#
#
# Indices 1 2 3 4 5 6 
#
# 1 122.3931 33.0995 69.1849 0.0000 0.0000 0.0000
# 2 33.0995 38.6117 31.0987 0.0000 0.0000 0.0000
# 3 69.1849 31.0987 146.4279 0.0000 0.0000 0.0000
# 4 0.0000 0.0000 0.0000 8.4281 0.0000 0.0000
# 5 0.0000 0.0000 0.0000 0.0000 34.0442 0.0000
# 6 0.0000 0.0000 0.0000 0.0000 0.0000 21.7625
#
#
#
# Elastic Compliance Matrix: (Units=1/GPa)
#
#
# Indices 1 2 3 4 5 6 
#
# 1 0.012639 -0.007268 -0.004428 0.000000 0.000000 0.000000
# 2 -0.007268 0.035423 -0.004089 0.000000 0.000000 0.000000
# 3 -0.004428 -0.004089 0.009790 0.000000 0.000000 0.000000
# 4 0.000000 0.000000 0.000000 0.118651 0.000000 0.000000
# 5 0.000000 0.000000 0.000000 0.000000 0.029374 0.000000
# 6 0.000000 0.000000 0.000000 0.000000 0.000000 0.045951
#
#
# Mechanical properties :
#
#
# Convention : Reuss Voigt Hill
#
# Bulk Modulus (GPa) = 38.05013 63.79990 50.92502
# Shear Modulus (GPa) = 17.11400 24.45026 20.78213
#
# Velocity S-wave (km/s) = 2.95369 3.53045 3.25487
# Velocity P-wave (km/s) = 5.57040 7.01016 6.33134
#
# Compressibility (1/GPa) = 0.02628112
#
# Stress axis : x y z
#
# Youngs Moduli (GPa) = 79.11987 28.23028 102.14541
#
# Poissons Ratio (x) = 0.20518 0.45231
# Poissons Ratio (y) = 0.57506 0.41768
# Poissons Ratio (z) = 0.35035 0.11544
#
# Static dielectric constant tensor:
#      x y z
#    x 3.849500 0.000000 0.000000 
#    y 0.000000 3.372730 0.000000 
#    z 0.000000 0.000000 3.969080 
# 
# 
# High freq. dielectric constant tensor:
#      x y z
#    x 1.768290 0.000000 0.000000 
#    y 0.000000 1.734670 0.000000 
#    z 0.000000 0.000000 1.781500 
# 
# From -- ./inp_files/11608.got.cif
#   From: 2010.03.12/outbox.cif.g09.slc.cpg/sg59_6_cif.got.tgz:11608.got - 2010.04.16 16:29:54.
