data_PCOD8242716
_publ_section_title
;
Structure prediction by ZEFSAII (Michael W. Deem and Ramdas Pophale) SiO2 
 PCOD8242716
Probable space group: P M M N
;
_chemical_formula_sum "Si O2"
_cell_formula_units_Z 48
_cell_length_a 9.242971
_cell_length_b 9.724619
_cell_length_c 30.670604
_cell_angle_alpha 90.000000
_cell_angle_beta 90.000000
_cell_angle_gamma 90.000000
_cell_volume 2756.807961
_symmetry_space_group_name_H-M "P M M N"
_symmetry_group_IT_number 59
_space_group.IT_coordinate_system_code '2'
_symmetry_cell_setting 'orthorhombic'
loop_
_space_group_symop_operation_xyz
x,y,z
1/2-x,1/2-y,z
1/2+x,-y,-z
-x,1/2+y,-z
-x,-y,-z
1/2+x,1/2+y,-z
1/2-x,y,z
x,1/2-y,z
loop_
_atom_site_type_symbol
_atom_site_label
_atom_site_fract_x
_atom_site_fract_y
_atom_site_fract_z
Si Si1 0.578525 0.404405 0.299828
Si Si2 0.416179 0.589935 0.367554
Si Si3 0.419827 0.588940 0.963983
Si Si4 0.088912 0.913555 0.796707
Si Si5 0.080939 0.905594 0.466231
Si Si6 0.088056 0.087007 0.122137
O O1 0.750000 0.406409 0.303128
O O2 0.520530 0.250000 0.308404
O O3 0.515587 0.505224 0.335445
O O4 0.531701 0.455057 0.251405
O O5 0.250000 0.556271 0.357298
O O6 0.448101 0.750000 0.360595
O O7 0.454347 0.546912 0.417010
O O8 0.250000 0.554753 0.963755
O O9 0.447469 0.750000 0.973090
O O10 0.486981 0.542867 0.917929
O O11 0.500000 0.500000 0.000000
O O12 0.250000 0.973456 0.804869
O O13 0.096834 0.750000 0.799732
O O14 0.981219 0.973653 0.833404
O O15 0.250000 0.916756 0.475275
O O16 0.027570 0.750000 0.473163
O O17 0.000000 0.000000 0.500000
O O18 0.250000 0.026293 0.116258
O O19 0.095727 0.250000 0.125251
#
# Coordination Sequence:
#
# PCOD8242716 Si02
#       6
#     8   8   8   8   8   8
#     4   9  18  31  48  73 101 126 156 196 239 281
#     4   9  19  35  51  68  95 130 163 194 233 283
#     4  10  20  33  50  72  98 129 163 199 242 290
#     4   8  14  26  43  64  93 124 152 189 237 283
#     4   9  19  35  52  71  96 125 158 197 239 283
#     4   9  16  26  43  68  95 123 158 198 238 283
#
# _framework density 17.411442000000001
#
# number of rings (size 3 to 8) (size 9 to 14) (size 15 to 20)
#    0.000    3.000    0.000    3.000    0.000    6.000 
#    0.000    6.667    0.000    1.000    0.000    4.667 
#    0.000    0.000    0.000    0.000    0.000    0.000 
#
# Total GULP energy -595030.144829 kJ/mol
# GULP energy per Si atom -12396.461351 kJ/mol
# Density = 1.737181 g / cm^3
# Si number density = 17.411442 Si / 1000 Ang^3
#
#
#
# Elastic Constant Matrix: (Units=GPa)
#
#
# Indices 1 2 3 4 5 6 
#
# 1 88.7773 32.3434 69.3448 0.0000 0.0000 0.0000
# 2 32.3434 39.9788 51.6504 0.0000 0.0000 0.0000
# 3 69.3448 51.6504 148.0589 0.0000 0.0000 0.0000
# 4 0.0000 0.0000 0.0000 22.9389 0.0000 0.0000
# 5 0.0000 0.0000 0.0000 0.0000 39.1209 0.0000
# 6 0.0000 0.0000 0.0000 0.0000 0.0000 26.5435
#
#
#
# Elastic Compliance Matrix: (Units=1/GPa)
#
#
# Indices 1 2 3 4 5 6 
#
# 1 0.018771 -0.006969 -0.006361 0.000000 0.000000 0.000000
# 2 -0.006969 0.048123 -0.013524 0.000000 0.000000 0.000000
# 3 -0.006361 -0.013524 0.014451 0.000000 0.000000 0.000000
# 4 0.000000 0.000000 0.000000 0.043594 0.000000 0.000000
# 5 0.000000 0.000000 0.000000 0.000000 0.025562 0.000000
# 6 0.000000 0.000000 0.000000 0.000000 0.000000 0.037674
#
#
# Mechanical properties :
#
#
# Convention : Reuss Voigt Hill
#
# Bulk Modulus (GPa) = 36.18079 64.83248 50.50663
# Shear Modulus (GPa) = 19.91276 25.95241 22.93259
#
# Velocity S-wave (km/s) = 3.38547 3.86494 3.63312
# Velocity P-wave (km/s) = 6.00890 7.56527 6.83155
#
# Compressibility (1/GPa) = 0.02763898
#
# Stress axis : x y z
#
# Youngs Moduli (GPa) = 53.27253 20.78000 69.19902
#
# Poissons Ratio (x) = 0.14481 0.44016
# Poissons Ratio (y) = 0.37123 0.93585
# Poissons Ratio (z) = 0.33886 0.28103
#
# Static dielectric constant tensor:
#      x y z
#    x 3.137720 0.000000 0.000000 
#    y 0.000000 3.037090 0.000000 
#    z 0.000000 0.000000 3.394970 
# 
# 
# High freq. dielectric constant tensor:
#      x y z
#    x 1.675500 0.000000 0.000000 
#    y 0.000000 1.630420 0.000000 
#    z 0.000000 0.000000 1.687050 
# 
# From -- ./inp_files/31860.got.cif
#   From: 2010.03.12/outbox.cif.g09.slc.cpg/sg59_16_cif.got.tgz:31860.got - 2010.04.16 16:29:54.
