data_PCOD8242309
_publ_section_title
;
Structure prediction by ZEFSAII (Michael W. Deem and Ramdas Pophale) SiO2 
 PCOD8242309
Probable space group: P M M N
;
_chemical_formula_sum "Si O2"
_cell_formula_units_Z 56
_cell_length_a 17.311995
_cell_length_b 9.174565
_cell_length_c 18.675466
_cell_angle_alpha 90.000000
_cell_angle_beta 90.000000
_cell_angle_gamma 90.000000
_cell_volume 2966.224702
_symmetry_space_group_name_H-M "P M M N"
_symmetry_group_IT_number 59
_space_group.IT_coordinate_system_code '2'
_symmetry_cell_setting 'orthorhombic'
loop_
_space_group_symop_operation_xyz
x,y,z
1/2-x,1/2-y,z
1/2+x,-y,-z
-x,1/2+y,-z
-x,-y,-z
1/2+x,1/2+y,-z
1/2-x,y,z
x,1/2-y,z
loop_
_atom_site_type_symbol
_atom_site_label
_atom_site_fract_x
_atom_site_fract_y
_atom_site_fract_z
Si Si1 0.518678 0.075777 0.425942
Si Si2 0.940169 0.415324 0.699495
Si Si3 0.162782 0.080662 0.634406
Si Si4 0.402282 0.089176 0.781251
Si Si5 0.662663 0.423492 0.827268
Si Si6 0.070335 0.584072 0.036740
Si Si7 0.334128 0.585160 0.901028
O O1 0.514683 0.250000 0.431756
O O2 0.500000 0.000000 0.500000
O O3 0.455676 0.022006 0.367422
O O4 0.605502 0.025820 0.407467
O O5 0.928009 0.250000 0.670681
O O6 0.867485 0.467949 0.747631
O O7 0.011628 0.420652 0.752886
O O8 0.250000 0.052692 0.607638
O O9 0.138055 0.250000 0.622147
O O10 0.157290 0.043271 0.718625
O O11 0.382261 0.250000 0.808009
O O12 0.396891 0.988892 0.850320
O O13 0.750000 0.485454 0.836316
O O14 0.663674 0.250000 0.834527
O O15 0.603873 0.483743 0.888828
O O16 0.042494 0.750000 0.048872
O O17 0.142403 0.575421 0.983352
O O18 0.000000 0.500000 0.000000
O O19 0.250000 0.510698 0.892546
O O20 0.329791 0.750000 0.875183
#
# Coordination Sequence:
#
# PCOD8242309 Si02
#       7
#     8   8   8   8   8   8   8
#     4  11  22  37  58  82 110 143 178 215 259 315
#     4   9  18  34  55  78 103 132 171 217 265 318
#     4   9  18  34  55  79 108 140 173 213 263 315
#     4   9  17  30  49  73 102 136 170 203 247 308
#     4   9  17  32  56  80 101 134 183 234 278 324
#     4  10  20  34  51  71  98 133 175 221 269 319
#     4  10  20  31  44  67  99 131 164 207 255 298
#
# _framework density 18.879218000000002
#
# number of rings (size 3 to 8) (size 9 to 14) (size 15 to 20)
#    0.000    2.429    0.000    3.857    0.000    6.857 
#    0.000    1.429    0.000    5.143    0.000    0.000 
#    0.000    0.000    0.000    0.000    0.000    0.000 
#
# Total GULP energy -694086.087529 kJ/mol
# GULP energy per Si atom -12394.394420 kJ/mol
# Density = 1.883625 g / cm^3
# Si number density = 18.879218 Si / 1000 Ang^3
#
#
#
# Elastic Constant Matrix: (Units=GPa)
#
#
# Indices 1 2 3 4 5 6 
#
# 1 95.8122 33.7265 45.2437 0.0000 0.0000 0.0000
# 2 33.7265 82.6343 51.8681 0.0000 0.0000 0.0000
# 3 45.2437 51.8681 114.2282 0.0000 0.0000 0.0000
# 4 0.0000 0.0000 0.0000 30.0914 0.0000 0.0000
# 5 0.0000 0.0000 0.0000 0.0000 14.9475 0.0000
# 6 0.0000 0.0000 0.0000 0.0000 0.0000 23.2143
#
#
#
# Elastic Compliance Matrix: (Units=1/GPa)
#
#
# Indices 1 2 3 4 5 6 
#
# 1 0.013342 -0.002977 -0.003933 0.000000 0.000000 0.000000
# 2 -0.002977 0.017590 -0.006808 0.000000 0.000000 0.000000
# 3 -0.003933 -0.006808 0.013403 0.000000 0.000000 0.000000
# 4 0.000000 0.000000 0.000000 0.033232 0.000000 0.000000
# 5 0.000000 0.000000 0.000000 0.000000 0.066901 0.000000
# 6 0.000000 0.000000 0.000000 0.000000 0.000000 0.043077
#
#
# Mechanical properties :
#
#
# Convention : Reuss Voigt Hill
#
# Bulk Modulus (GPa) = 59.17189 61.59460 60.38324
# Shear Modulus (GPa) = 22.66404 24.43973 23.55188
#
# Velocity S-wave (km/s) = 3.46855 3.60186 3.53583
# Velocity P-wave (km/s) = 6.88850 7.07067 6.98018
#
# Compressibility (1/GPa) = 0.01689992
#
# Stress axis : x y z
#
# Youngs Moduli (GPa) = 74.95065 56.85127 74.60763
#
# Poissons Ratio (x) = 0.16924 0.29342
# Poissons Ratio (y) = 0.22312 0.50793
# Poissons Ratio (z) = 0.29477 0.38704
#
# Static dielectric constant tensor:
#      x y z
#    x 15.869100 0.000000 0.000000 
#    y 0.000000 3.354070 0.000000 
#    z 0.000000 0.000000 3.480540 
# 
# 
# High freq. dielectric constant tensor:
#      x y z
#    x 1.733940 0.000000 0.000000 
#    y 0.000000 1.704380 0.000000 
#    z 0.000000 0.000000 1.731650 
# 
# From -- ./inp_files/30557.got.cif
#   From: 2010.03.12/outbox.cif.g09.slc.cpg/sg59_16_cif.got.tgz:30557.got - 2010.04.16 16:29:54.
