data_PCOD8242445
_publ_section_title
;
Structure prediction by ZEFSAII (Michael W. Deem and Ramdas Pophale) SiO2 
 PCOD8242445
Probable space group: P M M N
;
_chemical_formula_sum "Si O2"
_cell_formula_units_Z 64
_cell_length_a 9.036803
_cell_length_b 18.460038
_cell_length_c 21.199001
_cell_angle_alpha 90.000000
_cell_angle_beta 90.000000
_cell_angle_gamma 90.000000
_cell_volume 3536.411555
_symmetry_space_group_name_H-M "P M M N"
_symmetry_group_IT_number 59
_space_group.IT_coordinate_system_code '2'
_symmetry_cell_setting 'orthorhombic'
loop_
_space_group_symop_operation_xyz
x,y,z
1/2-x,1/2-y,z
1/2+x,-y,-z
-x,1/2+y,-z
-x,-y,-z
1/2+x,1/2+y,-z
1/2-x,y,z
x,1/2-y,z
loop_
_atom_site_type_symbol
_atom_site_label
_atom_site_fract_x
_atom_site_fract_y
_atom_site_fract_z
Si Si1 0.417777 0.539993 0.687371
Si Si2 0.424709 0.168714 0.253301
Si Si3 0.421753 0.039129 0.557479
Si Si4 0.426338 0.077020 0.997506
Si Si5 0.424936 0.390877 0.743927
Si Si6 0.074333 0.330085 0.113167
Si Si7 0.925674 0.668466 0.121898
Si Si8 0.421933 0.833082 0.376762
O O1 0.250000 0.562265 0.700287
O O2 0.514051 0.611556 0.696893
O O3 0.441958 0.513682 0.616537
O O4 0.465431 0.475456 0.734804
O O5 0.250000 0.167482 0.257396
O O6 0.481820 0.250000 0.269083
O O7 0.477852 0.145684 0.182943
O O8 0.250000 0.052866 0.542185
O O9 0.497130 0.116482 0.571790
O O10 0.500000 0.000000 0.500000
O O11 0.250000 0.069823 0.996747
O O12 0.484116 0.120674 0.936343
O O13 0.487205 0.116673 0.059969
O O14 0.500000 0.000000 0.000000
O O15 0.250000 0.378534 0.734063
O O16 0.480583 0.367072 0.812829
O O17 0.508379 0.342533 0.692467
O O18 0.250000 0.328359 0.110407
O O19 0.012724 0.250000 0.098587
O O20 0.750000 0.670863 0.120716
O O21 0.989183 0.750000 0.116124
O O22 0.250000 0.854717 0.373927
O O23 0.442811 0.750000 0.398078
#
# Coordination Sequence:
#
# PCOD8242445 Si02
#       8
#     8   8   8   8   8   8   8   8
#     4   9  19  33  51  77 107 135 163 203 256 307
#     4   9  18  32  51  74  98 129 173 219 258 302
#     4  10  21  38  59  82 110 144 181 216 256 307
#     4  10  20  32  48  70  96 128 167 212 260 310
#     4   9  18  32  51  76 104 135 172 215 261 314
#     4   8  15  30  50  69  91 124 169 215 254 299
#     4   9  17  30  50  73  96 129 172 213 255 309
#     4  10  20  34  54  82 113 143 178 218 260 308
#
# _framework density 18.097442999999998
#
# number of rings (size 3 to 8) (size 9 to 14) (size 15 to 20)
#    0.000    2.750    0.000    3.000    1.750    5.750 
#    0.000    1.250    0.000    3.750    0.000    0.000 
#    0.000    0.000    0.000    0.000    0.000    0.000 
#
# Total GULP energy -793476.787438 kJ/mol
# GULP energy per Si atom -12398.074804 kJ/mol
# Density = 1.805625 g / cm^3
# Si number density = 18.097443 Si / 1000 Ang^3
#
#
#
# Elastic Constant Matrix: (Units=GPa)
#
#
# Indices 1 2 3 4 5 6 
#
# 1 57.9833 46.0499 34.6326 0.0000 0.0000 0.0000
# 2 46.0499 136.7404 65.0509 0.0000 0.0000 0.0000
# 3 34.6326 65.0509 87.5516 0.0000 0.0000 0.0000
# 4 0.0000 0.0000 0.0000 31.0185 0.0000 0.0000
# 5 0.0000 0.0000 0.0000 0.0000 21.4544 0.0000
# 6 0.0000 0.0000 0.0000 0.0000 0.0000 31.8301
#
#
#
# Elastic Compliance Matrix: (Units=1/GPa)
#
#
# Indices 1 2 3 4 5 6 
#
# 1 0.025243 -0.005801 -0.005675 0.000000 0.000000 0.000000
# 2 -0.005801 0.012645 -0.007100 0.000000 0.000000 0.000000
# 3 -0.005675 -0.007100 0.018942 0.000000 0.000000 0.000000
# 4 0.000000 0.000000 0.000000 0.032239 0.000000 0.000000
# 5 0.000000 0.000000 0.000000 0.000000 0.046610 0.000000
# 6 0.000000 0.000000 0.000000 0.000000 0.000000 0.031417
#
#
# Mechanical properties :
#
#
# Convention : Reuss Voigt Hill
#
# Bulk Modulus (GPa) = 50.82074 63.74910 57.28492
# Shear Modulus (GPa) = 23.71828 25.96342 24.84085
#
# Velocity S-wave (km/s) = 3.62413 3.79178 3.70890
# Velocity P-wave (km/s) = 6.75686 7.38052 7.07556
#
# Compressibility (1/GPa) = 0.01967701
#
# Stress axis : x y z
#
# Youngs Moduli (GPa) = 39.61429 79.08556 52.79278
#
# Poissons Ratio (x) = 0.45881 0.29960
# Poissons Ratio (y) = 0.22982 0.37483
# Poissons Ratio (z) = 0.22481 0.56151
#
# Static dielectric constant tensor:
#      x y z
#    x 3.084350 0.000000 0.000000 
#    y 0.000000 3.415020 0.000000 
#    z 0.000000 0.000000 3.438740 
# 
# 
# High freq. dielectric constant tensor:
#      x y z
#    x 1.674160 0.000000 0.000000 
#    y 0.000000 1.708790 0.000000 
#    z 0.000000 0.000000 1.698440 
# 
# From -- ./inp_files/29485.got.cif
#   From: 2010.03.12/outbox.cif.g09.slc.cpg/sg59_15_cif.got.tgz:29485.got - 2010.04.16 16:29:54.
