data_PCOD8242862
_publ_section_title
;
Structure prediction by ZEFSAII (Michael W. Deem and Ramdas Pophale) SiO2 
 PCOD8242862
Probable space group: P M M N
;
_chemical_formula_sum "Si O2"
_cell_formula_units_Z 48
_cell_length_a 8.847608
_cell_length_b 9.290448
_cell_length_c 30.711601
_cell_angle_alpha 90.000000
_cell_angle_beta 90.000000
_cell_angle_gamma 90.000000
_cell_volume 2524.439613
_symmetry_space_group_name_H-M "P M M N"
_symmetry_group_IT_number 59
_space_group.IT_coordinate_system_code '2'
_symmetry_cell_setting 'orthorhombic'
loop_
_space_group_symop_operation_xyz
x,y,z
1/2-x,1/2-y,z
1/2+x,-y,-z
-x,1/2+y,-z
-x,-y,-z
1/2+x,1/2+y,-z
1/2-x,y,z
x,1/2-y,z
loop_
_atom_site_type_symbol
_atom_site_label
_atom_site_fract_x
_atom_site_fract_y
_atom_site_fract_z
Si Si1 0.070487 0.409560 0.621223
Si Si2 0.920867 0.920203 0.282198
Si Si3 0.926470 0.083328 0.117353
Si Si4 0.928365 0.084484 0.960241
Si Si5 0.070635 0.586104 0.539428
Si Si6 0.923662 0.584851 0.793208
O O1 0.250000 0.401122 0.620329
O O2 0.004517 0.250000 0.611549
O O3 0.021398 0.462620 0.669319
O O4 0.009808 0.519013 0.584714
O O5 0.750000 0.976654 0.274449
O O6 0.926057 0.750000 0.276509
O O7 0.033659 0.990818 0.248220
O O8 0.750000 0.054130 0.111123
O O9 0.966926 0.250000 0.108317
O O10 0.974183 0.038637 0.165920
O O11 0.018665 0.984070 0.084752
O O12 0.750000 0.071675 0.963939
O O13 0.981168 0.250000 0.962059
O O14 0.000000 0.000000 0.000000
O O15 0.250000 0.574758 0.536509
O O16 0.014721 0.750000 0.537307
O O17 0.000000 0.500000 0.500000
O O18 0.750000 0.557008 0.805572
O O19 0.953446 0.750000 0.781000
#
# Coordination Sequence:
#
# PCOD8242862 Si02
#       6
#     8   8   8   8   8   8
#     4   8  15  30  51  73  99 132 170 213 260 309
#     4   9  18  33  54  79 104 133 172 216 262 313
#     4  10  21  38  60  84 109 141 183 227 270 316
#     4  11  24  40  59  85 115 147 183 222 267 319
#     4  10  20  33  51  76 103 133 171 213 259 312
#     4  10  21  36  54  78 109 144 179 216 262 314
#
# _framework density 19.014120999999999
#
# number of rings (size 3 to 8) (size 9 to 14) (size 15 to 20)
#    0.000    2.333    0.000    3.500    0.000    8.000 
#    0.000    2.500    0.000    1.000    0.000    0.000 
#    0.000    0.000    0.000    0.000    0.000    0.000 
#
# Total GULP energy -595264.611171 kJ/mol
# GULP energy per Si atom -12401.346066 kJ/mol
# Density = 1.897084 g / cm^3
# Si number density = 19.014121 Si / 1000 Ang^3
#
#
#
# Elastic Constant Matrix: (Units=GPa)
#
#
# Indices 1 2 3 4 5 6 
#
# 1 43.6063 35.3774 30.1985 0.0000 0.0000 0.0000
# 2 35.3774 112.5364 80.5229 0.0000 0.0000 0.0000
# 3 30.1985 80.5229 143.3613 0.0000 0.0000 0.0000
# 4 0.0000 0.0000 0.0000 40.4795 0.0000 0.0000
# 5 0.0000 0.0000 0.0000 0.0000 33.4821 0.0000
# 6 0.0000 0.0000 0.0000 0.0000 0.0000 28.1434
#
#
#
# Elastic Compliance Matrix: (Units=1/GPa)
#
#
# Indices 1 2 3 4 5 6 
#
# 1 0.031050 -0.008495 -0.001769 0.000000 0.000000 0.000000
# 2 -0.008495 0.017181 -0.007861 0.000000 0.000000 0.000000
# 3 -0.001769 -0.007861 0.011763 0.000000 0.000000 0.000000
# 4 0.000000 0.000000 0.000000 0.024704 0.000000 0.000000
# 5 0.000000 0.000000 0.000000 0.000000 0.029867 0.000000
# 6 0.000000 0.000000 0.000000 0.000000 0.000000 0.035532
#
#
# Mechanical properties :
#
#
# Convention : Reuss Voigt Hill
#
# Bulk Modulus (GPa) = 42.11553 65.74460 53.93006
# Shear Modulus (GPa) = 25.73849 30.64800 28.19325
#
# Velocity S-wave (km/s) = 3.68319 4.01915 3.85483
# Velocity P-wave (km/s) = 6.34709 7.49599 6.94534
#
# Compressibility (1/GPa) = 0.02374421
#
# Stress axis : x y z
#
# Youngs Moduli (GPa) = 32.20659 58.20305 85.01035
#
# Poissons Ratio (x) = 0.49444 0.15038
# Poissons Ratio (y) = 0.27360 0.66825
# Poissons Ratio (z) = 0.05697 0.45753
#
# Static dielectric constant tensor:
#      x y z
#    x 3.322900 0.000000 0.000000 
#    y 0.000000 3.390650 0.000000 
#    z 0.000000 0.000000 3.706040 
# 
# 
# High freq. dielectric constant tensor:
#      x y z
#    x 1.722980 0.000000 0.000000 
#    y 0.000000 1.738570 0.000000 
#    z 0.000000 0.000000 1.754030 
# 
# From -- ./inp_files/32814.got.cif
#   From: 2010.03.12/outbox.cif.g09.slc.cpg/sg59_17_cif.got.tgz:32814.got - 2010.04.16 16:29:54.
