data_PCOD8242178
_publ_section_title
;
Structure prediction by ZEFSAII (Michael W. Deem and Ramdas Pophale) SiO2 
 PCOD8242178
Probable space group: P M M N
;
_chemical_formula_sum "Si O2"
_cell_formula_units_Z 64
_cell_length_a 8.942621
_cell_length_b 28.215675
_cell_length_c 12.869697
_cell_angle_alpha 90.000000
_cell_angle_beta 90.000000
_cell_angle_gamma 90.000000
_cell_volume 3247.308816
_symmetry_space_group_name_H-M "P M M N"
_symmetry_group_IT_number 59
_space_group.IT_coordinate_system_code '2'
_symmetry_cell_setting 'orthorhombic'
loop_
_space_group_symop_operation_xyz
x,y,z
1/2-x,1/2-y,z
1/2+x,-y,-z
-x,1/2+y,-z
-x,-y,-z
1/2+x,1/2+y,-z
1/2-x,y,z
x,1/2-y,z
loop_
_atom_site_type_symbol
_atom_site_label
_atom_site_fract_x
_atom_site_fract_y
_atom_site_fract_z
Si Si1 0.073709 0.548240 0.964109
Si Si2 0.926664 0.639995 0.033961
Si Si3 0.577351 0.640895 0.633740
Si Si4 0.427847 0.302920 0.165924
Si Si5 0.926790 0.136346 0.578615
Si Si6 0.423605 0.970492 0.410070
Si Si7 0.079819 0.452923 0.248970
Si Si8 0.425140 0.304742 0.758782
O O1 0.250000 0.545065 0.977930
O O2 0.032652 0.557568 0.844324
O O3 0.000000 0.500000 0.000000
O O4 0.010878 0.589853 0.037249
O O5 0.750000 0.631019 0.028173
O O6 0.972372 0.669572 0.135074
O O7 0.986294 0.668558 0.933844
O O8 0.750000 0.652457 0.610328
O O9 0.515779 0.672143 0.729148
O O10 0.481487 0.654287 0.533357
O O11 0.554703 0.585723 0.660990
O O12 0.250000 0.302073 0.163283
O O13 0.493851 0.250000 0.161938
O O14 0.750000 0.138179 0.583113
O O15 0.987279 0.082862 0.598426
O O16 0.989443 0.171526 0.664197
O O17 0.250000 0.969360 0.438029
O O18 0.500000 0.000000 0.500000
O O19 0.452059 0.995748 0.299060
O O20 0.250000 0.449305 0.206311
O O21 0.250000 0.309940 0.738441
O O22 0.472639 0.250000 0.767421
#
# Coordination Sequence:
#
# PCOD8242178 Si02
#       8
#     8   8   8   8   8   8   8   8
#     4  12  26  41  60  89 125 163 200 242 298 364
#     4  10  20  40  66  93 121 153 198 251 308 365
#     4  10  19  35  60  88 120 160 203 249 301 361
#     4   9  17  32  59  91 118 147 189 244 304 362
#     4  11  24  39  58  88 125 164 208 259 313 366
#     4  10  21  36  57  85 118 157 201 246 296 358
#     4  10  20  38  60  85 119 158 200 249 303 360
#     4  10  23  43  67  92 119 159 213 265 309 365
#
# _framework density 19.708627
#
# number of rings (size 3 to 8) (size 9 to 14) (size 15 to 20)
#    0.000    1.750    2.500    1.875    1.750    4.250 
#    0.000    1.250    0.000    1.875    0.000    0.000 
#    0.000    0.000    0.000    0.000    0.000    0.000 
#
# Total GULP energy -793822.930003 kJ/mol
# GULP energy per Si atom -12403.483281 kJ/mol
# Density = 1.966377 g / cm^3
# Si number density = 19.708627 Si / 1000 Ang^3
#
#
#
# Elastic Constant Matrix: (Units=GPa)
#
#
# Indices 1 2 3 4 5 6 
#
# 1 64.0988 53.0391 50.7677 0.0000 0.0000 0.0000
# 2 53.0391 149.3261 75.9310 0.0000 0.0000 0.0000
# 3 50.7677 75.9310 144.9878 0.0000 0.0000 0.0000
# 4 0.0000 0.0000 0.0000 32.6019 0.0000 0.0000
# 5 0.0000 0.0000 0.0000 0.0000 26.0689 0.0000
# 6 0.0000 0.0000 0.0000 0.0000 0.0000 26.7346
#
#
#
# Elastic Compliance Matrix: (Units=1/GPa)
#
#
# Indices 1 2 3 4 5 6 
#
# 1 0.025040 -0.006046 -0.005602 0.000000 0.000000 0.000000
# 2 -0.006046 0.010587 -0.003428 0.000000 0.000000 0.000000
# 3 -0.005602 -0.003428 0.010654 0.000000 0.000000 0.000000
# 4 0.000000 0.000000 0.000000 0.030673 0.000000 0.000000
# 5 0.000000 0.000000 0.000000 0.000000 0.038360 0.000000
# 6 0.000000 0.000000 0.000000 0.000000 0.000000 0.037405
#
#
# Mechanical properties :
#
#
# Convention : Reuss Voigt Hill
#
# Bulk Modulus (GPa) = 61.99272 79.76535 70.87904
# Shear Modulus (GPa) = 26.56111 28.99273 27.77692
#
# Velocity S-wave (km/s) = 3.67507 3.83961 3.75824
# Velocity P-wave (km/s) = 7.03783 7.75996 7.40770
#
# Compressibility (1/GPa) = 0.01613093
#
# Stress axis : x y z
#
# Youngs Moduli (GPa) = 39.93598 94.45571 93.86459
#
# Poissons Ratio (x) = 0.57104 0.52580
# Poissons Ratio (y) = 0.24143 0.32173
# Poissons Ratio (z) = 0.22371 0.32376
#
# Static dielectric constant tensor:
#      x y z
#    x 3.359020 0.000000 0.000000 
#    y 0.000000 3.856150 0.000000 
#    z 0.000000 0.000000 3.637310 
# 
# 
# High freq. dielectric constant tensor:
#      x y z
#    x 1.742360 0.000000 0.000000 
#    y 0.000000 1.779740 0.000000 
#    z 0.000000 0.000000 1.775090 
# 
# From -- ./inp_files/15039.got.cif
#   From: 2010.03.12/outbox.cif.g09.slc.cpg/sg59_8_cif.got.tgz:15039.got - 2010.04.16 16:29:54.
