data_PCOD8242356
_publ_section_title
;
Structure prediction by ZEFSAII (Michael W. Deem and Ramdas Pophale) SiO2 
 PCOD8242356
Probable space group: P M M N
;
_chemical_formula_sum "Si O2"
_cell_formula_units_Z 56
_cell_length_a 18.521620
_cell_length_b 9.461722
_cell_length_c 18.312292
_cell_angle_alpha 90.000000
_cell_angle_beta 90.000000
_cell_angle_gamma 90.000000
_cell_volume 3209.163605
_symmetry_space_group_name_H-M "P M M N"
_symmetry_group_IT_number 59
_space_group.IT_coordinate_system_code '2'
_symmetry_cell_setting 'orthorhombic'
loop_
_space_group_symop_operation_xyz
x,y,z
1/2-x,1/2-y,z
1/2+x,-y,-z
-x,1/2+y,-z
-x,-y,-z
1/2+x,1/2+y,-z
1/2-x,y,z
x,1/2-y,z
loop_
_atom_site_type_symbol
_atom_site_label
_atom_site_fract_x
_atom_site_fract_y
_atom_site_fract_z
Si Si1 0.833647 0.414421 0.925320
Si Si2 0.329698 0.917316 0.507311
Si Si3 0.836128 0.088043 0.335136
Si Si4 0.666649 0.586348 0.066289
Si Si5 0.332316 0.917998 0.350072
Si Si6 0.585138 0.582851 0.211376
Si Si7 0.421128 0.918106 0.214331
O O1 0.750000 0.443609 0.907836
O O2 0.848318 0.250000 0.939665
O O3 0.859527 0.497765 0.996746
O O4 0.879595 0.472861 0.857337
O O5 0.250000 0.983851 0.505574
O O6 0.322891 0.750000 0.508993
O O7 0.366630 0.961733 0.584346
O O8 0.366042 0.963866 0.429833
O O9 0.750000 0.071244 0.333178
O O10 0.857865 0.250000 0.318788
O O11 0.871449 0.987133 0.276545
O O12 0.750000 0.555428 0.084616
O O13 0.653470 0.750000 0.048563
O O14 0.619946 0.535677 0.134995
O O15 0.250000 0.973018 0.341045
O O16 0.332146 0.750000 0.343683
O O17 0.382179 0.982477 0.286182
O O18 0.590533 0.750000 0.221892
O O19 0.503102 0.527925 0.212500
O O20 0.418213 0.750000 0.216008
#
# Coordination Sequence:
#
# PCOD8242356 Si02
#       7
#     8   8   8   8   8   8   8
#     4   9  17  30  49  71  91 111 142 187 231 263
#     4   7  11  21  39  64  89 112 143 184 225 261
#     4   9  17  30  48  68  89 114 149 192 228 257
#     4   9  18  32  47  62  83 114 150 183 218 266
#     4   8  12  21  41  66  90 117 149 184 222 263
#     4  10  20  32  45  64  93 125 152 178 215 267
#     4   9  17  28  42  64  94 122 147 179 220 265
#
# _framework density 17.450030000000002
#
# number of rings (size 3 to 8) (size 9 to 14) (size 15 to 20)
#    0.000    3.286    0.000    2.571    0.000    3.714 
#    0.000    2.857    0.000    0.000    0.000    1.000 
#    0.000    4.571    0.000    0.000    0.000    0.000 
#
# Total GULP energy -693848.020559 kJ/mol
# GULP energy per Si atom -12390.143224 kJ/mol
# Density = 1.741031 g / cm^3
# Si number density = 17.450030 Si / 1000 Ang^3
#
#
#
# Elastic Constant Matrix: (Units=GPa)
#
#
# Indices 1 2 3 4 5 6 
#
# 1 70.8153 21.4702 69.7864 0.0000 0.0000 0.0000
# 2 21.4702 23.8096 43.1521 0.0000 0.0000 0.0000
# 3 69.7864 43.1521 193.4789 0.0000 0.0000 0.0000
# 4 0.0000 0.0000 0.0000 13.4463 0.0000 0.0000
# 5 0.0000 0.0000 0.0000 0.0000 -2.4978 0.0000
# 6 0.0000 0.0000 0.0000 0.0000 0.0000 13.8806
#
#
#
# Elastic Compliance Matrix: (Units=1/GPa)
#
#
# Indices 1 2 3 4 5 6 
#
# 1 0.023156 -0.009640 -0.006202 0.000000 0.000000 0.000000
# 2 -0.009640 0.074509 -0.013141 0.000000 0.000000 0.000000
# 3 -0.006202 -0.013141 0.010336 0.000000 0.000000 0.000000
# 4 0.000000 0.000000 0.000000 0.074370 0.000000 0.000000
# 5 0.000000 0.000000 0.000000 0.000000 -0.400358 0.000000
# 6 0.000000 0.000000 0.000000 0.000000 0.000000 0.072043
#
#
# Mechanical properties :
#
#
# Convention : Reuss Voigt Hill
#
# Bulk Modulus (GPa) = 19.98595 61.88012 40.93304
# Shear Modulus (GPa) = -70.12718 15.21217 -27.45750
#
# Velocity S-wave (km/s) = -6.34623 2.95576 -3.97103
# Velocity P-wave (km/s) = 6.49780 6.86928 1.57568
#
# Compressibility (1/GPa) = 0.05003514
#
# Stress axis : x y z
#
# Youngs Moduli (GPa) = 43.18535 13.42122 96.74557
#
# Poissons Ratio (x) = 0.12938 0.60003
# Poissons Ratio (y) = 0.41631 1.27131
# Poissons Ratio (z) = 0.26784 0.17636
#
# Static dielectric constant tensor:
#      x y z
#    x 3.172140 0.000000 0.000000 
#    y 0.000000 2.772430 0.000000 
#    z 0.000000 0.000000 3.708350 
# 
# 
# High freq. dielectric constant tensor:
#      x y z
#    x 1.652350 0.000000 0.000000 
#    y 0.000000 1.620900 0.000000 
#    z 0.000000 0.000000 1.699370 
# 
# From -- ./inp_files/23252.got.cif
#   From: 2010.03.12/outbox.cif.g09.slc.cpg/sg59_12_cif.got.tgz:23252.got - 2010.04.16 16:29:54.
