data_PCOD8242206
_publ_section_title
;
Structure prediction by ZEFSAII (Michael W. Deem and Ramdas Pophale) SiO2 
 PCOD8242206
Probable space group: P M M N
;
_chemical_formula_sum "Si O2"
_cell_formula_units_Z 48
_cell_length_a 8.779406
_cell_length_b 31.485555
_cell_length_c 9.147878
_cell_angle_alpha 90.000000
_cell_angle_beta 90.000000
_cell_angle_gamma 90.000000
_cell_volume 2528.697332
_symmetry_space_group_name_H-M "P M M N"
_symmetry_group_IT_number 59
_space_group.IT_coordinate_system_code '2'
_symmetry_cell_setting 'orthorhombic'
loop_
_space_group_symop_operation_xyz
x,y,z
1/2-x,1/2-y,z
1/2+x,-y,-z
-x,1/2+y,-z
-x,-y,-z
1/2+x,1/2+y,-z
1/2-x,y,z
x,1/2-y,z
loop_
_atom_site_type_symbol
_atom_site_label
_atom_site_fract_x
_atom_site_fract_y
_atom_site_fract_z
Si Si1 0.931999 0.329027 0.672915
Si Si2 0.571576 0.997290 0.841637
Si Si3 0.069100 0.913127 0.825931
Si Si4 0.430589 0.831065 0.657568
Si Si5 0.431036 0.750000 0.841584
Si Si6 0.571542 0.089772 0.843360
Si Si7 0.069600 0.250000 0.840340
O O1 0.750000 0.325437 0.680242
O O2 0.992365 0.326837 0.507005
O O3 0.994940 0.373059 0.741706
O O4 0.003845 0.291161 0.762744
O O5 0.750000 0.989188 0.853733
O O6 0.495136 0.957446 0.757750
O O7 0.536961 0.043588 0.769129
O O8 0.500000 0.000000 0.000000
O O9 0.250000 0.915412 0.821707
O O10 0.005677 0.874254 0.729608
O O11 0.005986 0.907164 0.991388
O O12 0.250000 0.832612 0.655419
O O13 0.485776 0.791028 0.751493
O O14 0.250000 0.750000 0.868841
O O15 0.517802 0.750000 0.993149
O O16 0.750000 0.096842 0.857052
O O17 0.250000 0.250000 0.830278
#
# Coordination Sequence:
#
# PCOD8242206 Si02
#       7
#     8   8   8   8   4   8   4
#     4  10  19  36  59  79 100 135 174 211 254 304
#     4   9  16  28  46  71  99 132 171 213 255 298
#     4   9  16  29  47  73 104 133 166 211 256 299
#     4   9  18  32  56  83 103 127 171 218 255 298
#     4  10  19  36  58  78  98 128 169 212 250 298
#     4   8  15  28  50  74  98 128 169 213 250 287
#     4  12  25  38  52  78 108 134 165 208 256 306
#
# _framework density 18.982106000000002
#
# number of rings (size 3 to 8) (size 9 to 14) (size 15 to 20)
#    0.000    2.667    0.000    3.750    0.000    4.000 
#    0.000   11.667    0.000    0.000    0.000    0.000 
#    0.000    0.000    0.000    0.000    0.000    0.000 
#
# Total GULP energy -594898.020943 kJ/mol
# GULP energy per Si atom -12393.708770 kJ/mol
# Density = 1.893890 g / cm^3
# Si number density = 18.982106 Si / 1000 Ang^3
#
#
#
# Elastic Constant Matrix: (Units=GPa)
#
#
# Indices 1 2 3 4 5 6 
#
# 1 38.3102 37.6024 22.4627 0.0000 0.0000 0.0000
# 2 37.6024 210.9723 85.8274 0.0000 0.0000 0.0000
# 3 22.4627 85.8274 122.8221 0.0000 0.0000 0.0000
# 4 0.0000 0.0000 0.0000 -0.9499 0.0000 0.0000
# 5 0.0000 0.0000 0.0000 0.0000 8.8018 0.0000
# 6 0.0000 0.0000 0.0000 0.0000 0.0000 26.2790
#
#
#
# Elastic Compliance Matrix: (Units=1/GPa)
#
#
# Indices 1 2 3 4 5 6 
#
# 1 0.032233 -0.004676 -0.002627 0.000000 0.000000 0.000000
# 2 -0.004676 0.007301 -0.004247 0.000000 0.000000 0.000000
# 3 -0.002627 -0.004247 0.011590 0.000000 0.000000 0.000000
# 4 0.000000 0.000000 0.000000 -1.052717 0.000000 0.000000
# 5 0.000000 0.000000 0.000000 0.000000 0.113613 0.000000
# 6 0.000000 0.000000 0.000000 0.000000 0.000000 0.038053
#
#
# Mechanical properties :
#
#
# Convention : Reuss Voigt Hill
#
# Bulk Modulus (GPa) = 35.68427 73.76548 54.72488
# Shear Modulus (GPa) = -6.11632 21.90699 7.89534
#
# Velocity S-wave (km/s) = -1.79698 3.40087 2.04166
# Velocity P-wave (km/s) = 3.81237 7.37334 5.86943
#
# Compressibility (1/GPa) = 0.02802355
#
# Stress axis : x y z
#
# Youngs Moduli (GPa) = 31.02410 136.96661 86.28167
#
# Poissons Ratio (x) = 0.64048 0.22669
# Poissons Ratio (y) = 0.14507 0.36641
# Poissons Ratio (z) = 0.08151 0.58166
#
# Static dielectric constant tensor:
#      x y z
#    x 3.153870 0.000000 0.000000 
#    y 0.000000 4.143820 0.000000 
#    z 0.000000 0.000000 3.495350 
# 
# 
# High freq. dielectric constant tensor:
#      x y z
#    x 1.695590 0.000000 0.000000 
#    y 0.000000 1.766190 0.000000 
#    z 0.000000 0.000000 1.716680 
# 
# From -- ./inp_files/6442.got.cif
#   From: 2010.03.12/outbox.cif.g09.slc.cpg/sg59_4_cif.got.tgz:6442.got - 2010.04.16 16:29:54.
