data_PCOD8242472
_publ_section_title
;
Structure prediction by ZEFSAII (Michael W. Deem and Ramdas Pophale) SiO2 
 PCOD8242472
Probable space group: P M M N
;
_chemical_formula_sum "Si O2"
_cell_formula_units_Z 48
_cell_length_a 9.347547
_cell_length_b 18.477627
_cell_length_c 15.471149
_cell_angle_alpha 90.000000
_cell_angle_beta 90.000000
_cell_angle_gamma 90.000000
_cell_volume 2672.184387
_symmetry_space_group_name_H-M "P M M N"
_symmetry_group_IT_number 59
_space_group.IT_coordinate_system_code '2'
_symmetry_cell_setting 'orthorhombic'
loop_
_space_group_symop_operation_xyz
x,y,z
1/2-x,1/2-y,z
1/2+x,-y,-z
-x,1/2+y,-z
-x,-y,-z
1/2+x,1/2+y,-z
1/2-x,y,z
x,1/2-y,z
loop_
_atom_site_type_symbol
_atom_site_label
_atom_site_fract_x
_atom_site_fract_y
_atom_site_fract_z
Si Si1 0.082978 0.166711 0.255978
Si Si2 0.588214 0.836035 0.230682
Si Si3 0.084821 0.421177 0.089200
Si Si4 0.089026 0.836123 0.391717
Si Si5 0.089093 0.835891 0.582042
Si Si6 0.583950 0.410881 0.918718
O O1 0.250000 0.158178 0.270792
O O2 0.038943 0.250000 0.240583
O O3 0.031446 0.121336 0.173518
O O4 0.009888 0.133112 0.341625
O O5 0.750000 0.865897 0.223707
O O6 0.587389 0.750000 0.230568
O O7 0.518758 0.866646 0.319350
O O8 0.494697 0.862075 0.150913
O O9 0.250000 0.403396 0.067241
O O10 0.063151 0.505786 0.107016
O O11 0.986858 0.394208 0.010956
O O12 0.250000 0.863976 0.371997
O O13 0.088878 0.750000 0.390293
O O14 0.039040 0.863485 0.486980
O O15 0.250000 0.862199 0.599790
O O16 0.080044 0.750000 0.582890
O O17 0.750000 0.389095 0.922749
#
# Coordination Sequence:
#
# PCOD8242472 Si02
#       6
#     8   8   8   8   8   8
#     4   9  17  29  47  71  97 124 153 188 231 276
#     4  10  20  32  48  72  99 124 153 195 242 283
#     4   9  19  35  51  69  95 126 160 195 234 282
#     4   8  14  26  44  66  94 126 156 187 227 276
#     4   8  14  25  42  66  96 126 154 187 227 271
#     4  10  20  34  52  70  91 124 162 198 235 281
#
# _framework density 17.962831000000001
#
# number of rings (size 3 to 8) (size 9 to 14) (size 15 to 20)
#    0.000    3.000    0.000    2.000    0.000    3.667 
#    0.000    5.000    0.000    1.000    0.000    0.000 
#    0.000    0.000    0.000    0.000    0.000    0.000 
#
# Total GULP energy -595052.025986 kJ/mol
# GULP energy per Si atom -12396.917208 kJ/mol
# Density = 1.792195 g / cm^3
# Si number density = 17.962831 Si / 1000 Ang^3
#
#
#
# Elastic Constant Matrix: (Units=GPa)
#
#
# Indices 1 2 3 4 5 6 
#
# 1 106.7100 20.7512 83.6664 0.0000 0.0000 0.0000
# 2 20.7512 16.6390 27.1746 0.0000 0.0000 0.0000
# 3 83.6664 27.1746 154.1549 0.0000 0.0000 0.0000
# 4 0.0000 0.0000 0.0000 0.0348 0.0000 0.0000
# 5 0.0000 0.0000 0.0000 0.0000 42.3148 0.0000
# 6 0.0000 0.0000 0.0000 0.0000 0.0000 17.6602
#
#
#
# Elastic Compliance Matrix: (Units=1/GPa)
#
#
# Indices 1 2 3 4 5 6 
#
# 1 0.017164 -0.008695 -0.007783 0.000000 0.000000 0.000000
# 2 -0.008695 0.088803 -0.010935 0.000000 0.000000 0.000000
# 3 -0.007783 -0.010935 0.012639 0.000000 0.000000 0.000000
# 4 0.000000 0.000000 0.000000 28.702582 0.000000 0.000000
# 5 0.000000 0.000000 0.000000 0.000000 0.023632 0.000000
# 6 0.000000 0.000000 0.000000 0.000000 0.000000 0.056624
#
#
# Mechanical properties :
#
#
# Convention : Reuss Voigt Hill
#
# Bulk Modulus (GPa) = 15.67906 60.07650 37.87778
# Shear Modulus (GPa) = 0.17255 21.72942 10.95098
#
# Velocity S-wave (km/s) = 0.31027 3.48183 2.47178
# Velocity P-wave (km/s) = 2.97925 7.04852 5.41099
#
# Compressibility (1/GPa) = 0.06377931
#
# Stress axis : x y z
#
# Youngs Moduli (GPa) = 58.25993 11.26092 79.12154
#
# Poissons Ratio (x) = 0.09792 0.61581
# Poissons Ratio (y) = 0.50659 0.86518
# Poissons Ratio (z) = 0.45344 0.12314
#
# Static dielectric constant tensor:
#      x y z
#    x 3.490590 0.000000 0.000000 
#    y 0.000000 2.914220 0.000000 
#    z 0.000000 0.000000 3.672080 
# 
# 
# High freq. dielectric constant tensor:
#      x y z
#    x 1.698300 0.000000 0.000000 
#    y 0.000000 1.647140 0.000000 
#    z 0.000000 0.000000 1.711140 
# 
# From -- ./inp_files/14370.got.cif
#   From: 2010.03.12/outbox.cif.g09.slc.cpg/sg59_8_cif.got.tgz:14370.got - 2010.04.16 16:29:54.
