data_PCOD8242032
_publ_section_title
;
Structure prediction by ZEFSAII (Michael W. Deem and Ramdas Pophale) SiO2 
 PCOD8242032
Probable space group: P M M N
;
_chemical_formula_sum "Si O2"
_cell_formula_units_Z 64
_cell_length_a 8.901793
_cell_length_b 16.273420
_cell_length_c 22.119389
_cell_angle_alpha 90.000000
_cell_angle_beta 90.000000
_cell_angle_gamma 90.000000
_cell_volume 3204.272560
_symmetry_space_group_name_H-M "P M M N"
_symmetry_group_IT_number 59
_space_group.IT_coordinate_system_code '2'
_symmetry_cell_setting 'orthorhombic'
loop_
_space_group_symop_operation_xyz
x,y,z
1/2-x,1/2-y,z
1/2+x,-y,-z
-x,1/2+y,-z
-x,-y,-z
1/2+x,1/2+y,-z
1/2-x,y,z
x,1/2-y,z
loop_
_atom_site_type_symbol
_atom_site_label
_atom_site_fract_x
_atom_site_fract_y
_atom_site_fract_z
Si Si1 0.917143 0.154356 0.383485
Si Si2 0.425538 0.341392 0.138891
Si Si3 0.571000 0.497864 0.934560
Si Si4 0.926585 0.916901 0.255770
Si Si5 0.426938 0.343615 0.867944
Si Si6 0.427515 0.412515 0.498734
Si Si7 0.427554 0.900985 0.745959
Si Si8 0.928727 0.658847 0.376320
O O1 0.750000 0.117802 0.396263
O O2 0.906256 0.250000 0.372618
O O3 0.985052 0.116156 0.322057
O O4 0.024792 0.136673 0.439419
O O5 0.250000 0.352945 0.147330
O O6 0.460505 0.250000 0.110432
O O7 0.486279 0.418203 0.098825
O O8 0.498713 0.341218 0.205236
O O9 0.750000 0.496727 0.938687
O O10 0.517046 0.412998 0.904109
O O11 0.500000 0.500000 0.000000
O O12 0.750000 0.917760 0.265492
O O13 0.969414 0.853194 0.202857
O O14 0.998417 0.893013 0.320548
O O15 0.980648 0.007246 0.236571
O O16 0.250000 0.358628 0.878536
O O17 0.470581 0.250000 0.887620
O O18 0.500000 0.500000 0.500000
O O19 0.250000 0.418988 0.499454
O O20 0.491084 0.369194 0.558912
O O21 0.250000 0.887871 0.748811
O O22 0.750000 0.653346 0.377174
O O23 0.985838 0.750000 0.364881
#
# Coordination Sequence:
#
# PCOD8242032 Si02
#       8
#     8   8   8   8   8   8   8   8
#     4  10  21  36  54  80 114 149 188 239 297 353
#     4  10  22  40  61  87 120 157 196 244 301 354
#     4  11  24  42  64  90 124 161 200 246 296 353
#     4   9  16  29  53  84 115 145 184 237 291 344
#     4  10  20  36  61  92 124 159 200 246 298 356
#     4  11  22  36  54  76 106 146 193 244 297 355
#     4  10  19  34  58  86 116 151 194 243 293 350
#     4   9  17  30  50  77 106 138 183 237 287 340
#
# _framework density 19.973331999999999
#
# number of rings (size 3 to 8) (size 9 to 14) (size 15 to 20)
#    0.000    2.000    1.250    2.625    0.000    6.750 
#    0.000    1.250    0.000    0.750    0.000    0.000 
#    0.000    0.000    0.000    0.000    0.000    0.000 
#
# Total GULP energy -793280.985526 kJ/mol
# GULP energy per Si atom -12395.015399 kJ/mol
# Density = 1.992787 g / cm^3
# Si number density = 19.973332 Si / 1000 Ang^3
#
#
#
# Elastic Constant Matrix: (Units=GPa)
#
#
# Indices 1 2 3 4 5 6 
#
# 1 41.4814 28.7493 36.2201 0.0000 0.0000 0.0000
# 2 28.7493 132.8254 63.1234 0.0000 0.0000 0.0000
# 3 36.2201 63.1234 135.1409 0.0000 0.0000 0.0000
# 4 0.0000 0.0000 0.0000 30.3224 0.0000 0.0000
# 5 0.0000 0.0000 0.0000 0.0000 29.8057 0.0000
# 6 0.0000 0.0000 0.0000 0.0000 0.0000 27.8006
#
#
#
# Elastic Compliance Matrix: (Units=1/GPa)
#
#
# Indices 1 2 3 4 5 6 
#
# 1 0.032874 -0.003764 -0.007053 0.000000 0.000000 0.000000
# 2 -0.003764 0.010108 -0.003712 0.000000 0.000000 0.000000
# 3 -0.007053 -0.003712 0.011024 0.000000 0.000000 0.000000
# 4 0.000000 0.000000 0.000000 0.032979 0.000000 0.000000
# 5 0.000000 0.000000 0.000000 0.000000 0.033551 0.000000
# 6 0.000000 0.000000 0.000000 0.000000 0.000000 0.035970
#
#
# Mechanical properties :
#
#
# Convention : Reuss Voigt Hill
#
# Bulk Modulus (GPa) = 40.08381 62.84814 51.46597
# Shear Modulus (GPa) = 25.78924 29.67606 27.73265
#
# Velocity S-wave (km/s) = 3.59720 3.85877 3.73028
# Velocity P-wave (km/s) = 6.11272 7.16853 6.66158
#
# Compressibility (1/GPa) = 0.02494773
#
# Stress axis : x y z
#
# Youngs Moduli (GPa) = 30.41925 98.93543 90.71091
#
# Poissons Ratio (x) = 0.37236 0.63977
# Poissons Ratio (y) = 0.11449 0.33676
# Poissons Ratio (z) = 0.21454 0.36730
#
# Static dielectric constant tensor:
#      x y z
#    x 3.201380 0.000000 0.000000 
#    y 0.000000 3.932070 0.000000 
#    z 0.000000 0.000000 3.557120 
# 
# 
# High freq. dielectric constant tensor:
#      x y z
#    x 1.740120 0.000000 0.000000 
#    y 0.000000 1.796540 0.000000 
#    z 0.000000 0.000000 1.787510 
# 
# From -- ./inp_files/29585.got.cif
#   From: 2010.03.12/outbox.cif.g09.slc.cpg/sg59_15_cif.got.tgz:29585.got - 2010.04.16 16:29:54.
