data_PCOD8242646
_publ_section_title
;
Structure prediction by ZEFSAII (Michael W. Deem and Ramdas Pophale) SiO2 
 PCOD8242646
Probable space group: P M M N
;
_chemical_formula_sum "Si O2"
_cell_formula_units_Z 40
_cell_length_a 9.537022
_cell_length_b 9.156815
_cell_length_c 25.931269
_cell_angle_alpha 90.000000
_cell_angle_beta 90.000000
_cell_angle_gamma 90.000000
_cell_volume 2264.545207
_symmetry_space_group_name_H-M "P M M N"
_symmetry_group_IT_number 59
_space_group.IT_coordinate_system_code '2'
_symmetry_cell_setting 'orthorhombic'
loop_
_space_group_symop_operation_xyz
x,y,z
1/2-x,1/2-y,z
1/2+x,-y,-z
-x,1/2+y,-z
-x,-y,-z
1/2+x,1/2+y,-z
1/2-x,y,z
x,1/2-y,z
loop_
_atom_site_type_symbol
_atom_site_label
_atom_site_fract_x
_atom_site_fract_y
_atom_site_fract_z
Si Si1 0.414502 0.079230 0.455737
Si Si2 0.417413 0.414106 0.254202
Si Si3 0.916426 0.085609 0.646783
Si Si4 0.409077 0.577703 0.042540
Si Si5 0.917006 0.412463 0.843477
O O1 0.250000 0.052684 0.465045
O O2 0.451066 0.250000 0.454938
O O3 0.500000 0.000000 0.500000
O O4 0.464865 0.009373 0.401989
O O5 0.250000 0.415248 0.254547
O O6 0.474881 0.250000 0.259729
O O7 0.476204 0.509655 0.301664
O O8 0.475529 0.480023 0.200554
O O9 0.750000 0.090805 0.649575
O O10 0.977184 0.250000 0.642458
O O11 0.250000 0.524369 0.035539
O O12 0.420214 0.750000 0.035418
O O13 0.464819 0.533707 0.099723
O O14 0.500000 0.500000 0.000000
O O15 0.750000 0.407277 0.842431
O O16 0.975387 0.250000 0.832320
#
# Coordination Sequence:
#
# PCOD8242646 Si02
#       5
#     8   8   8   8   8
#     4  10  20  33  49  70  96 125 158 195 232 272
#     4   9  15  22  35  58  86 113 143 181 224 269
#     4   9  16  26  41  61  87 119 151 184 226 273
#     4   9  18  31  46  66  92 121 154 191 229 271
#     4   8  14  25  39  56  82 114 145 179 221 268
#
# _framework density 17.663592000000001
#
# number of rings (size 3 to 8) (size 9 to 14) (size 15 to 20)
#    0.000    3.000    0.000    3.000    0.000    7.200 
#    0.000    2.000    0.000    0.000    0.000    1.400 
#    0.000    4.800    0.000    0.000    0.000    0.000 
#
# Total GULP energy -495841.902927 kJ/mol
# GULP energy per Si atom -12396.047573 kJ/mol
# Density = 1.762339 g / cm^3
# Si number density = 17.663592 Si / 1000 Ang^3
#
#
#
# Elastic Constant Matrix: (Units=GPa)
#
#
# Indices 1 2 3 4 5 6 
#
# 1 21.7971 27.0818 35.1121 0.0000 0.0000 0.0000
# 2 27.0818 142.1438 98.8661 0.0000 0.0000 0.0000
# 3 35.1121 98.8661 188.0923 0.0000 0.0000 0.0000
# 4 0.0000 0.0000 0.0000 42.1118 0.0000 0.0000
# 5 0.0000 0.0000 0.0000 0.0000 20.9803 0.0000
# 6 0.0000 0.0000 0.0000 0.0000 0.0000 17.2133
#
#
#
# Elastic Compliance Matrix: (Units=1/GPa)
#
#
# Indices 1 2 3 4 5 6 
#
# 1 0.069360 -0.006635 -0.009460 0.000000 0.000000 0.000000
# 2 -0.006635 0.011724 -0.004924 0.000000 0.000000 0.000000
# 3 -0.009460 -0.004924 0.009671 0.000000 0.000000 0.000000
# 4 0.000000 0.000000 0.000000 0.023746 0.000000 0.000000
# 5 0.000000 0.000000 0.000000 0.000000 0.047664 0.000000
# 6 0.000000 0.000000 0.000000 0.000000 0.000000 0.058095
#
#
# Mechanical properties :
#
#
# Convention : Reuss Voigt Hill
#
# Bulk Modulus (GPa) = 20.52675 74.90593 47.71634
# Shear Modulus (GPa) = 17.95094 28.79262 23.37178
#
# Velocity S-wave (km/s) = 3.19135 4.04177 3.64147
# Velocity P-wave (km/s) = 5.02253 8.01750 6.68977
#
# Compressibility (1/GPa) = 0.04871693
#
# Stress axis : x y z
#
# Youngs Moduli (GPa) = 14.41744 85.29561 103.40539
#
# Poissons Ratio (x) = 0.56592 0.97826
# Poissons Ratio (y) = 0.09566 0.50915
# Poissons Ratio (z) = 0.13640 0.41998
#
# Static dielectric constant tensor:
#      x y z
#    x 2.653380 0.000000 0.000000 
#    y 0.000000 3.558940 0.000000 
#    z 0.000000 0.000000 3.814520 
# 
# 
# High freq. dielectric constant tensor:
#      x y z
#    x 1.604040 0.000000 0.000000 
#    y 0.000000 1.693770 0.000000 
#    z 0.000000 0.000000 1.703660 
# 
# From -- ./inp_files/28724.got.cif
#   From: 2010.03.12/outbox.cif.g09.slc.cpg/sg59_15_cif.got.tgz:28724.got - 2010.04.16 16:29:54.
