data_PCOD8242670
_publ_section_title
;
Structure prediction by ZEFSAII (Michael W. Deem and Ramdas Pophale) SiO2 
 PCOD8242670
Probable space group: P M M N
;
_chemical_formula_sum "Si O2"
_cell_formula_units_Z 56
_cell_length_a 23.058147
_cell_length_b 9.296025
_cell_length_c 15.158236
_cell_angle_alpha 90.000000
_cell_angle_beta 90.000000
_cell_angle_gamma 90.000000
_cell_volume 3249.154410
_symmetry_space_group_name_H-M "P M M N"
_symmetry_group_IT_number 59
_space_group.IT_coordinate_system_code '2'
_symmetry_cell_setting 'orthorhombic'
loop_
_space_group_symop_operation_xyz
x,y,z
1/2-x,1/2-y,z
1/2+x,-y,-z
-x,1/2+y,-z
-x,-y,-z
1/2+x,1/2+y,-z
1/2-x,y,z
x,1/2-y,z
loop_
_atom_site_type_symbol
_atom_site_label
_atom_site_fract_x
_atom_site_fract_y
_atom_site_fract_z
Si Si1 0.181272 0.091096 0.025423
Si Si2 0.815739 0.580080 0.170510
Si Si3 0.378202 0.416235 0.349854
Si Si4 0.683084 0.085657 0.500783
Si Si5 0.621848 0.084263 0.321449
Si Si6 0.681768 0.416914 0.807273
Si Si7 0.995565 0.415343 0.409617
O O1 0.250000 0.101336 0.025545
O O2 0.155734 0.250000 0.046685
O O3 0.159821 0.978955 0.099081
O O4 0.162019 0.039627 0.928001
O O5 0.750000 0.523611 0.185628
O O6 0.817648 0.750000 0.184119
O O7 0.859647 0.506907 0.237481
O O8 0.359959 0.250000 0.341478
O O9 0.354332 0.477310 0.441452
O O10 0.352321 0.503386 0.269122
O O11 0.447456 0.434903 0.349907
O O12 0.750000 0.050907 0.516785
O O13 0.668567 0.250000 0.528061
O O14 0.668421 0.059783 0.398807
O O15 0.619210 0.250000 0.292792
O O16 0.558928 0.028498 0.353027
O O17 0.750000 0.443126 0.793221
O O18 0.666029 0.250000 0.804346
O O19 0.985328 0.250000 0.435911
O O20 0.000000 0.500000 0.500000
#
# Coordination Sequence:
#
# PCOD8242670 Si02
#       7
#     8   8   8   8   8   8   8
#     4   8  15  30  51  74 103 136 166 201 247 298
#     4   9  18  32  51  78 109 137 166 203 250 303
#     4  11  22  34  51  74  99 131 170 212 255 298
#     4  10  20  33  49  71 101 135 166 201 250 303
#     4  10  20  34  52  73 100 134 170 210 253 298
#     4  10  20  33  51  77 106 135 167 204 250 304
#     4  10  21  37  55  73  95 129 176 219 254 295
#
# _framework density 17.235254000000001
#
# number of rings (size 3 to 8) (size 9 to 14) (size 15 to 20)
#    0.000    2.286    1.429    2.571    0.000    6.000 
#    0.000    1.429    0.000    0.857    0.000    0.000 
#    0.000    0.000    0.000    0.000    0.000    0.000 
#
# Total GULP energy -694426.748361 kJ/mol
# GULP energy per Si atom -12400.477649 kJ/mol
# Density = 1.719603 g / cm^3
# Si number density = 17.235254 Si / 1000 Ang^3
#
#
#
# Elastic Constant Matrix: (Units=GPa)
#
#
# Indices 1 2 3 4 5 6 
#
# 1 65.4893 37.6477 31.8417 0.0000 0.0000 0.0000
# 2 37.6477 88.9582 61.3290 0.0000 0.0000 0.0000
# 3 31.8417 61.3290 110.0675 0.0000 0.0000 0.0000
# 4 0.0000 0.0000 0.0000 33.9907 0.0000 0.0000
# 5 0.0000 0.0000 0.0000 0.0000 12.9845 0.0000
# 6 0.0000 0.0000 0.0000 0.0000 0.0000 23.1230
#
#
#
# Elastic Compliance Matrix: (Units=1/GPa)
#
#
# Indices 1 2 3 4 5 6 
#
# 1 0.020389 -0.007408 -0.001771 0.000000 0.000000 0.000000
# 2 -0.007408 0.020944 -0.009527 0.000000 0.000000 0.000000
# 3 -0.001771 -0.009527 0.014906 0.000000 0.000000 0.000000
# 4 0.000000 0.000000 0.000000 0.029420 0.000000 0.000000
# 5 0.000000 0.000000 0.000000 0.000000 0.077015 0.000000
# 6 0.000000 0.000000 0.000000 0.000000 0.000000 0.043247
#
#
# Mechanical properties :
#
#
# Convention : Reuss Voigt Hill
#
# Bulk Modulus (GPa) = 53.11228 58.46131 55.78679
# Shear Modulus (GPa) = 20.03133 22.93276 21.48204
#
# Velocity S-wave (km/s) = 3.41285 3.65166 3.53427
# Velocity P-wave (km/s) = 6.81271 7.19533 7.00663
#
# Compressibility (1/GPa) = 0.01882804
#
# Stress axis : x y z
#
# Youngs Moduli (GPa) = 49.04529 47.74534 67.08722
#
# Poissons Ratio (x) = 0.35371 0.11879
# Poissons Ratio (y) = 0.36334 0.63914
# Poissons Ratio (z) = 0.08684 0.45487
#
# Static dielectric constant tensor:
#      x y z
#    x 3.212880 0.000000 0.000000 
#    y 0.000000 2.909650 0.000000 
#    z 0.000000 0.000000 3.310460 
# 
# 
# High freq. dielectric constant tensor:
#      x y z
#    x 1.645740 0.000000 0.000000 
#    y 0.000000 1.668200 0.000000 
#    z 0.000000 0.000000 1.667580 
# 
# From -- ./inp_files/20926.got.cif
#   From: 2010.03.12/outbox.cif.g09.slc.cpg/sg59_11_cif.got.tgz:20926.got - 2010.04.16 16:29:54.
