data_PCOD8242942
_publ_section_title
;
Structure prediction by ZEFSAII (Michael W. Deem and Ramdas Pophale) SiO2 
 PCOD8242942
Probable space group: P M M N
;
_chemical_formula_sum "Si O2"
_cell_formula_units_Z 48
_cell_length_a 8.767922
_cell_length_b 15.768824
_cell_length_c 17.046543
_cell_angle_alpha 90.000000
_cell_angle_beta 90.000000
_cell_angle_gamma 90.000000
_cell_volume 2356.851947
_symmetry_space_group_name_H-M "P M M N"
_symmetry_group_IT_number 59
_space_group.IT_coordinate_system_code '2'
_symmetry_cell_setting 'orthorhombic'
loop_
_space_group_symop_operation_xyz
x,y,z
1/2-x,1/2-y,z
1/2+x,-y,-z
-x,1/2+y,-z
-x,-y,-z
1/2+x,1/2+y,-z
1/2-x,y,z
x,1/2-y,z
loop_
_atom_site_type_symbol
_atom_site_label
_atom_site_fract_x
_atom_site_fract_y
_atom_site_fract_z
Si Si1 0.568411 0.155908 0.187803
Si Si2 0.925909 0.345202 0.823138
Si Si3 0.421083 0.847324 0.492563
Si Si4 0.425820 0.110069 0.667273
Si Si5 0.072882 0.915138 0.652668
Si Si6 0.569494 0.500962 0.085439
O O1 0.750000 0.149025 0.189856
O O2 0.516441 0.250000 0.159452
O O3 0.504389 0.140768 0.276081
O O4 0.505274 0.082609 0.130269
O O5 0.750000 0.371534 0.830479
O O6 0.951382 0.250000 0.857063
O O7 0.973257 0.342863 0.731994
O O8 0.025716 0.412487 0.870711
O O9 0.250000 0.881593 0.473616
O O10 0.413448 0.750000 0.516277
O O11 0.529121 0.859701 0.418678
O O12 0.498952 0.894925 0.567321
O O13 0.250000 0.132971 0.681620
O O14 0.456832 0.011077 0.676755
O O15 0.250000 0.893826 0.642954
O O16 0.750000 0.497135 0.079505
O O17 0.500000 0.500000 0.000000
#
# Coordination Sequence:
#
# PCOD8242942 Si02
#       6
#     8   8   8   8   8   8
#     4   9  17  33  60  90 118 151 194 242 290 348
#     4  11  24  42  64  89 119 160 209 255 303 360
#     4  10  20  33  51  78 112 152 199 245 290 348
#     4  11  21  35  56  83 116 154 198 248 304 359
#     4   9  17  32  54  82 112 148 196 243 291 350
#     4  11  23  41  65  95 127 159 196 242 300 363
#
# _framework density 20.366149
#
# number of rings (size 3 to 8) (size 9 to 14) (size 15 to 20)
#    0.000    1.833    1.667    3.000    0.000    6.333 
#    0.000    2.500    0.000    1.500    0.000    0.000 
#    0.000    0.000    0.000    0.000    0.000    0.000 
#
# Total GULP energy -595135.404376 kJ/mol
# GULP energy per Si atom -12398.654258 kJ/mol
# Density = 2.031980 g / cm^3
# Si number density = 20.366149 Si / 1000 Ang^3
#
#
#
# Elastic Constant Matrix: (Units=GPa)
#
#
# Indices 1 2 3 4 5 6 
#
# 1 46.7035 33.5551 18.0896 0.0000 0.0000 0.0000
# 2 33.5551 108.3744 54.8130 0.0000 0.0000 0.0000
# 3 18.0896 54.8130 132.6495 0.0000 0.0000 0.0000
# 4 0.0000 0.0000 0.0000 22.9249 0.0000 0.0000
# 5 0.0000 0.0000 0.0000 0.0000 28.4437 0.0000
# 6 0.0000 0.0000 0.0000 0.0000 0.0000 22.3746
#
#
#
# Elastic Compliance Matrix: (Units=1/GPa)
#
#
# Indices 1 2 3 4 5 6 
#
# 1 0.027547 -0.008381 -0.000294 0.000000 0.000000 0.000000
# 2 -0.008381 0.014215 -0.004731 0.000000 0.000000 0.000000
# 3 -0.000294 -0.004731 0.009534 0.000000 0.000000 0.000000
# 4 0.000000 0.000000 0.000000 0.043621 0.000000 0.000000
# 5 0.000000 0.000000 0.000000 0.000000 0.035157 0.000000
# 6 0.000000 0.000000 0.000000 0.000000 0.000000 0.044694
#
#
# Mechanical properties :
#
#
# Convention : Reuss Voigt Hill
#
# Bulk Modulus (GPa) = 40.84149 55.62697 48.23423
# Shear Modulus (GPa) = 23.83924 26.83328 25.33626
#
# Velocity S-wave (km/s) = 3.42502 3.63374 3.53092
# Velocity P-wave (km/s) = 5.97814 6.70657 6.35280
#
# Compressibility (1/GPa) = 0.02448490
#
# Stress axis : x y z
#
# Youngs Moduli (GPa) = 36.30215 70.34885 104.89199
#
# Poissons Ratio (x) = 0.58956 0.03079
# Poissons Ratio (y) = 0.30423 0.49624
# Poissons Ratio (z) = 0.01066 0.33282
#
# Static dielectric constant tensor:
#      x y z
#    x 3.422260 0.000000 0.000000 
#    y 0.000000 3.965200 0.000000 
#    z 0.000000 0.000000 3.775800 
# 
# 
# High freq. dielectric constant tensor:
#      x y z
#    x 1.758900 0.000000 0.000000 
#    y 0.000000 1.810100 0.000000 
#    z 0.000000 0.000000 1.801550 
# 
# From -- ./inp_files/25431.got.cif
#   From: 2010.03.12/outbox.cif.g09.slc.cpg/sg59_13_cif.got.tgz:25431.got - 2010.04.16 16:29:54.
