data_PCOD8242537
_publ_section_title
;
Structure prediction by ZEFSAII (Michael W. Deem and Ramdas Pophale) SiO2 
 PCOD8242537
Probable space group: P M M N
;
_chemical_formula_sum "Si O2"
_cell_formula_units_Z 48
_cell_length_a 18.900792
_cell_length_b 8.748274
_cell_length_c 15.386734
_cell_angle_alpha 90.000000
_cell_angle_beta 90.000000
_cell_angle_gamma 90.000000
_cell_volume 2544.185807
_symmetry_space_group_name_H-M "P M M N"
_symmetry_group_IT_number 59
_space_group.IT_coordinate_system_code '2'
_symmetry_cell_setting 'orthorhombic'
loop_
_space_group_symop_operation_xyz
x,y,z
1/2-x,1/2-y,z
1/2+x,-y,-z
-x,1/2+y,-z
-x,-y,-z
1/2+x,1/2+y,-z
1/2-x,y,z
x,1/2-y,z
loop_
_atom_site_type_symbol
_atom_site_label
_atom_site_fract_x
_atom_site_fract_y
_atom_site_fract_z
Si Si1 0.422848 0.068714 0.001411
Si Si2 0.922879 0.930907 0.503345
Si Si3 0.168863 0.073009 0.165247
Si Si4 0.670893 0.931674 0.154743
Si Si5 0.331429 0.571632 0.347189
Si Si6 0.328986 0.431565 0.653022
O O1 0.427441 0.250000 0.997084
O O2 0.381810 0.001409 0.917546
O O3 0.381188 0.016265 0.087442
O O4 0.500000 0.000000 0.000000
O O5 0.928511 0.750000 0.499713
O O6 0.881202 0.998136 0.419834
O O7 0.882146 0.977679 0.590078
O O8 0.000000 0.000000 0.500000
O O9 0.250000 0.046567 0.136549
O O10 0.155682 0.250000 0.187840
O O11 0.149237 0.972872 0.248889
O O12 0.750000 0.994265 0.137269
O O13 0.672290 0.750000 0.148939
O O14 0.645258 0.983683 0.250941
O O15 0.250000 0.528093 0.367259
O O16 0.345516 0.750000 0.360309
O O17 0.250000 0.494947 0.635231
O O18 0.327561 0.250000 0.647889
#
# Coordination Sequence:
#
# PCOD8242537 Si02
#       6
#     8   8   8   8   8   8
#     4  10  20  32  49  76 107 138 169 205 254 309
#     4  11  22  35  52  77 110 145 178 214 261 317
#     4   9  18  34  55  77 102 136 179 222 262 309
#     4   8  14  28  51  75  96 122 163 211 250 289
#     4  10  21  37  57  80 104 134 177 227 276 323
#     4   8  15  29  51  77 100 126 166 213 257 302
#
# _framework density 18.866547000000001
#
# number of rings (size 3 to 8) (size 9 to 14) (size 15 to 20)
#    0.000    2.667    0.000    3.000    0.000    5.667 
#    0.000    1.667    0.000    2.500    0.000    4.667 
#    0.000    0.000    0.000    0.000    0.000    0.000 
#
# Total GULP energy -595133.737845 kJ/mol
# GULP energy per Si atom -12398.619538 kJ/mol
# Density = 1.882361 g / cm^3
# Si number density = 18.866547 Si / 1000 Ang^3
#
#
#
# Elastic Constant Matrix: (Units=GPa)
#
#
# Indices 1 2 3 4 5 6 
#
# 1 144.5755 30.1403 102.2942 0.0000 0.0000 0.0000
# 2 30.1403 35.8812 30.1400 0.0000 0.0000 0.0000
# 3 102.2942 30.1400 155.4788 0.0000 0.0000 0.0000
# 4 0.0000 0.0000 0.0000 17.9594 0.0000 0.0000
# 5 0.0000 0.0000 0.0000 0.0000 18.2058 0.0000
# 6 0.0000 0.0000 0.0000 0.0000 0.0000 30.2875
#
#
#
# Elastic Compliance Matrix: (Units=1/GPa)
#
#
# Indices 1 2 3 4 5 6 
#
# 1 0.013562 -0.004655 -0.008021 0.000000 0.000000 0.000000
# 2 -0.004655 0.034888 -0.003701 0.000000 0.000000 0.000000
# 3 -0.008021 -0.003701 0.012426 0.000000 0.000000 0.000000
# 4 0.000000 0.000000 0.000000 0.055681 0.000000 0.000000
# 5 0.000000 0.000000 0.000000 0.000000 0.054927 0.000000
# 6 0.000000 0.000000 0.000000 0.000000 0.000000 0.033017
#
#
# Mechanical properties :
#
#
# Convention : Reuss Voigt Hill
#
# Bulk Modulus (GPa) = 35.55635 73.45384 54.50510
# Shear Modulus (GPa) = 20.27334 24.84794 22.56064
#
# Velocity S-wave (km/s) = 3.28161 3.63304 3.46179
# Velocity P-wave (km/s) = 5.76592 7.52439 6.70307
#
# Compressibility (1/GPa) = 0.02812437
#
# Stress axis : x y z
#
# Youngs Moduli (GPa) = 73.73416 28.66284 80.47578
#
# Poissons Ratio (x) = 0.13343 0.64546
# Poissons Ratio (y) = 0.34324 0.29780
# Poissons Ratio (z) = 0.59139 0.10607
#
# Static dielectric constant tensor:
#      x y z
#    x 3.618460 0.000000 0.000000 
#    y 0.000000 3.089740 0.000000 
#    z 0.000000 0.000000 3.788710 
# 
# 
# High freq. dielectric constant tensor:
#      x y z
#    x 1.732090 0.000000 0.000000 
#    y 0.000000 1.696770 0.000000 
#    z 0.000000 0.000000 1.749150 
# 
# From -- ./inp_files/20410.got.cif
#   From: 2010.03.12/outbox.cif.g09.slc.cpg/sg59_11_cif.got.tgz:20410.got - 2010.04.16 16:29:54.
