data_PCOD8242230
_publ_section_title
;
Structure prediction by ZEFSAII (Michael W. Deem and Ramdas Pophale) SiO2 
 PCOD8242230
Probable space group: P M M N
;
_chemical_formula_sum "Si O2"
_cell_formula_units_Z 64
_cell_length_a 8.808400
_cell_length_b 18.802589
_cell_length_c 19.880810
_cell_angle_alpha 90.000000
_cell_angle_beta 90.000000
_cell_angle_gamma 90.000000
_cell_volume 3292.674165
_symmetry_space_group_name_H-M "P M M N"
_symmetry_group_IT_number 59
_space_group.IT_coordinate_system_code '2'
_symmetry_cell_setting 'orthorhombic'
loop_
_space_group_symop_operation_xyz
x,y,z
1/2-x,1/2-y,z
1/2+x,-y,-z
-x,1/2+y,-z
-x,-y,-z
1/2+x,1/2+y,-z
1/2-x,y,z
x,1/2-y,z
loop_
_atom_site_type_symbol
_atom_site_label
_atom_site_fract_x
_atom_site_fract_y
_atom_site_fract_z
Si Si1 0.422853 0.833190 0.236334
Si Si2 0.930067 0.830260 0.967581
Si Si3 0.071210 0.575616 0.484424
Si Si4 0.071981 0.075718 0.652635
Si Si5 0.926458 0.167968 0.388028
Si Si6 0.430244 0.443087 0.138959
Si Si7 0.572884 0.097602 0.904627
Si Si8 0.570575 0.564444 0.708799
O O1 0.250000 0.855456 0.253751
O O2 0.448105 0.750000 0.242749
O O3 0.536371 0.871221 0.286888
O O4 0.462819 0.856915 0.161397
O O5 0.750000 0.828411 0.966273
O O6 0.995687 0.750000 0.961680
O O7 0.992465 0.877199 0.905205
O O8 0.980260 0.866580 0.036155
O O9 0.250000 0.567232 0.477192
O O10 0.026002 0.630279 0.542777
O O11 0.000000 0.500000 0.500000
O O12 0.003622 0.606242 0.415062
O O13 0.250000 0.069535 0.641853
O O14 0.007773 0.997751 0.666886
O O15 0.750000 0.155515 0.371997
O O16 0.967263 0.250000 0.396097
O O17 0.024660 0.138277 0.325926
O O18 0.250000 0.443099 0.140682
O O19 0.486523 0.517133 0.106363
O O20 0.492020 0.435735 0.214814
O O21 0.750000 0.099113 0.922868
O O22 0.750000 0.553197 0.707215
#
# Coordination Sequence:
#
# PCOD8242230 Si02
#       8
#     8   8   8   8   8   8   8   8
#     4  10  21  38  60  85 115 153 195 241 296 353
#     4  10  21  36  54  81 118 154 188 235 296 354
#     4  11  22  38  63  90 119 159 201 244 293 348
#     4  12  24  38  59  88 122 157 194 243 299 356
#     4  10  23  42  62  89 125 159 195 244 303 359
#     4   9  19  36  59  84 112 149 196 245 291 347
#     4  10  19  36  60  84 111 149 196 242 290 350
#     4  11  21  38  64  89 116 154 204 252 295 352
#
# _framework density 19.437086999999998
#
# number of rings (size 3 to 8) (size 9 to 14) (size 15 to 20)
#    0.000    1.625    2.500    2.625    0.000    3.250 
#    0.000    3.750    0.000    0.000    0.000    0.000 
#    0.000    0.000    0.000    0.000    0.000    0.000 
#
# Total GULP energy -793855.045483 kJ/mol
# GULP energy per Si atom -12403.985086 kJ/mol
# Density = 1.939285 g / cm^3
# Si number density = 19.437087 Si / 1000 Ang^3
#
#
#
# Elastic Constant Matrix: (Units=GPa)
#
#
# Indices 1 2 3 4 5 6 
#
# 1 56.6021 32.0776 32.5273 0.0000 0.0000 0.0000
# 2 32.0776 117.8540 46.5797 0.0000 0.0000 0.0000
# 3 32.5273 46.5797 99.6030 0.0000 0.0000 0.0000
# 4 0.0000 0.0000 0.0000 34.7177 0.0000 0.0000
# 5 0.0000 0.0000 0.0000 0.0000 26.3357 0.0000
# 6 0.0000 0.0000 0.0000 0.0000 0.0000 27.3274
#
#
#
# Elastic Compliance Matrix: (Units=1/GPa)
#
#
# Indices 1 2 3 4 5 6 
#
# 1 0.023246 -0.004081 -0.005683 0.000000 0.000000 0.000000
# 2 -0.004081 0.011125 -0.003870 0.000000 0.000000 0.000000
# 3 -0.005683 -0.003870 0.013706 0.000000 0.000000 0.000000
# 4 0.000000 0.000000 0.000000 0.028804 0.000000 0.000000
# 5 0.000000 0.000000 0.000000 0.000000 0.037971 0.000000
# 6 0.000000 0.000000 0.000000 0.000000 0.000000 0.036593
#
#
# Mechanical properties :
#
#
# Convention : Reuss Voigt Hill
#
# Bulk Modulus (GPa) = 48.05658 55.15870 51.60764
# Shear Modulus (GPa) = 26.93250 28.53445 27.73347
#
# Velocity S-wave (km/s) = 3.72644 3.83566 3.78144
# Velocity P-wave (km/s) = 6.57974 6.93225 6.75829
#
# Compressibility (1/GPa) = 0.02080880
#
# Stress axis : x y z
#
# Youngs Moduli (GPa) = 43.01862 89.88407 72.96297
#
# Poissons Ratio (x) = 0.36682 0.41464
# Poissons Ratio (y) = 0.17556 0.28238
# Poissons Ratio (z) = 0.24447 0.34786
#
# Static dielectric constant tensor:
#      x y z
#    x 3.370080 0.000000 0.000000 
#    y 0.000000 3.716370 0.000000 
#    z 0.000000 0.000000 3.801680 
# 
# 
# High freq. dielectric constant tensor:
#      x y z
#    x 1.739910 0.000000 0.000000 
#    y 0.000000 1.762850 0.000000 
#    z 0.000000 0.000000 1.771050 
# 
# From -- ./inp_files/29470.got.cif
#   From: 2010.03.12/outbox.cif.g09.slc.cpg/sg59_15_cif.got.tgz:29470.got - 2010.04.16 16:29:54.
