data_PCOD8242311
_publ_section_title
;
Structure prediction by ZEFSAII (Michael W. Deem and Ramdas Pophale) SiO2 
 PCOD8242311
Probable space group: P M M N
;
_chemical_formula_sum "Si O2"
_cell_formula_units_Z 56
_cell_length_a 9.039741
_cell_length_b 19.312072
_cell_length_c 20.760956
_cell_angle_alpha 90.000000
_cell_angle_beta 90.000000
_cell_angle_gamma 90.000000
_cell_volume 3624.367334
_symmetry_space_group_name_H-M "P M M N"
_symmetry_group_IT_number 59
_space_group.IT_coordinate_system_code '2'
_symmetry_cell_setting 'orthorhombic'
loop_
_space_group_symop_operation_xyz
x,y,z
1/2-x,1/2-y,z
1/2+x,-y,-z
-x,1/2+y,-z
-x,-y,-z
1/2+x,1/2+y,-z
1/2-x,y,z
x,1/2-y,z
loop_
_atom_site_type_symbol
_atom_site_label
_atom_site_fract_x
_atom_site_fract_y
_atom_site_fract_z
Si Si1 0.578454 0.057849 0.180394
Si Si2 0.919033 0.672306 0.881113
Si Si3 0.421236 0.968315 0.437763
Si Si4 0.582572 0.326427 0.507658
Si Si5 0.081297 0.465032 0.059010
Si Si6 0.079152 0.328639 0.376897
Si Si7 0.578432 0.045557 0.324904
O O1 0.750000 0.060078 0.162986
O O2 0.515258 0.137182 0.176309
O O3 0.494407 0.010830 0.126678
O O4 0.551927 0.024519 0.250603
O O5 0.750000 0.675697 0.857097
O O6 0.976236 0.750000 0.898001
O O7 0.930573 0.619911 0.943190
O O8 0.250000 0.990291 0.439536
O O9 0.440974 0.884952 0.438195
O O10 0.500000 0.000000 0.500000
O O11 0.491630 0.993820 0.371396
O O12 0.750000 0.331356 0.480001
O O13 0.554237 0.250000 0.537813
O O14 0.468807 0.340874 0.450385
O O15 0.250000 0.490203 0.058473
O O16 0.000000 0.500000 0.000000
O O17 0.250000 0.349492 0.371026
O O18 0.051086 0.250000 0.355372
O O19 0.981025 0.376534 0.331392
O O20 0.750000 0.043259 0.343559
#
# Coordination Sequence:
#
# PCOD8242311 Si02
#       7
#     8   8   8   8   8   8   8
#     4   9  19  32  46  67  95 127 164 198 234 278
#     4   8  16  30  47  69  99 133 164 195 233 277
#     4  11  21  32  50  71  93 121 157 203 247 293
#     4   9  18  33  50  67  88 116 152 197 250 300
#     4   9  17  30  50  72  97 127 159 196 233 276
#     4  10  20  31  45  65  89 122 162 201 241 288
#     4  11  22  34  47  66  96 131 164 198 240 289
#
# _framework density 15.450972
#
# number of rings (size 3 to 8) (size 9 to 14) (size 15 to 20)
#    0.857    1.571    1.429    1.714    0.000    4.571 
#    0.000    2.857    0.000    0.000    0.000    1.000 
#    0.000    1.143    0.000    0.000    0.000    0.000 
#
# Total GULP energy -693809.889148 kJ/mol
# GULP energy per Si atom -12389.462306 kJ/mol
# Density = 1.541581 g / cm^3
# Si number density = 15.450972 Si / 1000 Ang^3
#
#
#
# Elastic Constant Matrix: (Units=GPa)
#
#
# Indices 1 2 3 4 5 6 
#
# 1 108.8093 38.5677 59.7195 0.0000 0.0000 0.0000
# 2 38.5677 63.0358 45.3125 0.0000 0.0000 0.0000
# 3 59.7195 45.3125 97.2275 0.0000 0.0000 0.0000
# 4 0.0000 0.0000 0.0000 20.1743 0.0000 0.0000
# 5 0.0000 0.0000 0.0000 0.0000 26.5775 0.0000
# 6 0.0000 0.0000 0.0000 0.0000 0.0000 21.2187
#
#
#
# Elastic Compliance Matrix: (Units=1/GPa)
#
#
# Indices 1 2 3 4 5 6 
#
# 1 0.014414 -0.003691 -0.007133 0.000000 0.000000 0.000000
# 2 -0.003691 0.024802 -0.009291 0.000000 0.000000 0.000000
# 3 -0.007133 -0.009291 0.018996 0.000000 0.000000 0.000000
# 4 0.000000 0.000000 0.000000 0.049568 0.000000 0.000000
# 5 0.000000 0.000000 0.000000 0.000000 0.037626 0.000000
# 6 0.000000 0.000000 0.000000 0.000000 0.000000 0.047128
#
#
# Mechanical properties :
#
#
# Convention : Reuss Voigt Hill
#
# Bulk Modulus (GPa) = 55.61576 61.80801 58.71189
# Shear Modulus (GPa) = 20.94170 21.95897 21.45033
#
# Velocity S-wave (km/s) = 3.68552 3.77397 3.73001
# Velocity P-wave (km/s) = 7.36097 7.68635 7.52542
#
# Compressibility (1/GPa) = 0.01798051
#
# Stress axis : x y z
#
# Youngs Moduli (GPa) = 69.37858 40.32014 52.64138
#
# Poissons Ratio (x) = 0.14884 0.37548
# Poissons Ratio (y) = 0.25611 0.48910
# Poissons Ratio (z) = 0.49487 0.37462
#
# Static dielectric constant tensor:
#      x y z
#    x 3.118560 0.000000 0.000000 
#    y 0.000000 3.062090 0.000000 
#    z 0.000000 0.000000 2.674700 
# 
# 
# High freq. dielectric constant tensor:
#      x y z
#    x 1.611170 0.000000 0.000000 
#    y 0.000000 1.577120 0.000000 
#    z 0.000000 0.000000 1.559460 
# 
# From -- ./inp_files/29642.got.cif
#   From: 2010.03.12/outbox.cif.g09.slc.cpg/sg59_15_cif.got.tgz:29642.got - 2010.04.16 16:29:54.
