data_PCOD8242946
_publ_section_title
;
Structure prediction by ZEFSAII (Michael W. Deem and Ramdas Pophale) SiO2 
 PCOD8242946
Probable space group: P M M N
;
_chemical_formula_sum "Si O2"
_cell_formula_units_Z 40
_cell_length_a 9.797274
_cell_length_b 8.225229
_cell_length_c 24.405462
_cell_angle_alpha 90.000000
_cell_angle_beta 90.000000
_cell_angle_gamma 90.000000
_cell_volume 1966.709817
_symmetry_space_group_name_H-M "P M M N"
_symmetry_group_IT_number 59
_space_group.IT_coordinate_system_code '2'
_symmetry_cell_setting 'orthorhombic'
loop_
_space_group_symop_operation_xyz
x,y,z
1/2-x,1/2-y,z
1/2+x,-y,-z
-x,1/2+y,-z
-x,-y,-z
1/2+x,1/2+y,-z
1/2-x,y,z
x,1/2-y,z
loop_
_atom_site_type_symbol
_atom_site_label
_atom_site_fract_x
_atom_site_fract_y
_atom_site_fract_z
Si Si1 0.750000 0.931006 0.551257
Si Si2 0.095472 0.056781 0.853448
Si Si3 0.014058 0.561834 0.379605
Si Si4 0.093472 0.942895 0.049703
Si Si5 0.250000 0.561874 0.564864
Si Si6 0.598591 0.943018 0.267601
O O1 0.750000 0.750000 0.526608
O O2 0.621683 0.950809 0.590325
O O3 0.750000 0.057112 0.501232
O O4 0.250000 0.993307 0.866745
O O5 0.097921 0.250000 0.856243
O O6 0.049250 0.998130 0.792591
O O7 0.983177 0.988690 0.896024
O O8 0.058558 0.750000 0.381455
O O9 0.875380 0.538226 0.411961
O O10 0.000792 0.499181 0.316478
O O11 0.250000 0.011200 0.046334
O O12 0.099115 0.750000 0.050475
O O13 0.000000 0.000000 0.000000
O O14 0.250000 0.750000 0.583251
O O15 0.750000 0.013451 0.278802
O O16 0.606412 0.750000 0.268611
#
# Coordination Sequence:
#
# PCOD8242946 Si02
#       6
#     4   8   8   8   4   8
#     4  12  26  42  56  80 116 152 187 234 287 340
#     4   8  14  27  49  77 107 138 177 226 276 321
#     4  11  21  38  61  87 114 145 186 234 284 338
#     4  10  20  33  51  79 112 147 187 231 276 325
#     4  12  24  40  62  86 112 148 189 230 281 342
#     4   8  14  28  53  83 109 136 175 225 273 325
#
# _framework density 20.338538
#
# number of rings (size 3 to 8) (size 9 to 14) (size 15 to 20)
#    0.000    2.200    1.000    4.800    0.000    1.200 
#    1.800    0.000    0.000    2.400    0.000    0.000 
#    0.000    0.000    0.000    0.000    0.000    0.000 
#
# Total GULP energy -495739.947070 kJ/mol
# GULP energy per Si atom -12393.498677 kJ/mol
# Density = 2.029225 g / cm^3
# Si number density = 20.338538 Si / 1000 Ang^3
#
#
#
# Elastic Constant Matrix: (Units=GPa)
#
#
# Indices 1 2 3 4 5 6 
#
# 1 130.3100 2.4699 68.5560 0.0000 0.0000 0.0000
# 2 2.4699 34.0075 4.6519 0.0000 0.0000 0.0000
# 3 68.5560 4.6519 164.0198 0.0000 0.0000 0.0000
# 4 0.0000 0.0000 0.0000 22.0545 0.0000 0.0000
# 5 0.0000 0.0000 0.0000 0.0000 25.2918 0.0000
# 6 0.0000 0.0000 0.0000 0.0000 0.0000 21.5876
#
#
#
# Elastic Compliance Matrix: (Units=1/GPa)
#
#
# Indices 1 2 3 4 5 6 
#
# 1 0.009838 -0.000153 -0.004108 0.000000 0.000000 0.000000
# 2 -0.000153 0.029522 -0.000773 0.000000 0.000000 0.000000
# 3 -0.004108 -0.000773 0.007836 0.000000 0.000000 0.000000
# 4 0.000000 0.000000 0.000000 0.045342 0.000000 0.000000
# 5 0.000000 0.000000 0.000000 0.000000 0.039539 0.000000
# 6 0.000000 0.000000 0.000000 0.000000 0.000000 0.046323
#
#
# Mechanical properties :
#
#
# Convention : Reuss Voigt Hill
#
# Bulk Modulus (GPa) = 26.93371 53.29920 40.11646
# Shear Modulus (GPa) = 24.89505 30.63074 27.76290
#
# Velocity S-wave (km/s) = 3.50241 3.88499 3.69865
# Velocity P-wave (km/s) = 5.44310 6.81081 6.16500
#
# Compressibility (1/GPa) = 0.03712819
#
# Stress axis : x y z
#
# Youngs Moduli (GPa) = 101.64724 33.87282 127.62155
#
# Poissons Ratio (x) = 0.00517 0.52423
# Poissons Ratio (y) = 0.01551 0.09872
# Poissons Ratio (z) = 0.41753 0.02620
#
# Static dielectric constant tensor:
#      x y z
#    x 4.224960 0.000000 0.000000 
#    y 0.000000 3.224740 0.000000 
#    z 0.000000 0.000000 4.178750 
# 
# 
# High freq. dielectric constant tensor:
#      x y z
#    x 1.786080 0.000000 0.000000 
#    y 0.000000 1.753790 0.000000 
#    z 0.000000 0.000000 1.812750 
# 
# From -- ./inp_files/32436.got.cif
#   From: 2010.03.12/outbox.cif.g09.slc.cpg/sg59_17_cif.got.tgz:32436.got - 2010.04.16 16:29:54.
