data_PCOD8242664
_publ_section_title
;
Structure prediction by ZEFSAII (Michael W. Deem and Ramdas Pophale) SiO2 
 PCOD8242664
Probable space group: P M M N
;
_chemical_formula_sum "Si O2"
_cell_formula_units_Z 48
_cell_length_a 14.335831
_cell_length_b 9.378540
_cell_length_c 18.958397
_cell_angle_alpha 90.000000
_cell_angle_beta 90.000000
_cell_angle_gamma 90.000000
_cell_volume 2548.940636
_symmetry_space_group_name_H-M "P M M N"
_symmetry_group_IT_number 59
_space_group.IT_coordinate_system_code '2'
_symmetry_cell_setting 'orthorhombic'
loop_
_space_group_symop_operation_xyz
x,y,z
1/2-x,1/2-y,z
1/2+x,-y,-z
-x,1/2+y,-z
-x,-y,-z
1/2+x,1/2+y,-z
1/2-x,y,z
x,1/2-y,z
loop_
_atom_site_type_symbol
_atom_site_label
_atom_site_fract_x
_atom_site_fract_y
_atom_site_fract_z
Si Si1 0.982347 0.584442 0.754066
Si Si2 0.146326 0.080035 0.372678
Si Si3 0.494938 0.583910 0.106269
Si Si4 0.138552 0.408863 0.525954
Si Si5 0.145605 0.586193 0.656311
Si Si6 0.858420 0.414686 0.021088
O O1 0.962220 0.750000 0.772194
O O2 0.962658 0.488375 0.821559
O O3 0.088167 0.561561 0.727948
O O4 0.917237 0.526351 0.691217
O O5 0.250000 0.019293 0.359460
O O6 0.148240 0.250000 0.374995
O O7 0.106881 0.028878 0.449312
O O8 0.515848 0.750000 0.117878
O O9 0.408645 0.559465 0.053526
O O10 0.590188 0.510618 0.079353
O O11 0.250000 0.408191 0.526117
O O12 0.099455 0.250000 0.537795
O O13 0.100235 0.504694 0.589883
O O14 0.250000 0.532774 0.672763
O O15 0.143094 0.750000 0.633888
O O16 0.750000 0.459988 0.014937
O O17 0.867568 0.250000 0.044294
#
# Coordination Sequence:
#
# PCOD8242664 Si02
#       6
#     8   8   8   8   8   8
#     4  10  20  33  49  70  99 136 170 199 242 301
#     4   8  15  29  48  69  93 124 166 213 256 299
#     4  10  21  36  54  81 112 134 163 210 251 290
#     4   8  14  27  47  67  88 119 163 214 259 295
#     4   9  18  31  45  64  93 128 165 204 246 295
#     4   9  19  38  62  82 103 136 170 199 243 302
#
# _framework density 18.831353
#
# number of rings (size 3 to 8) (size 9 to 14) (size 15 to 20)
#    0.000    3.000    0.000    1.500    0.000    3.667 
#    0.000    2.500    0.000    1.000    0.000    0.000 
#    0.000    0.000    0.000    0.000    0.000    0.000 
#
# Total GULP energy -595018.580886 kJ/mol
# GULP energy per Si atom -12396.220435 kJ/mol
# Density = 1.878849 g / cm^3
# Si number density = 18.831353 Si / 1000 Ang^3
#
#
#
# Elastic Constant Matrix: (Units=GPa)
#
#
# Indices 1 2 3 4 5 6 
#
# 1 57.9446 12.0147 1.1717 0.0000 0.0000 0.0000
# 2 12.0147 57.7687 32.7969 0.0000 0.0000 0.0000
# 3 1.1717 32.7969 80.5994 0.0000 0.0000 0.0000
# 4 0.0000 0.0000 0.0000 38.0261 0.0000 0.0000
# 5 0.0000 0.0000 0.0000 0.0000 22.1145 0.0000
# 6 0.0000 0.0000 0.0000 0.0000 0.0000 16.8928
#
#
#
# Elastic Compliance Matrix: (Units=1/GPa)
#
#
# Indices 1 2 3 4 5 6 
#
# 1 0.018205 -0.004728 0.001659 0.000000 0.000000 0.000000
# 2 -0.004728 0.023739 -0.009591 0.000000 0.000000 0.000000
# 3 0.001659 -0.009591 0.016286 0.000000 0.000000 0.000000
# 4 0.000000 0.000000 0.000000 0.026298 0.000000 0.000000
# 5 0.000000 0.000000 0.000000 0.000000 0.045219 0.000000
# 6 0.000000 0.000000 0.000000 0.000000 0.000000 0.059197
#
#
# Mechanical properties :
#
#
# Convention : Reuss Voigt Hill
#
# Bulk Modulus (GPa) = 30.38638 32.03102 31.20870
# Shear Modulus (GPa) = 22.19930 25.42863 23.81397
#
# Velocity S-wave (km/s) = 3.43716 3.67868 3.55997
# Velocity P-wave (km/s) = 5.65006 5.92367 5.78848
#
# Compressibility (1/GPa) = 0.03290949
#
# Stress axis : x y z
#
# Youngs Moduli (GPa) = 54.93085 42.12515 61.40411
#
# Poissons Ratio (x) = 0.19918 -0.10189
# Poissons Ratio (y) = 0.25973 0.58892
# Poissons Ratio (z) = -0.09115 0.40402
#
# Static dielectric constant tensor:
#      x y z
#    x 3.557970 0.000000 0.000000 
#    y 0.000000 3.315260 0.000000 
#    z 0.000000 0.000000 3.494060 
# 
# 
# High freq. dielectric constant tensor:
#      x y z
#    x 1.727660 0.000000 0.000000 
#    y 0.000000 1.707830 0.000000 
#    z 0.000000 0.000000 1.731520 
# 
# From -- ./inp_files/25481.got.cif
#   From: 2010.03.12/outbox.cif.g09.slc.cpg/sg59_13_cif.got.tgz:25481.got - 2010.04.16 16:29:54.
