data_PCOD8242954
_publ_section_title
;
Structure prediction by ZEFSAII (Michael W. Deem and Ramdas Pophale) SiO2 
 PCOD8242954
Probable space group: P M M N
;
_chemical_formula_sum "Si O2"
_cell_formula_units_Z 64
_cell_length_a 29.320231
_cell_length_b 8.549477
_cell_length_c 14.679849
_cell_angle_alpha 90.000000
_cell_angle_beta 90.000000
_cell_angle_gamma 90.000000
_cell_volume 3679.836512
_symmetry_space_group_name_H-M "P M M N"
_symmetry_group_IT_number 59
_space_group.IT_coordinate_system_code '2'
_symmetry_cell_setting 'orthorhombic'
loop_
_space_group_symop_operation_xyz
x,y,z
1/2-x,1/2-y,z
1/2+x,-y,-z
-x,1/2+y,-z
-x,-y,-z
1/2+x,1/2+y,-z
1/2-x,y,z
x,1/2-y,z
loop_
_atom_site_type_symbol
_atom_site_label
_atom_site_fract_x
_atom_site_fract_y
_atom_site_fract_z
Si Si1 0.198761 0.568589 0.498233
Si Si2 0.800549 0.572781 0.310822
Si Si3 0.969789 0.931453 0.866981
Si Si4 0.606907 0.568841 0.545688
Si Si5 0.938729 0.431968 0.371317
Si Si6 0.888215 0.568114 0.204107
Si Si7 0.032696 0.568851 0.328846
Si Si8 0.934172 0.432626 0.041572
O O1 0.250000 0.511994 0.470817
O O2 0.192472 0.750000 0.476232
O O3 0.191071 0.543867 0.605796
O O4 0.160493 0.472747 0.443171
O O5 0.750000 0.549802 0.269702
O O6 0.807329 0.750000 0.347611
O O7 0.835927 0.535868 0.230774
O O8 0.964183 0.750000 0.843705
O O9 0.019705 0.972043 0.904174
O O10 0.960442 0.029352 0.776668
O O11 0.933467 0.982317 0.943847
O O12 0.599589 0.750000 0.566482
O O13 0.590115 0.530970 0.443681
O O14 0.579253 0.468476 0.618830
O O15 0.931603 0.250000 0.392251
O O16 0.921864 0.473548 0.270399
O O17 0.992308 0.470736 0.376374
O O18 0.901308 0.750000 0.208819
O O19 0.893318 0.502830 0.101960
O O20 0.020710 0.750000 0.339454
O O21 0.927468 0.250000 0.025465
#
# Coordination Sequence:
#
# PCOD8242954 Si02
#       8
#     8   8   8   8   8   8   8   8
#     4  10  20  34  53  77 104 134 172 218 265 310
#     4   9  18  32  50  73 103 138 175 214 258 310
#     4  10  20  35  53  75 103 134 171 214 257 305
#     4  12  24  38  54  75 104 141 181 218 261 313
#     4  12  23  36  51  73 106 142 180 218 257 307
#     4  11  20  31  51  77 105 140 177 214 259 312
#     4  12  24  38  55  75 104 140 179 220 263 311
#     4  10  20  33  52  75 103 136 171 213 257 305
#
# _framework density 17.392075999999999
#
# number of rings (size 3 to 8) (size 9 to 14) (size 15 to 20)
#    0.000    1.250    2.500    5.250    0.000    2.250 
#    0.000    0.000    0.000    0.000    0.000    0.875 
#    0.000    5.000    0.000    0.000    0.000    0.000 
#
# Total GULP energy -793885.789605 kJ/mol
# GULP energy per Si atom -12404.465463 kJ/mol
# Density = 1.735249 g / cm^3
# Si number density = 17.392076 Si / 1000 Ang^3
#
#
#
# Elastic Constant Matrix: (Units=GPa)
#
#
# Indices 1 2 3 4 5 6 
#
# 1 96.6656 20.2437 26.0105 0.0000 0.0000 0.0000
# 2 20.2437 64.9367 15.9005 0.0000 0.0000 0.0000
# 3 26.0105 15.9005 54.5047 0.0000 0.0000 0.0000
# 4 0.0000 0.0000 0.0000 28.9766 0.0000 0.0000
# 5 0.0000 0.0000 0.0000 0.0000 22.8456 0.0000
# 6 0.0000 0.0000 0.0000 0.0000 0.0000 23.1619
#
#
#
# Elastic Compliance Matrix: (Units=1/GPa)
#
#
# Indices 1 2 3 4 5 6 
#
# 1 0.012255 -0.002572 -0.005098 0.000000 0.000000 0.000000
# 2 -0.002572 0.017124 -0.003768 0.000000 0.000000 0.000000
# 3 -0.005098 -0.003768 0.021879 0.000000 0.000000 0.000000
# 4 0.000000 0.000000 0.000000 0.034511 0.000000 0.000000
# 5 0.000000 0.000000 0.000000 0.000000 0.043772 0.000000
# 6 0.000000 0.000000 0.000000 0.000000 0.000000 0.043174
#
#
# Mechanical properties :
#
#
# Convention : Reuss Voigt Hill
#
# Bulk Modulus (GPa) = 35.23364 37.82402 36.52883
# Shear Modulus (GPa) = 24.38391 25.26030 24.82210
#
# Velocity S-wave (km/s) = 3.74841 3.81517 3.78194
# Velocity P-wave (km/s) = 6.24792 6.41891 6.33399
#
# Compressibility (1/GPa) = 0.02838197
#
# Stress axis : x y z
#
# Youngs Moduli (GPa) = 81.59674 58.39709 45.70559
#
# Poissons Ratio (x) = 0.15021 0.23301
# Poissons Ratio (y) = 0.20989 0.17222
# Poissons Ratio (z) = 0.41599 0.22004
#
# Static dielectric constant tensor:
#      x y z
#    x 3.322930 0.000000 0.000000 
#    y 0.000000 3.293360 0.000000 
#    z 0.000000 0.000000 3.090450 
# 
# 
# High freq. dielectric constant tensor:
#      x y z
#    x 1.659580 0.000000 0.000000 
#    y 0.000000 1.687630 0.000000 
#    z 0.000000 0.000000 1.646350 
# 
# From -- ./inp_files/25118.got.cif
#   From: 2010.03.12/outbox.cif.g09.slc.cpg/sg59_13_cif.got.tgz:25118.got - 2010.04.16 16:29:54.
