data_PCOD8242626
_publ_section_title
;
Structure prediction by ZEFSAII (Michael W. Deem and Ramdas Pophale) SiO2 
 PCOD8242626
Probable space group: P M M N
;
_chemical_formula_sum "Si O2"
_cell_formula_units_Z 64
_cell_length_a 18.469857
_cell_length_b 9.230334
_cell_length_c 20.736195
_cell_angle_alpha 90.000000
_cell_angle_beta 90.000000
_cell_angle_gamma 90.000000
_cell_volume 3535.167676
_symmetry_space_group_name_H-M "P M M N"
_symmetry_group_IT_number 59
_space_group.IT_coordinate_system_code '2'
_symmetry_cell_setting 'orthorhombic'
loop_
_space_group_symop_operation_xyz
x,y,z
1/2-x,1/2-y,z
1/2+x,-y,-z
-x,1/2+y,-z
-x,-y,-z
1/2+x,1/2+y,-z
1/2-x,y,z
x,1/2-y,z
loop_
_atom_site_type_symbol
_atom_site_label
_atom_site_fract_x
_atom_site_fract_y
_atom_site_fract_z
Si Si1 0.166995 0.919658 0.808835
Si Si2 0.836187 0.913328 0.455438
Si Si3 0.336415 0.586827 0.423042
Si Si4 0.163738 0.414014 0.299154
Si Si5 0.164051 0.585483 0.174673
Si Si6 0.835973 0.912970 0.313788
Si Si7 0.589355 0.582154 0.938624
Si Si8 0.578640 0.082658 0.067342
O O1 0.250000 0.967527 0.819907
O O2 0.160041 0.750000 0.799572
O O3 0.121007 0.972968 0.869855
O O4 0.133097 0.989227 0.744030
O O5 0.750000 0.914629 0.457798
O O6 0.863782 0.750000 0.468321
O O7 0.862814 0.966982 0.384530
O O8 0.867420 0.018324 0.510738
O O9 0.250000 0.586391 0.423265
O O10 0.366133 0.750000 0.416840
O O11 0.365825 0.493087 0.363127
O O12 0.250000 0.412776 0.299428
O O13 0.133605 0.250000 0.297013
O O14 0.134185 0.501360 0.237371
O O15 0.250000 0.585625 0.174719
O O16 0.134331 0.750000 0.175566
O O17 0.138022 0.503491 0.111491
O O18 0.750000 0.920389 0.312767
O O19 0.863105 0.750000 0.302191
O O20 0.611996 0.750000 0.938894
O O21 0.506014 0.561307 0.919349
O O22 0.605279 0.515985 0.008663
O O23 0.596731 0.250000 0.051469
#
# Coordination Sequence:
#
# PCOD8242626 Si02
#       8
#     8   8   8   8   8   8   8   8
#     4   9  17  29  46  67  91 120 152 185 224 271
#     4   8  13  21  32  47  72 109 148 182 219 263
#     4   9  15  21  31  50  77 110 148 186 222 262
#     4   9  16  26  40  58  83 115 149 184 223 269
#     4  10  20  33  49  69  94 122 151 188 234 280
#     4   8  14  24  37  55  82 114 147 185 227 267
#     4  10  20  34  52  71  92 120 154 191 228 271
#     4   9  19  35  51  69  95 124 153 187 229 274
#
# _framework density 18.103808999999998
#
# number of rings (size 3 to 8) (size 9 to 14) (size 15 to 20)
#    0.000    3.000    0.000    2.250    0.000    5.750 
#    0.000    3.750    0.000    0.000    0.000    0.000 
#    0.000    1.000    0.000    3.000    0.000    6.375 
#
# Total GULP energy -793398.068687 kJ/mol
# GULP energy per Si atom -12396.844823 kJ/mol
# Density = 1.806260 g / cm^3
# Si number density = 18.103809 Si / 1000 Ang^3
#
#
#
# Elastic Constant Matrix: (Units=GPa)
#
#
# Indices 1 2 3 4 5 6 
#
# 1 8.2480 14.3180 17.4091 0.0000 0.0000 0.0000
# 2 14.3180 128.9718 85.4036 0.0000 0.0000 0.0000
# 3 17.4091 85.4036 156.1240 0.0000 0.0000 0.0000
# 4 0.0000 0.0000 0.0000 43.0044 0.0000 0.0000
# 5 0.0000 0.0000 0.0000 0.0000 -0.0427 0.0000
# 6 0.0000 0.0000 0.0000 0.0000 0.0000 12.8617
#
#
#
# Elastic Compliance Matrix: (Units=1/GPa)
#
#
# Indices 1 2 3 4 5 6 
#
# 1 0.165914 -0.009672 -0.013210 0.000000 0.000000 0.000000
# 2 -0.009672 0.012721 -0.005880 0.000000 0.000000 0.000000
# 3 -0.013210 -0.005880 0.011095 0.000000 0.000000 0.000000
# 4 0.000000 0.000000 0.000000 0.023253 0.000000 0.000000
# 5 0.000000 0.000000 0.000000 0.000000-23.394633 0.000000
# 6 0.000000 0.000000 0.000000 0.000000 0.000000 0.077750
#
#
# Mechanical properties :
#
#
# Convention : Reuss Voigt Hill
#
# Bulk Modulus (GPa) = 7.56394 58.62281 33.09338
# Shear Modulus (GPa) = -0.21737 22.91221 11.34742
#
# Velocity S-wave (km/s) = -0.34688 3.56139 2.50631
# Velocity P-wave (km/s) = 2.00667 7.02589 5.16671
#
# Compressibility (1/GPa) = 0.13220625
#
# Stress axis : x y z
#
# Youngs Moduli (GPa) = 6.02720 78.60866 90.13126
#
# Poissons Ratio (x) = 0.76027 1.19066
# Poissons Ratio (y) = 0.05829 0.53001
# Poissons Ratio (z) = 0.07962 0.46225
#
# Static dielectric constant tensor:
#      x y z
#    x 2.752330 0.000000 0.000000 
#    y 0.000000 3.518760 0.000000 
#    z 0.000000 0.000000 3.677580 
# 
# 
# High freq. dielectric constant tensor:
#      x y z
#    x 1.630970 0.000000 0.000000 
#    y 0.000000 1.708410 0.000000 
#    z 0.000000 0.000000 1.719810 
# 
# From -- ./inp_files/30668.got.cif
#   From: 2010.03.12/outbox.cif.g09.slc.cpg/sg59_16_cif.got.tgz:30668.got - 2010.04.16 16:29:54.
