data_PCOD8242465
_publ_section_title
;
Structure prediction by ZEFSAII (Michael W. Deem and Ramdas Pophale) SiO2 
 PCOD8242465
Probable space group: P M M N
;
_chemical_formula_sum "Si O2"
_cell_formula_units_Z 64
_cell_length_a 18.752723
_cell_length_b 9.140600
_cell_length_c 18.771293
_cell_angle_alpha 90.000000
_cell_angle_beta 90.000000
_cell_angle_gamma 90.000000
_cell_volume 3217.608730
_symmetry_space_group_name_H-M "P M M N"
_symmetry_group_IT_number 59
_space_group.IT_coordinate_system_code '2'
_symmetry_cell_setting 'orthorhombic'
loop_
_space_group_symop_operation_xyz
x,y,z
1/2-x,1/2-y,z
1/2+x,-y,-z
-x,1/2+y,-z
-x,-y,-z
1/2+x,1/2+y,-z
1/2-x,y,z
x,1/2-y,z
loop_
_atom_site_type_symbol
_atom_site_label
_atom_site_fract_x
_atom_site_fract_y
_atom_site_fract_z
Si Si1 0.466420 0.580960 0.567441
Si Si2 0.830067 0.084410 0.509710
Si Si3 0.130289 0.587862 0.227980
Si Si4 0.973509 0.912680 0.286645
Si Si5 0.167209 0.919374 0.970967
Si Si6 0.669695 0.591463 0.640869
Si Si7 0.411017 0.422388 0.095763
Si Si8 0.435400 0.917807 0.845390
O O1 0.500000 0.500000 0.500000
O O2 0.491509 0.750000 0.568768
O O3 0.380370 0.569802 0.559131
O O4 0.485094 0.505429 0.641878
O O5 0.750000 0.034496 0.488453
O O6 0.829083 0.250000 0.538480
O O7 0.866475 0.990989 0.574049
O O8 0.162965 0.750000 0.217131
O O9 0.172771 0.503697 0.288492
O O10 0.138493 0.496192 0.155794
O O11 0.049023 0.599811 0.249780
O O12 0.943556 0.750000 0.304178
O O13 0.923969 0.991598 0.227807
O O14 0.250000 0.970086 0.972082
O O15 0.160542 0.750000 0.993649
O O16 0.117039 0.015551 0.021394
O O17 0.135525 0.942784 0.891926
O O18 0.750000 0.616130 0.616294
O O19 0.632224 0.750000 0.653442
O O20 0.398788 0.250000 0.097020
O O21 0.494161 0.463524 0.108943
O O22 0.444211 0.750000 0.822181
#
# Coordination Sequence:
#
# PCOD8242465 Si02
#       8
#     8   8   8   8   8   8   8   8
#     4  11  22  35  55  82 111 142 176 220 271 319
#     4   9  19  36  54  72  98 136 180 218 256 311
#     4  10  20  34  52  74 102 137 175 214 258 312
#     4  10  21  36  55  80 107 136 175 221 267 317
#     4  10  21  37  57  82 112 144 178 218 265 318
#     4  10  20  32  48  72 101 134 172 214 262 315
#     4  10  20  34  55  81 108 139 176 220 266 313
#     4   9  19  37  59  81 106 140 181 220 262 314
#
# _framework density 19.890546000000001
#
# number of rings (size 3 to 8) (size 9 to 14) (size 15 to 20)
#    0.000    2.125    0.000    3.000    0.000    8.000 
#    0.000    0.625    0.000    3.750    0.000    0.000 
#    0.000    0.000    0.000    0.000    0.000    0.000 
#
# Total GULP energy -793347.222793 kJ/mol
# GULP energy per Si atom -12396.050356 kJ/mol
# Density = 1.984527 g / cm^3
# Si number density = 19.890546 Si / 1000 Ang^3
#
#
#
# Elastic Constant Matrix: (Units=GPa)
#
#
# Indices 1 2 3 4 5 6 
#
# 1 50.4830 24.0107 20.5333 0.0000 0.0000 0.0000
# 2 24.0107 129.1623 54.6300 0.0000 0.0000 0.0000
# 3 20.5333 54.6300 102.4112 0.0000 0.0000 0.0000
# 4 0.0000 0.0000 0.0000 31.8096 0.0000 0.0000
# 5 0.0000 0.0000 0.0000 0.0000 25.3530 0.0000
# 6 0.0000 0.0000 0.0000 0.0000 0.0000 17.6685
#
#
#
# Elastic Compliance Matrix: (Units=1/GPa)
#
#
# Indices 1 2 3 4 5 6 
#
# 1 0.022391 -0.002923 -0.002930 0.000000 0.000000 0.000000
# 2 -0.002923 0.010380 -0.004951 0.000000 0.000000 0.000000
# 3 -0.002930 -0.004951 0.012993 0.000000 0.000000 0.000000
# 4 0.000000 0.000000 0.000000 0.031437 0.000000 0.000000
# 5 0.000000 0.000000 0.000000 0.000000 0.039443 0.000000
# 6 0.000000 0.000000 0.000000 0.000000 0.000000 0.056598
#
#
# Mechanical properties :
#
#
# Convention : Reuss Voigt Hill
#
# Bulk Modulus (GPa) = 41.39852 53.37828 47.38840
# Shear Modulus (GPa) = 24.64259 27.15839 25.90049
#
# Velocity S-wave (km/s) = 3.52363 3.69913 3.61245
# Velocity P-wave (km/s) = 6.11662 6.71856 6.42464
#
# Compressibility (1/GPa) = 0.02415546
#
# Stress axis : x y z
#
# Youngs Moduli (GPa) = 44.66147 96.34339 76.96474
#
# Poissons Ratio (x) = 0.28162 0.22551
# Poissons Ratio (y) = 0.13055 0.38104
# Poissons Ratio (z) = 0.13086 0.47697
#
# Static dielectric constant tensor:
#      x y z
#    x 3.548210 0.000000 0.000000 
#    y 0.000000 3.985180 0.000000 
#    z 0.000000 0.000000 3.494310 
# 
# 
# High freq. dielectric constant tensor:
#      x y z
#    x 1.759770 0.000000 0.000000 
#    y 0.000000 1.786080 0.000000 
#    z 0.000000 0.000000 1.767110 
# 
# From -- ./inp_files/28254.got.cif
#   From: 2010.03.12/outbox.cif.g09.slc.cpg/sg59_15_cif.got.tgz:28254.got - 2010.04.16 16:29:54.
