data_PCOD8242686
_publ_section_title
;
Structure prediction by ZEFSAII (Michael W. Deem and Ramdas Pophale) SiO2 
 PCOD8242686
Probable space group: P M M N
;
_chemical_formula_sum "Si O2"
_cell_formula_units_Z 56
_cell_length_a 8.696310
_cell_length_b 15.169834
_cell_length_c 21.092886
_cell_angle_alpha 90.000000
_cell_angle_beta 90.000000
_cell_angle_gamma 90.000000
_cell_volume 2782.606829
_symmetry_space_group_name_H-M "P M M N"
_symmetry_group_IT_number 59
_space_group.IT_coordinate_system_code '2'
_symmetry_cell_setting 'orthorhombic'
loop_
_space_group_symop_operation_xyz
x,y,z
1/2-x,1/2-y,z
1/2+x,-y,-z
-x,1/2+y,-z
-x,-y,-z
1/2+x,1/2+y,-z
1/2-x,y,z
x,1/2-y,z
loop_
_atom_site_type_symbol
_atom_site_label
_atom_site_fract_x
_atom_site_fract_y
_atom_site_fract_z
Si Si1 0.425161 0.346849 0.701054
Si Si2 0.568086 0.147764 0.991790
Si Si3 0.068605 0.482244 0.090151
Si Si4 0.429845 0.586947 0.647842
Si Si5 0.931151 0.990302 0.765698
Si Si6 0.580219 0.847365 0.533837
Si Si7 0.930544 0.084267 0.586356
O O1 0.250000 0.380615 0.692459
O O2 0.428689 0.250000 0.732205
O O3 0.514823 0.412079 0.747309
O O4 0.508570 0.338649 0.632479
O O5 0.750000 0.152958 0.995202
O O6 0.505439 0.250000 0.983201
O O7 0.515784 0.079378 0.935852
O O8 0.507352 0.101842 0.055810
O O9 0.250000 0.473531 0.081864
O O10 0.015731 0.473272 0.162702
O O11 0.250000 0.603904 0.650892
O O12 0.493962 0.583301 0.719659
O O13 0.509672 0.661393 0.604707
O O14 0.474279 0.499042 0.610383
O O15 0.750000 0.984735 0.758192
O O16 0.750000 0.892202 0.536016
O O17 0.595422 0.750000 0.506065
O O18 0.468409 0.900653 0.487174
O O19 0.750000 0.070406 0.594868
#
# Coordination Sequence:
#
# PCOD8242686 Si02
#       7
#     8   8   8   8   8   8   8
#     4  10  20  33  49  73 106 140 176 220 270 322
#     4   9  18  34  57  85 116 148 182 221 265 313
#     4   9  19  35  56  83 114 147 183 224 267 315
#     4  11  22  37  56  76 102 134 172 216 260 312
#     4  10  20  35  55  77 104 141 181 217 260 314
#     4  11  23  38  55  75 101 131 167 216 270 318
#     4  11  21  34  54  77 102 133 172 215 263 321
#
# _framework density 20.125015000000001
#
# number of rings (size 3 to 8) (size 9 to 14) (size 15 to 20)
#    0.000    1.857    0.000    6.429    0.000    6.000 
#    0.000    2.143    0.000    0.857    0.000    0.000 
#    0.000    0.000    0.000    0.000    0.000    0.000 
#
# Total GULP energy -693952.065380 kJ/mol
# GULP energy per Si atom -12392.001168 kJ/mol
# Density = 2.007921 g / cm^3
# Si number density = 20.125015 Si / 1000 Ang^3
#
#
#
# Elastic Constant Matrix: (Units=GPa)
#
#
# Indices 1 2 3 4 5 6 
#
# 1 80.9184 10.2267 33.5661 0.0000 0.0000 0.0000
# 2 10.2267 76.6672 24.0966 0.0000 0.0000 0.0000
# 3 33.5661 24.0966 137.9910 0.0000 0.0000 0.0000
# 4 0.0000 0.0000 0.0000 17.1213 0.0000 0.0000
# 5 0.0000 0.0000 0.0000 0.0000 32.4693 0.0000
# 6 0.0000 0.0000 0.0000 0.0000 0.0000 24.0109
#
#
#
# Elastic Compliance Matrix: (Units=1/GPa)
#
#
# Indices 1 2 3 4 5 6 
#
# 1 0.013795 -0.000831 -0.003210 0.000000 0.000000 0.000000
# 2 -0.000831 0.013851 -0.002217 0.000000 0.000000 0.000000
# 3 -0.003210 -0.002217 0.008415 0.000000 0.000000 0.000000
# 4 0.000000 0.000000 0.000000 0.058407 0.000000 0.000000
# 5 0.000000 0.000000 0.000000 0.000000 0.030798 0.000000
# 6 0.000000 0.000000 0.000000 0.000000 0.000000 0.041648
#
#
# Mechanical properties :
#
#
# Convention : Reuss Voigt Hill
#
# Bulk Modulus (GPa) = 42.47273 47.92837 45.20055
# Shear Modulus (GPa) = 26.69829 29.89945 28.29887
#
# Velocity S-wave (km/s) = 3.64623 3.85864 3.75394
# Velocity P-wave (km/s) = 6.23514 6.61205 6.42636
#
# Compressibility (1/GPa) = 0.02354452
#
# Stress axis : x y z
#
# Youngs Moduli (GPa) = 72.49050 72.19741 118.83752
#
# Poissons Ratio (x) = 0.06000 0.38152
# Poissons Ratio (y) = 0.06024 0.26341
# Poissons Ratio (z) = 0.23273 0.16003
#
# Static dielectric constant tensor:
#      x y z
#    x 3.685510 0.000000 0.000000 
#    y 0.000000 4.003840 0.000000 
#    z 0.000000 0.000000 3.909350 
# 
# 
# High freq. dielectric constant tensor:
#      x y z
#    x 1.791320 0.000000 0.000000 
#    y 0.000000 1.778020 0.000000 
#    z 0.000000 0.000000 1.778350 
# 
# From -- ./inp_files/29102.got.cif
#   From: 2010.03.12/outbox.cif.g09.slc.cpg/sg59_15_cif.got.tgz:29102.got - 2010.04.16 16:29:54.
