data_PCOD8242022
_publ_section_title
;
Structure prediction by ZEFSAII (Michael W. Deem and Ramdas Pophale) SiO2 
 PCOD8242022
Probable space group: P M M N
;
_chemical_formula_sum "Si O2"
_cell_formula_units_Z 64
_cell_length_a 18.209600
_cell_length_b 8.744436
_cell_length_c 20.047521
_cell_angle_alpha 90.000000
_cell_angle_beta 90.000000
_cell_angle_gamma 90.000000
_cell_volume 3192.220532
_symmetry_space_group_name_H-M "P M M N"
_symmetry_group_IT_number 59
_space_group.IT_coordinate_system_code '2'
_symmetry_cell_setting 'orthorhombic'
loop_
_space_group_symop_operation_xyz
x,y,z
1/2-x,1/2-y,z
1/2+x,-y,-z
-x,1/2+y,-z
-x,-y,-z
1/2+x,1/2+y,-z
1/2-x,y,z
x,1/2-y,z
loop_
_atom_site_type_symbol
_atom_site_label
_atom_site_fract_x
_atom_site_fract_y
_atom_site_fract_z
Si Si1 0.834927 0.929136 0.593430
Si Si2 0.170152 0.068261 0.165004
Si Si3 0.939024 0.430185 0.093144
Si Si4 0.594917 0.929554 0.963707
Si Si5 0.834198 0.570130 0.359116
Si Si6 0.927133 0.930793 0.718421
Si Si7 0.412748 0.568775 0.757722
Si Si8 0.921912 0.069560 0.477959
O O1 0.750000 0.961133 0.610786
O O2 0.848095 0.750000 0.579696
O O3 0.886400 0.992504 0.652714
O O4 0.857640 0.022945 0.528535
O O5 0.250000 0.009991 0.186947
O O6 0.164267 0.250000 0.168469
O O7 0.156802 0.018693 0.088667
O O8 0.111605 0.996965 0.216262
O O9 0.936815 0.250000 0.097741
O O10 0.915420 0.493622 0.165906
O O11 0.019603 0.487106 0.071142
O O12 0.885902 0.490120 0.034229
O O13 0.592394 0.750000 0.976840
O O14 0.750000 0.527440 0.377995
O O15 0.846399 0.750000 0.364854
O O16 0.848321 0.514974 0.282993
O O17 0.893846 0.487594 0.406142
O O18 0.917933 0.750000 0.720317
O O19 0.011885 0.977481 0.720095
O O20 0.399857 0.750000 0.756548
O O21 0.932114 0.250000 0.474368
O O22 0.000000 0.000000 0.500000
#
# Coordination Sequence:
#
# PCOD8242022 Si02
#       8
#     8   8   8   8   8   8   8   8
#     4  10  20  34  55  85 119 152 187 229 280 339
#     4   9  15  25  45  74 107 141 179 225 276 331
#     4   9  17  30  49  74 104 139 183 236 286 335
#     4   9  16  28  47  73 104 138 183 234 281 335
#     4  11  25  44  64  88 120 154 192 241 294 350
#     4   9  16  29  50  79 112 145 182 227 275 328
#     4  10  19  34  58  84 111 147 193 240 284 342
#     4  12  25  42  65  90 117 151 192 238 285 340
#
# _framework density 20.048741
#
# number of rings (size 3 to 8) (size 9 to 14) (size 15 to 20)
#    0.000    2.125    1.250    3.000    0.000    5.750 
#    0.000    0.625    0.000    3.375    0.000    0.000 
#    0.000    0.000    0.000    0.000    0.000    0.000 
#
# Total GULP energy -793333.548991 kJ/mol
# GULP energy per Si atom -12395.836703 kJ/mol
# Density = 2.000311 g / cm^3
# Si number density = 20.048741 Si / 1000 Ang^3
#
#
#
# Elastic Constant Matrix: (Units=GPa)
#
#
# Indices 1 2 3 4 5 6 
#
# 1 72.3045 29.7701 36.5293 0.0000 0.0000 0.0000
# 2 29.7701 52.7421 30.7615 0.0000 0.0000 0.0000
# 3 36.5293 30.7615 135.1911 0.0000 0.0000 0.0000
# 4 0.0000 0.0000 0.0000 29.9820 0.0000 0.0000
# 5 0.0000 0.0000 0.0000 0.0000 30.2447 0.0000
# 6 0.0000 0.0000 0.0000 0.0000 0.0000 21.9377
#
#
#
# Elastic Compliance Matrix: (Units=1/GPa)
#
#
# Indices 1 2 3 4 5 6 
#
# 1 0.019096 -0.008958 -0.003121 0.000000 0.000000 0.000000
# 2 -0.008958 0.026064 -0.003510 0.000000 0.000000 0.000000
# 3 -0.003121 -0.003510 0.009039 0.000000 0.000000 0.000000
# 4 0.000000 0.000000 0.000000 0.033353 0.000000 0.000000
# 5 0.000000 0.000000 0.000000 0.000000 0.033064 0.000000
# 6 0.000000 0.000000 0.000000 0.000000 0.000000 0.045584
#
#
# Mechanical properties :
#
#
# Convention : Reuss Voigt Hill
#
# Bulk Modulus (GPa) = 43.44143 50.48441 46.96292
# Shear Modulus (GPa) = 24.38419 27.31135 25.84777
#
# Velocity S-wave (km/s) = 3.49125 3.69487 3.59450
# Velocity P-wave (km/s) = 6.16172 6.59077 6.37985
#
# Compressibility (1/GPa) = 0.02301950
#
# Stress axis : x y z
#
# Youngs Moduli (GPa) = 52.36792 38.36760 110.63097
#
# Poissons Ratio (x) = 0.34369 0.34533
# Poissons Ratio (y) = 0.46911 0.38832
# Poissons Ratio (z) = 0.16346 0.13467
#
# Static dielectric constant tensor:
#      x y z
#    x 3.623260 0.000000 0.000000 
#    y 0.000000 3.265880 0.000000 
#    z 0.000000 0.000000 4.001390 
# 
# 
# High freq. dielectric constant tensor:
#      x y z
#    x 1.773120 0.000000 0.000000 
#    y 0.000000 1.740960 0.000000 
#    z 0.000000 0.000000 1.801130 
# 
# From -- ./inp_files/30836.got.cif
#   From: 2010.03.12/outbox.cif.g09.slc.cpg/sg59_16_cif.got.tgz:30836.got - 2010.04.16 16:29:54.
