data_PCOD8242914
_publ_section_title
;
Structure prediction by ZEFSAII (Michael W. Deem and Ramdas Pophale) SiO2 
 PCOD8242914
Probable space group: P M M N
;
_chemical_formula_sum "Si O2"
_cell_formula_units_Z 64
_cell_length_a 19.988855
_cell_length_b 8.911473
_cell_length_c 19.086284
_cell_angle_alpha 90.000000
_cell_angle_beta 90.000000
_cell_angle_gamma 90.000000
_cell_volume 3399.842472
_symmetry_space_group_name_H-M "P M M N"
_symmetry_group_IT_number 59
_space_group.IT_coordinate_system_code '2'
_symmetry_cell_setting 'orthorhombic'
loop_
_space_group_symop_operation_xyz
x,y,z
1/2-x,1/2-y,z
1/2+x,-y,-z
-x,1/2+y,-z
-x,-y,-z
1/2+x,1/2+y,-z
1/2-x,y,z
x,1/2-y,z
loop_
_atom_site_type_symbol
_atom_site_label
_atom_site_fract_x
_atom_site_fract_y
_atom_site_fract_z
Si Si1 0.583017 0.424179 0.071719
Si Si2 0.440790 0.577465 0.083675
Si Si3 0.052627 0.425761 0.717161
Si Si4 0.428093 0.427431 0.218525
Si Si5 0.322608 0.071919 0.484366
Si Si6 0.452175 0.427719 0.557780
Si Si7 0.172893 0.074907 0.815034
Si Si8 0.824148 0.571713 0.670764
O O1 0.570544 0.250000 0.090249
O O2 0.515948 0.515911 0.084068
O O3 0.644321 0.486320 0.117706
O O4 0.599288 0.443704 0.989005
O O5 0.445402 0.750000 0.105070
O O6 0.401412 0.486709 0.143792
O O7 0.037520 0.250000 0.721209
O O8 0.039057 0.483658 0.637652
O O9 0.127977 0.459298 0.745506
O O10 0.002930 0.514125 0.767949
O O11 0.428132 0.250000 0.219043
O O12 0.378556 0.496666 0.276688
O O13 0.250000 0.009622 0.507921
O O14 0.319873 0.250000 0.480683
O O15 0.377395 0.017820 0.539350
O O16 0.340972 0.011075 0.406918
O O17 0.500000 0.500000 0.500000
O O18 0.460475 0.250000 0.552053
O O19 0.250000 0.025326 0.800789
O O20 0.169596 0.250000 0.833331
O O21 0.750000 0.518344 0.693138
O O22 0.827900 0.750000 0.672348
#
# Coordination Sequence:
#
# PCOD8242914 Si02
#       8
#     8   8   8   8   8   8   8   8
#     4  10  20  35  56  81 105 137 180 222 267 317
#     4  10  20  34  54  79 109 138 170 217 267 317
#     4  10  21  35  51  75 109 143 177 222 276 327
#     4  11  20  31  53  81 106 138 179 218 261 319
#     4   8  14  27  48  71  95 128 172 216 256 304
#     4  10  20  33  51  77 106 137 174 222 277 325
#     4  10  21  37  56  78 110 152 190 229 278 325
#     4   8  15  28  46  71 102 132 166 214 265 310
#
# _framework density 18.824401000000002
#
# number of rings (size 3 to 8) (size 9 to 14) (size 15 to 20)
#    0.000    2.375    1.250    2.625    0.000    3.750 
#    0.000    3.125    0.000    4.125    0.000    7.000 
#    0.000    0.000    0.000    0.000    0.000    0.000 
#
# Total GULP energy -793214.860939 kJ/mol
# GULP energy per Si atom -12393.982202 kJ/mol
# Density = 1.878156 g / cm^3
# Si number density = 18.824401 Si / 1000 Ang^3
#
#
#
# Elastic Constant Matrix: (Units=GPa)
#
#
# Indices 1 2 3 4 5 6 
#
# 1 76.8094 23.2450 40.8081 0.0000 0.0000 0.0000
# 2 23.2450 46.0933 33.0945 0.0000 0.0000 0.0000
# 3 40.8081 33.0945 119.1505 0.0000 0.0000 0.0000
# 4 0.0000 0.0000 0.0000 26.7558 0.0000 0.0000
# 5 0.0000 0.0000 0.0000 0.0000 33.7685 0.0000
# 6 0.0000 0.0000 0.0000 0.0000 0.0000 19.0837
#
#
#
# Elastic Compliance Matrix: (Units=1/GPa)
#
#
# Indices 1 2 3 4 5 6 
#
# 1 0.016952 -0.005472 -0.004286 0.000000 0.000000 0.000000
# 2 -0.005472 0.028865 -0.006143 0.000000 0.000000 0.000000
# 3 -0.004286 -0.006143 0.011567 0.000000 0.000000 0.000000
# 4 0.000000 0.000000 0.000000 0.037375 0.000000 0.000000
# 5 0.000000 0.000000 0.000000 0.000000 0.029613 0.000000
# 6 0.000000 0.000000 0.000000 0.000000 0.000000 0.052401
#
#
# Mechanical properties :
#
#
# Convention : Reuss Voigt Hill
#
# Bulk Modulus (GPa) = 39.08976 48.48316 43.78646
# Shear Modulus (GPa) = 23.03039 25.58196 24.30617
#
# Velocity S-wave (km/s) = 3.50155 3.69043 3.59723
# Velocity P-wave (km/s) = 6.09577 6.63102 6.36902
#
# Compressibility (1/GPa) = 0.02558214
#
# Stress axis : x y z
#
# Youngs Moduli (GPa) = 58.98866 34.64351 86.45167
#
# Poissons Ratio (x) = 0.18956 0.37056
# Poissons Ratio (y) = 0.32276 0.53112
# Poissons Ratio (z) = 0.25284 0.21283
#
# Static dielectric constant tensor:
#      x y z
#    x 3.776500 0.000000 0.000000 
#    y 0.000000 3.191170 0.000000 
#    z 0.000000 0.000000 3.840020 
# 
# 
# High freq. dielectric constant tensor:
#      x y z
#    x 1.718910 0.000000 0.000000 
#    y 0.000000 1.705090 0.000000 
#    z 0.000000 0.000000 1.743600 
# 
# From -- ./inp_files/28315.got.cif
#   From: 2010.03.12/outbox.cif.g09.slc.cpg/sg59_15_cif.got.tgz:28315.got - 2010.04.16 16:29:54.
