data_PCOD8242071
_publ_section_title
;
Structure prediction by ZEFSAII (Michael W. Deem and Ramdas Pophale) SiO2 
 PCOD8242071
Probable space group: P M M N
;
_chemical_formula_sum "Si O2"
_cell_formula_units_Z 40
_cell_length_a 10.129618
_cell_length_b 9.474445
_cell_length_c 24.240360
_cell_angle_alpha 90.000000
_cell_angle_beta 90.000000
_cell_angle_gamma 90.000000
_cell_volume 2326.408159
_symmetry_space_group_name_H-M "P M M N"
_symmetry_group_IT_number 59
_space_group.IT_coordinate_system_code '2'
_symmetry_cell_setting 'orthorhombic'
loop_
_space_group_symop_operation_xyz
x,y,z
1/2-x,1/2-y,z
1/2+x,-y,-z
-x,1/2+y,-z
-x,-y,-z
1/2+x,1/2+y,-z
1/2-x,y,z
x,1/2-y,z
loop_
_atom_site_type_symbol
_atom_site_label
_atom_site_fract_x
_atom_site_fract_y
_atom_site_fract_z
Si Si1 0.902121 0.916851 0.460665
Si Si2 0.250000 0.581368 0.072181
Si Si3 0.099391 0.588247 0.762332
Si Si4 0.506258 0.584577 0.881371
Si Si5 0.750000 0.083849 0.054570
Si Si6 0.593487 0.594283 0.337392
O O1 0.750000 0.959403 0.472818
O O2 0.920153 0.750000 0.468886
O O3 0.943187 0.961056 0.398387
O O4 0.000000 0.000000 0.500000
O O5 0.250000 0.750000 0.078843
O O6 0.375783 0.514993 0.101078
O O7 0.250000 0.534402 0.008468
O O8 0.250000 0.542145 0.774599
O O9 0.094117 0.750000 0.744982
O O10 0.014262 0.559432 0.816590
O O11 0.035838 0.504514 0.710851
O O12 0.535162 0.750000 0.893798
O O13 0.380136 0.527084 0.915038
O O14 0.750000 0.250000 0.060782
O O15 0.750000 0.599456 0.332944
O O16 0.533935 0.750000 0.328292
#
# Coordination Sequence:
#
# PCOD8242071 Si02
#       6
#     8   4   8   8   4   8
#     4   9  18  32  50  74 104 136 169 205 248 296
#     4  11  23  35  49  75 107 135 166 205 248 301
#     4   9  16  28  50  77  98 121 163 211 248 291
#     4  10  19  35  56  75  99 134 168 204 253 302
#     4   9  18  35  57  77  99 129 168 211 252 295
#     4   8  15  28  46  70 101 132 160 200 253 297
#
# _framework density 17.193888000000001
#
# number of rings (size 3 to 8) (size 9 to 14) (size 15 to 20)
#    0.000    2.800    1.000    2.100    0.000    2.000 
#    0.000    3.500    2.200    0.000    0.000    0.000 
#    0.000    0.000    0.000    0.000    0.000    0.000 
#
# Total GULP energy -495842.762269 kJ/mol
# GULP energy per Si atom -12396.069057 kJ/mol
# Density = 1.715475 g / cm^3
# Si number density = 17.193888 Si / 1000 Ang^3
#
#
#
# Elastic Constant Matrix: (Units=GPa)
#
#
# Indices 1 2 3 4 5 6 
#
# 1 93.8530 48.8533 63.5625 0.0000 0.0000 0.0000
# 2 48.8533 71.8459 72.8845 0.0000 0.0000 0.0000
# 3 63.5625 72.8845 150.0000 0.0000 0.0000 0.0000
# 4 0.0000 0.0000 0.0000 33.7077 0.0000 0.0000
# 5 0.0000 0.0000 0.0000 0.0000 24.8082 0.0000
# 6 0.0000 0.0000 0.0000 0.0000 0.0000 16.6405
#
#
#
# Elastic Compliance Matrix: (Units=1/GPa)
#
#
# Indices 1 2 3 4 5 6 
#
# 1 0.017225 -0.008495 -0.003171 0.000000 0.000000 0.000000
# 2 -0.008495 0.031639 -0.011773 0.000000 0.000000 0.000000
# 3 -0.003171 -0.011773 0.013731 0.000000 0.000000 0.000000
# 4 0.000000 0.000000 0.000000 0.029667 0.000000 0.000000
# 5 0.000000 0.000000 0.000000 0.000000 0.040309 0.000000
# 6 0.000000 0.000000 0.000000 0.000000 0.000000 0.060094
#
#
# Mechanical properties :
#
#
# Convention : Reuss Voigt Hill
#
# Bulk Modulus (GPa) = 63.63348 76.25551 69.94450
# Shear Modulus (GPa) = 20.42627 23.72450 22.07539
#
# Velocity S-wave (km/s) = 3.45047 3.71863 3.58705
# Velocity P-wave (km/s) = 7.27764 7.92996 7.61079
#
# Compressibility (1/GPa) = 0.01571500
#
# Stress axis : x y z
#
# Youngs Moduli (GPa) = 58.05608 31.60676 72.82791
#
# Poissons Ratio (x) = 0.26851 0.23094
# Poissons Ratio (y) = 0.49321 0.85742
# Poissons Ratio (z) = 0.18410 0.37211
#
# Static dielectric constant tensor:
#      x y z
#    x 4.340870 0.000000 0.000000 
#    y 0.000000 3.207020 0.000000 
#    z 0.000000 0.000000 3.479630 
# 
# 
# High freq. dielectric constant tensor:
#      x y z
#    x 1.635200 0.000000 0.000000 
#    y 0.000000 1.652660 0.000000 
#    z 0.000000 0.000000 1.677550 
# 
# From -- ./inp_files/32440.got.cif
#   From: 2010.03.12/outbox.cif.g09.slc.cpg/sg59_17_cif.got.tgz:32440.got - 2010.04.16 16:29:54.
