data_PCOD8242467
_publ_section_title
;
Structure prediction by ZEFSAII (Michael W. Deem and Ramdas Pophale) SiO2 
 PCOD8242467
Probable space group: P M M N
;
_chemical_formula_sum "Si O2"
_cell_formula_units_Z 64
_cell_length_a 9.184215
_cell_length_b 22.884151
_cell_length_c 15.968008
_cell_angle_alpha 90.000000
_cell_angle_beta 90.000000
_cell_angle_gamma 90.000000
_cell_volume 3356.043553
_symmetry_space_group_name_H-M "P M M N"
_symmetry_group_IT_number 59
_space_group.IT_coordinate_system_code '2'
_symmetry_cell_setting 'orthorhombic'
loop_
_space_group_symop_operation_xyz
x,y,z
1/2-x,1/2-y,z
1/2+x,-y,-z
-x,1/2+y,-z
-x,-y,-z
1/2+x,1/2+y,-z
1/2-x,y,z
x,1/2-y,z
loop_
_atom_site_type_symbol
_atom_site_label
_atom_site_fract_x
_atom_site_fract_y
_atom_site_fract_z
Si Si1 0.580798 0.534838 0.891490
Si Si2 0.916904 0.314522 0.348064
Si Si3 0.088974 0.181480 0.505808
Si Si4 0.413927 0.926624 0.737393
Si Si5 0.921337 0.091504 0.960414
Si Si6 0.577117 0.819032 0.157149
Si Si7 0.077782 0.124593 0.670688
Si Si8 0.583669 0.993556 0.412920
O O1 0.750000 0.548399 0.905269
O O2 0.534562 0.545529 0.796387
O O3 0.545246 0.467034 0.907831
O O4 0.488258 0.579681 0.948001
O O5 0.750000 0.311104 0.374642
O O6 0.976191 0.250000 0.323703
O O7 0.938523 0.356683 0.268098
O O8 0.997667 0.342219 0.427984
O O9 0.250000 0.153594 0.499212
O O10 0.096056 0.250000 0.501503
O O11 0.017538 0.163741 0.594164
O O12 0.250000 0.941755 0.769427
O O13 0.434721 0.948709 0.642405
O O14 0.750000 0.103987 0.968784
O O15 0.998177 0.147854 0.919462
O O16 0.750000 0.827188 0.147373
O O17 0.536649 0.750000 0.156803
O O18 0.515308 0.849915 0.241920
O O19 0.250000 0.130008 0.678805
O O20 0.027359 0.058830 0.648112
O O21 0.750000 0.981359 0.437689
O O22 0.500000 0.000000 0.500000
#
# Coordination Sequence:
#
# PCOD8242467 Si02
#       8
#     8   8   8   8   8   8   8   8
#     4  10  21  37  60  86 107 134 175 220 266 321
#     4   9  18  32  48  67  95 131 168 207 255 308
#     4   9  16  27  45  67  91 125 171 215 251 293
#     4  10  20  34  52  75 103 135 172 215 265 318
#     4  10  21  38  59  83 111 140 171 213 268 326
#     4  10  20  35  57  83 112 148 188 228 270 323
#     4   9  17  30  48  71 101 137 176 219 267 316
#     4  10  20  32  48  72 104 142 181 224 275 326
#
# _framework density 19.070073000000001
#
# number of rings (size 3 to 8) (size 9 to 14) (size 15 to 20)
#    0.000    2.375    0.000    2.625    0.000    5.250 
#    0.000    1.875    0.000    3.750    0.000    0.000 
#    0.000    0.000    0.000    0.000    0.000    0.000 
#
# Total GULP energy -793275.682825 kJ/mol
# GULP energy per Si atom -12394.932544 kJ/mol
# Density = 1.902667 g / cm^3
# Si number density = 19.070073 Si / 1000 Ang^3
#
#
#
# Elastic Constant Matrix: (Units=GPa)
#
#
# Indices 1 2 3 4 5 6 
#
# 1 60.9507 38.4080 36.5296 0.0000 0.0000 0.0000
# 2 38.4080 96.8011 44.4516 0.0000 0.0000 0.0000
# 3 36.5296 44.4516 80.0890 0.0000 0.0000 0.0000
# 4 0.0000 0.0000 0.0000 33.8774 0.0000 0.0000
# 5 0.0000 0.0000 0.0000 0.0000 30.7889 0.0000
# 6 0.0000 0.0000 0.0000 0.0000 0.0000 23.9907
#
#
#
# Elastic Compliance Matrix: (Units=1/GPa)
#
#
# Indices 1 2 3 4 5 6 
#
# 1 0.025170 -0.006328 -0.007968 0.000000 0.000000 0.000000
# 2 -0.006328 0.015455 -0.005692 0.000000 0.000000 0.000000
# 3 -0.007968 -0.005692 0.019280 0.000000 0.000000 0.000000
# 4 0.000000 0.000000 0.000000 0.029518 0.000000 0.000000
# 5 0.000000 0.000000 0.000000 0.000000 0.032479 0.000000
# 6 0.000000 0.000000 0.000000 0.000000 0.000000 0.041683
#
#
# Mechanical properties :
#
#
# Convention : Reuss Voigt Hill
#
# Bulk Modulus (GPa) = 50.17828 52.95767 51.56798
# Shear Modulus (GPa) = 23.78664 25.62817 24.70741
#
# Velocity S-wave (km/s) = 3.53558 3.66989 3.60337
# Velocity P-wave (km/s) = 6.56025 6.76667 6.66426
#
# Compressibility (1/GPa) = 0.01992894
#
# Stress axis : x y z
#
# Youngs Moduli (GPa) = 39.73047 64.70518 51.86843
#
# Poissons Ratio (x) = 0.40943 0.41330
# Poissons Ratio (y) = 0.25140 0.29522
# Poissons Ratio (z) = 0.31658 0.36828
#
# Static dielectric constant tensor:
#      x y z
#    x 3.448090 0.000000 0.000000 
#    y 0.000000 3.637540 0.000000 
#    z 0.000000 0.000000 3.391570 
# 
# 
# High freq. dielectric constant tensor:
#      x y z
#    x 1.720390 0.000000 0.000000 
#    y 0.000000 1.748490 0.000000 
#    z 0.000000 0.000000 1.732850 
# 
# From -- ./inp_files/21632.got.cif
#   From: 2010.03.12/outbox.cif.g09.slc.cpg/sg59_11_cif.got.tgz:21632.got - 2010.04.16 16:29:54.
