data_PCOD8242614
_publ_section_title
;
Structure prediction by ZEFSAII (Michael W. Deem and Ramdas Pophale) SiO2 
 PCOD8242614
Probable space group: P M M N
;
_chemical_formula_sum "Si O2"
_cell_formula_units_Z 56
_cell_length_a 16.323045
_cell_length_b 9.262894
_cell_length_c 19.878234
_cell_angle_alpha 90.000000
_cell_angle_beta 90.000000
_cell_angle_gamma 90.000000
_cell_volume 3005.561859
_symmetry_space_group_name_H-M "P M M N"
_symmetry_group_IT_number 59
_space_group.IT_coordinate_system_code '2'
_symmetry_cell_setting 'orthorhombic'
loop_
_space_group_symop_operation_xyz
x,y,z
1/2-x,1/2-y,z
1/2+x,-y,-z
-x,1/2+y,-z
-x,-y,-z
1/2+x,1/2+y,-z
1/2-x,y,z
x,1/2-y,z
loop_
_atom_site_type_symbol
_atom_site_label
_atom_site_fract_x
_atom_site_fract_y
_atom_site_fract_z
Si Si1 0.415510 0.420371 0.981699
Si Si2 0.658588 0.922151 0.420134
Si Si3 0.250000 0.079296 0.062432
Si Si4 0.250000 0.921473 0.204128
Si Si5 0.573590 0.579701 0.288352
Si Si6 0.652712 0.911334 0.567010
Si Si7 0.159069 0.421600 0.843284
Si Si8 0.609050 0.418383 0.697018
O O1 0.430193 0.250000 0.989330
O O2 0.398418 0.467136 0.905009
O O3 0.500000 0.500000 0.000000
O O4 0.334149 0.466603 0.024054
O O5 0.750000 0.982282 0.408466
O O6 0.660194 0.750000 0.419548
O O7 0.602969 0.985815 0.359842
O O8 0.624272 0.970780 0.493425
O O9 0.250000 0.250000 0.073212
O O10 0.250000 0.000151 0.133409
O O11 0.250000 0.750000 0.191862
O O12 0.327956 0.974997 0.247073
O O13 0.587649 0.750000 0.290613
O O14 0.623833 0.512766 0.226085
O O15 0.479674 0.541039 0.275026
O O16 0.750000 0.909811 0.568447
O O17 0.618896 0.750000 0.579564
O O18 0.618688 0.013685 0.624116
O O19 0.250000 0.484238 0.854429
O O20 0.162698 0.250000 0.839327
O O21 0.622053 0.250000 0.685880
#
# Coordination Sequence:
#
# PCOD8242614 Si02
#       8
#     8   8   4   4   8   8   8   8
#     4  10  21  37  58  85 115 144 180 224 269 322
#     4   8  14  26  44  69  98 126 162 208 251 298
#     4  10  22  40  58  82 113 146 184 226 271 322
#     4  10  22  36  52  74 103 138 176 216 263 314
#     4   9  17  27  45  73 101 128 163 209 258 300
#     4   9  17  30  49  69  94 131 170 205 248 303
#     4   9  16  30  53  76 101 135 171 209 255 308
#     4  10  20  33  48  72 102 130 166 212 256 305
#
# _framework density 18.632123
#
# number of rings (size 3 to 8) (size 9 to 14) (size 15 to 20)
#    0.000    2.714    1.429    1.286    2.000    3.429 
#    0.000    0.000    0.000    0.000    0.000    0.000 
#    0.000    3.429    0.000    0.000    0.000    0.000 
#
# Total GULP energy -694021.661274 kJ/mol
# GULP energy per Si atom -12393.243951 kJ/mol
# Density = 1.858972 g / cm^3
# Si number density = 18.632123 Si / 1000 Ang^3
#
#
#
# Elastic Constant Matrix: (Units=GPa)
#
#
# Indices 1 2 3 4 5 6 
#
# 1 124.0451 31.5814 73.6833 0.0000 0.0000 0.0000
# 2 31.5814 20.9171 31.7027 0.0000 0.0000 0.0000
# 3 73.6833 31.7027 167.1602 0.0000 0.0000 0.0000
# 4 0.0000 0.0000 0.0000 20.5819 0.0000 0.0000
# 5 0.0000 0.0000 0.0000 0.0000 34.0038 0.0000
# 6 0.0000 0.0000 0.0000 0.0000 0.0000 16.3962
#
#
#
# Elastic Compliance Matrix: (Units=1/GPa)
#
#
# Indices 1 2 3 4 5 6 
#
# 1 0.014131 -0.016693 -0.003063 0.000000 0.000000 0.000000
# 2 -0.016693 0.086813 -0.009106 0.000000 0.000000 0.000000
# 3 -0.003063 -0.009106 0.009059 0.000000 0.000000 0.000000
# 4 0.000000 0.000000 0.000000 0.048586 0.000000 0.000000
# 5 0.000000 0.000000 0.000000 0.000000 0.029408 0.000000
# 6 0.000000 0.000000 0.000000 0.000000 0.000000 0.060990
#
#
# Mechanical properties :
#
#
# Convention : Reuss Voigt Hill
#
# Bulk Modulus (GPa) = 19.12811 65.11747 42.12279
# Shear Modulus (GPa) = 15.42545 25.87339 20.64942
#
# Velocity S-wave (km/s) = 2.88044 3.73049 3.33268
# Velocity P-wave (km/s) = 4.62072 7.31986 6.12092
#
# Compressibility (1/GPa) = 0.05227909
#
# Stress axis : x y z
#
# Youngs Moduli (GPa) = 70.76651 11.51895 110.38187
#
# Poissons Ratio (x) = 0.19229 0.33809
# Poissons Ratio (y) = 1.18132 1.00517
# Poissons Ratio (z) = 0.21675 0.10490
#
# Static dielectric constant tensor:
#      x y z
#    x 3.575810 0.000000 0.000000 
#    y 0.000000 3.050160 0.000000 
#    z 0.000000 0.000000 3.878440 
# 
# 
# High freq. dielectric constant tensor:
#      x y z
#    x 1.729230 0.000000 0.000000 
#    y 0.000000 1.662810 0.000000 
#    z 0.000000 0.000000 1.741810 
# 
# From -- ./inp_files/30505.got.cif
#   From: 2010.03.12/outbox.cif.g09.slc.cpg/sg59_16_cif.got.tgz:30505.got - 2010.04.16 16:29:54.
