data_PCOD8242906
_publ_section_title
;
Structure prediction by ZEFSAII (Michael W. Deem and Ramdas Pophale) SiO2 
 PCOD8242906
Probable space group: P M M N
;
_chemical_formula_sum "Si O2"
_cell_formula_units_Z 48
_cell_length_a 8.964278
_cell_length_b 14.175754
_cell_length_c 20.893374
_cell_angle_alpha 90.000000
_cell_angle_beta 90.000000
_cell_angle_gamma 90.000000
_cell_volume 2655.033852
_symmetry_space_group_name_H-M "P M M N"
_symmetry_group_IT_number 59
_space_group.IT_coordinate_system_code '2'
_symmetry_cell_setting 'orthorhombic'
loop_
_space_group_symop_operation_xyz
x,y,z
1/2-x,1/2-y,z
1/2+x,-y,-z
-x,1/2+y,-z
-x,-y,-z
1/2+x,1/2+y,-z
1/2-x,y,z
x,1/2-y,z
loop_
_atom_site_type_symbol
_atom_site_label
_atom_site_fract_x
_atom_site_fract_y
_atom_site_fract_z
Si Si1 0.075172 0.508708 0.597369
Si Si2 0.926492 0.498601 0.068763
Si Si3 0.922348 0.141691 0.840945
Si Si4 0.076670 0.141502 0.161409
Si Si5 0.419734 0.501772 0.270361
Si Si6 0.425697 0.356461 0.495096
O O1 0.250000 0.523623 0.593333
O O2 0.024115 0.417298 0.556636
O O3 0.029738 0.493412 0.670240
O O4 0.998497 0.602129 0.569179
O O5 0.750000 0.497034 0.061918
O O6 0.975844 0.592571 0.105987
O O7 0.979418 0.404892 0.105572
O O8 0.000000 0.500000 0.000000
O O9 0.750000 0.129498 0.861414
O O10 0.970246 0.250000 0.835875
O O11 0.949055 0.094563 0.772025
O O12 0.250000 0.128682 0.143192
O O13 0.030395 0.250000 0.168108
O O14 0.043403 0.091194 0.228887
O O15 0.250000 0.498849 0.295239
O O16 0.250000 0.359595 0.485310
O O17 0.482807 0.250000 0.505585
#
# Coordination Sequence:
#
# PCOD8242906 Si02
#       6
#     8   8   8   8   8   8
#     4  10  20  33  51  77 105 132 167 213 258 301
#     4  11  22  36  55  79 108 140 174 214 260 310
#     4   9  19  37  58  79 105 137 175 217 257 302
#     4   9  19  37  58  78 103 137 177 218 258 304
#     4   9  18  33  53  78 107 139 171 204 252 311
#     4   9  19  36  54  71  97 135 174 211 255 306
#
# _framework density 18.078866000000001
#
# number of rings (size 3 to 8) (size 9 to 14) (size 15 to 20)
#    0.000    2.500    0.000    3.000    0.000    6.333 
#    0.000    1.667    0.000    0.000    0.000    0.000 
#    0.000    0.000    0.000    0.000    0.000    0.000 
#
# Total GULP energy -595323.829161 kJ/mol
# GULP energy per Si atom -12402.579774 kJ/mol
# Density = 1.803772 g / cm^3
# Si number density = 18.078866 Si / 1000 Ang^3
#
#
#
# Elastic Constant Matrix: (Units=GPa)
#
#
# Indices 1 2 3 4 5 6 
#
# 1 72.4067 47.0330 48.1555 0.0000 0.0000 0.0000
# 2 47.0330 164.0005 59.0396 0.0000 0.0000 0.0000
# 3 48.1555 59.0396 117.6223 0.0000 0.0000 0.0000
# 4 0.0000 0.0000 0.0000 12.3219 0.0000 0.0000
# 5 0.0000 0.0000 0.0000 0.0000 36.6839 0.0000
# 6 0.0000 0.0000 0.0000 0.0000 0.0000 25.5277
#
#
#
# Elastic Compliance Matrix: (Units=1/GPa)
#
#
# Indices 1 2 3 4 5 6 
#
# 1 0.020491 -0.003486 -0.006639 0.000000 0.000000 0.000000
# 2 -0.003486 0.008036 -0.002606 0.000000 0.000000 0.000000
# 3 -0.006639 -0.002606 0.012528 0.000000 0.000000 0.000000
# 4 0.000000 0.000000 0.000000 0.081156 0.000000 0.000000
# 5 0.000000 0.000000 0.000000 0.000000 0.027260 0.000000
# 6 0.000000 0.000000 0.000000 0.000000 0.000000 0.039173
#
#
# Mechanical properties :
#
#
# Convention : Reuss Voigt Hill
#
# Bulk Modulus (GPa) = 64.13835 73.60954 68.87395
# Shear Modulus (GPa) = 22.79933 28.22678 25.51306
#
# Velocity S-wave (km/s) = 3.55506 3.95563 3.76068
# Velocity P-wave (km/s) = 7.23914 7.85283 7.55222
#
# Compressibility (1/GPa) = 0.01559130
#
# Stress axis : x y z
#
# Youngs Moduli (GPa) = 48.80164 124.44676 79.82119
#
# Poissons Ratio (x) = 0.43388 0.52995
# Poissons Ratio (y) = 0.17015 0.20801
# Poissons Ratio (z) = 0.32401 0.32431
#
# Static dielectric constant tensor:
#      x y z
#    x 3.272000 0.000000 0.000000 
#    y 0.000000 3.636010 0.000000 
#    z 0.000000 0.000000 3.269350 
# 
# 
# High freq. dielectric constant tensor:
#      x y z
#    x 1.697010 0.000000 0.000000 
#    y 0.000000 1.705480 0.000000 
#    z 0.000000 0.000000 1.698760 
# 
# From -- ./inp_files/25482.got.cif
#   From: 2010.03.12/outbox.cif.g09.slc.cpg/sg59_13_cif.got.tgz:25482.got - 2010.04.16 16:29:54.
