data_PCOD8242901
_publ_section_title
;
Structure prediction by ZEFSAII (Michael W. Deem and Ramdas Pophale) SiO2 
 PCOD8242901
Probable space group: P M M N
;
_chemical_formula_sum "Si O2"
_cell_formula_units_Z 48
_cell_length_a 13.662166
_cell_length_b 9.181922
_cell_length_c 21.110671
_cell_angle_alpha 90.000000
_cell_angle_beta 90.000000
_cell_angle_gamma 90.000000
_cell_volume 2648.226911
_symmetry_space_group_name_H-M "P M M N"
_symmetry_group_IT_number 59
_space_group.IT_coordinate_system_code '2'
_symmetry_cell_setting 'orthorhombic'
loop_
_space_group_symop_operation_xyz
x,y,z
1/2-x,1/2-y,z
1/2+x,-y,-z
-x,1/2+y,-z
-x,-y,-z
1/2+x,1/2+y,-z
1/2-x,y,z
x,1/2-y,z
loop_
_atom_site_type_symbol
_atom_site_label
_atom_site_fract_x
_atom_site_fract_y
_atom_site_fract_z
Si Si1 0.358534 0.580533 0.905476
Si Si2 0.863482 0.922523 0.712359
Si Si3 0.860097 0.916561 0.479551
Si Si4 0.049168 0.420000 0.157691
Si Si5 0.050739 0.919684 0.406050
Si Si6 0.634327 0.585513 0.971532
O O1 0.250000 0.520933 0.887821
O O2 0.353809 0.750000 0.920956
O O3 0.432009 0.549913 0.846739
O O4 0.403530 0.505973 0.968268
O O5 0.750000 0.965686 0.705922
O O6 0.878151 0.750000 0.707302
O O7 0.905312 0.987305 0.778522
O O8 0.927035 0.997196 0.658298
O O9 0.750000 0.944677 0.454099
O O10 0.872535 0.750000 0.502955
O O11 0.936926 0.949481 0.423402
O O12 0.879252 0.020873 0.538818
O O13 0.073953 0.250000 0.159181
O O14 0.098695 0.486274 0.094499
O O15 0.072868 0.750000 0.397154
O O16 0.750000 0.582722 0.971612
O O17 0.593691 0.750000 0.977951
#
# Coordination Sequence:
#
# PCOD8242901 Si02
#       6
#     8   8   8   8   8   8
#     4   9  17  29  45  65  89 116 147 188 239 286
#     4  10  20  34  51  69  93 128 165 196 232 284
#     4   9  18  34  55  76 100 132 165 193 227 277
#     4   9  17  30  47  65  87 119 158 193 225 272
#     4  10  20  33  51  77 105 129 157 197 240 276
#     4   9  16  27  45  67  88 112 147 190 232 275
#
# _framework density 18.125335
#
# number of rings (size 3 to 8) (size 9 to 14) (size 15 to 20)
#    0.000    2.667    0.000    2.000    0.000    5.333 
#    0.000    2.500    0.000    3.000    0.000    0.000 
#    0.000    0.000    0.000    0.000    0.000    0.000 
#
# Total GULP energy -595031.351096 kJ/mol
# GULP energy per Si atom -12396.486481 kJ/mol
# Density = 1.808408 g / cm^3
# Si number density = 18.125335 Si / 1000 Ang^3
#
#
#
# Elastic Constant Matrix: (Units=GPa)
#
#
# Indices 1 2 3 4 5 6 
#
# 1 101.7680 31.8814 62.2989 0.0000 0.0000 0.0000
# 2 31.8814 43.2812 37.6641 0.0000 0.0000 0.0000
# 3 62.2989 37.6641 118.5509 0.0000 0.0000 0.0000
# 4 0.0000 0.0000 0.0000 26.7086 0.0000 0.0000
# 5 0.0000 0.0000 0.0000 0.0000 26.2355 0.0000
# 6 0.0000 0.0000 0.0000 0.0000 0.0000 20.6995
#
#
#
# Elastic Compliance Matrix: (Units=1/GPa)
#
#
# Indices 1 2 3 4 5 6 
#
# 1 0.015537 -0.005998 -0.006259 0.000000 0.000000 0.000000
# 2 -0.005998 0.034249 -0.007729 0.000000 0.000000 0.000000
# 3 -0.006259 -0.007729 0.014180 0.000000 0.000000 0.000000
# 4 0.000000 0.000000 0.000000 0.037441 0.000000 0.000000
# 5 0.000000 0.000000 0.000000 0.000000 0.038116 0.000000
# 6 0.000000 0.000000 0.000000 0.000000 0.000000 0.048310
#
#
# Mechanical properties :
#
#
# Convention : Reuss Voigt Hill
#
# Bulk Modulus (GPa) = 41.67795 58.58765 50.13280
# Shear Modulus (GPa) = 21.20411 23.51244 22.35828
#
# Velocity S-wave (km/s) = 3.42403 3.60559 3.51599
# Velocity P-wave (km/s) = 6.21902 7.05178 6.64845
#
# Compressibility (1/GPa) = 0.02399350
#
# Stress axis : x y z
#
# Youngs Moduli (GPa) = 64.36306 29.19812 70.52199
#
# Poissons Ratio (x) = 0.17512 0.44141
# Poissons Ratio (y) = 0.38604 0.54507
# Poissons Ratio (z) = 0.40286 0.22568
#
# Static dielectric constant tensor:
#      x y z
#    x 3.592540 0.000000 0.000000 
#    y 0.000000 3.275810 0.000000 
#    z 0.000000 0.000000 3.311260 
# 
# 
# High freq. dielectric constant tensor:
#      x y z
#    x 1.717320 0.000000 0.000000 
#    y 0.000000 1.678900 0.000000 
#    z 0.000000 0.000000 1.685300 
# 
# From -- ./inp_files/25494.got.cif
#   From: 2010.03.12/outbox.cif.g09.slc.cpg/sg59_13_cif.got.tgz:25494.got - 2010.04.16 16:29:54.
