data_PCOD8242756
_publ_section_title
;
Structure prediction by ZEFSAII (Michael W. Deem and Ramdas Pophale) SiO2 
 PCOD8242756
Probable space group: P M M N
;
_chemical_formula_sum "Si O2"
_cell_formula_units_Z 64
_cell_length_a 9.342380
_cell_length_b 22.423706
_cell_length_c 17.247560
_cell_angle_alpha 90.000000
_cell_angle_beta 90.000000
_cell_angle_gamma 90.000000
_cell_volume 3613.204840
_symmetry_space_group_name_H-M "P M M N"
_symmetry_group_IT_number 59
_space_group.IT_coordinate_system_code '2'
_symmetry_cell_setting 'orthorhombic'
loop_
_space_group_symop_operation_xyz
x,y,z
1/2-x,1/2-y,z
1/2+x,-y,-z
-x,1/2+y,-z
-x,-y,-z
1/2+x,1/2+y,-z
1/2-x,y,z
x,1/2-y,z
loop_
_atom_site_type_symbol
_atom_site_label
_atom_site_fract_x
_atom_site_fract_y
_atom_site_fract_z
Si Si1 0.081822 0.912879 0.640539
Si Si2 0.914455 0.560703 0.499958
Si Si3 0.085023 0.354057 0.090817
Si Si4 0.086104 0.320030 0.920092
Si Si5 0.080999 0.905668 0.187950
Si Si6 0.586379 0.316589 0.234540
Si Si7 0.913356 0.989189 0.923363
Si Si8 0.911828 0.949929 0.328048
O O1 0.250000 0.906268 0.622806
O O2 0.028643 0.865540 0.704707
O O3 0.993504 0.896485 0.562098
O O4 0.043894 0.980150 0.667306
O O5 0.750000 0.550685 0.525406
O O6 0.921236 0.583626 0.411325
O O7 0.000000 0.500000 0.500000
O O8 0.250000 0.334911 0.096652
O O9 0.060745 0.423401 0.109319
O O10 0.999431 0.317296 0.154400
O O11 0.027636 0.338707 0.004863
O O12 0.250000 0.341926 0.910692
O O13 0.073448 0.250000 0.909106
O O14 0.988538 0.349296 0.854352
O O15 0.250000 0.895811 0.193184
O O16 0.018272 0.913130 0.273683
O O17 0.036794 0.965370 0.142430
O O18 0.750000 0.331450 0.214519
O O19 0.570712 0.250000 0.270170
O O20 0.750000 0.999815 0.946307
O O21 0.000000 0.000000 0.000000
O O22 0.750000 0.945832 0.295767
#
# Coordination Sequence:
#
# PCOD8242756 Si02
#       8
#     8   8   8   8   8   8   8   8
#     4   9  18  33  52  76 106 140 174 209 255 307
#     4   9  17  30  51  79 107 134 165 201 246 302
#     4  10  20  35  54  75 100 133 174 216 256 305
#     4  10  21  37  55  71  93 133 177 213 254 303
#     4  11  22  33  50  78 105 131 167 212 260 303
#     4  10  21  35  51  74 105 141 179 218 259 304
#     4  10  20  33  50  74 102 130 164 208 257 307
#     4   9  18  32  51  76 105 135 166 205 258 315
#
# _framework density 17.712807999999999
#
# number of rings (size 3 to 8) (size 9 to 14) (size 15 to 20)
#    0.000    2.250    1.250    2.625    0.000    5.500 
#    0.000    0.000    0.000    0.750    0.000    3.500 
#    0.000    0.000    0.000    0.000    0.000    0.000 
#
# Total GULP energy -793553.159975 kJ/mol
# GULP energy per Si atom -12399.268125 kJ/mol
# Density = 1.767249 g / cm^3
# Si number density = 17.712808 Si / 1000 Ang^3
#
#
#
# Elastic Constant Matrix: (Units=GPa)
#
#
# Indices 1 2 3 4 5 6 
#
# 1 77.8601 28.8481 58.9961 0.0000 0.0000 0.0000
# 2 28.8481 63.6636 38.8060 0.0000 0.0000 0.0000
# 3 58.9961 38.8060 119.8489 0.0000 0.0000 0.0000
# 4 0.0000 0.0000 0.0000 18.5855 0.0000 0.0000
# 5 0.0000 0.0000 0.0000 0.0000 36.2760 0.0000
# 6 0.0000 0.0000 0.0000 0.0000 0.0000 22.4936
#
#
#
# Elastic Compliance Matrix: (Units=1/GPa)
#
#
# Indices 1 2 3 4 5 6 
#
# 1 0.021295 -0.004061 -0.009167 0.000000 0.000000 0.000000
# 2 -0.004061 0.020345 -0.004588 0.000000 0.000000 0.000000
# 3 -0.009167 -0.004588 0.014342 0.000000 0.000000 0.000000
# 4 0.000000 0.000000 0.000000 0.053805 0.000000 0.000000
# 5 0.000000 0.000000 0.000000 0.000000 0.027566 0.000000
# 6 0.000000 0.000000 0.000000 0.000000 0.000000 0.044457
#
#
# Mechanical properties :
#
#
# Convention : Reuss Voigt Hill
#
# Bulk Modulus (GPa) = 49.14592 57.18592 53.16592
# Shear Modulus (GPa) = 22.29888 24.45251 23.37570
#
# Velocity S-wave (km/s) = 3.55197 3.71954 3.63672
# Velocity P-wave (km/s) = 6.68043 7.12754 6.90760
#
# Compressibility (1/GPa) = 0.02034757
#
# Stress axis : x y z
#
# Youngs Moduli (GPa) = 46.96028 49.15304 69.72480
#
# Poissons Ratio (x) = 0.19963 0.63919
# Poissons Ratio (y) = 0.19072 0.31991
# Poissons Ratio (z) = 0.43050 0.22552
#
# Static dielectric constant tensor:
#      x y z
#    x 3.388950 0.000000 0.000000 
#    y 0.000000 3.159920 0.000000 
#    z 0.000000 0.000000 3.487660 
# 
# 
# High freq. dielectric constant tensor:
#      x y z
#    x 1.687520 0.000000 0.000000 
#    y 0.000000 1.662820 0.000000 
#    z 0.000000 0.000000 1.684590 
# 
# From -- ./inp_files/26166.got.cif
#   From: 2010.03.12/outbox.cif.g09.slc.cpg/sg59_14_cif.got.tgz:26166.got - 2010.04.16 16:29:54.
