data_PCOD8242305
_publ_section_title
;
Structure prediction by ZEFSAII (Michael W. Deem and Ramdas Pophale) SiO2 
 PCOD8242305
Probable space group: P M M N
;
_chemical_formula_sum "Si O2"
_cell_formula_units_Z 56
_cell_length_a 9.215588
_cell_length_b 19.264826
_cell_length_c 17.951134
_cell_angle_alpha 90.000000
_cell_angle_beta 90.000000
_cell_angle_gamma 90.000000
_cell_volume 3186.985079
_symmetry_space_group_name_H-M "P M M N"
_symmetry_group_IT_number 59
_space_group.IT_coordinate_system_code '2'
_symmetry_cell_setting 'orthorhombic'
loop_
_space_group_symop_operation_xyz
x,y,z
1/2-x,1/2-y,z
1/2+x,-y,-z
-x,1/2+y,-z
-x,-y,-z
1/2+x,1/2+y,-z
1/2-x,y,z
x,1/2-y,z
loop_
_atom_site_type_symbol
_atom_site_label
_atom_site_fract_x
_atom_site_fract_y
_atom_site_fract_z
Si Si1 0.422766 0.424519 0.289759
Si Si2 0.921371 0.087222 0.871223
Si Si3 0.078167 0.921239 0.296239
Si Si4 0.078541 0.330064 0.995314
Si Si5 0.922047 0.570431 0.874960
Si Si6 0.419812 0.169860 0.422079
Si Si7 0.079855 0.830098 0.430888
O O1 0.250000 0.422511 0.288703
O O2 0.478420 0.501049 0.312158
O O3 0.480691 0.406453 0.206641
O O4 0.482883 0.370328 0.350233
O O5 0.750000 0.096547 0.882287
O O6 0.969096 0.102998 0.786184
O O7 0.004261 0.143364 0.920368
O O8 0.969818 0.008715 0.893065
O O9 0.250000 0.920206 0.299774
O O10 0.015091 0.870599 0.359574
O O11 0.250000 0.339218 0.986898
O O12 0.036572 0.250000 0.009340
O O13 0.016518 0.376104 0.063829
O O14 0.750000 0.573578 0.873837
O O15 0.250000 0.156168 0.433155
O O16 0.455185 0.250000 0.408242
O O17 0.500583 0.141914 0.495362
O O18 0.250000 0.843073 0.441277
O O19 0.043142 0.750000 0.417414
#
# Coordination Sequence:
#
# PCOD8242305 Si02
#       7
#     8   8   8   8   8   8   8
#     4   8  14  26  45  67  88 110 141 182 219 250
#     4   9  17  31  51  69  86 114 152 190 223 258
#     4   8  15  28  46  67  86 108 145 186 217 250
#     4  10  20  31  44  67  97 122 145 178 221 268
#     4   8  15  29  48  68  89 116 150 184 220 263
#     4   9  17  28  43  65  90 114 142 176 214 256
#     4   9  17  29  44  61  84 115 146 175 212 258
#
# _framework density 17.571466999999998
#
# number of rings (size 3 to 8) (size 9 to 14) (size 15 to 20)
#    0.000    3.286    0.000    2.143    0.000    2.000 
#    0.000    5.000    0.000    6.000    0.000    2.000 
#    0.000    0.000    0.000    0.000    0.000    0.000 
#
# Total GULP energy -694123.076562 kJ/mol
# GULP energy per Si atom -12395.054939 kJ/mol
# Density = 1.753147 g / cm^3
# Si number density = 17.571467 Si / 1000 Ang^3
#
#
#
# Elastic Constant Matrix: (Units=GPa)
#
#
# Indices 1 2 3 4 5 6 
#
# 1 17.4634 23.7567 27.3689 0.0000 0.0000 0.0000
# 2 23.7567 90.3616 75.3812 0.0000 0.0000 0.0000
# 3 27.3689 75.3812 144.1674 0.0000 0.0000 0.0000
# 4 0.0000 0.0000 0.0000 37.7354 0.0000 0.0000
# 5 0.0000 0.0000 0.0000 0.0000 25.5287 0.0000
# 6 0.0000 0.0000 0.0000 0.0000 0.0000 17.0806
#
#
#
# Elastic Compliance Matrix: (Units=1/GPa)
#
#
# Indices 1 2 3 4 5 6 
#
# 1 0.095091 -0.017631 -0.008833 0.000000 0.000000 0.000000
# 2 -0.017631 0.022897 -0.008625 0.000000 0.000000 0.000000
# 3 -0.008833 -0.008625 0.013123 0.000000 0.000000 0.000000
# 4 0.000000 0.000000 0.000000 0.026500 0.000000 0.000000
# 5 0.000000 0.000000 0.000000 0.000000 0.039172 0.000000
# 6 0.000000 0.000000 0.000000 0.000000 0.000000 0.058546
#
#
# Mechanical properties :
#
#
# Convention : Reuss Voigt Hill
#
# Bulk Modulus (GPa) = 16.41167 56.11177 36.26172
# Shear Modulus (GPa) = 14.45837 24.43464 19.44651
#
# Velocity S-wave (km/s) = 2.87162 3.73310 3.33033
# Velocity P-wave (km/s) = 4.51167 7.11226 5.95564
#
# Compressibility (1/GPa) = 0.06093225
#
# Stress axis : x y z
#
# Youngs Moduli (GPa) = 10.51620 43.67310 76.20077
#
# Poissons Ratio (x) = 0.77001 0.67310
# Poissons Ratio (y) = 0.18541 0.65725
# Poissons Ratio (z) = 0.09289 0.37669
#
# Static dielectric constant tensor:
#      x y z
#    x 2.775550 0.000000 0.000000 
#    y 0.000000 3.406020 0.000000 
#    z 0.000000 0.000000 3.671240 
# 
# 
# High freq. dielectric constant tensor:
#      x y z
#    x 1.626930 0.000000 0.000000 
#    y 0.000000 1.678140 0.000000 
#    z 0.000000 0.000000 1.692950 
# 
# From -- ./inp_files/26091.got.cif
#   From: 2010.03.12/outbox.cif.g09.slc.cpg/sg59_14_cif.got.tgz:26091.got - 2010.04.16 16:29:54.
