data_PCOD8242959
_publ_section_title
;
Structure prediction by ZEFSAII (Michael W. Deem and Ramdas Pophale) SiO2 
 PCOD8242959
Probable space group: P M M N
;
_chemical_formula_sum "Si O2"
_cell_formula_units_Z 64
_cell_length_a 18.511822
_cell_length_b 9.090465
_cell_length_c 21.758678
_cell_angle_alpha 90.000000
_cell_angle_beta 90.000000
_cell_angle_gamma 90.000000
_cell_volume 3661.573615
_symmetry_space_group_name_H-M "P M M N"
_symmetry_group_IT_number 59
_space_group.IT_coordinate_system_code '2'
_symmetry_cell_setting 'orthorhombic'
loop_
_space_group_symop_operation_xyz
x,y,z
1/2-x,1/2-y,z
1/2+x,-y,-z
-x,1/2+y,-z
-x,-y,-z
1/2+x,1/2+y,-z
1/2-x,y,z
x,1/2-y,z
loop_
_atom_site_type_symbol
_atom_site_label
_atom_site_fract_x
_atom_site_fract_y
_atom_site_fract_z
Si Si1 0.956736 0.576925 0.554289
Si Si2 0.167785 0.078793 0.626705
Si Si3 0.167226 0.918726 0.498612
Si Si4 0.525541 0.577992 0.806906
Si Si5 0.108059 0.914727 0.018590
Si Si6 0.039272 0.578952 0.678139
Si Si7 0.455691 0.085197 0.914208
Si Si8 0.830235 0.920410 0.871301
O O1 0.952735 0.750000 0.542773
O O2 0.876679 0.506792 0.553454
O O3 0.000000 0.500000 0.500000
O O4 0.991652 0.537847 0.619266
O O5 0.250000 0.053249 0.649121
O O6 0.152394 0.250000 0.614983
O O7 0.152289 0.991392 0.564318
O O8 0.113438 0.014822 0.677955
O O9 0.250000 0.929989 0.479038
O O10 0.141084 0.750000 0.503030
O O11 0.515390 0.750000 0.818737
O O12 0.508471 0.534511 0.736981
O O13 0.467836 0.495970 0.849696
O O14 0.608295 0.529649 0.822415
O O15 0.135783 0.750000 0.005897
O O16 0.029466 0.912732 0.048296
O O17 0.163215 0.993014 0.064801
O O18 0.105171 0.000898 0.953835
O O19 0.060248 0.750000 0.679334
O O20 0.428159 0.250000 0.901204
O O21 0.750000 0.950581 0.843662
O O22 0.840868 0.750000 0.887305
#
# Coordination Sequence:
#
# PCOD8242959 Si02
#       8
#     8   8   8   8   8   8   8   8
#     4  11  21  33  51  76 104 135 171 216 267 316
#     4  10  20  33  52  77 100 124 158 203 256 315
#     4  10  20  34  52  74 101 132 165 206 261 319
#     4   9  18  33  50  71 100 135 175 215 254 305
#     4   9  16  26  44  70  97 125 157 197 245 292
#     4  10  21  35  52  75 103 136 174 213 258 313
#     4   9  16  27  45  70  97 124 157 199 245 292
#     4   9  17  30  49  72 100 135 174 215 256 296
#
# _framework density 17.478822999999998
#
# number of rings (size 3 to 8) (size 9 to 14) (size 15 to 20)
#    0.000    2.375    1.250    1.875    0.000    5.750 
#    0.000    0.625    0.000    3.000    0.000    3.500 
#    0.000    0.000    0.000    0.000    0.000    0.000 
#
# Total GULP energy -793550.934730 kJ/mol
# GULP energy per Si atom -12399.233355 kJ/mol
# Density = 1.743904 g / cm^3
# Si number density = 17.478823 Si / 1000 Ang^3
#
#
#
# Elastic Constant Matrix: (Units=GPa)
#
#
# Indices 1 2 3 4 5 6 
#
# 1 96.5475 51.0782 56.0646 0.0000 0.0000 0.0000
# 2 51.0782 99.9428 57.7845 0.0000 0.0000 0.0000
# 3 56.0646 57.7845 117.5201 0.0000 0.0000 0.0000
# 4 0.0000 0.0000 0.0000 25.6712 0.0000 0.0000
# 5 0.0000 0.0000 0.0000 0.0000 21.3154 0.0000
# 6 0.0000 0.0000 0.0000 0.0000 0.0000 27.1986
#
#
#
# Elastic Compliance Matrix: (Units=1/GPa)
#
#
# Indices 1 2 3 4 5 6 
#
# 1 0.016110 -0.005295 -0.005082 0.000000 0.000000 0.000000
# 2 -0.005295 0.015721 -0.005204 0.000000 0.000000 0.000000
# 3 -0.005082 -0.005204 0.013492 0.000000 0.000000 0.000000
# 4 0.000000 0.000000 0.000000 0.038954 0.000000 0.000000
# 5 0.000000 0.000000 0.000000 0.000000 0.046914 0.000000
# 6 0.000000 0.000000 0.000000 0.000000 0.000000 0.036767
#
#
# Mechanical properties :
#
#
# Convention : Reuss Voigt Hill
#
# Bulk Modulus (GPa) = 70.61467 71.54057 71.07762
# Shear Modulus (GPa) = 24.52906 24.77591 24.65249
#
# Velocity S-wave (km/s) = 3.75021 3.76903 3.75963
# Velocity P-wave (km/s) = 7.69675 7.74335 7.72008
#
# Compressibility (1/GPa) = 0.01416136
#
# Stress axis : x y z
#
# Youngs Moduli (GPa) = 62.07317 63.61088 74.11701
#
# Poissons Ratio (x) = 0.33683 0.37665
# Poissons Ratio (y) = 0.32869 0.38568
# Poissons Ratio (z) = 0.31545 0.33101
#
# Static dielectric constant tensor:
#      x y z
#    x 3.358610 0.000000 0.000000 
#    y 0.000000 3.427230 0.000000 
#    z 0.000000 0.000000 3.123690 
# 
# 
# High freq. dielectric constant tensor:
#      x y z
#    x 1.663550 0.000000 0.000000 
#    y 0.000000 1.687100 0.000000 
#    z 0.000000 0.000000 1.648770 
# 
# From -- ./inp_files/30806.got.cif
#   From: 2010.03.12/outbox.cif.g09.slc.cpg/sg59_16_cif.got.tgz:30806.got - 2010.04.16 16:29:54.
