data_PCOD8242973
_publ_section_title
;
Structure prediction by ZEFSAII (Michael W. Deem and Ramdas Pophale) SiO2 
 PCOD8242973
Probable space group: P M M N
;
_chemical_formula_sum "Si O2"
_cell_formula_units_Z 48
_cell_length_a 9.286543
_cell_length_b 9.291918
_cell_length_c 30.715274
_cell_angle_alpha 90.000000
_cell_angle_beta 90.000000
_cell_angle_gamma 90.000000
_cell_volume 2650.414729
_symmetry_space_group_name_H-M "P M M N"
_symmetry_group_IT_number 59
_space_group.IT_coordinate_system_code '2'
_symmetry_cell_setting 'orthorhombic'
loop_
_space_group_symop_operation_xyz
x,y,z
1/2-x,1/2-y,z
1/2+x,-y,-z
-x,1/2+y,-z
-x,-y,-z
1/2+x,1/2+y,-z
1/2-x,y,z
x,1/2-y,z
loop_
_atom_site_type_symbol
_atom_site_label
_atom_site_fract_x
_atom_site_fract_y
_atom_site_fract_z
Si Si1 0.409639 0.920955 0.867568
Si Si2 0.583373 0.918414 0.290111
Si Si3 0.916228 0.581258 0.537464
Si Si4 0.918722 0.917252 0.784510
Si Si5 0.415633 0.584144 0.623378
Si Si6 0.580892 0.086448 0.036562
O O1 0.250000 0.979857 0.855976
O O2 0.403881 0.750000 0.870015
O O3 0.520112 0.973420 0.830688
O O4 0.458047 0.976693 0.915364
O O5 0.750000 0.950811 0.279871
O O6 0.550683 0.750000 0.292008
O O7 0.487582 0.989664 0.253301
O O8 0.538667 0.986560 0.336086
O O9 0.750000 0.534254 0.537292
O O10 0.934458 0.750000 0.529270
O O11 0.000000 0.500000 0.500000
O O12 0.984486 0.536544 0.583485
O O13 0.750000 0.943943 0.784692
O O14 0.957596 0.750000 0.777061
O O15 0.250000 0.557584 0.610024
O O16 0.441829 0.750000 0.636200
O O17 0.750000 0.073893 0.028626
O O18 0.528370 0.250000 0.033045
O O19 0.500000 0.000000 0.000000
#
# Coordination Sequence:
#
# PCOD8242973 Si02
#       6
#     8   8   8   8   8   8
#     4   8  15  30  51  72  96 129 169 210 249 294
#     4  10  21  36  54  77 105 137 171 207 251 304
#     4  10  21  36  55  80 109 140 174 213 256 302
#     4  10  20  33  52  78 103 129 166 211 256 302
#     4   9  18  34  55  77 103 137 176 215 253 297
#     4   9  18  32  50  74 102 131 166 207 250 299
#
# _framework density 18.110375000000001
#
# number of rings (size 3 to 8) (size 9 to 14) (size 15 to 20)
#    0.000    2.667    0.000    2.500    0.000    5.333 
#    0.000    5.833    0.000    1.000    0.000    0.000 
#    0.000    0.000    0.000    0.000    0.000    0.000 
#
# Total GULP energy -595191.032243 kJ/mol
# GULP energy per Si atom -12399.813172 kJ/mol
# Density = 1.806915 g / cm^3
# Si number density = 18.110375 Si / 1000 Ang^3
#
#
#
# Elastic Constant Matrix: (Units=GPa)
#
#
# Indices 1 2 3 4 5 6 
#
# 1 103.5078 52.9653 97.6032 0.0000 0.0000 0.0000
# 2 52.9653 67.1454 72.7243 0.0000 0.0000 0.0000
# 3 97.6032 72.7243 178.5460 0.0000 0.0000 0.0000
# 4 0.0000 0.0000 0.0000 31.3217 0.0000 0.0000
# 5 0.0000 0.0000 0.0000 0.0000 39.5506 0.0000
# 6 0.0000 0.0000 0.0000 0.0000 0.0000 26.3584
#
#
#
# Elastic Compliance Matrix: (Units=1/GPa)
#
#
# Indices 1 2 3 4 5 6 
#
# 1 0.021977 -0.007737 -0.008863 0.000000 0.000000 0.000000
# 2 -0.007737 0.029374 -0.007735 0.000000 0.000000 0.000000
# 3 -0.008863 -0.007735 0.013596 0.000000 0.000000 0.000000
# 4 0.000000 0.000000 0.000000 0.031927 0.000000 0.000000
# 5 0.000000 0.000000 0.000000 0.000000 0.025284 0.000000
# 6 0.000000 0.000000 0.000000 0.000000 0.000000 0.037939
#
#
# Mechanical properties :
#
#
# Convention : Reuss Voigt Hill
#
# Bulk Modulus (GPa) = 61.43227 88.42052 74.92640
# Shear Modulus (GPa) = 23.34367 27.83989 25.59178
#
# Velocity S-wave (km/s) = 3.59411 3.92501 3.76320
# Velocity P-wave (km/s) = 7.15669 8.33487 7.76815
#
# Compressibility (1/GPa) = 0.01627809
#
# Stress axis : x y z
#
# Youngs Moduli (GPa) = 45.50190 34.04419 73.55092
#
# Poissons Ratio (x) = 0.26340 0.65185
# Poissons Ratio (y) = 0.35205 0.56890
# Poissons Ratio (z) = 0.40326 0.26332
#
# Static dielectric constant tensor:
#      x y z
#    x 3.117250 0.000000 0.000000 
#    y 0.000000 3.169370 0.000000 
#    z 0.000000 0.000000 3.447290 
# 
# 
# High freq. dielectric constant tensor:
#      x y z
#    x 1.701250 0.000000 0.000000 
#    y 0.000000 1.678300 0.000000 
#    z 0.000000 0.000000 1.715810 
# 
# From -- ./inp_files/32841.got.cif
#   From: 2010.03.12/outbox.cif.g09.slc.cpg/sg59_17_cif.got.tgz:32841.got - 2010.04.16 16:29:54.
