data_PCOD8242926
_publ_section_title
;
Structure prediction by ZEFSAII (Michael W. Deem and Ramdas Pophale) SiO2 
 PCOD8242926
Probable space group: P M M N
;
_chemical_formula_sum "Si O2"
_cell_formula_units_Z 64
_cell_length_a 9.400874
_cell_length_b 24.908452
_cell_length_c 13.777368
_cell_angle_alpha 90.000000
_cell_angle_beta 90.000000
_cell_angle_gamma 90.000000
_cell_volume 3226.125283
_symmetry_space_group_name_H-M "P M M N"
_symmetry_group_IT_number 59
_space_group.IT_coordinate_system_code '2'
_symmetry_cell_setting 'orthorhombic'
loop_
_space_group_symop_operation_xyz
x,y,z
1/2-x,1/2-y,z
1/2+x,-y,-z
-x,1/2+y,-z
-x,-y,-z
1/2+x,1/2+y,-z
1/2-x,y,z
x,1/2-y,z
loop_
_atom_site_type_symbol
_atom_site_label
_atom_site_fract_x
_atom_site_fract_y
_atom_site_fract_z
Si Si1 0.914135 0.590916 0.049342
Si Si2 0.084551 0.480113 0.775367
Si Si3 0.085123 0.812379 0.712275
Si Si4 0.413118 0.459140 0.562770
Si Si5 0.911776 0.811065 0.175314
Si Si6 0.414535 0.158020 0.476874
Si Si7 0.905335 0.310439 0.650445
Si Si8 0.413357 0.906522 0.855247
O O1 0.750000 0.576766 0.030070
O O2 0.980866 0.551985 0.132582
O O3 0.934065 0.652907 0.080417
O O4 0.995752 0.582836 0.950132
O O5 0.250000 0.466095 0.776869
O O6 0.022917 0.458741 0.672431
O O7 0.055117 0.543920 0.782507
O O8 0.250000 0.820542 0.681281
O O9 0.055820 0.750000 0.738808
O O10 0.047961 0.849964 0.804338
O O11 0.981693 0.832084 0.627806
O O12 0.500000 0.500000 0.500000
O O13 0.250000 0.478111 0.565729
O O14 0.431040 0.402701 0.510741
O O15 0.750000 0.814674 0.212926
O O16 0.952328 0.750000 0.147832
O O17 0.005710 0.837038 0.261916
O O18 0.250000 0.176270 0.475249
O O19 0.504459 0.192661 0.552246
O O20 0.750000 0.338665 0.636452
O O21 0.879215 0.250000 0.683372
O O22 0.250000 0.906640 0.887588
#
# Coordination Sequence:
#
# PCOD8242926 Si02
#       8
#     8   8   8   8   8   8   8   8
#     4  10  20  35  56  80 107 141 181 227 281 338
#     4   9  18  35  57  79 108 145 180 220 274 334
#     4  10  22  40  59  79 108 149 193 234 280 337
#     4  10  21  37  57  82 112 146 183 221 268 327
#     4   9  18  33  52  75 106 143 180 220 271 332
#     4  11  22  35  55  83 112 143 181 225 273 327
#     4  10  20  33  51  77 108 142 179 219 266 322
#     4  10  21  37  57  79 104 138 182 231 282 331
#
# _framework density 19.838039999999999
#
# number of rings (size 3 to 8) (size 9 to 14) (size 15 to 20)
#    0.000    2.125    0.000    3.000    0.000    8.000 
#    0.000    1.250    0.000    0.000    0.000    0.000 
#    0.000    0.000    0.000    0.000    0.000    0.000 
#
# Total GULP energy -793409.271412 kJ/mol
# GULP energy per Si atom -12397.019866 kJ/mol
# Density = 1.979289 g / cm^3
# Si number density = 19.838040 Si / 1000 Ang^3
#
#
#
# Elastic Constant Matrix: (Units=GPa)
#
#
# Indices 1 2 3 4 5 6 
#
# 1 74.8786 26.8480 34.0815 0.0000 0.0000 0.0000
# 2 26.8480 97.8526 35.7044 0.0000 0.0000 0.0000
# 3 34.0815 35.7044 91.9302 0.0000 0.0000 0.0000
# 4 0.0000 0.0000 0.0000 29.9853 0.0000 0.0000
# 5 0.0000 0.0000 0.0000 0.0000 36.5176 0.0000
# 6 0.0000 0.0000 0.0000 0.0000 0.0000 22.8297
#
#
#
# Elastic Compliance Matrix: (Units=1/GPa)
#
#
# Indices 1 2 3 4 5 6 
#
# 1 0.016656 -0.002699 -0.005127 0.000000 0.000000 0.000000
# 2 -0.002699 0.012344 -0.003794 0.000000 0.000000 0.000000
# 3 -0.005127 -0.003794 0.014252 0.000000 0.000000 0.000000
# 4 0.000000 0.000000 0.000000 0.033350 0.000000 0.000000
# 5 0.000000 0.000000 0.000000 0.000000 0.027384 0.000000
# 6 0.000000 0.000000 0.000000 0.000000 0.000000 0.043803
#
#
# Mechanical properties :
#
#
# Convention : Reuss Voigt Hill
#
# Bulk Modulus (GPa) = 49.96719 50.88102 50.42411
# Shear Modulus (GPa) = 28.13749 29.06837 28.60293
#
# Velocity S-wave (km/s) = 3.77020 3.83206 3.80125
# Velocity P-wave (km/s) = 6.64792 6.72930 6.68873
#
# Compressibility (1/GPa) = 0.02001313
#
# Stress axis : x y z
#
# Youngs Moduli (GPa) = 60.03757 81.00907 70.16660
#
# Poissons Ratio (x) = 0.21868 0.35972
# Poissons Ratio (y) = 0.16207 0.26618
# Poissons Ratio (z) = 0.30779 0.30732
#
# Static dielectric constant tensor:
#      x y z
#    x 3.684160 0.000000 0.000000 
#    y 0.000000 3.686480 0.000000 
#    z 0.000000 0.000000 3.582210 
# 
# 
# High freq. dielectric constant tensor:
#      x y z
#    x 1.759370 0.000000 0.000000 
#    y 0.000000 1.781460 0.000000 
#    z 0.000000 0.000000 1.768900 
# 
# From -- ./inp_files/21608.got.cif
#   From: 2010.03.12/outbox.cif.g09.slc.cpg/sg59_11_cif.got.tgz:21608.got - 2010.04.16 16:29:54.
