data_PCOD8242183
_publ_section_title
;
Structure prediction by ZEFSAII (Michael W. Deem and Ramdas Pophale) SiO2 
 PCOD8242183
Probable space group: P M M N
;
_chemical_formula_sum "Si O2"
_cell_formula_units_Z 64
_cell_length_a 15.569733
_cell_length_b 21.548626
_cell_length_c 9.651430
_cell_angle_alpha 90.000000
_cell_angle_beta 90.000000
_cell_angle_gamma 90.000000
_cell_volume 3238.116084
_symmetry_space_group_name_H-M "P M M N"
_symmetry_group_IT_number 59
_space_group.IT_coordinate_system_code '2'
_symmetry_cell_setting 'orthorhombic'
loop_
_space_group_symop_operation_xyz
x,y,z
1/2-x,1/2-y,z
1/2+x,-y,-z
-x,1/2+y,-z
-x,-y,-z
1/2+x,1/2+y,-z
1/2-x,y,z
x,1/2-y,z
loop_
_atom_site_type_symbol
_atom_site_label
_atom_site_fract_x
_atom_site_fract_y
_atom_site_fract_z
Si Si1 0.608368 0.446245 0.759499
Si Si2 0.152461 0.907837 0.529529
Si Si3 0.538370 0.319404 0.838914
Si Si4 0.156523 0.021174 0.990935
Si Si5 0.454833 0.964355 0.764711
Si Si6 0.065089 0.135744 0.092029
Si Si7 0.003287 0.179507 0.533538
Si Si8 0.155446 0.179034 0.350601
O O1 0.658618 0.443822 0.615510
O O2 0.604013 0.377510 0.831068
O O3 0.514545 0.476406 0.729769
O O4 0.662212 0.491967 0.856068
O O5 0.250000 0.886890 0.570842
O O6 0.113749 0.954523 0.643164
O O7 0.087424 0.850478 0.511017
O O8 0.582193 0.250000 0.835833
O O9 0.480611 0.325966 0.699022
O O10 0.485690 0.321776 0.982440
O O11 0.250000 0.022863 0.922110
O O12 0.093826 0.977988 0.906112
O O13 0.121401 0.090506 0.997336
O O14 0.505563 0.901547 0.799298
O O15 0.126209 0.176429 0.190000
O O16 0.995113 0.250000 0.483175
O O17 0.084852 0.147962 0.454592
O O18 0.250000 0.147027 0.367098
O O19 0.164894 0.250000 0.394025
#
# Coordination Sequence:
#
# PCOD8242183 Si02
#       8
#     8   8   8   8   8   8   8   8
#     4  10  20  38  58  82 114 150 188 241 288 338
#     4  11  22  36  59  87 113 150 196 241 288 344
#     4  10  19  35  61  84 109 149 195 232 283 347
#     4  11  21  35  56  83 116 151 187 229 287 350
#     4  11  20  37  58  80 116 154 184 234 293 347
#     4  11  19  36  56  86 112 151 188 234 288 341
#     4   9  20  38  59  83 115 156 191 238 297 341
#     4  10  20  36  58  83 113 150 194 239 286 342
#
# _framework density 19.764579000000001
#
# number of rings (size 3 to 8) (size 9 to 14) (size 15 to 20)
#    0.000    1.625    3.750    2.625    0.000    0.250 
#    0.000    1.250    0.000    4.125    0.000    0.000 
#    0.000    0.000    0.000    0.000    0.000    0.000 
#
# Total GULP energy -793115.100696 kJ/mol
# GULP energy per Si atom -12392.423448 kJ/mol
# Density = 1.971959 g / cm^3
# Si number density = 19.764579 Si / 1000 Ang^3
#
#
#
# Elastic Constant Matrix: (Units=GPa)
#
#
# Indices 1 2 3 4 5 6 
#
# 1 110.2335 16.2483 20.4183 0.0000 0.0000 0.0000
# 2 16.2483 66.4843 11.5753 0.0000 0.0000 0.0000
# 3 20.4183 11.5753 65.1540 0.0000 0.0000 0.0000
# 4 0.0000 0.0000 0.0000 26.2802 0.0000 0.0000
# 5 0.0000 0.0000 0.0000 0.0000 14.3701 0.0000
# 6 0.0000 0.0000 0.0000 0.0000 0.0000 11.7841
#
#
#
# Elastic Compliance Matrix: (Units=1/GPa)
#
#
# Indices 1 2 3 4 5 6 
#
# 1 0.009866 -0.001933 -0.002748 0.000000 0.000000 0.000000
# 2 -0.001933 0.015900 -0.002219 0.000000 0.000000 0.000000
# 3 -0.002748 -0.002219 0.016604 0.000000 0.000000 0.000000
# 4 0.000000 0.000000 0.000000 0.038052 0.000000 0.000000
# 5 0.000000 0.000000 0.000000 0.000000 0.069589 0.000000
# 6 0.000000 0.000000 0.000000 0.000000 0.000000 0.084860
#
#
# Mechanical properties :
#
#
# Convention : Reuss Voigt Hill
#
# Bulk Modulus (GPa) = 35.00295 37.59507 36.29901
# Shear Modulus (GPa) = 19.36536 23.39553 21.38044
#
# Velocity S-wave (km/s) = 3.13357 3.44424 3.29257
# Velocity P-wave (km/s) = 5.55345 5.90591 5.73239
#
# Compressibility (1/GPa) = 0.02856902
#
# Stress axis : x y z
#
# Youngs Moduli (GPa) = 101.36247 62.89385 60.22715
#
# Poissons Ratio (x) = 0.12155 0.16553
# Poissons Ratio (y) = 0.19589 0.13365
# Poissons Ratio (z) = 0.27858 0.13957
#
# Static dielectric constant tensor:
#      x y z
#    x 3.615830 0.000000 0.000000 
#    y 0.000000 3.530350 0.000000 
#    z 0.000000 0.000000 3.665900 
# 
# 
# High freq. dielectric constant tensor:
#      x y z
#    x 1.753240 0.000000 0.000000 
#    y 0.000000 1.762400 0.000000 
#    z 0.000000 0.000000 1.777480 
# 
# From -- ./inp_files/9598.got.cif
#   From: 2010.03.12/outbox.cif.g09.slc.cpg/sg59_5_cif.got.tgz:9598.got - 2010.04.16 16:29:54.
