data_PCOD8242682
_publ_section_title
;
Structure prediction by ZEFSAII (Michael W. Deem and Ramdas Pophale) SiO2 
 PCOD8242682
Probable space group: P M M N
;
_chemical_formula_sum "Si O2"
_cell_formula_units_Z 64
_cell_length_a 24.443686
_cell_length_b 8.927533
_cell_length_c 15.214806
_cell_angle_alpha 90.000000
_cell_angle_beta 90.000000
_cell_angle_gamma 90.000000
_cell_volume 3320.202556
_symmetry_space_group_name_H-M "P M M N"
_symmetry_group_IT_number 59
_space_group.IT_coordinate_system_code '2'
_symmetry_cell_setting 'orthorhombic'
loop_
_space_group_symop_operation_xyz
x,y,z
1/2-x,1/2-y,z
1/2+x,-y,-z
-x,1/2+y,-z
-x,-y,-z
1/2+x,1/2+y,-z
1/2-x,y,z
x,1/2-y,z
loop_
_atom_site_type_symbol
_atom_site_label
_atom_site_fract_x
_atom_site_fract_y
_atom_site_fract_z
Si Si1 0.374156 0.083845 0.858557
Si Si2 0.814099 0.077355 0.982853
Si Si3 0.498866 0.415222 0.910609
Si Si4 0.974212 0.586123 0.753784
Si Si5 0.559347 0.571416 0.478283
Si Si6 0.594885 0.415467 0.302848
Si Si7 0.895883 0.073183 0.639299
Si Si8 0.188980 0.928116 0.213884
O O1 0.349458 0.250000 0.845642
O O2 0.438494 0.096043 0.872727
O O3 0.346863 0.012266 0.943943
O O4 0.363562 0.990372 0.768223
O O5 0.750000 0.054657 0.999201
O O6 0.830668 0.250000 0.992374
O O7 0.829221 0.018791 0.884077
O O8 0.524201 0.250000 0.922489
O O9 0.538927 0.507353 0.846365
O O10 0.500000 0.500000 0.000000
O O11 0.945335 0.750000 0.747953
O O12 0.954710 0.472651 0.678322
O O13 0.038283 0.609560 0.746444
O O14 0.500000 0.500000 0.500000
O O15 0.553072 0.750000 0.483209
O O16 0.584551 0.523058 0.385414
O O17 0.605877 0.513138 0.546608
O O18 0.617298 0.250000 0.331033
O O19 0.891797 0.250000 0.623528
O O20 0.850594 0.012275 0.708576
O O21 0.250000 0.987997 0.234590
O O22 0.188983 0.750000 0.214338
#
# Coordination Sequence:
#
# PCOD8242682 Si02
#       8
#     8   8   8   8   8   8   8   8
#     4  10  21  35  52  78 109 142 178 223 276 329
#     4   9  18  35  59  84 109 142 186 231 274 326
#     4  10  21  34  47  68 102 143 183 219 263 321
#     4  10  20  33  49  72 105 141 179 223 267 317
#     4  12  23  36  55  80 112 148 185 229 275 329
#     4  10  20  36  56  77 106 144 182 225 270 322
#     4  11  21  33  55  83 109 144 185 229 278 328
#     4   8  17  35  57  82 110 142 184 230 273 320
#
# _framework density 19.275933999999999
#
# number of rings (size 3 to 8) (size 9 to 14) (size 15 to 20)
#    0.000    2.000    1.250    3.750    1.750    2.750 
#    0.000    0.625    0.000    3.750    0.000    1.750 
#    0.000    0.000    0.000    0.000    0.000    0.000 
#
# Total GULP energy -793129.599629 kJ/mol
# GULP energy per Si atom -12392.649994 kJ/mol
# Density = 1.923206 g / cm^3
# Si number density = 19.275934 Si / 1000 Ang^3
#
#
#
# Elastic Constant Matrix: (Units=GPa)
#
#
# Indices 1 2 3 4 5 6 
#
# 1 40.3465 25.2563 29.3020 0.0000 0.0000 0.0000
# 2 25.2563 133.3078 65.6498 0.0000 0.0000 0.0000
# 3 29.3020 65.6498 146.3243 0.0000 0.0000 0.0000
# 4 0.0000 0.0000 0.0000 36.0109 0.0000 0.0000
# 5 0.0000 0.0000 0.0000 0.0000 24.0671 0.0000
# 6 0.0000 0.0000 0.0000 0.0000 0.0000 15.1906
#
#
#
# Elastic Compliance Matrix: (Units=1/GPa)
#
#
# Indices 1 2 3 4 5 6 
#
# 1 0.030242 -0.003526 -0.004474 0.000000 0.000000 0.000000
# 2 -0.003526 0.010040 -0.003798 0.000000 0.000000 0.000000
# 3 -0.004474 -0.003798 0.009434 0.000000 0.000000 0.000000
# 4 0.000000 0.000000 0.000000 0.027769 0.000000 0.000000
# 5 0.000000 0.000000 0.000000 0.000000 0.041550 0.000000
# 6 0.000000 0.000000 0.000000 0.000000 0.000000 0.065830
#
#
# Mechanical properties :
#
#
# Convention : Reuss Voigt Hill
#
# Bulk Modulus (GPa) = 38.28641 62.26608 50.27624
# Shear Modulus (GPa) = 23.02342 28.37176 25.69759
#
# Velocity S-wave (km/s) = 3.45978 3.84066 3.65519
# Velocity P-wave (km/s) = 5.98878 7.21389 6.62969
#
# Compressibility (1/GPa) = 0.02611893
#
# Stress axis : x y z
#
# Youngs Moduli (GPa) = 33.06668 99.60028 105.99658
#
# Poissons Ratio (x) = 0.35122 0.47422
# Poissons Ratio (y) = 0.11660 0.40262
# Poissons Ratio (z) = 0.14794 0.37833
#
# Static dielectric constant tensor:
#      x y z
#    x 3.231890 0.000000 0.000000 
#    y 0.000000 3.862860 0.000000 
#    z 0.000000 0.000000 3.583300 
# 
# 
# High freq. dielectric constant tensor:
#      x y z
#    x 1.703330 0.000000 0.000000 
#    y 0.000000 1.753850 0.000000 
#    z 0.000000 0.000000 1.762270 
# 
# From -- ./inp_files/24787.got.cif
#   From: 2010.03.12/outbox.cif.g09.slc.cpg/sg59_13_cif.got.tgz:24787.got - 2010.04.16 16:29:54.
