data_PCOD8242170
_publ_section_title
;
Structure prediction by ZEFSAII (Michael W. Deem and Ramdas Pophale) SiO2 
 PCOD8242170
Probable space group: P M M N
;
_chemical_formula_sum "Si O2"
_cell_formula_units_Z 48
_cell_length_a 8.786012
_cell_length_b 15.008917
_cell_length_c 19.088204
_cell_angle_alpha 90.000000
_cell_angle_beta 90.000000
_cell_angle_gamma 90.000000
_cell_volume 2517.133304
_symmetry_space_group_name_H-M "P M M N"
_symmetry_group_IT_number 59
_space_group.IT_coordinate_system_code '2'
_symmetry_cell_setting 'orthorhombic'
loop_
_space_group_symop_operation_xyz
x,y,z
1/2-x,1/2-y,z
1/2+x,-y,-z
-x,1/2+y,-z
-x,-y,-z
1/2+x,1/2+y,-z
1/2-x,y,z
x,1/2-y,z
loop_
_atom_site_type_symbol
_atom_site_label
_atom_site_fract_x
_atom_site_fract_y
_atom_site_fract_z
Si Si1 0.430457 0.849346 0.324439
Si Si2 0.425477 0.607148 0.169963
Si Si3 0.074001 0.404728 0.183448
Si Si4 0.569862 0.750000 0.917271
Si Si5 0.430607 0.005589 0.423826
Si Si6 0.570358 0.750000 0.073778
Si Si7 0.928454 0.147027 0.326670
O O1 0.250000 0.857194 0.322760
O O2 0.482835 0.750000 0.347080
O O3 0.492684 0.870799 0.246826
O O4 0.494748 0.921455 0.379265
O O5 0.250000 0.636477 0.166115
O O6 0.446785 0.503358 0.152972
O O7 0.517217 0.660999 0.112205
O O8 0.250000 0.386269 0.203338
O O9 0.013449 0.337339 0.124276
O O10 0.974199 0.394012 0.252475
O O11 0.750000 0.750000 0.922057
O O12 0.500317 0.750000 0.995254
O O13 0.250000 0.003458 0.428643
O O14 0.482752 0.097169 0.388328
O O15 0.500000 0.000000 0.500000
O O16 0.750000 0.750000 0.070757
O O17 0.750000 0.134161 0.338234
O O18 0.976408 0.250000 0.329749
#
# Coordination Sequence:
#
# PCOD8242170 Si02
#       7
#     8   8   8   4   8   4   8
#     4   9  17  33  59  85 109 142 189 236 283 341
#     4  10  19  35  60  87 110 146 198 242 284 346
#     4  10  19  36  63  87 110 151 200 243 290 353
#     4   9  20  37  57  83 120 155 192 239 297 356
#     4  11  23  40  61  88 120 158 196 241 295 351
#     4  11  23  37  53  83 122 159 190 237 299 350
#     4  11  23  38  59  89 122 155 195 247 297 349
#
# _framework density 19.069312
#
# number of rings (size 3 to 8) (size 9 to 14) (size 15 to 20)
#    0.000    1.833    3.333    1.250    0.000    3.000 
#    0.000    3.333    0.000    0.000    0.000    0.000 
#    0.000    0.000    0.000    0.000    0.000    0.000 
#
# Total GULP energy -595316.294014 kJ/mol
# GULP energy per Si atom -12402.422792 kJ/mol
# Density = 1.902591 g / cm^3
# Si number density = 19.069312 Si / 1000 Ang^3
#
#
#
# Elastic Constant Matrix: (Units=GPa)
#
#
# Indices 1 2 3 4 5 6 
#
# 1 48.3103 27.0437 30.8982 0.0000 0.0000 0.0000
# 2 27.0437 125.4636 54.1443 0.0000 0.0000 0.0000
# 3 30.8982 54.1443 150.1713 0.0000 0.0000 0.0000
# 4 0.0000 0.0000 0.0000 33.8196 0.0000 0.0000
# 5 0.0000 0.0000 0.0000 0.0000 27.8171 0.0000
# 6 0.0000 0.0000 0.0000 0.0000 0.0000 25.0006
#
#
#
# Elastic Compliance Matrix: (Units=1/GPa)
#
#
# Indices 1 2 3 4 5 6 
#
# 1 0.025275 -0.003794 -0.003832 0.000000 0.000000 0.000000
# 2 -0.003794 0.010009 -0.002828 0.000000 0.000000 0.000000
# 3 -0.003832 -0.002828 0.008467 0.000000 0.000000 0.000000
# 4 0.000000 0.000000 0.000000 0.029569 0.000000 0.000000
# 5 0.000000 0.000000 0.000000 0.000000 0.035949 0.000000
# 6 0.000000 0.000000 0.000000 0.000000 0.000000 0.039999
#
#
# Mechanical properties :
#
#
# Convention : Reuss Voigt Hill
#
# Bulk Modulus (GPa) = 43.77979 60.90193 52.34086
# Shear Modulus (GPa) = 28.12309 31.45140 29.78724
#
# Velocity S-wave (km/s) = 3.84446 4.06559 3.95657
# Velocity P-wave (km/s) = 6.53564 7.35154 6.95556
#
# Compressibility (1/GPa) = 0.02284159
#
# Stress axis : x y z
#
# Youngs Moduli (GPa) = 39.56555 99.91323 118.10265
#
# Poissons Ratio (x) = 0.37908 0.45261
# Poissons Ratio (y) = 0.15011 0.33399
# Poissons Ratio (z) = 0.15163 0.28255
#
# Static dielectric constant tensor:
#      x y z
#    x 3.231960 0.000000 0.000000 
#    y 0.000000 4.999700 0.000000 
#    z 0.000000 0.000000 3.601370 
# 
# 
# High freq. dielectric constant tensor:
#      x y z
#    x 1.714940 0.000000 0.000000 
#    y 0.000000 1.759850 0.000000 
#    z 0.000000 0.000000 1.740660 
# 
# From -- ./inp_files/25551.got.cif
#   From: 2010.03.12/outbox.cif.g09.slc.cpg/sg59_13_cif.got.tgz:25551.got - 2010.04.16 16:29:54.
