data_PCOD8242627
_publ_section_title
;
Structure prediction by ZEFSAII (Michael W. Deem and Ramdas Pophale) SiO2 
 PCOD8242627
Probable space group: P M M N
;
_chemical_formula_sum "Si O2"
_cell_formula_units_Z 64
_cell_length_a 17.216216
_cell_length_b 9.384231
_cell_length_c 23.182746
_cell_angle_alpha 90.000000
_cell_angle_beta 90.000000
_cell_angle_gamma 90.000000
_cell_volume 3745.426418
_symmetry_space_group_name_H-M "P M M N"
_symmetry_group_IT_number 59
_space_group.IT_coordinate_system_code '2'
_symmetry_cell_setting 'orthorhombic'
loop_
_space_group_symop_operation_xyz
x,y,z
1/2-x,1/2-y,z
1/2+x,-y,-z
-x,1/2+y,-z
-x,-y,-z
1/2+x,1/2+y,-z
1/2-x,y,z
x,1/2-y,z
loop_
_atom_site_type_symbol
_atom_site_label
_atom_site_fract_x
_atom_site_fract_y
_atom_site_fract_z
Si Si1 0.840934 0.586817 0.048448
Si Si2 0.397784 0.414087 0.074758
Si Si3 0.470422 0.416314 0.636452
Si Si4 0.439773 0.916009 0.867966
Si Si5 0.662679 0.416955 0.430623
Si Si6 0.063200 0.911760 0.468142
Si Si7 0.335686 0.586366 0.176629
Si Si8 0.007868 0.917775 0.235105
O O1 0.750000 0.570118 0.038952
O O2 0.863741 0.750000 0.062736
O O3 0.865972 0.486416 0.101167
O O4 0.883661 0.533948 0.990364
O O5 0.374202 0.250000 0.081125
O O6 0.487118 0.441481 0.090388
O O7 0.342472 0.499374 0.117717
O O8 0.448592 0.250000 0.635996
O O9 0.396931 0.500209 0.610601
O O10 0.551248 0.444208 0.600164
O O11 0.487881 0.469672 0.700699
O O12 0.423901 0.750000 0.856352
O O13 0.452228 0.994382 0.807188
O O14 0.750000 0.471885 0.418935
O O15 0.655599 0.250000 0.416272
O O16 0.644993 0.444729 0.499614
O O17 0.040887 0.750000 0.479729
O O18 0.000000 0.000000 0.500000
O O19 0.250000 0.558285 0.203658
O O20 0.346325 0.750000 0.159261
O O21 0.401877 0.542696 0.222685
O O22 0.992618 0.750000 0.226789
#
# Coordination Sequence:
#
# PCOD8242627 Si02
#       8
#     8   8   8   8   8   8   8   8
#     4  10  20  33  49  69  94 123 152 186 234 287
#     4   9  18  32  50  71  93 119 151 186 230 286
#     4   9  17  30  49  70  91 122 162 195 223 264
#     4  10  20  33  50  71  93 120 156 195 233 275
#     4   9  17  29  46  70  99 126 151 187 235 276
#     4   8  14  26  44  66  91 117 146 179 218 265
#     4   9  17  29  46  69  95 121 150 188 234 279
#     4   9  18  33  50  67  92 126 161 194 229 273
#
# _framework density 17.087506000000001
#
# number of rings (size 3 to 8) (size 9 to 14) (size 15 to 20)
#    0.000    2.875    0.000    1.125    0.000    2.750 
#    0.000    1.250    0.000    4.500    0.000    0.000 
#    0.000    9.000    0.000    0.000    0.000    0.000 
#
# Total GULP energy -793082.414933 kJ/mol
# GULP energy per Si atom -12391.912733 kJ/mol
# Density = 1.704861 g / cm^3
# Si number density = 17.087506 Si / 1000 Ang^3
#
#
#
# Elastic Constant Matrix: (Units=GPa)
#
#
# Indices 1 2 3 4 5 6 
#
# 1 66.6663 30.1262 52.2242 0.0000 0.0000 0.0000
# 2 30.1262 51.3571 48.3726 0.0000 0.0000 0.0000
# 3 52.2242 48.3726 138.9422 0.0000 0.0000 0.0000
# 4 0.0000 0.0000 0.0000 23.7376 0.0000 0.0000
# 5 0.0000 0.0000 0.0000 0.0000 19.3783 0.0000
# 6 0.0000 0.0000 0.0000 0.0000 0.0000 22.7028
#
#
#
# Elastic Compliance Matrix: (Units=1/GPa)
#
#
# Indices 1 2 3 4 5 6 
#
# 1 0.023308 -0.008066 -0.005953 0.000000 0.000000 0.000000
# 2 -0.008066 0.031763 -0.008027 0.000000 0.000000 0.000000
# 3 -0.005953 -0.008027 0.012229 0.000000 0.000000 0.000000
# 4 0.000000 0.000000 0.000000 0.042127 0.000000 0.000000
# 5 0.000000 0.000000 0.000000 0.000000 0.051604 0.000000
# 6 0.000000 0.000000 0.000000 0.000000 0.000000 0.044047
#
#
# Mechanical properties :
#
#
# Convention : Reuss Voigt Hill
#
# Bulk Modulus (GPa) = 43.08467 57.60128 50.34298
# Shear Modulus (GPa) = 19.46234 21.57990 20.52112
#
# Velocity S-wave (km/s) = 3.37854 3.55759 3.46922
# Velocity P-wave (km/s) = 6.36304 7.11745 6.75079
#
# Compressibility (1/GPa) = 0.02321011
#
# Stress axis : x y z
#
# Youngs Moduli (GPa) = 42.90336 31.48306 81.77193
#
# Poissons Ratio (x) = 0.25394 0.48677
# Poissons Ratio (y) = 0.34605 0.65635
# Poissons Ratio (z) = 0.25539 0.25270
#
# Static dielectric constant tensor:
#      x y z
#    x 3.252630 0.000000 0.000000 
#    y 0.000000 3.175690 0.000000 
#    z 0.000000 0.000000 3.397410 
# 
# 
# High freq. dielectric constant tensor:
#      x y z
#    x 1.647800 0.000000 0.000000 
#    y 0.000000 1.659110 0.000000 
#    z 0.000000 0.000000 1.650500 
# 
# From -- ./inp_files/31720.got.cif
#   From: 2010.03.12/outbox.cif.g09.slc.cpg/sg59_16_cif.got.tgz:31720.got - 2010.04.16 16:29:54.
