data_PCOD8242378
_publ_section_title
;
Structure prediction by ZEFSAII (Michael W. Deem and Ramdas Pophale) SiO2 
 PCOD8242378
Probable space group: P M M N
;
_chemical_formula_sum "Si O2"
_cell_formula_units_Z 64
_cell_length_a 13.650037
_cell_length_b 13.197217
_cell_length_c 19.218005
_cell_angle_alpha 90.000000
_cell_angle_beta 90.000000
_cell_angle_gamma 90.000000
_cell_volume 3461.979472
_symmetry_space_group_name_H-M "P M M N"
_symmetry_group_IT_number 59
_space_group.IT_coordinate_system_code '2'
_symmetry_cell_setting 'orthorhombic'
loop_
_space_group_symop_operation_xyz
x,y,z
1/2-x,1/2-y,z
1/2+x,-y,-z
-x,1/2+y,-z
-x,-y,-z
1/2+x,1/2+y,-z
1/2-x,y,z
x,1/2-y,z
loop_
_atom_site_type_symbol
_atom_site_label
_atom_site_fract_x
_atom_site_fract_y
_atom_site_fract_z
Si Si1 0.361973 0.634324 0.344467
Si Si2 0.959919 0.552665 0.714068
Si Si3 0.861234 0.559254 0.856081
Si Si4 0.862554 0.130136 0.210705
Si Si5 0.542888 0.865945 0.566328
Si Si6 0.638102 0.136336 0.933276
Si Si7 0.041133 0.633209 0.929365
Si Si8 0.360927 0.947429 0.495952
O O1 0.250000 0.606546 0.323703
O O2 0.386033 0.750000 0.326055
O O3 0.437374 0.565164 0.301351
O O4 0.376802 0.617695 0.426388
O O5 0.074181 0.569506 0.731908
O O6 0.930133 0.619164 0.647230
O O7 0.894655 0.590284 0.778885
O O8 0.750000 0.594495 0.867522
O O9 0.873982 0.437760 0.867018
O O10 0.926444 0.616507 0.913786
O O11 0.750000 0.103715 0.224260
O O12 0.883599 0.250000 0.217729
O O13 0.894306 0.089214 0.134490
O O14 0.560139 0.750000 0.545022
O O15 0.612562 0.934914 0.518048
O O16 0.430056 0.899748 0.555102
O O17 0.750000 0.137841 0.959240
O O18 0.604699 0.250000 0.911154
O O19 0.573398 0.087782 0.996071
O O20 0.066989 0.750000 0.936359
O O21 0.250000 0.940484 0.523200
#
# Coordination Sequence:
#
# PCOD8242378 Si02
#       8
#     8   8   8   8   8   8   8   8
#     4   9  17  31  52  74  97 130 168 203 245 296
#     4  10  20  32  47  72 104 133 166 205 245 292
#     4  10  20  32  46  68 100 133 162 196 241 293
#     4   9  17  30  48  69  95 129 168 208 252 302
#     4  10  20  34  53  77 105 136 168 201 243 296
#     4   9  17  30  50  74  95 118 156 204 247 286
#     4   9  17  30  48  69  94 125 161 203 249 293
#     4   9  19  35  54  78 104 128 162 209 252 290
#
# _framework density 18.486533999999999
#
# number of rings (size 3 to 8) (size 9 to 14) (size 15 to 20)
#    0.000    2.625    0.000    1.875    0.000    4.750 
#    0.000    1.250    0.000    5.250    0.000    0.000 
#    0.000    0.000    0.000    0.000    0.000    0.000 
#
# Total GULP energy -793471.686401 kJ/mol
# GULP energy per Si atom -12397.995100 kJ/mol
# Density = 1.844446 g / cm^3
# Si number density = 18.486534 Si / 1000 Ang^3
#
#
#
# Elastic Constant Matrix: (Units=GPa)
#
#
# Indices 1 2 3 4 5 6 
#
# 1 102.1534 26.2861 24.6799 0.0000 0.0000 0.0000
# 2 26.2861 66.5969 15.1308 0.0000 0.0000 0.0000
# 3 24.6799 15.1308 57.6574 0.0000 0.0000 0.0000
# 4 0.0000 0.0000 0.0000 18.4379 0.0000 0.0000
# 5 0.0000 0.0000 0.0000 0.0000 25.2659 0.0000
# 6 0.0000 0.0000 0.0000 0.0000 0.0000 26.7991
#
#
#
# Elastic Compliance Matrix: (Units=1/GPa)
#
#
# Indices 1 2 3 4 5 6 
#
# 1 0.011720 -0.003707 -0.004044 0.000000 0.000000 0.000000
# 2 -0.003707 0.017140 -0.002911 0.000000 0.000000 0.000000
# 3 -0.004044 -0.002911 0.019839 0.000000 0.000000 0.000000
# 4 0.000000 0.000000 0.000000 0.054236 0.000000 0.000000
# 5 0.000000 0.000000 0.000000 0.000000 0.039579 0.000000
# 6 0.000000 0.000000 0.000000 0.000000 0.000000 0.037315
#
#
# Mechanical properties :
#
#
# Convention : Reuss Voigt Hill
#
# Bulk Modulus (GPa) = 36.53014 39.84460 38.18737
# Shear Modulus (GPa) = 23.77795 24.78795 24.28295
#
# Velocity S-wave (km/s) = 3.59030 3.66576 3.62822
# Velocity P-wave (km/s) = 6.08196 6.28626 6.18496
#
# Compressibility (1/GPa) = 0.02737466
#
# Stress axis : x y z
#
# Youngs Moduli (GPa) = 85.32326 58.34165 50.40636
#
# Poissons Ratio (x) = 0.21629 0.20384
# Poissons Ratio (y) = 0.31631 0.14674
# Poissons Ratio (z) = 0.34504 0.16985
#
# Static dielectric constant tensor:
#      x y z
#    x 3.413150 0.000000 0.000000 
#    y 0.000000 3.317500 0.000000 
#    z 0.000000 0.000000 3.353950 
# 
# 
# High freq. dielectric constant tensor:
#      x y z
#    x 1.710490 0.000000 0.000000 
#    y 0.000000 1.703710 0.000000 
#    z 0.000000 0.000000 1.709480 
# 
# From -- ./inp_files/27667.got.cif
#   From: 2010.03.12/outbox.cif.g09.slc.cpg/sg59_14_cif.got.tgz:27667.got - 2010.04.16 16:29:54.
