data_PCOD8242527
_publ_section_title
;
Structure prediction by ZEFSAII (Michael W. Deem and Ramdas Pophale) SiO2 
 PCOD8242527
Probable space group: P M M N
;
_chemical_formula_sum "Si O2"
_cell_formula_units_Z 48
_cell_length_a 9.271102
_cell_length_b 18.757584
_cell_length_c 15.395910
_cell_angle_alpha 90.000000
_cell_angle_beta 90.000000
_cell_angle_gamma 90.000000
_cell_volume 2677.402243
_symmetry_space_group_name_H-M "P M M N"
_symmetry_group_IT_number 59
_space_group.IT_coordinate_system_code '2'
_symmetry_cell_setting 'orthorhombic'
loop_
_space_group_symop_operation_xyz
x,y,z
1/2-x,1/2-y,z
1/2+x,-y,-z
-x,1/2+y,-z
-x,-y,-z
1/2+x,1/2+y,-z
1/2-x,y,z
x,1/2-y,z
loop_
_atom_site_type_symbol
_atom_site_label
_atom_site_fract_x
_atom_site_fract_y
_atom_site_fract_z
Si Si1 0.081812 0.667365 0.821676
Si Si2 0.582977 0.573015 0.488792
Si Si3 0.918120 0.415437 0.674279
Si Si4 0.587753 0.916784 0.680433
Si Si5 0.417546 0.166665 0.820556
Si Si6 0.590640 0.834628 0.985553
O O1 0.250000 0.654615 0.827245
O O2 0.041354 0.750000 0.809469
O O3 0.023326 0.624853 0.739756
O O4 0.016168 0.636416 0.911357
O O5 0.500000 0.500000 0.500000
O O6 0.750000 0.559150 0.464885
O O7 0.504594 0.615058 0.410126
O O8 0.571474 0.613127 0.581642
O O9 0.750000 0.398143 0.662236
O O10 0.946509 0.499391 0.684243
O O11 0.977698 0.376824 0.758728
O O12 0.750000 0.902414 0.713793
O O13 0.250000 0.149881 0.800883
O O14 0.448559 0.250000 0.807889
O O15 0.458003 0.141210 0.918257
O O16 0.750000 0.864667 0.965026
O O17 0.594274 0.750000 0.985011
#
# Coordination Sequence:
#
# PCOD8242527 Si02
#       6
#     8   8   8   8   8   8
#     4  10  20  32  49  75 101 125 159 203 247 290
#     4   9  17  31  51  73  97 128 166 204 242 290
#     4  10  20  33  51  76 102 129 164 204 246 292
#     4   9  19  34  51  72  97 128 165 200 238 290
#     4   9  18  33  53  76 100 129 166 203 242 292
#     4   8  15  30  51  71  94 128 165 198 237 290
#
# _framework density 17.927826
#
# number of rings (size 3 to 8) (size 9 to 14) (size 15 to 20)
#    0.000    2.833    0.000    3.500    0.000    6.000 
#    0.000    3.333    0.000    1.000    0.000    0.000 
#    0.000    0.000    0.000    0.000    0.000    0.000 
#
# Total GULP energy -594956.243582 kJ/mol
# GULP energy per Si atom -12394.921741 kJ/mol
# Density = 1.788702 g / cm^3
# Si number density = 17.927826 Si / 1000 Ang^3
#
#
#
# Elastic Constant Matrix: (Units=GPa)
#
#
# Indices 1 2 3 4 5 6 
#
# 1 121.2769 39.5339 87.6778 0.0000 0.0000 0.0000
# 2 39.5339 33.7763 41.0652 0.0000 0.0000 0.0000
# 3 87.6778 41.0652 152.9535 0.0000 0.0000 0.0000
# 4 0.0000 0.0000 0.0000 27.2180 0.0000 0.0000
# 5 0.0000 0.0000 0.0000 0.0000 38.2510 0.0000
# 6 0.0000 0.0000 0.0000 0.0000 0.0000 25.9696
#
#
#
# Elastic Compliance Matrix: (Units=1/GPa)
#
#
# Indices 1 2 3 4 5 6 
#
# 1 0.016730 -0.011761 -0.006432 0.000000 0.000000 0.000000
# 2 -0.011761 0.052222 -0.007279 0.000000 0.000000 0.000000
# 3 -0.006432 -0.007279 0.012179 0.000000 0.000000 0.000000
# 4 0.000000 0.000000 0.000000 0.036740 0.000000 0.000000
# 5 0.000000 0.000000 0.000000 0.000000 0.026143 0.000000
# 6 0.000000 0.000000 0.000000 0.000000 0.000000 0.038507
#
#
# Mechanical properties :
#
#
# Convention : Reuss Voigt Hill
#
# Bulk Modulus (GPa) = 33.12728 71.61781 52.37254
# Shear Modulus (GPa) = 20.53150 27.60305 24.06728
#
# Velocity S-wave (km/s) = 3.38780 3.92813 3.66793
# Velocity P-wave (km/s) = 5.81560 7.78512 6.87129
#
# Compressibility (1/GPa) = 0.03018661
#
# Stress axis : x y z
#
# Youngs Moduli (GPa) = 59.77345 19.14902 82.10563
#
# Poissons Ratio (x) = 0.22521 0.52814
# Poissons Ratio (y) = 0.70300 0.59763
# Poissons Ratio (z) = 0.38449 0.13938
#
# Static dielectric constant tensor:
#      x y z
#    x 3.497570 0.000000 0.000000 
#    y 0.000000 2.885000 0.000000 
#    z 0.000000 0.000000 3.897970 
# 
# 
# High freq. dielectric constant tensor:
#      x y z
#    x 1.703180 0.000000 0.000000 
#    y 0.000000 1.644730 0.000000 
#    z 0.000000 0.000000 1.712780 
# 
# From -- ./inp_files/20355.got.cif
#   From: 2010.03.12/outbox.cif.g09.slc.cpg/sg59_11_cif.got.tgz:20355.got - 2010.04.16 16:29:54.
