data_PCOD8242796
_publ_section_title
;
Structure prediction by ZEFSAII (Michael W. Deem and Ramdas Pophale) SiO2 
 PCOD8242796
Probable space group: P M M N
;
_chemical_formula_sum "Si O2"
_cell_formula_units_Z 64
_cell_length_a 8.832329
_cell_length_b 23.009092
_cell_length_c 18.034982
_cell_angle_alpha 90.000000
_cell_angle_beta 90.000000
_cell_angle_gamma 90.000000
_cell_volume 3665.138847
_symmetry_space_group_name_H-M "P M M N"
_symmetry_group_IT_number 59
_space_group.IT_coordinate_system_code '2'
_symmetry_cell_setting 'orthorhombic'
loop_
_space_group_symop_operation_xyz
x,y,z
1/2-x,1/2-y,z
1/2+x,-y,-z
-x,1/2+y,-z
-x,-y,-z
1/2+x,1/2+y,-z
1/2-x,y,z
x,1/2-y,z
loop_
_atom_site_type_symbol
_atom_site_label
_atom_site_fract_x
_atom_site_fract_y
_atom_site_fract_z
Si Si1 0.927148 0.878444 0.635578
Si Si2 0.419880 0.319002 0.081288
Si Si3 0.576689 0.183662 0.494240
Si Si4 0.928353 0.108143 0.636218
Si Si5 0.077998 0.318700 0.919499
Si Si6 0.575345 0.181723 0.228776
Si Si7 0.429017 0.995232 0.581040
Si Si8 0.428590 0.815575 0.227311
O O1 0.750000 0.892341 0.632939
O O2 0.968314 0.830307 0.574358
O O3 0.970393 0.853637 0.715467
O O4 0.021254 0.936309 0.620340
O O5 0.250000 0.342017 0.097567
O O6 0.416204 0.250000 0.077991
O O7 0.532841 0.339772 0.145889
O O8 0.476193 0.342445 0.000421
O O9 0.750000 0.171938 0.470155
O O10 0.553613 0.250000 0.518460
O O11 0.530366 0.144268 0.563221
O O12 0.750000 0.096207 0.641793
O O13 0.990063 0.143680 0.706949
O O14 0.016272 0.047528 0.633287
O O15 0.250000 0.337872 0.905796
O O16 0.061099 0.250000 0.919821
O O17 0.978611 0.343391 0.851540
O O18 0.750000 0.167415 0.243993
O O19 0.542126 0.250000 0.238432
O O20 0.250000 0.996314 0.572187
O O21 0.500000 0.000000 0.500000
O O22 0.250000 0.813421 0.230524
O O23 0.493708 0.750000 0.237678
#
# Coordination Sequence:
#
# PCOD8242796 Si02
#       8
#     8   8   8   8   8   8   8   8
#     4  12  24  37  54  75 100 133 171 212 256 302
#     4   8  14  26  44  67  98 136 174 209 248 296
#     4  10  20  34  53  75 102 136 169 204 251 304
#     4  10  20  35  54  75 102 135 171 211 255 302
#     4   8  14  25  42  66  99 138 174 208 248 293
#     4  10  20  33  50  75 107 139 170 208 256 306
#     4  12  24  40  59  77  97 126 168 218 263 306
#     4   9  17  29  47  74 107 140 172 206 248 299
#
# _framework density 17.461822000000002
#
# number of rings (size 3 to 8) (size 9 to 14) (size 15 to 20)
#    0.000    2.125    1.250    4.125    0.000    5.000 
#    0.000    2.500    0.000    2.250    0.000    0.875 
#    0.000    0.000    0.000    0.000    0.000    0.000 
#
# Total GULP energy -793501.057097 kJ/mol
# GULP energy per Si atom -12398.454017 kJ/mol
# Density = 1.742208 g / cm^3
# Si number density = 17.461822 Si / 1000 Ang^3
#
#
#
# Elastic Constant Matrix: (Units=GPa)
#
#
# Indices 1 2 3 4 5 6 
#
# 1 67.9480 22.7799 36.5318 0.0000 0.0000 0.0000
# 2 22.7799 61.9698 31.6005 0.0000 0.0000 0.0000
# 3 36.5318 31.6005 125.2393 0.0000 0.0000 0.0000
# 4 0.0000 0.0000 0.0000 6.7306 0.0000 0.0000
# 5 0.0000 0.0000 0.0000 0.0000 31.6544 0.0000
# 6 0.0000 0.0000 0.0000 0.0000 0.0000 22.5421
#
#
#
# Elastic Compliance Matrix: (Units=1/GPa)
#
#
# Indices 1 2 3 4 5 6 
#
# 1 0.018558 -0.004661 -0.004237 0.000000 0.000000 0.000000
# 2 -0.004661 0.019691 -0.003609 0.000000 0.000000 0.000000
# 3 -0.004237 -0.003609 0.010131 0.000000 0.000000 0.000000
# 4 0.000000 0.000000 0.000000 0.148576 0.000000 0.000000
# 5 0.000000 0.000000 0.000000 0.000000 0.031591 0.000000
# 6 0.000000 0.000000 0.000000 0.000000 0.000000 0.044361
#
#
# Mechanical properties :
#
#
# Convention : Reuss Voigt Hill
#
# Bulk Modulus (GPa) = 42.79789 48.55350 45.67570
# Shear Modulus (GPa) = 16.35534 23.13508 19.74521
#
# Velocity S-wave (km/s) = 3.06377 3.64386 3.36633
# Velocity P-wave (km/s) = 6.08919 6.75052 6.42836
#
# Compressibility (1/GPa) = 0.02336564
#
# Stress axis : x y z
#
# Youngs Moduli (GPa) = 53.88543 50.78588 98.70473
#
# Poissons Ratio (x) = 0.23672 0.41823
# Poissons Ratio (y) = 0.25117 0.35620
# Poissons Ratio (z) = 0.22832 0.18327
#
# Static dielectric constant tensor:
#      x y z
#    x 3.231570 0.000000 0.000000 
#    y 0.000000 3.305730 0.000000 
#    z 0.000000 0.000000 3.752890 
# 
# 
# High freq. dielectric constant tensor:
#      x y z
#    x 1.671990 0.000000 0.000000 
#    y 0.000000 1.635780 0.000000 
#    z 0.000000 0.000000 1.685590 
# 
# From -- ./inp_files/26454.got.cif
#   From: 2010.03.12/outbox.cif.g09.slc.cpg/sg59_14_cif.got.tgz:26454.got - 2010.04.16 16:29:54.
