data_PCOD8242469
_publ_section_title
;
Structure prediction by ZEFSAII (Michael W. Deem and Ramdas Pophale) SiO2 
 PCOD8242469
Probable space group: P M M N
;
_chemical_formula_sum "Si O2"
_cell_formula_units_Z 56
_cell_length_a 9.674365
_cell_length_b 18.573125
_cell_length_c 17.867569
_cell_angle_alpha 90.000000
_cell_angle_beta 90.000000
_cell_angle_gamma 90.000000
_cell_volume 3210.501803
_symmetry_space_group_name_H-M "P M M N"
_symmetry_group_IT_number 59
_space_group.IT_coordinate_system_code '2'
_symmetry_cell_setting 'orthorhombic'
loop_
_space_group_symop_operation_xyz
x,y,z
1/2-x,1/2-y,z
1/2+x,-y,-z
-x,1/2+y,-z
-x,-y,-z
1/2+x,1/2+y,-z
1/2-x,y,z
x,1/2-y,z
loop_
_atom_site_type_symbol
_atom_site_label
_atom_site_fract_x
_atom_site_fract_y
_atom_site_fract_z
Si Si1 0.406847 0.835526 0.648577
Si Si2 0.097211 0.916622 0.067143
Si Si3 0.403329 0.164460 0.483982
Si Si4 0.911079 0.832953 0.347942
Si Si5 0.410910 0.576019 0.234186
Si Si6 0.597747 0.912564 0.939306
Si Si7 0.910886 0.908566 0.771145
O O1 0.250000 0.865645 0.649414
O O2 0.405694 0.750000 0.647793
O O3 0.484546 0.866006 0.574685
O O4 0.489513 0.860596 0.721095
O O5 0.250000 0.884090 0.056411
O O6 0.042902 0.899591 0.150736
O O7 0.102790 0.001761 0.056524
O O8 0.001017 0.880565 0.003831
O O9 0.250000 0.134689 0.463472
O O10 0.398413 0.250000 0.481126
O O11 0.444681 0.140581 0.567732
O O12 0.750000 0.843746 0.330228
O O13 0.953718 0.750000 0.337497
O O14 0.999813 0.880659 0.292788
O O15 0.250000 0.593310 0.246259
O O16 0.439366 0.491867 0.246103
O O17 0.750000 0.881194 0.954756
O O18 0.548377 0.889458 0.856657
O O19 0.750000 0.889822 0.756218
#
# Coordination Sequence:
#
# PCOD8242469 Si02
#       7
#     8   8   8   8   8   8   8
#     4  10  20  32  48  72  96 117 150 194 233 273
#     4   8  14  25  41  63  91 119 148 185 227 268
#     4   8  15  30  50  68  88 118 154 189 227 272
#     4   9  18  32  50  72  95 120 154 193 230 272
#     4   9  18  31  47  70  98 125 154 189 229 274
#     4   8  14  25  42  64  88 116 152 189 222 263
#     4   9  18  32  48  68  96 126 155 188 228 276
#
# _framework density 17.442754999999998
#
# number of rings (size 3 to 8) (size 9 to 14) (size 15 to 20)
#    0.000    3.286    0.000    3.000    0.000    3.429 
#    0.000    5.000    0.000    0.857    0.000    0.000 
#    0.000    0.000    0.000    0.000    0.000    0.000 
#
# Total GULP energy -694074.096201 kJ/mol
# GULP energy per Si atom -12394.180289 kJ/mol
# Density = 1.740305 g / cm^3
# Si number density = 17.442755 Si / 1000 Ang^3
#
#
#
# Elastic Constant Matrix: (Units=GPa)
#
#
# Indices 1 2 3 4 5 6 
#
# 1 103.5297 22.1423 82.9210 0.0000 0.0000 0.0000
# 2 22.1423 15.7066 21.4837 0.0000 0.0000 0.0000
# 3 82.9210 21.4837 140.3819 0.0000 0.0000 0.0000
# 4 0.0000 0.0000 0.0000 54.8263 0.0000 0.0000
# 5 0.0000 0.0000 0.0000 0.0000 37.7339 0.0000
# 6 0.0000 0.0000 0.0000 0.0000 0.0000 24.1799
#
#
#
# Elastic Compliance Matrix: (Units=1/GPa)
#
#
# Indices 1 2 3 4 5 6 
#
# 1 0.021117 -0.016073 -0.010014 0.000000 0.000000 0.000000
# 2 -0.016073 0.092757 -0.004701 0.000000 0.000000 0.000000
# 3 -0.010014 -0.004701 0.013758 0.000000 0.000000 0.000000
# 4 0.000000 0.000000 0.000000 0.018239 0.000000 0.000000
# 5 0.000000 0.000000 0.000000 0.000000 0.026501 0.000000
# 6 0.000000 0.000000 0.000000 0.000000 0.000000 0.041357
#
#
# Mechanical properties :
#
#
# Convention : Reuss Voigt Hill
#
# Bulk Modulus (GPa) = 15.13872 56.96804 36.05338
# Shear Modulus (GPa) = 16.81673 32.21942 24.51808
#
# Velocity S-wave (km/s) = 3.10838 4.30251 3.75324
# Velocity P-wave (km/s) = 4.64550 7.57714 6.28465
#
# Compressibility (1/GPa) = 0.06605578
#
# Stress axis : x y z
#
# Youngs Moduli (GPa) = 47.35532 10.78091 72.68604
#
# Poissons Ratio (x) = 0.17328 0.72785
# Poissons Ratio (y) = 0.76113 0.34172
# Poissons Ratio (z) = 0.47420 0.05068
#
# Static dielectric constant tensor:
#      x y z
#    x 3.647190 0.000000 0.000000 
#    y 0.000000 2.740010 0.000000 
#    z 0.000000 0.000000 3.470890 
# 
# 
# High freq. dielectric constant tensor:
#      x y z
#    x 1.676030 0.000000 0.000000 
#    y 0.000000 1.621030 0.000000 
#    z 0.000000 0.000000 1.687360 
# 
# From -- ./inp_files/26124.got.cif
#   From: 2010.03.12/outbox.cif.g09.slc.cpg/sg59_14_cif.got.tgz:26124.got - 2010.04.16 16:29:54.
