data_PCOD8242547
_publ_section_title
;
Structure prediction by ZEFSAII (Michael W. Deem and Ramdas Pophale) SiO2 
 PCOD8242547
Probable space group: P M M N
;
_chemical_formula_sum "Si O2"
_cell_formula_units_Z 56
_cell_length_a 9.346047
_cell_length_b 19.031859
_cell_length_c 16.195906
_cell_angle_alpha 90.000000
_cell_angle_beta 90.000000
_cell_angle_gamma 90.000000
_cell_volume 2880.808699
_symmetry_space_group_name_H-M "P M M N"
_symmetry_group_IT_number 59
_space_group.IT_coordinate_system_code '2'
_symmetry_cell_setting 'orthorhombic'
loop_
_space_group_symop_operation_xyz
x,y,z
1/2-x,1/2-y,z
1/2+x,-y,-z
-x,1/2+y,-z
-x,-y,-z
1/2+x,1/2+y,-z
1/2-x,y,z
x,1/2-y,z
loop_
_atom_site_type_symbol
_atom_site_label
_atom_site_fract_x
_atom_site_fract_y
_atom_site_fract_z
Si Si1 0.082876 0.329714 0.151681
Si Si2 0.084364 0.538557 0.572193
Si Si3 0.410941 0.166837 0.680040
Si Si4 0.587361 0.328905 0.524898
Si Si5 0.413831 0.456034 0.263779
Si Si6 0.413318 0.597948 0.177734
Si Si7 0.915377 0.169653 0.988942
O O1 0.250000 0.337154 0.133686
O O2 0.041401 0.250000 0.177082
O O3 0.037034 0.381514 0.225790
O O4 0.003825 0.353257 0.068780
O O5 0.250000 0.514518 0.572963
O O6 0.070955 0.622219 0.555371
O O7 0.000000 0.500000 0.500000
O O8 0.014582 0.522329 0.660393
O O9 0.250000 0.137526 0.677524
O O10 0.414990 0.250000 0.680461
O O11 0.491302 0.138991 0.598444
O O12 0.486573 0.140649 0.761588
O O13 0.750000 0.329470 0.557578
O O14 0.539303 0.250000 0.500186
O O15 0.250000 0.452326 0.295346
O O16 0.430455 0.514742 0.192549
O O17 0.250000 0.622352 0.192603
O O18 0.460402 0.617543 0.084981
O O19 0.750000 0.161065 0.011735
O O20 0.950538 0.250000 0.963286
#
# Coordination Sequence:
#
# PCOD8242547 Si02
#       7
#     8   8   8   8   8   8   8
#     4   9  19  37  58  79 107 142 177 217 269 321
#     4  11  23  38  57  80 107 140 177 219 267 318
#     4  10  20  32  49  77 109 138 172 216 263 311
#     4   9  19  36  55  74  99 134 175 217 263 315
#     4  10  22  38  55  78 107 140 178 219 264 315
#     4  10  20  34  52  75 106 143 180 215 256 311
#     4   9  18  33  54  79 105 136 175 216 258 308
#
# _framework density 19.438986
#
# number of rings (size 3 to 8) (size 9 to 14) (size 15 to 20)
#    0.000    2.286    0.000    2.143    0.000    8.857 
#    0.000    1.429    0.000    0.000    0.000    0.000 
#    0.000    0.000    0.000    0.000    0.000    0.000 
#
# Total GULP energy -694491.340561 kJ/mol
# GULP energy per Si atom -12401.631081 kJ/mol
# Density = 1.939474 g / cm^3
# Si number density = 19.438986 Si / 1000 Ang^3
#
#
#
# Elastic Constant Matrix: (Units=GPa)
#
#
# Indices 1 2 3 4 5 6 
#
# 1 85.0408 35.2738 49.9819 0.0000 0.0000 0.0000
# 2 35.2738 65.0128 51.2498 0.0000 0.0000 0.0000
# 3 49.9819 51.2498 106.6207 0.0000 0.0000 0.0000
# 4 0.0000 0.0000 0.0000 36.2903 0.0000 0.0000
# 5 0.0000 0.0000 0.0000 0.0000 33.8674 0.0000
# 6 0.0000 0.0000 0.0000 0.0000 0.0000 22.5466
#
#
#
# Elastic Compliance Matrix: (Units=1/GPa)
#
#
# Indices 1 2 3 4 5 6 
#
# 1 0.017101 -0.004764 -0.005727 0.000000 0.000000 0.000000
# 2 -0.004764 0.026093 -0.010309 0.000000 0.000000 0.000000
# 3 -0.005727 -0.010309 0.017019 0.000000 0.000000 0.000000
# 4 0.000000 0.000000 0.000000 0.027556 0.000000 0.000000
# 5 0.000000 0.000000 0.000000 0.000000 0.029527 0.000000
# 6 0.000000 0.000000 0.000000 0.000000 0.000000 0.044353
#
#
# Mechanical properties :
#
#
# Convention : Reuss Voigt Hill
#
# Bulk Modulus (GPa) = 53.72454 58.85393 56.28923
# Shear Modulus (GPa) = 23.87187 26.55210 25.21199
#
# Velocity S-wave (km/s) = 3.50814 3.69985 3.60527
# Velocity P-wave (km/s) = 6.64131 6.97092 6.80811
#
# Compressibility (1/GPa) = 0.01861347
#
# Stress axis : x y z
#
# Youngs Moduli (GPa) = 58.47639 38.32450 58.75858
#
# Poissons Ratio (x) = 0.18258 0.33649
# Poissons Ratio (y) = 0.27859 0.60574
# Poissons Ratio (z) = 0.33487 0.39508
#
# Static dielectric constant tensor:
#      x y z
#    x 3.627130 0.000000 0.000000 
#    y 0.000000 3.748800 0.000000 
#    z 0.000000 0.000000 3.380580 
# 
# 
# High freq. dielectric constant tensor:
#      x y z
#    x 1.756450 0.000000 0.000000 
#    y 0.000000 1.764810 0.000000 
#    z 0.000000 0.000000 1.743230 
# 
# From -- ./inp_files/21078.got.cif
#   From: 2010.03.12/outbox.cif.g09.slc.cpg/sg59_11_cif.got.tgz:21078.got - 2010.04.16 16:29:54.
