data_PCOD8242050
_publ_section_title
;
Structure prediction by ZEFSAII (Michael W. Deem and Ramdas Pophale) SiO2 
 PCOD8242050
Probable space group: P M M N
;
_chemical_formula_sum "Si O2"
_cell_formula_units_Z 64
_cell_length_a 18.274032
_cell_length_b 15.131571
_cell_length_c 11.782798
_cell_angle_alpha 90.000000
_cell_angle_beta 90.000000
_cell_angle_gamma 90.000000
_cell_volume 3258.118182
_symmetry_space_group_name_H-M "P M M N"
_symmetry_group_IT_number 59
_space_group.IT_coordinate_system_code '2'
_symmetry_cell_setting 'orthorhombic'
loop_
_space_group_symop_operation_xyz
x,y,z
1/2-x,1/2-y,z
1/2+x,-y,-z
-x,1/2+y,-z
-x,-y,-z
1/2+x,1/2+y,-z
1/2-x,y,z
x,1/2-y,z
loop_
_atom_site_type_symbol
_atom_site_label
_atom_site_fract_x
_atom_site_fract_y
_atom_site_fract_z
Si Si1 0.402749 0.497469 0.096834
Si Si2 0.443800 0.848007 0.694928
Si Si3 0.667376 0.349241 0.767702
Si Si4 0.415670 0.599637 0.446777
Si Si5 0.112452 0.348401 0.261550
Si Si6 0.929329 0.505112 0.151199
Si Si7 0.333257 0.080889 0.481920
Si Si8 0.564967 0.646956 0.335016
O O1 0.379070 0.591033 0.147483
O O2 0.364108 0.416945 0.163398
O O3 0.488544 0.486599 0.113490
O O4 0.381027 0.492198 0.963860
O O5 0.425985 0.750000 0.743420
O O6 0.414421 0.851142 0.566664
O O7 0.530366 0.865318 0.693801
O O8 0.403283 0.922711 0.770289
O O9 0.750000 0.384822 0.764463
O O10 0.663257 0.250000 0.815388
O O11 0.636643 0.349483 0.640213
O O12 0.386868 0.501014 0.461437
O O13 0.497324 0.597630 0.395480
O O14 0.121559 0.250000 0.211824
O O15 0.165886 0.360106 0.368610
O O16 0.920022 0.598059 0.215857
O O17 0.250000 0.051672 0.508355
O O18 0.363279 0.138212 0.587064
O O19 0.547248 0.750000 0.312373
#
# Coordination Sequence:
#
# PCOD8242050 Si02
#       8
#     8   8   8   8   8   8   8   8
#     4  10  21  37  59  82 120 152 203 251 293 351
#     4  10  19  34  59  89 119 150 194 250 299 354
#     4  11  23  38  59  89 123 158 197 247 310 367
#     4  12  20  37  62  90 121 155 201 250 306 365
#     4  10  20  35  56  84 116 153 193 243 302 353
#     4  10  21  37  57  89 115 157 201 248 298 351
#     4  12  24  38  60  89 125 163 200 249 311 376
#     4  12  23  38  63  94 128 161 201 252 306 371
#
# _framework density 19.643239999999999
#
# number of rings (size 3 to 8) (size 9 to 14) (size 15 to 20)
#    0.000    1.125    5.000    3.000    0.000    2.000 
#    0.000    3.125    0.000    0.000    0.000    1.750 
#    0.000    0.000    0.000    0.000    0.000    0.000 
#
# Total GULP energy -793691.625803 kJ/mol
# GULP energy per Si atom -12401.431653 kJ/mol
# Density = 1.959853 g / cm^3
# Si number density = 19.643240 Si / 1000 Ang^3
#
#
#
# Elastic Constant Matrix: (Units=GPa)
#
#
# Indices 1 2 3 4 5 6 
#
# 1 36.4584 19.5715 13.7118 0.0000 0.0000 0.0000
# 2 19.5715 123.9946 47.1963 0.0000 0.0000 0.0000
# 3 13.7118 47.1963 137.3061 0.0000 0.0000 0.0000
# 4 0.0000 0.0000 0.0000 16.9353 0.0000 0.0000
# 5 0.0000 0.0000 0.0000 0.0000 7.0765 0.0000
# 6 0.0000 0.0000 0.0000 0.0000 0.0000 12.0483
#
#
#
# Elastic Compliance Matrix: (Units=1/GPa)
#
#
# Indices 1 2 3 4 5 6 
#
# 1 0.030266 -0.004173 -0.001588 0.000000 0.000000 0.000000
# 2 -0.004173 0.009854 -0.002970 0.000000 0.000000 0.000000
# 3 -0.001588 -0.002970 0.008463 0.000000 0.000000 0.000000
# 4 0.000000 0.000000 0.000000 0.059048 0.000000 0.000000
# 5 0.000000 0.000000 0.000000 0.000000 0.141314 0.000000
# 6 0.000000 0.000000 0.000000 0.000000 0.000000 0.082999
#
#
# Mechanical properties :
#
#
# Convention : Reuss Voigt Hill
#
# Bulk Modulus (GPa) = 32.13375 50.96870 41.55123
# Shear Modulus (GPa) = 13.89740 21.69732 17.79736
#
# Velocity S-wave (km/s) = 2.66275 3.32711 3.01330
# Velocity P-wave (km/s) = 5.08408 6.38460 5.77109
#
# Compressibility (1/GPa) = 0.03111993
#
# Stress axis : x y z
#
# Youngs Moduli (GPa) = 33.04060 101.48006 118.16648
#
# Poissons Ratio (x) = 0.42345 0.18767
# Poissons Ratio (y) = 0.13787 0.35101
# Poissons Ratio (z) = 0.05247 0.30144
#
# Static dielectric constant tensor:
#      x y z
#    x 3.294770 0.000000 0.000000 
#    y 0.000000 3.628370 0.000000 
#    z 0.000000 0.000000 3.762810 
# 
# 
# High freq. dielectric constant tensor:
#      x y z
#    x 1.730360 0.000000 0.000000 
#    y 0.000000 1.777420 0.000000 
#    z 0.000000 0.000000 1.758940 
# 
# From -- ./inp_files/17871.got.cif
#   From: 2010.03.12/outbox.cif.g09.slc.cpg/sg59_9_cif.got.tgz:17871.got - 2010.04.16 16:29:54.
