data_PCOD8242783
_publ_section_title
;
Structure prediction by ZEFSAII (Michael W. Deem and Ramdas Pophale) SiO2 
 PCOD8242783
Probable space group: P M M N
;
_chemical_formula_sum "Si O2"
_cell_formula_units_Z 64
_cell_length_a 18.516615
_cell_length_b 14.822650
_cell_length_c 12.267026
_cell_angle_alpha 90.000000
_cell_angle_beta 90.000000
_cell_angle_gamma 90.000000
_cell_volume 3366.873012
_symmetry_space_group_name_H-M "P M M N"
_symmetry_group_IT_number 59
_space_group.IT_coordinate_system_code '2'
_symmetry_cell_setting 'orthorhombic'
loop_
_space_group_symop_operation_xyz
x,y,z
1/2-x,1/2-y,z
1/2+x,-y,-z
-x,1/2+y,-z
-x,-y,-z
1/2+x,1/2+y,-z
1/2-x,y,z
x,1/2-y,z
loop_
_atom_site_type_symbol
_atom_site_label
_atom_site_fract_x
_atom_site_fract_y
_atom_site_fract_z
Si Si1 0.670015 0.642986 0.403668
Si Si2 0.081976 0.856762 0.614578
Si Si3 0.165814 0.853688 0.824475
Si Si4 0.834895 0.508519 0.760524
Si Si5 0.663817 0.850135 0.164375
Si Si6 0.083243 0.357126 0.387828
Si Si7 0.335435 0.998503 0.994874
Si Si8 0.166221 0.853246 0.404617
O O1 0.750000 0.602457 0.427115
O O2 0.675545 0.750000 0.403995
O O3 0.640471 0.613411 0.284469
O O4 0.615524 0.609423 0.496734
O O5 0.089016 0.750000 0.613761
O O6 0.122075 0.893892 0.721845
O O7 0.121348 0.893120 0.506306
O O8 0.999456 0.888507 0.615020
O O9 0.250000 0.867548 0.798121
O O10 0.146750 0.750000 0.846990
O O11 0.142048 0.907131 0.932750
O O12 0.750000 0.529294 0.759595
O O13 0.874232 0.594432 0.708929
O O14 0.866094 0.497261 0.882773
O O15 0.852355 0.415245 0.698839
O O16 0.750000 0.847503 0.162673
O O17 0.632661 0.750000 0.141819
O O18 0.632563 0.916231 0.071808
O O19 0.091756 0.250000 0.371595
O O20 0.250000 0.006599 0.999725
O O21 0.250000 0.858782 0.436370
O O22 0.144456 0.750000 0.375878
#
# Coordination Sequence:
#
# PCOD8242783 Si02
#       8
#     8   8   8   8   8   8   8   8
#     4   8  14  26  45  69  96 127 163 197 233 280
#     4   9  18  33  53  77 102 128 163 204 251 308
#     4   9  17  31  53  77  98 122 158 210 263 301
#     4  10  21  34  49  74 104 136 175 204 234 296
#     4   8  14  26  45  68  94 124 159 202 244 278
#     4  10  20  33  50  74 106 138 164 199 246 296
#     4   9  18  31  47  71  99 127 165 205 240 286
#     4   9  18  34  55  76 100 129 161 206 258 300
#
# _framework density 19.008737
#
# number of rings (size 3 to 8) (size 9 to 14) (size 15 to 20)
#    0.000    3.000    0.000    1.500    0.000    4.750 
#    0.000    6.875    0.000    0.000    0.000    5.250 
#    0.000    0.000    0.000    0.000    0.000    0.000 
#
# Total GULP energy -793440.693787 kJ/mol
# GULP energy per Si atom -12397.510840 kJ/mol
# Density = 1.896547 g / cm^3
# Si number density = 19.008737 Si / 1000 Ang^3
#
#
#
# Elastic Constant Matrix: (Units=GPa)
#
#
# Indices 1 2 3 4 5 6 
#
# 1 65.6933 34.8635 60.1191 0.0000 0.0000 0.0000
# 2 34.8635 83.3794 69.9059 0.0000 0.0000 0.0000
# 3 60.1191 69.9059 196.3102 0.0000 0.0000 0.0000
# 4 0.0000 0.0000 0.0000 31.8820 0.0000 0.0000
# 5 0.0000 0.0000 0.0000 0.0000 3.6366 0.0000
# 6 0.0000 0.0000 0.0000 0.0000 0.0000 15.2690
#
#
#
# Elastic Compliance Matrix: (Units=1/GPa)
#
#
# Indices 1 2 3 4 5 6 
#
# 1 0.022631 -0.005206 -0.005077 0.000000 0.000000 0.000000
# 2 -0.005206 0.018296 -0.004921 0.000000 0.000000 0.000000
# 3 -0.005077 -0.004921 0.008401 0.000000 0.000000 0.000000
# 4 0.000000 0.000000 0.000000 0.031366 0.000000 0.000000
# 5 0.000000 0.000000 0.000000 0.000000 0.274982 0.000000
# 6 0.000000 0.000000 0.000000 0.000000 0.000000 0.065492
#
#
# Mechanical properties :
#
#
# Convention : Reuss Voigt Hill
#
# Bulk Modulus (GPa) = 52.85307 75.01774 63.93541
# Shear Modulus (GPa) = 10.91982 22.19047 16.55515
#
# Velocity S-wave (km/s) = 2.39940 3.42040 2.95434
# Velocity P-wave (km/s) = 5.96164 7.42627 6.73389
#
# Compressibility (1/GPa) = 0.01892038
#
# Stress axis : x y z
#
# Youngs Moduli (GPa) = 44.18666 54.65701 119.03422
#
# Poissons Ratio (x) = 0.28457 0.60430
# Poissons Ratio (y) = 0.23006 0.58573
# Poissons Ratio (z) = 0.22432 0.26895
#
# Static dielectric constant tensor:
#      x y z
#    x 3.257220 0.000000 0.000000 
#    y 0.000000 3.436430 0.000000 
#    z 0.000000 0.000000 3.751540 
# 
# 
# High freq. dielectric constant tensor:
#      x y z
#    x 1.699690 0.000000 0.000000 
#    y 0.000000 1.736000 0.000000 
#    z 0.000000 0.000000 1.741690 
# 
# From -- ./inp_files/17849.got.cif
#   From: 2010.03.12/outbox.cif.g09.slc.cpg/sg59_9_cif.got.tgz:17849.got - 2010.04.16 16:29:54.
