data_PCOD8242822
_publ_section_title
;
Structure prediction by ZEFSAII (Michael W. Deem and Ramdas Pophale) SiO2 
 PCOD8242822
Probable space group: P M M N
;
_chemical_formula_sum "Si O2"
_cell_formula_units_Z 56
_cell_length_a 9.003674
_cell_length_b 17.902916
_cell_length_c 19.547395
_cell_angle_alpha 90.000000
_cell_angle_beta 90.000000
_cell_angle_gamma 90.000000
_cell_volume 3150.884072
_symmetry_space_group_name_H-M "P M M N"
_symmetry_group_IT_number 59
_space_group.IT_coordinate_system_code '2'
_symmetry_cell_setting 'orthorhombic'
loop_
_space_group_symop_operation_xyz
x,y,z
1/2-x,1/2-y,z
1/2+x,-y,-z
-x,1/2+y,-z
-x,-y,-z
1/2+x,1/2+y,-z
1/2-x,y,z
x,1/2-y,z
loop_
_atom_site_type_symbol
_atom_site_label
_atom_site_fract_x
_atom_site_fract_y
_atom_site_fract_z
Si Si1 0.919803 0.467916 0.566131
Si Si2 0.076936 0.973402 0.698478
Si Si3 0.576271 0.560419 0.952976
Si Si4 0.424992 0.164789 0.346145
Si Si5 0.417519 0.667093 0.517957
Si Si6 0.077058 0.474017 0.846482
Si Si7 0.575962 0.667052 0.068220
O O1 0.750000 0.496853 0.571810
O O2 0.926842 0.379124 0.552202
O O3 0.000000 0.500000 0.500000
O O4 0.004942 0.482643 0.635859
O O5 0.250000 0.962483 0.684555
O O6 0.002667 0.891283 0.707462
O O7 0.047290 0.023193 0.765622
O O8 0.750000 0.545085 0.947412
O O9 0.503492 0.547629 0.878491
O O10 0.500000 0.500000 0.000000
O O11 0.545127 0.640507 0.989475
O O12 0.250000 0.158372 0.338650
O O13 0.478908 0.250000 0.333392
O O14 0.474163 0.136642 0.421889
O O15 0.250000 0.664197 0.547840
O O16 0.467193 0.750000 0.497974
O O17 0.250000 0.481273 0.864420
O O18 0.014420 0.395263 0.877674
O O19 0.750000 0.673825 0.080782
O O20 0.503799 0.750000 0.079033
#
# Coordination Sequence:
#
# PCOD8242822 Si02
#       7
#     8   8   8   8   8   8   8
#     4  11  21  33  52  76 101 131 172 221 266 317
#     4  11  22  35  51  73 104 141 177 214 262 319
#     4   9  16  28  50  76 101 130 164 203 246 295
#     4  10  20  33  51  74  96 122 164 216 264 314
#     4   9  18  33  52  72  95 126 163 208 266 321
#     4   9  19  34  51  73 102 138 177 213 251 303
#     4   8  14  28  52  79 103 130 167 208 248 291
#
# _framework density 17.772787999999998
#
# number of rings (size 3 to 8) (size 9 to 14) (size 15 to 20)
#    0.000    2.429    1.429    2.571    0.000    2.571 
#    0.000    1.429    0.000   14.143    0.000    0.000 
#    0.000    0.000    0.000    0.000    0.000    0.000 
#
# Total GULP energy -693884.412311 kJ/mol
# GULP energy per Si atom -12390.793077 kJ/mol
# Density = 1.773234 g / cm^3
# Si number density = 17.772788 Si / 1000 Ang^3
#
#
#
# Elastic Constant Matrix: (Units=GPa)
#
#
# Indices 1 2 3 4 5 6 
#
# 1 80.5128 35.1883 45.8854 0.0000 0.0000 0.0000
# 2 35.1883 103.8837 55.3009 0.0000 0.0000 0.0000
# 3 45.8854 55.3009 106.3656 0.0000 0.0000 0.0000
# 4 0.0000 0.0000 0.0000 23.2047 0.0000 0.0000
# 5 0.0000 0.0000 0.0000 0.0000 27.6986 0.0000
# 6 0.0000 0.0000 0.0000 0.0000 0.0000 21.7637
#
#
#
# Elastic Compliance Matrix: (Units=1/GPa)
#
#
# Indices 1 2 3 4 5 6 
#
# 1 0.016947 -0.002556 -0.005982 0.000000 0.000000 0.000000
# 2 -0.002556 0.013695 -0.006018 0.000000 0.000000 0.000000
# 3 -0.005982 -0.006018 0.015111 0.000000 0.000000 0.000000
# 4 0.000000 0.000000 0.000000 0.043095 0.000000 0.000000
# 5 0.000000 0.000000 0.000000 0.000000 0.036103 0.000000
# 6 0.000000 0.000000 0.000000 0.000000 0.000000 0.045948
#
#
# Mechanical properties :
#
#
# Convention : Reuss Voigt Hill
#
# Bulk Modulus (GPa) = 60.09005 62.61236 61.35121
# Shear Modulus (GPa) = 24.32420 24.82590 24.57505
#
# Velocity S-wave (km/s) = 3.70350 3.74150 3.72255
# Velocity P-wave (km/s) = 7.22298 7.34649 7.28500
#
# Compressibility (1/GPa) = 0.01664169
#
# Stress axis : x y z
#
# Youngs Moduli (GPa) = 59.00903 73.01714 66.17804
#
# Poissons Ratio (x) = 0.18663 0.39586
# Poissons Ratio (y) = 0.15083 0.39825
# Poissons Ratio (z) = 0.35298 0.43940
#
# Static dielectric constant tensor:
#      x y z
#    x 3.435450 0.000000 0.000000 
#    y 0.000000 3.774010 0.000000 
#    z 0.000000 0.000000 3.397820 
# 
# 
# High freq. dielectric constant tensor:
#      x y z
#    x 1.683630 0.000000 0.000000 
#    y 0.000000 1.688650 0.000000 
#    z 0.000000 0.000000 1.664920 
# 
# From -- ./inp_files/29318.got.cif
#   From: 2010.03.12/outbox.cif.g09.slc.cpg/sg59_15_cif.got.tgz:29318.got - 2010.04.16 16:29:54.
