data_PCOD8242254
_publ_section_title
;
Structure prediction by ZEFSAII (Michael W. Deem and Ramdas Pophale) SiO2 
 PCOD8242254
Probable space group: P M M N
;
_chemical_formula_sum "Si O2"
_cell_formula_units_Z 56
_cell_length_a 21.879588
_cell_length_b 14.327637
_cell_length_c 8.486466
_cell_angle_alpha 90.000000
_cell_angle_beta 90.000000
_cell_angle_gamma 90.000000
_cell_volume 2660.361078
_symmetry_space_group_name_H-M "P M M N"
_symmetry_group_IT_number 59
_space_group.IT_coordinate_system_code '2'
_symmetry_cell_setting 'orthorhombic'
loop_
_space_group_symop_operation_xyz
x,y,z
1/2-x,1/2-y,z
1/2+x,-y,-z
-x,1/2+y,-z
-x,-y,-z
1/2+x,1/2+y,-z
1/2-x,y,z
x,1/2-y,z
loop_
_atom_site_type_symbol
_atom_site_label
_atom_site_fract_x
_atom_site_fract_y
_atom_site_fract_z
Si Si1 0.181412 0.854500 0.009622
Si Si2 0.180886 0.145427 0.492351
Si Si3 0.033872 0.095517 0.037368
Si Si4 0.553054 0.350115 0.576856
Si Si5 0.429156 0.396319 0.705692
Si Si6 0.924618 0.386525 0.232949
Si Si7 0.369805 0.002071 0.244995
O O1 0.250000 0.866987 0.944567
O O2 0.172836 0.750000 0.081134
O O3 0.171956 0.932725 0.143234
O O4 0.136846 0.866546 0.862022
O O5 0.250000 0.132076 0.554174
O O6 0.172783 0.250000 0.420096
O O7 0.136536 0.136294 0.643169
O O8 0.169312 0.064900 0.363817
O O9 0.983480 0.153605 0.136388
O O10 0.094772 0.075181 0.135821
O O11 0.053832 0.149011 0.876576
O O12 0.000000 0.000000 0.000000
O O13 0.567277 0.250000 0.660629
O O14 0.479900 0.367135 0.577142
O O15 0.577394 0.336440 0.400265
O O16 0.582740 0.437537 0.662604
O O17 0.430099 0.505458 0.731135
#
# Coordination Sequence:
#
# PCOD8242254 Si02
#       7
#     8   8   8   8   8   8   8
#     4  11  24  41  62  92 131 174 215 257 314 384
#     4  11  26  46  66  91 125 169 222 275 322 373
#     4  10  19  36  67  90 119 161 202 257 316 379
#     4  12  23  36  64 100 132 166 204 258 326 389
#     4  11  20  41  65  91 125 164 212 258 322 379
#     4  11  20  40  63  90 131 168 208 263 310 377
#     4  12  21  43  68  91 127 166 212 264 321 384
#
# _framework density 21.049773999999999
#
# number of rings (size 3 to 8) (size 9 to 14) (size 15 to 20)
#    0.000    0.857    7.143    3.000    0.000    0.571 
#    0.000    4.286    0.000    4.286    0.000    0.000 
#    0.000    0.000    0.000    0.000    0.000    0.000 
#
# Total GULP energy -694060.836202 kJ/mol
# GULP energy per Si atom -12393.943504 kJ/mol
# Density = 2.100186 g / cm^3
# Si number density = 21.049774 Si / 1000 Ang^3
#
#
#
# Elastic Constant Matrix: (Units=GPa)
#
#
# Indices 1 2 3 4 5 6 
#
# 1 142.2356 46.2024 68.1237 0.0000 0.0000 0.0000
# 2 46.2024 107.6718 31.4042 0.0000 0.0000 0.0000
# 3 68.1237 31.4042 118.1297 0.0000 0.0000 0.0000
# 4 0.0000 0.0000 0.0000 -27.1982 0.0000 0.0000
# 5 0.0000 0.0000 0.0000 0.0000 29.3641 0.0000
# 6 0.0000 0.0000 0.0000 0.0000 0.0000 47.5311
#
#
#
# Elastic Compliance Matrix: (Units=1/GPa)
#
#
# Indices 1 2 3 4 5 6 
#
# 1 0.010526 -0.002977 -0.005279 0.000000 0.000000 0.000000
# 2 -0.002977 0.010910 -0.001184 0.000000 0.000000 0.000000
# 3 -0.005279 -0.001184 0.011824 0.000000 0.000000 0.000000
# 4 0.000000 0.000000 0.000000 -0.036767 0.000000 0.000000
# 5 0.000000 0.000000 0.000000 0.000000 0.034055 0.000000
# 6 0.000000 0.000000 0.000000 0.000000 0.000000 0.021039
#
#
# Mechanical properties :
#
#
# Convention : Reuss Voigt Hill
#
# Bulk Modulus (GPa) = 69.53412 73.27752 71.40582
# Shear Modulus (GPa) = 66.43692 24.75987 45.59840
#
# Velocity S-wave (km/s) = 5.62409 3.43338 4.65931
# Velocity P-wave (km/s) = 8.67633 7.11369 7.93358
#
# Compressibility (1/GPa) = 0.01438143
#
# Stress axis : x y z
#
# Youngs Moduli (GPa) = 95.00422 91.65769 84.57337
#
# Poissons Ratio (x) = 0.27287 0.44643
# Poissons Ratio (y) = 0.28283 0.10010
# Poissons Ratio (z) = 0.50150 0.10848
#
# Static dielectric constant tensor:
#      x y z
#    x 3.576780 0.000000 0.000000 
#    y 0.000000 4.083500 0.000000 
#    z 0.000000 0.000000 3.987580 
# 
# 
# High freq. dielectric constant tensor:
#      x y z
#    x 1.819710 0.000000 0.000000 
#    y 0.000000 1.833120 0.000000 
#    z 0.000000 0.000000 1.820390 
# 
# From -- ./inp_files/11437.got.cif
#   From: 2010.03.12/outbox.cif.g09.slc.cpg/sg59_6_cif.got.tgz:11437.got - 2010.04.16 16:29:54.
