data_PCOD8242005
_publ_section_title
;
Structure prediction by ZEFSAII (Michael W. Deem and Ramdas Pophale) SiO2 
 PCOD8242005
Probable space group: P M M N
;
_chemical_formula_sum "Si O2"
_cell_formula_units_Z 48
_cell_length_a 8.722422
_cell_length_b 14.105595
_cell_length_c 20.296087
_cell_angle_alpha 90.000000
_cell_angle_beta 90.000000
_cell_angle_gamma 90.000000
_cell_volume 2497.128093
_symmetry_space_group_name_H-M "P M M N"
_symmetry_group_IT_number 59
_space_group.IT_coordinate_system_code '2'
_symmetry_cell_setting 'orthorhombic'
loop_
_space_group_symop_operation_xyz
x,y,z
1/2-x,1/2-y,z
1/2+x,-y,-z
-x,1/2+y,-z
-x,-y,-z
1/2+x,1/2+y,-z
1/2-x,y,z
x,1/2-y,z
loop_
_atom_site_type_symbol
_atom_site_label
_atom_site_fract_x
_atom_site_fract_y
_atom_site_fract_z
Si Si1 0.428168 0.558819 0.815920
Si Si2 0.432234 0.750000 0.355818
Si Si3 0.931025 0.055093 0.440290
Si Si4 0.568612 0.250000 0.493714
Si Si5 0.430814 0.750000 0.011543
Si Si6 0.571443 0.562843 0.056010
Si Si7 0.930855 0.750000 0.865347
Si Si8 0.931965 0.945592 0.312608
O O1 0.250000 0.585600 0.809977
O O2 0.459727 0.487826 0.875431
O O3 0.518858 0.656837 0.825065
O O4 0.486645 0.502079 0.752009
O O5 0.250000 0.750000 0.354921
O O6 0.497362 0.750000 0.431246
O O7 0.491507 0.657596 0.317046
O O8 0.750000 0.048751 0.443233
O O9 0.989314 0.162188 0.450060
O O10 0.991466 0.010805 0.372559
O O11 0.000000 0.000000 0.500000
O O12 0.750000 0.250000 0.500979
O O13 0.250000 0.750000 0.003079
O O14 0.484830 0.662108 0.055131
O O15 0.498526 0.750000 0.938188
O O16 0.750000 0.579010 0.042326
O O17 0.500000 0.500000 0.000000
O O18 0.750000 0.750000 0.872943
O O19 0.750000 0.931281 0.312843
#
# Coordination Sequence:
#
# PCOD8242005 Si02
#       8
#     8   4   8   4   4   8   4   8
#     4  10  23  42  63  88 123 161 197 245 305 362
#     4  11  21  36  59  84 119 159 192 242 306 358
#     4  10  19  34  57  84 114 149 196 243 290 347
#     4   9  18  32  53  83 115 151 191 238 296 347
#     4  12  24  39  62  91 125 161 204 254 303 358
#     4  11  22  38  62  90 120 156 202 251 302 358
#     4  12  24  39  64  92 121 157 201 248 301 365
#     4  10  22  39  61  88 118 157 202 247 294 361
#
# _framework density 19.222082
#
# number of rings (size 3 to 8) (size 9 to 14) (size 15 to 20)
#    0.000    1.500    3.333    2.250    0.000    2.667 
#    0.000    6.250    0.000    0.000    0.000    0.000 
#    0.000    0.000    0.000    0.000    0.000    0.000 
#
# Total GULP energy -595217.999475 kJ/mol
# GULP energy per Si atom -12400.374989 kJ/mol
# Density = 1.917833 g / cm^3
# Si number density = 19.222082 Si / 1000 Ang^3
#
#
#
# Elastic Constant Matrix: (Units=GPa)
#
#
# Indices 1 2 3 4 5 6 
#
# 1 80.1736 64.4821 52.4057 0.0000 0.0000 0.0000
# 2 64.4821 189.9967 77.4373 0.0000 0.0000 0.0000
# 3 52.4057 77.4373 141.1801 0.0000 0.0000 0.0000
# 4 0.0000 0.0000 0.0000 32.4882 0.0000 0.0000
# 5 0.0000 0.0000 0.0000 0.0000 25.6231 0.0000
# 6 0.0000 0.0000 0.0000 0.0000 0.0000 33.9286
#
#
#
# Elastic Compliance Matrix: (Units=1/GPa)
#
#
# Indices 1 2 3 4 5 6 
#
# 1 0.019207 -0.004653 -0.004578 0.000000 0.000000 0.000000
# 2 -0.004653 0.007906 -0.002609 0.000000 0.000000 0.000000
# 3 -0.004578 -0.002609 0.010213 0.000000 0.000000 0.000000
# 4 0.000000 0.000000 0.000000 0.030780 0.000000 0.000000
# 5 0.000000 0.000000 0.000000 0.000000 0.039027 0.000000
# 6 0.000000 0.000000 0.000000 0.000000 0.000000 0.029474
#
#
# Mechanical properties :
#
#
# Convention : Reuss Voigt Hill
#
# Bulk Modulus (GPa) = 73.27508 88.88896 81.08202
# Shear Modulus (GPa) = 30.33308 32.87634 31.60471
#
# Velocity S-wave (km/s) = 3.97676 4.14012 4.05926
# Velocity P-wave (km/s) = 7.69994 8.31851 8.01520
#
# Compressibility (1/GPa) = 0.01364720
#
# Stress axis : x y z
#
# Youngs Moduli (GPa) = 52.06327 126.48887 97.91009
#
# Poissons Ratio (x) = 0.58856 0.44819
# Poissons Ratio (y) = 0.24225 0.25546
# Poissons Ratio (z) = 0.23832 0.33003
#
# Static dielectric constant tensor:
#      x y z
#    x 3.437820 0.000000 0.000000 
#    y 0.000000 3.727460 0.000000 
#    z 0.000000 0.000000 3.702730 
# 
# 
# High freq. dielectric constant tensor:
#      x y z
#    x 1.738200 0.000000 0.000000 
#    y 0.000000 1.768130 0.000000 
#    z 0.000000 0.000000 1.748230 
# 
# From -- ./inp_files/25706.got.cif
#   From: 2010.03.12/outbox.cif.g09.slc.cpg/sg59_13_cif.got.tgz:25706.got - 2010.04.16 16:29:54.
