data_PCOD8242904
_publ_section_title
;
Structure prediction by ZEFSAII (Michael W. Deem and Ramdas Pophale) SiO2 
 PCOD8242904
Probable space group: P M M N
;
_chemical_formula_sum "Si O2"
_cell_formula_units_Z 40
_cell_length_a 9.055501
_cell_length_b 9.584953
_cell_length_c 25.521225
_cell_angle_alpha 90.000000
_cell_angle_beta 90.000000
_cell_angle_gamma 90.000000
_cell_volume 2215.154319
_symmetry_space_group_name_H-M "P M M N"
_symmetry_group_IT_number 59
_space_group.IT_coordinate_system_code '2'
_symmetry_cell_setting 'orthorhombic'
loop_
_space_group_symop_operation_xyz
x,y,z
1/2-x,1/2-y,z
1/2+x,-y,-z
-x,1/2+y,-z
-x,-y,-z
1/2+x,1/2+y,-z
1/2-x,y,z
x,1/2-y,z
loop_
_atom_site_type_symbol
_atom_site_label
_atom_site_fract_x
_atom_site_fract_y
_atom_site_fract_z
Si Si1 0.919386 0.413513 0.339346
Si Si2 0.577004 0.413347 0.954805
Si Si3 0.416285 0.415581 0.850238
Si Si4 0.922470 0.411484 0.746599
Si Si5 0.922261 0.405875 0.457852
O O1 0.750000 0.448751 0.325125
O O2 0.949553 0.250000 0.331534
O O3 0.954004 0.458678 0.398965
O O4 0.028610 0.501143 0.303470
O O5 0.750000 0.445335 0.954388
O O6 0.544825 0.250000 0.963657
O O7 0.509121 0.467169 0.900135
O O8 0.500000 0.500000 0.000000
O O9 0.250000 0.475478 0.853619
O O10 0.415131 0.250000 0.849123
O O11 0.493117 0.471244 0.797483
O O12 0.750000 0.432046 0.756475
O O13 0.961828 0.250000 0.736595
O O14 0.750000 0.408392 0.469269
O O15 0.984632 0.250000 0.464214
O O16 0.000000 0.500000 0.500000
#
# Coordination Sequence:
#
# PCOD8242904 Si02
#       5
#     8   8   8   8   8
#     4   9  19  36  54  72  99 135 170 205 249 299
#     4  10  20  34  53  77 105 136 170 210 255 301
#     4   9  17  31  52  75 100 133 170 207 250 299
#     4  10  20  33  51  77 105 131 164 207 251 297
#     4   9  19  35  53  74 101 132 167 207 250 297
#
# _framework density 18.057433
#
# number of rings (size 3 to 8) (size 9 to 14) (size 15 to 20)
#    0.000    2.600    0.000    3.000    0.000    7.200 
#    0.000    7.000    0.000    6.000    0.000    0.000 
#    0.000    0.000    0.000    0.000    0.000    0.000 
#
# Total GULP energy -496017.660665 kJ/mol
# GULP energy per Si atom -12400.441517 kJ/mol
# Density = 1.801633 g / cm^3
# Si number density = 18.057433 Si / 1000 Ang^3
#
#
#
# Elastic Constant Matrix: (Units=GPa)
#
#
# Indices 1 2 3 4 5 6 
#
# 1 108.7237 41.1630 72.4454 0.0000 0.0000 0.0000
# 2 41.1630 48.1581 53.9651 0.0000 0.0000 0.0000
# 3 72.4454 53.9651 146.0107 0.0000 0.0000 0.0000
# 4 0.0000 0.0000 0.0000 32.3531 0.0000 0.0000
# 5 0.0000 0.0000 0.0000 0.0000 43.2244 0.0000
# 6 0.0000 0.0000 0.0000 0.0000 0.0000 29.5353
#
#
#
# Elastic Compliance Matrix: (Units=1/GPa)
#
#
# Indices 1 2 3 4 5 6 
#
# 1 0.015281 -0.007793 -0.004702 0.000000 0.000000 0.000000
# 2 -0.007793 0.039419 -0.010703 0.000000 0.000000 0.000000
# 3 -0.004702 -0.010703 0.013137 0.000000 0.000000 0.000000
# 4 0.000000 0.000000 0.000000 0.030909 0.000000 0.000000
# 5 0.000000 0.000000 0.000000 0.000000 0.023135 0.000000
# 6 0.000000 0.000000 0.000000 0.000000 0.000000 0.033858
#
#
# Mechanical properties :
#
#
# Convention : Reuss Voigt Hill
#
# Bulk Modulus (GPa) = 46.63514 70.89329 58.76421
# Shear Modulus (GPa) = 23.89141 30.04384 26.96762
#
# Velocity S-wave (km/s) = 3.64136 4.08339 3.86869
# Velocity P-wave (km/s) = 6.60011 7.84711 7.25047
#
# Compressibility (1/GPa) = 0.02144306
#
# Stress axis : x y z
#
# Youngs Moduli (GPa) = 65.44181 25.36855 76.11915
#
# Poissons Ratio (x) = 0.19769 0.35789
# Poissons Ratio (y) = 0.50996 0.81468
# Poissons Ratio (z) = 0.30769 0.27151
#
# Static dielectric constant tensor:
#      x y z
#    x 3.477920 0.000000 0.000000 
#    y 0.000000 3.408610 0.000000 
#    z 0.000000 0.000000 3.402680 
# 
# 
# High freq. dielectric constant tensor:
#      x y z
#    x 1.707670 0.000000 0.000000 
#    y 0.000000 1.671560 0.000000 
#    z 0.000000 0.000000 1.712690 
# 
# From -- ./inp_files/25265.got.cif
#   From: 2010.03.12/outbox.cif.g09.slc.cpg/sg59_13_cif.got.tgz:25265.got - 2010.04.16 16:29:54.
