data_PCOD8242332
_publ_section_title
;
Structure prediction by ZEFSAII (Michael W. Deem and Ramdas Pophale) SiO2 
 PCOD8242332
Probable space group: P M M N
;
_chemical_formula_sum "Si O2"
_cell_formula_units_Z 64
_cell_length_a 8.918538
_cell_length_b 26.803121
_cell_length_c 14.255113
_cell_angle_alpha 90.000000
_cell_angle_beta 90.000000
_cell_angle_gamma 90.000000
_cell_volume 3407.608543
_symmetry_space_group_name_H-M "P M M N"
_symmetry_group_IT_number 59
_space_group.IT_coordinate_system_code '2'
_symmetry_cell_setting 'orthorhombic'
loop_
_space_group_symop_operation_xyz
x,y,z
1/2-x,1/2-y,z
1/2+x,-y,-z
-x,1/2+y,-z
-x,-y,-z
1/2+x,1/2+y,-z
1/2-x,y,z
x,1/2-y,z
loop_
_atom_site_type_symbol
_atom_site_label
_atom_site_fract_x
_atom_site_fract_y
_atom_site_fract_z
Si Si1 0.574428 0.808563 0.271020
Si Si2 0.082760 0.049529 0.523989
Si Si3 0.073540 0.445981 0.019152
Si Si4 0.927609 0.109997 0.857775
Si Si5 0.423568 0.432739 0.234251
Si Si6 0.914382 0.192056 0.540228
Si Si7 0.424536 0.362985 0.395343
Si Si8 0.080446 0.032105 0.732323
O O1 0.750000 0.820249 0.267650
O O2 0.541463 0.750000 0.253047
O O3 0.495474 0.840097 0.188271
O O4 0.515608 0.827188 0.372582
O O5 0.250000 0.042243 0.486487
O O6 0.013470 0.095555 0.468250
O O7 0.077310 0.060775 0.634124
O O8 0.000000 0.000000 0.500000
O O9 0.250000 0.450361 0.998297
O O10 0.041504 0.428000 0.124855
O O11 0.000000 0.500000 0.000000
O O12 0.000006 0.401217 0.959226
O O13 0.750000 0.116082 0.866771
O O14 0.966447 0.060369 0.799763
O O15 0.250000 0.445994 0.252679
O O16 0.463148 0.380880 0.289172
O O17 0.524918 0.475614 0.280152
O O18 0.750000 0.166691 0.546407
O O19 0.896339 0.250000 0.553751
O O20 0.985936 0.184370 0.435838
O O21 0.250000 0.351041 0.405431
O O22 0.250000 0.032464 0.773499
#
# Coordination Sequence:
#
# PCOD8242332 Si02
#       8
#     8   8   8   8   8   8   8   8
#     4  10  21  39  63  89 116 146 183 231 285 340
#     4  10  20  31  46  71 104 141 176 215 262 320
#     4  11  22  37  57  82 112 148 193 240 287 339
#     4  12  24  37  57  83 113 150 187 231 286 343
#     4  10  21  36  54  76 107 147 189 235 281 329
#     4  10  21  37  58  86 117 149 187 230 277 334
#     4  10  20  35  54  77 109 149 190 230 276 330
#     4  11  21  32  50  77 109 147 188 228 274 332
#
# _framework density 18.781500000000001
#
# number of rings (size 3 to 8) (size 9 to 14) (size 15 to 20)
#    0.000    1.500    2.500    3.375    0.000    4.500 
#    0.000    0.000    0.000    0.750    0.000    1.750 
#    0.000    0.000    0.000    0.000    0.000    0.000 
#
# Total GULP energy -793348.362618 kJ/mol
# GULP energy per Si atom -12396.068166 kJ/mol
# Density = 1.873875 g / cm^3
# Si number density = 18.781500 Si / 1000 Ang^3
#
#
#
# Elastic Constant Matrix: (Units=GPa)
#
#
# Indices 1 2 3 4 5 6 
#
# 1 119.4840 37.7792 53.2242 0.0000 0.0000 0.0000
# 2 37.7792 47.7949 33.4596 0.0000 0.0000 0.0000
# 3 53.2242 33.4596 129.3194 0.0000 0.0000 0.0000
# 4 0.0000 0.0000 0.0000 34.0657 0.0000 0.0000
# 5 0.0000 0.0000 0.0000 0.0000 25.9402 0.0000
# 6 0.0000 0.0000 0.0000 0.0000 0.0000 30.4379
#
#
#
# Elastic Compliance Matrix: (Units=1/GPa)
#
#
# Indices 1 2 3 4 5 6 
#
# 1 0.012070 -0.007404 -0.003052 0.000000 0.000000 0.000000
# 2 -0.007404 0.030093 -0.004739 0.000000 0.000000 0.000000
# 3 -0.003052 -0.004739 0.010215 0.000000 0.000000 0.000000
# 4 0.000000 0.000000 0.000000 0.029355 0.000000 0.000000
# 5 0.000000 0.000000 0.000000 0.000000 0.038550 0.000000
# 6 0.000000 0.000000 0.000000 0.000000 0.000000 0.032854
#
#
# Mechanical properties :
#
#
# Convention : Reuss Voigt Hill
#
# Bulk Modulus (GPa) = 45.47925 60.61382 53.04654
# Shear Modulus (GPa) = 26.19787 29.56444 27.88115
#
# Velocity S-wave (km/s) = 3.73886 3.97183 3.85710
# Velocity P-wave (km/s) = 6.55028 7.30596 6.93842
#
# Compressibility (1/GPa) = 0.02198805
#
# Stress axis : x y z
#
# Youngs Moduli (GPa) = 82.85107 33.23075 97.89549
#
# Poissons Ratio (x) = 0.24604 0.29877
# Poissons Ratio (y) = 0.61343 0.46390
# Poissons Ratio (z) = 0.25286 0.15747
#
# Static dielectric constant tensor:
#      x y z
#    x 3.577030 0.000000 0.000000 
#    y 0.000000 3.502000 0.000000 
#    z 0.000000 0.000000 3.695580 
# 
# 
# High freq. dielectric constant tensor:
#      x y z
#    x 1.738740 0.000000 0.000000 
#    y 0.000000 1.707290 0.000000 
#    z 0.000000 0.000000 1.728780 
# 
# From -- ./inp_files/21513.got.cif
#   From: 2010.03.12/outbox.cif.g09.slc.cpg/sg59_11_cif.got.tgz:21513.got - 2010.04.16 16:29:54.
