data_PCOD8242432
_publ_section_title
;
Structure prediction by ZEFSAII (Michael W. Deem and Ramdas Pophale) SiO2 
 PCOD8242432
Probable space group: P M M N
;
_chemical_formula_sum "Si O2"
_cell_formula_units_Z 64
_cell_length_a 9.084824
_cell_length_b 23.745328
_cell_length_c 16.114856
_cell_angle_alpha 90.000000
_cell_angle_beta 90.000000
_cell_angle_gamma 90.000000
_cell_volume 3476.330992
_symmetry_space_group_name_H-M "P M M N"
_symmetry_group_IT_number 59
_space_group.IT_coordinate_system_code '2'
_symmetry_cell_setting 'orthorhombic'
loop_
_space_group_symop_operation_xyz
x,y,z
1/2-x,1/2-y,z
1/2+x,-y,-z
-x,1/2+y,-z
-x,-y,-z
1/2+x,1/2+y,-z
1/2-x,y,z
x,1/2-y,z
loop_
_atom_site_type_symbol
_atom_site_label
_atom_site_fract_x
_atom_site_fract_y
_atom_site_fract_z
Si Si1 0.074292 0.086366 0.726626
Si Si2 0.078942 0.185524 0.158109
Si Si3 0.416671 0.683929 0.673259
Si Si4 0.908330 0.536970 0.439623
Si Si5 0.919302 0.581504 0.956805
Si Si6 0.419812 0.961277 0.114279
Si Si7 0.412457 0.158875 0.488356
Si Si8 0.917747 0.312660 0.647478
O O1 0.250000 0.092967 0.727378
O O2 0.021348 0.045354 0.651674
O O3 0.018830 0.058932 0.810341
O O4 0.005205 0.147920 0.711731
O O5 0.250000 0.180338 0.181086
O O6 0.041884 0.250000 0.129480
O O7 0.037480 0.140558 0.086749
O O8 0.987116 0.168149 0.238689
O O9 0.250000 0.660971 0.672153
O O10 0.421398 0.750000 0.658226
O O11 0.508497 0.655609 0.600195
O O12 0.750000 0.507512 0.429436
O O13 0.889330 0.596422 0.481691
O O14 0.000000 0.500000 0.500000
O O15 0.750000 0.583141 0.987421
O O16 0.941774 0.528444 0.895266
O O17 0.026936 0.573306 0.034171
O O18 0.250000 0.946177 0.130351
O O19 0.250000 0.187373 0.479875
O O20 0.510719 0.191056 0.555991
O O21 0.750000 0.334290 0.638395
O O22 0.921939 0.250000 0.685633
#
# Coordination Sequence:
#
# PCOD8242432 Si02
#       8
#     8   8   8   8   8   8   8   8
#     4  10  21  37  55  77 106 139 176 216 261 314
#     4   9  18  34  55  78 106 139 173 211 259 315
#     4  10  20  32  47  71 102 134 170 210 250 295
#     4   9  20  35  50  71  99 133 171 211 255 303
#     4   9  19  36  57  81 107 136 172 214 262 319
#     4  10  20  35  57  82 106 135 173 218 265 310
#     4  10  20  33  49  71  99 133 175 216 255 304
#     4  10  20  34  53  77 104 134 172 218 266 314
#
# _framework density 18.410215999999998
#
# number of rings (size 3 to 8) (size 9 to 14) (size 15 to 20)
#    0.000    2.375    0.000    3.000    0.000    8.250 
#    0.000    4.375    0.000    2.250    0.000    0.000 
#    0.000    0.000    0.000    0.000    0.000    0.000 
#
# Total GULP energy -793412.584770 kJ/mol
# GULP energy per Si atom -12397.071637 kJ/mol
# Density = 1.836831 g / cm^3
# Si number density = 18.410216 Si / 1000 Ang^3
#
#
#
# Elastic Constant Matrix: (Units=GPa)
#
#
# Indices 1 2 3 4 5 6 
#
# 1 113.1715 39.3750 52.4472 0.0000 0.0000 0.0000
# 2 39.3750 70.8576 52.0946 0.0000 0.0000 0.0000
# 3 52.4472 52.0946 102.5429 0.0000 0.0000 0.0000
# 4 0.0000 0.0000 0.0000 9.6303 0.0000 0.0000
# 5 0.0000 0.0000 0.0000 0.0000 35.5376 0.0000
# 6 0.0000 0.0000 0.0000 0.0000 0.0000 24.1565
#
#
#
# Elastic Compliance Matrix: (Units=1/GPa)
#
#
# Indices 1 2 3 4 5 6 
#
# 1 0.012093 -0.003468 -0.004423 0.000000 0.000000 0.000000
# 2 -0.003468 0.023521 -0.010176 0.000000 0.000000 0.000000
# 3 -0.004423 -0.010176 0.017184 0.000000 0.000000 0.000000
# 4 0.000000 0.000000 0.000000 0.103839 0.000000 0.000000
# 5 0.000000 0.000000 0.000000 0.000000 0.028139 0.000000
# 6 0.000000 0.000000 0.000000 0.000000 0.000000 0.041397
#
#
# Mechanical properties :
#
#
# Convention : Reuss Voigt Hill
#
# Bulk Modulus (GPa) = 60.00925 63.82286 61.91605
# Shear Modulus (GPa) = 18.66642 23.37520 21.02081
#
# Velocity S-wave (km/s) = 3.18766 3.56713 3.38272
# Velocity P-wave (km/s) = 6.79813 7.19085 6.99724
#
# Compressibility (1/GPa) = 0.01666410
#
# Stress axis : x y z
#
# Youngs Moduli (GPa) = 82.69582 42.51517 58.19424
#
# Poissons Ratio (x) = 0.14743 0.25740
# Poissons Ratio (y) = 0.28677 0.59216
# Poissons Ratio (z) = 0.36578 0.43262
#
# Static dielectric constant tensor:
#      x y z
#    x 3.596500 0.000000 0.000000 
#    y 0.000000 3.293990 0.000000 
#    z 0.000000 0.000000 3.272340 
# 
# 
# High freq. dielectric constant tensor:
#      x y z
#    x 1.727180 0.000000 0.000000 
#    y 0.000000 1.707110 0.000000 
#    z 0.000000 0.000000 1.703630 
# 
# From -- ./inp_files/21415.got.cif
#   From: 2010.03.12/outbox.cif.g09.slc.cpg/sg59_11_cif.got.tgz:21415.got - 2010.04.16 16:29:54.
