data_PCOD8242227
_publ_section_title
;
Structure prediction by ZEFSAII (Michael W. Deem and Ramdas Pophale) SiO2 
 PCOD8242227
Probable space group: P M M N
;
_chemical_formula_sum "Si O2"
_cell_formula_units_Z 40
_cell_length_a 25.390649
_cell_length_b 8.786378
_cell_length_c 9.594142
_cell_angle_alpha 90.000000
_cell_angle_beta 90.000000
_cell_angle_gamma 90.000000
_cell_volume 2140.374790
_symmetry_space_group_name_H-M "P M M N"
_symmetry_group_IT_number 59
_space_group.IT_coordinate_system_code '2'
_symmetry_cell_setting 'orthorhombic'
loop_
_space_group_symop_operation_xyz
x,y,z
1/2-x,1/2-y,z
1/2+x,-y,-z
-x,1/2+y,-z
-x,-y,-z
1/2+x,1/2+y,-z
1/2-x,y,z
x,1/2-y,z
loop_
_atom_site_type_symbol
_atom_site_label
_atom_site_fract_x
_atom_site_fract_y
_atom_site_fract_z
Si Si1 0.657322 0.069198 0.895802
Si Si2 0.543622 0.922990 0.591878
Si Si3 0.338771 0.068148 0.400187
Si Si4 0.454099 0.073874 0.087796
Si Si5 0.750000 0.431456 0.411299
Si Si6 0.750000 0.429653 0.095183
O O1 0.656988 0.250000 0.876514
O O2 0.676508 0.993375 0.752080
O O3 0.600139 0.012550 0.943653
O O4 0.697891 0.014569 0.014600
O O5 0.543419 0.750000 0.546712
O O6 0.602108 0.987936 0.563270
O O7 0.529051 0.945512 0.752569
O O8 0.500000 0.000000 0.500000
O O9 0.334038 0.250000 0.397363
O O10 0.301669 0.996949 0.516036
O O11 0.446651 0.250000 0.048067
O O12 0.500000 0.000000 0.000000
O O13 0.750000 0.250000 0.421294
O O14 0.750000 0.492660 0.252718
O O15 0.750000 0.250000 0.101119
#
# Coordination Sequence:
#
# PCOD8242227 Si02
#       6
#     8   8   8   8   4   4
#     4  10  19  36  60  83 107 143 185 225 269 326
#     4   9  20  36  55  79 109 141 178 221 269 320
#     4  10  21  38  56  80 111 143 180 225 269 321
#     4  10  21  37  55  81 112 144 182 226 272 323
#     4  11  22  37  56  80 108 143 180 221 272 322
#     4   9  21  37  54  80 112 139 176 225 272 320
#
# _framework density 18.688314999999999
#
# number of rings (size 3 to 8) (size 9 to 14) (size 15 to 20)
#    0.000    2.200    0.000    3.900    0.000    7.200 
#    0.000   11.500    0.000    0.000    0.000    0.000 
#    0.000    0.000    0.000    0.000    0.000    0.000 
#
# Total GULP energy -496020.125164 kJ/mol
# GULP energy per Si atom -12400.503129 kJ/mol
# Density = 1.864578 g / cm^3
# Si number density = 18.688315 Si / 1000 Ang^3
#
#
#
# Elastic Constant Matrix: (Units=GPa)
#
#
# Indices 1 2 3 4 5 6 
#
# 1 133.8587 48.9664 93.8470 0.0000 0.0000 0.0000
# 2 48.9664 86.6781 52.1512 0.0000 0.0000 0.0000
# 3 93.8470 52.1512 134.9665 0.0000 0.0000 0.0000
# 4 0.0000 0.0000 0.0000 29.1862 0.0000 0.0000
# 5 0.0000 0.0000 0.0000 0.0000 43.7340 0.0000
# 6 0.0000 0.0000 0.0000 0.0000 0.0000 36.0549
#
#
#
# Elastic Compliance Matrix: (Units=1/GPa)
#
#
# Indices 1 2 3 4 5 6 
#
# 1 0.015111 -0.002886 -0.009392 0.000000 0.000000 0.000000
# 2 -0.002886 0.015583 -0.004015 0.000000 0.000000 0.000000
# 3 -0.009392 -0.004015 0.015491 0.000000 0.000000 0.000000
# 4 0.000000 0.000000 0.000000 0.034263 0.000000 0.000000
# 5 0.000000 0.000000 0.000000 0.000000 0.022865 0.000000
# 6 0.000000 0.000000 0.000000 0.000000 0.000000 0.027735
#
#
# Mechanical properties :
#
#
# Convention : Reuss Voigt Hill
#
# Bulk Modulus (GPa) = 73.53010 82.82584 78.17797
# Shear Modulus (GPa) = 29.73246 32.49760 31.11503
#
# Velocity S-wave (km/s) = 3.99302 4.17457 4.08480
# Velocity P-wave (km/s) = 7.79037 8.22507 8.01067
#
# Compressibility (1/GPa) = 0.01359987
#
# Stress axis : x y z
#
# Youngs Moduli (GPa) = 66.17764 64.17437 64.55276
#
# Poissons Ratio (x) = 0.18518 0.60629
# Poissons Ratio (y) = 0.19096 0.25916
# Poissons Ratio (z) = 0.62155 0.25764
#
# Static dielectric constant tensor:
#      x y z
#    x 3.124570 0.000000 0.000000 
#    y 0.000000 3.475800 0.000000 
#    z 0.000000 0.000000 3.540700 
# 
# 
# High freq. dielectric constant tensor:
#      x y z
#    x 1.739780 0.000000 0.000000 
#    y 0.000000 1.728600 0.000000 
#    z 0.000000 0.000000 1.723880 
# 
# From -- ./inp_files/12395.got.cif
#   From: 2010.03.12/outbox.cif.g09.slc.cpg/sg59_7_cif.got.tgz:12395.got - 2010.04.16 16:29:54.
