data_PCOD8242631
_publ_section_title
;
Structure prediction by ZEFSAII (Michael W. Deem and Ramdas Pophale) SiO2 
 PCOD8242631
Probable space group: P M M N
;
_chemical_formula_sum "Si O2"
_cell_formula_units_Z 64
_cell_length_a 9.257934
_cell_length_b 17.251748
_cell_length_c 23.136134
_cell_angle_alpha 90.000000
_cell_angle_beta 90.000000
_cell_angle_gamma 90.000000
_cell_volume 3695.200236
_symmetry_space_group_name_H-M "P M M N"
_symmetry_group_IT_number 59
_space_group.IT_coordinate_system_code '2'
_symmetry_cell_setting 'orthorhombic'
loop_
_space_group_symop_operation_xyz
x,y,z
1/2-x,1/2-y,z
1/2+x,-y,-z
-x,1/2+y,-z
-x,-y,-z
1/2+x,1/2+y,-z
1/2-x,y,z
x,1/2-y,z
loop_
_atom_site_type_symbol
_atom_site_label
_atom_site_fract_x
_atom_site_fract_y
_atom_site_fract_z
Si Si1 0.918113 0.939943 0.367708
Si Si2 0.081323 0.007521 0.263758
Si Si3 0.920509 0.482568 0.867888
Si Si4 0.918659 0.439266 0.039513
Si Si5 0.917783 0.165135 0.938578
Si Si6 0.916659 0.664662 0.679803
Si Si7 0.917294 0.102105 0.424273
Si Si8 0.415455 0.840741 0.452880
O O1 0.750000 0.924948 0.357464
O O2 0.987738 0.866011 0.398721
O O3 0.948560 0.013249 0.408682
O O4 0.991967 0.951555 0.305619
O O5 0.250000 0.993862 0.275356
O O6 0.037697 0.097629 0.274861
O O7 0.038634 0.984424 0.199100
O O8 0.750000 0.493437 0.878485
O O9 0.978706 0.401213 0.895199
O O10 0.003960 0.555196 0.897960
O O11 0.750000 0.459928 0.045495
O O12 0.939846 0.357233 0.006470
O O13 0.000000 0.500000 0.000000
O O14 0.750000 0.171892 0.924645
O O15 0.990635 0.250000 0.927899
O O16 0.750000 0.655221 0.663876
O O17 0.948291 0.750000 0.706825
O O18 0.001331 0.657927 0.619925
O O19 0.750000 0.123654 0.419357
O O20 0.972825 0.117402 0.489080
O O21 0.250000 0.864113 0.440257
O O22 0.432891 0.750000 0.461791
#
# Coordination Sequence:
#
# PCOD8242631 Si02
#       8
#     8   8   8   8   8   8   8   8
#     4  10  20  33  50  71  94 122 157 197 241 286
#     4   9  18  33  50  67  92 126 163 197 230 278
#     4   9  17  30  49  70  92 124 163 197 230 272
#     4   9  16  27  46  69  93 120 148 183 228 276
#     4   8  14  26  45  69  94 119 151 191 230 267
#     4   9  17  29  46  68  93 122 155 193 239 288
#     4   9  18  32  50  71  93 119 152 192 241 295
#     4  10  20  33  49  69  94 124 156 192 239 293
#
# _framework density 17.319763999999999
#
# number of rings (size 3 to 8) (size 9 to 14) (size 15 to 20)
#    0.000    2.875    0.000    2.250    0.000    2.500 
#    0.000    1.250    0.000   12.375    0.000    0.000 
#    0.000    0.000    0.000    0.000    0.000    0.000 
#
# Total GULP energy -793264.438244 kJ/mol
# GULP energy per Si atom -12394.756848 kJ/mol
# Density = 1.728034 g / cm^3
# Si number density = 17.319764 Si / 1000 Ang^3
#
#
#
# Elastic Constant Matrix: (Units=GPa)
#
#
# Indices 1 2 3 4 5 6 
#
# 1 55.5453 24.7104 49.3654 0.0000 0.0000 0.0000
# 2 24.7104 64.7369 49.1809 0.0000 0.0000 0.0000
# 3 49.3654 49.1809 134.4972 0.0000 0.0000 0.0000
# 4 0.0000 0.0000 0.0000 18.5462 0.0000 0.0000
# 5 0.0000 0.0000 0.0000 0.0000 29.3854 0.0000
# 6 0.0000 0.0000 0.0000 0.0000 0.0000 20.1481
#
#
#
# Elastic Compliance Matrix: (Units=1/GPa)
#
#
# Indices 1 2 3 4 5 6 
#
# 1 0.027414 -0.003905 -0.008634 0.000000 0.000000 0.000000
# 2 -0.003905 0.021945 -0.006591 0.000000 0.000000 0.000000
# 3 -0.008634 -0.006591 0.013014 0.000000 0.000000 0.000000
# 4 0.000000 0.000000 0.000000 0.053919 0.000000 0.000000
# 5 0.000000 0.000000 0.000000 0.000000 0.034031 0.000000
# 6 0.000000 0.000000 0.000000 0.000000 0.000000 0.049633
#
#
# Mechanical properties :
#
#
# Convention : Reuss Voigt Hill
#
# Bulk Modulus (GPa) = 41.47135 55.69922 48.58529
# Shear Modulus (GPa) = 20.30425 22.38411 21.34418
#
# Velocity S-wave (km/s) = 3.42763 3.59890 3.51431
# Velocity P-wave (km/s) = 6.29772 7.03552 6.67682
#
# Compressibility (1/GPa) = 0.02411303
#
# Stress axis : x y z
#
# Youngs Moduli (GPa) = 36.47784 45.56829 76.83808
#
# Poissons Ratio (x) = 0.17793 0.66343
# Poissons Ratio (y) = 0.14243 0.50647
# Poissons Ratio (z) = 0.31495 0.30036
#
# Static dielectric constant tensor:
#      x y z
#    x 3.219510 0.000000 0.000000 
#    y 0.000000 3.352900 0.000000 
#    z 0.000000 0.000000 3.421580 
# 
# 
# High freq. dielectric constant tensor:
#      x y z
#    x 1.657980 0.000000 0.000000 
#    y 0.000000 1.659020 0.000000 
#    z 0.000000 0.000000 1.658750 
# 
# From -- ./inp_files/31714.got.cif
#   From: 2010.03.12/outbox.cif.g09.slc.cpg/sg59_16_cif.got.tgz:31714.got - 2010.04.16 16:29:54.
