data_PCOD8242624
_publ_section_title
;
Structure prediction by ZEFSAII (Michael W. Deem and Ramdas Pophale) SiO2 
 PCOD8242624
Probable space group: P M M N
;
_chemical_formula_sum "Si O2"
_cell_formula_units_Z 48
_cell_length_a 9.136532
_cell_length_b 9.525933
_cell_length_c 31.183227
_cell_angle_alpha 90.000000
_cell_angle_beta 90.000000
_cell_angle_gamma 90.000000
_cell_volume 2714.000719
_symmetry_space_group_name_H-M "P M M N"
_symmetry_group_IT_number 59
_space_group.IT_coordinate_system_code '2'
_symmetry_cell_setting 'orthorhombic'
loop_
_space_group_symop_operation_xyz
x,y,z
1/2-x,1/2-y,z
1/2+x,-y,-z
-x,1/2+y,-z
-x,-y,-z
1/2+x,1/2+y,-z
1/2-x,y,z
x,1/2-y,z
loop_
_atom_site_type_symbol
_atom_site_label
_atom_site_fract_x
_atom_site_fract_y
_atom_site_fract_z
Si Si1 0.412869 0.917251 0.130251
Si Si2 0.922768 0.090816 0.964462
Si Si3 0.915391 0.082533 0.705406
Si Si4 0.078870 0.914693 0.463038
Si Si5 0.585735 0.917458 0.211560
Si Si6 0.915054 0.916636 0.377489
O O1 0.250000 0.975714 0.139267
O O2 0.407925 0.750000 0.131212
O O3 0.467539 0.964925 0.083054
O O4 0.519503 0.976467 0.167067
O O5 0.750000 0.079771 0.970101
O O6 0.976272 0.250000 0.970347
O O7 0.000000 0.000000 0.000000
O O8 0.750000 0.024826 0.703300
O O9 0.915073 0.250000 0.704848
O O10 0.990791 0.025685 0.748677
O O11 0.005696 0.023403 0.664858
O O12 0.250000 0.951403 0.462119
O O13 0.052532 0.750000 0.470760
O O14 0.007870 0.965201 0.418499
O O15 0.000000 0.000000 0.500000
O O16 0.750000 0.975163 0.216228
O O17 0.584379 0.750000 0.211324
O O18 0.750000 0.977338 0.380287
O O19 0.909757 0.750000 0.375048
#
# Coordination Sequence:
#
# PCOD8242624 Si02
#       6
#     8   8   8   8   8   8
#     4   8  14  25  38  52  75 107 139 172 213 259
#     4   9  18  31  46  65  89 117 150 187 226 269
#     4   9  15  22  33  50  75 108 142 174 212 260
#     4  10  20  33  49  69  93 122 156 192 231 275
#     4   9  15  21  31  50  75 103 137 174 211 255
#     4   9  16  26  40  58  82 112 145 182 223 265
#
# _framework density 17.686067999999999
#
# number of rings (size 3 to 8) (size 9 to 14) (size 15 to 20)
#    0.000    3.000    0.000    3.000    0.000    8.000 
#    0.000    1.667    0.000    0.000    0.000    0.000 
#    0.000    1.333    0.000    9.667    0.000   14.667 
#
# Total GULP energy -595019.698163 kJ/mol
# GULP energy per Si atom -12396.243712 kJ/mol
# Density = 1.764581 g / cm^3
# Si number density = 17.686068 Si / 1000 Ang^3
#
#
#
# Elastic Constant Matrix: (Units=GPa)
#
#
# Indices 1 2 3 4 5 6 
#
# 1 152.4858 22.6193 101.3122 0.0000 0.0000 0.0000
# 2 22.6193 16.8236 29.4974 0.0000 0.0000 0.0000
# 3 101.3122 29.4974 192.2507 0.0000 0.0000 0.0000
# 4 0.0000 0.0000 0.0000 17.4049 0.0000 0.0000
# 5 0.0000 0.0000 0.0000 0.0000 42.8750 0.0000
# 6 0.0000 0.0000 0.0000 0.0000 0.0000 14.3412
#
#
#
# Elastic Compliance Matrix: (Units=1/GPa)
#
#
# Indices 1 2 3 4 5 6 
#
# 1 0.010523 -0.006054 -0.004617 0.000000 0.000000 0.000000
# 2 -0.006054 0.084798 -0.009820 0.000000 0.000000 0.000000
# 3 -0.004617 -0.009820 0.009141 0.000000 0.000000 0.000000
# 4 0.000000 0.000000 0.000000 0.057455 0.000000 0.000000
# 5 0.000000 0.000000 0.000000 0.000000 0.023324 0.000000
# 6 0.000000 0.000000 0.000000 0.000000 0.000000 0.069729
#
#
# Mechanical properties :
#
#
# Convention : Reuss Voigt Hill
#
# Bulk Modulus (GPa) = 15.75284 74.26866 45.01075
# Shear Modulus (GPa) = 15.76722 28.79962 22.28342
#
# Velocity S-wave (km/s) = 2.98905 4.03970 3.55342
# Velocity P-wave (km/s) = 4.56495 7.99017 6.50698
#
# Compressibility (1/GPa) = 0.06348063
#
# Stress axis : x y z
#
# Youngs Moduli (GPa) = 95.02623 11.79268 109.39446
#
# Poissons Ratio (x) = 0.07139 0.50505
# Poissons Ratio (y) = 0.57529 1.07430
# Poissons Ratio (z) = 0.43871 0.11581
#
# Static dielectric constant tensor:
#      x y z
#    x 3.488180 0.000000 0.000000 
#    y 0.000000 2.572310 0.000000 
#    z 0.000000 0.000000 3.976330 
# 
# 
# High freq. dielectric constant tensor:
#      x y z
#    x 1.697060 0.000000 0.000000 
#    y 0.000000 1.594890 0.000000 
#    z 0.000000 0.000000 1.705600 
# 
# From -- ./inp_files/32466.got.cif
#   From: 2010.03.12/outbox.cif.g09.slc.cpg/sg59_17_cif.got.tgz:32466.got - 2010.04.16 16:29:54.
