data_PCOD8242355
_publ_section_title
;
Structure prediction by ZEFSAII (Michael W. Deem and Ramdas Pophale) SiO2 
 PCOD8242355
Probable space group: P M M N
;
_chemical_formula_sum "Si O2"
_cell_formula_units_Z 64
_cell_length_a 26.663849
_cell_length_b 9.328330
_cell_length_c 16.693137
_cell_angle_alpha 90.000000
_cell_angle_beta 90.000000
_cell_angle_gamma 90.000000
_cell_volume 4152.070320
_symmetry_space_group_name_H-M "P M M N"
_symmetry_group_IT_number 59
_space_group.IT_coordinate_system_code '2'
_symmetry_cell_setting 'orthorhombic'
loop_
_space_group_symop_operation_xyz
x,y,z
1/2-x,1/2-y,z
1/2+x,-y,-z
-x,1/2+y,-z
-x,-y,-z
1/2+x,1/2+y,-z
1/2-x,y,z
x,1/2-y,z
loop_
_atom_site_type_symbol
_atom_site_label
_atom_site_fract_x
_atom_site_fract_y
_atom_site_fract_z
Si Si1 0.192143 0.582077 0.925702
Si Si2 0.382022 0.417835 0.035084
Si Si3 0.381912 0.584282 0.790273
Si Si4 0.062331 0.915888 0.161421
Si Si5 0.580611 0.414537 0.373485
Si Si6 0.050801 0.085164 0.487866
Si Si7 0.531404 0.587992 0.686179
Si Si8 0.953847 0.911073 0.107101
O O1 0.250000 0.539692 0.920921
O O2 0.184424 0.750000 0.944456
O O3 0.167911 0.540115 0.839422
O O4 0.166959 0.489553 0.995783
O O5 0.371724 0.250000 0.049254
O O6 0.392946 0.495212 0.119551
O O7 0.430310 0.446420 0.979161
O O8 0.393241 0.750000 0.801377
O O9 0.377963 0.548488 0.695307
O O10 0.431113 0.510153 0.824764
O O11 0.078110 0.750000 0.168956
O O12 0.013357 0.934129 0.105511
O O13 0.052459 0.976540 0.249725
O O14 0.584377 0.250000 0.401160
O O15 0.591311 0.513496 0.451504
O O16 0.526016 0.446808 0.335983
O O17 0.042916 0.250000 0.512317
O O18 0.065783 0.072675 0.394217
O O19 0.000000 0.000000 0.500000
O O20 0.535500 0.750000 0.720144
O O21 0.939914 0.750000 0.131833
#
# Coordination Sequence:
#
# PCOD8242355 Si02
#       8
#     8   8   8   8   8   8   8   8
#     4   9  18  33  51  68  87 111 141 180 223 263
#     4  10  20  32  45  61  84 113 144 178 217 263
#     4   9  16  27  44  64  86 114 145 178 217 260
#     4  11  20  28  41  61  85 113 147 183 217 254
#     4   9  16  26  40  59  83 112 147 180 212 253
#     4   9  17  27  39  55  79 112 148 181 212 247
#     4   9  17  28  39  55  81 115 148 178 215 253
#     4   9  18  29  40  59  84 112 146 180 214 252
#
# _framework density 15.413997
#
# number of rings (size 3 to 8) (size 9 to 14) (size 15 to 20)
#    0.000    2.625    1.250    2.250    0.000    4.250 
#    0.000    0.000    0.000    0.000    0.000    0.000 
#    0.000    1.000    0.000    9.250    0.000    2.500 
#
# Total GULP energy -793225.511751 kJ/mol
# GULP energy per Si atom -12394.148621 kJ/mol
# Density = 1.537891 g / cm^3
# Si number density = 15.413997 Si / 1000 Ang^3
#
#
#
# Elastic Constant Matrix: (Units=GPa)
#
#
# Indices 1 2 3 4 5 6 
#
# 1 51.6018 32.6199 32.0091 0.0000 0.0000 0.0000
# 2 32.6199 84.3554 50.5685 0.0000 0.0000 0.0000
# 3 32.0091 50.5685 82.4438 0.0000 0.0000 0.0000
# 4 0.0000 0.0000 0.0000 30.6820 0.0000 0.0000
# 5 0.0000 0.0000 0.0000 0.0000 12.6073 0.0000
# 6 0.0000 0.0000 0.0000 0.0000 0.0000 15.7174
#
#
#
# Elastic Compliance Matrix: (Units=1/GPa)
#
#
# Indices 1 2 3 4 5 6 
#
# 1 0.027768 -0.006761 -0.006634 0.000000 0.000000 0.000000
# 2 -0.006761 0.020394 -0.009884 0.000000 0.000000 0.000000
# 3 -0.006634 -0.009884 0.020768 0.000000 0.000000 0.000000
# 4 0.000000 0.000000 0.000000 0.032592 0.000000 0.000000
# 5 0.000000 0.000000 0.000000 0.000000 0.079319 0.000000
# 6 0.000000 0.000000 0.000000 0.000000 0.000000 0.063624
#
#
# Mechanical properties :
#
#
# Convention : Reuss Voigt Hill
#
# Bulk Modulus (GPa) = 44.69919 49.86622 47.28270
# Shear Modulus (GPa) = 16.75144 18.68159 17.71652
#
# Velocity S-wave (km/s) = 3.30019 3.48514 3.39393
# Velocity P-wave (km/s) = 6.60180 6.97255 6.78970
#
# Compressibility (1/GPa) = 0.02237177
#
# Stress axis : x y z
#
# Youngs Moduli (GPa) = 36.01225 49.03308 48.15105
#
# Poissons Ratio (x) = 0.33151 0.31944
# Poissons Ratio (y) = 0.24348 0.47594
# Poissons Ratio (z) = 0.23891 0.48466
#
# Static dielectric constant tensor:
#      x y z
#    x 2.597860 0.000000 0.000000 
#    y 0.000000 3.093860 0.000000 
#    z 0.000000 0.000000 3.235440 
# 
# 
# High freq. dielectric constant tensor:
#      x y z
#    x 1.528810 0.000000 0.000000 
#    y 0.000000 1.603170 0.000000 
#    z 0.000000 0.000000 1.592130 
# 
# From -- ./inp_files/28454.got.cif
#   From: 2010.03.12/outbox.cif.g09.slc.cpg/sg59_15_cif.got.tgz:28454.got - 2010.04.16 16:29:54.
