data_PCOD8242219
_publ_section_title
;
Structure prediction by ZEFSAII (Michael W. Deem and Ramdas Pophale) SiO2 
 PCOD8242219
Probable space group: P M M N
;
_chemical_formula_sum "Si O2"
_cell_formula_units_Z 64
_cell_length_a 9.009327
_cell_length_b 17.947791
_cell_length_c 21.596064
_cell_angle_alpha 90.000000
_cell_angle_beta 90.000000
_cell_angle_gamma 90.000000
_cell_volume 3492.029948
_symmetry_space_group_name_H-M "P M M N"
_symmetry_group_IT_number 59
_space_group.IT_coordinate_system_code '2'
_symmetry_cell_setting 'orthorhombic'
loop_
_space_group_symop_operation_xyz
x,y,z
1/2-x,1/2-y,z
1/2+x,-y,-z
-x,1/2+y,-z
-x,-y,-z
1/2+x,1/2+y,-z
1/2-x,y,z
x,1/2-y,z
loop_
_atom_site_type_symbol
_atom_site_label
_atom_site_fract_x
_atom_site_fract_y
_atom_site_fract_z
Si Si1 0.922255 0.553862 0.177147
Si Si2 0.919188 0.399940 0.241661
Si Si3 0.925130 0.665846 0.511741
Si Si4 0.576324 0.076652 0.379780
Si Si5 0.920468 0.162378 0.734466
Si Si6 0.425201 0.405793 0.617147
Si Si7 0.924501 0.667819 0.869662
Si Si8 0.573288 0.519700 0.935556
O O1 0.750000 0.566932 0.160771
O O2 0.943497 0.486362 0.225072
O O3 0.989365 0.626752 0.208785
O O4 0.012474 0.538601 0.114438
O O5 0.750000 0.376990 0.230171
O O6 0.964349 0.388781 0.312975
O O7 0.016594 0.346078 0.199404
O O8 0.750000 0.663794 0.517882
O O9 0.985713 0.750000 0.512151
O O10 0.975979 0.627303 0.448393
O O11 0.990766 0.622571 0.569333
O O12 0.750000 0.082284 0.393318
O O13 0.524525 0.991306 0.381739
O O14 0.750000 0.135811 0.736901
O O15 0.934412 0.250000 0.742693
O O16 0.989724 0.139692 0.669243
O O17 0.250000 0.397068 0.629122
O O18 0.750000 0.664322 0.864711
O O19 0.976907 0.750000 0.892648
O O20 0.979361 0.603574 0.916767
O O21 0.750000 0.513202 0.940003
O O22 0.500000 0.500000 0.000000
#
# Coordination Sequence:
#
# PCOD8242219 Si02
#       8
#     8   8   8   8   8   8   8   8
#     4  10  19  36  59  81 110 146 184 225 268 324
#     4   9  18  33  53  79 107 136 176 222 269 323
#     4  10  22  37  52  74 104 140 183 229 278 334
#     4  10  20  35  55  79 105 137 180 228 276 331
#     4  11  23  36  54  84 116 143 178 227 281 334
#     4  10  20  38  59  77 102 140 186 230 275 333
#     4   9  19  35  55  81 112 145 183 225 268 319
#     4  10  20  36  59  86 115 151 192 233 275 323
#
# _framework density 18.327449999999999
#
# number of rings (size 3 to 8) (size 9 to 14) (size 15 to 20)
#    0.000    2.125    1.250    1.875    0.000    5.000 
#    0.000    3.125    0.000    2.250    0.000    0.000 
#    0.000    0.000    0.000    0.000    0.000    0.000 
#
# Total GULP energy -793726.377530 kJ/mol
# GULP energy per Si atom -12401.974649 kJ/mol
# Density = 1.828574 g / cm^3
# Si number density = 18.327450 Si / 1000 Ang^3
#
#
#
# Elastic Constant Matrix: (Units=GPa)
#
#
# Indices 1 2 3 4 5 6 
#
# 1 47.6115 33.0978 37.5302 0.0000 0.0000 0.0000
# 2 33.0978 95.8181 54.8328 0.0000 0.0000 0.0000
# 3 37.5302 54.8328 129.7624 0.0000 0.0000 0.0000
# 4 0.0000 0.0000 0.0000 21.3366 0.0000 0.0000
# 5 0.0000 0.0000 0.0000 0.0000 36.6825 0.0000
# 6 0.0000 0.0000 0.0000 0.0000 0.0000 27.0288
#
#
#
# Elastic Compliance Matrix: (Units=1/GPa)
#
#
# Indices 1 2 3 4 5 6 
#
# 1 0.030613 -0.007264 -0.005784 0.000000 0.000000 0.000000
# 2 -0.007264 0.015489 -0.004444 0.000000 0.000000 0.000000
# 3 -0.005784 -0.004444 0.011257 0.000000 0.000000 0.000000
# 4 0.000000 0.000000 0.000000 0.046868 0.000000 0.000000
# 5 0.000000 0.000000 0.000000 0.000000 0.027261 0.000000
# 6 0.000000 0.000000 0.000000 0.000000 0.000000 0.036998
#
#
# Mechanical properties :
#
#
# Convention : Reuss Voigt Hill
#
# Bulk Modulus (GPa) = 44.69546 58.23484 51.46515
# Shear Modulus (GPa) = 23.70475 26.85830 25.28152
#
# Velocity S-wave (km/s) = 3.60029 3.83230 3.71810
# Velocity P-wave (km/s) = 6.45933 7.17117 6.82453
#
# Compressibility (1/GPa) = 0.02237364
#
# Stress axis : x y z
#
# Youngs Moduli (GPa) = 32.66619 64.56271 88.83187
#
# Poissons Ratio (x) = 0.46900 0.51383
# Poissons Ratio (y) = 0.23729 0.39477
# Poissons Ratio (z) = 0.18895 0.28692
#
# Static dielectric constant tensor:
#      x y z
#    x 3.400140 0.000000 0.000000 
#    y 0.000000 3.632570 0.000000 
#    z 0.000000 0.000000 3.433110 
# 
# 
# High freq. dielectric constant tensor:
#      x y z
#    x 1.710210 0.000000 0.000000 
#    y 0.000000 1.711640 0.000000 
#    z 0.000000 0.000000 1.711770 
# 
# From -- ./inp_files/29604.got.cif
#   From: 2010.03.12/outbox.cif.g09.slc.cpg/sg59_15_cif.got.tgz:29604.got - 2010.04.16 16:29:54.
