data_PCOD8242421
_publ_section_title
;
Structure prediction by ZEFSAII (Michael W. Deem and Ramdas Pophale) SiO2 
 PCOD8242421
Probable space group: P M M N
;
_chemical_formula_sum "Si O2"
_cell_formula_units_Z 64
_cell_length_a 23.916027
_cell_length_b 9.095178
_cell_length_c 15.990009
_cell_angle_alpha 90.000000
_cell_angle_beta 90.000000
_cell_angle_gamma 90.000000
_cell_volume 3478.155114
_symmetry_space_group_name_H-M "P M M N"
_symmetry_group_IT_number 59
_space_group.IT_coordinate_system_code '2'
_symmetry_cell_setting 'orthorhombic'
loop_
_space_group_symop_operation_xyz
x,y,z
1/2-x,1/2-y,z
1/2+x,-y,-z
-x,1/2+y,-z
-x,-y,-z
1/2+x,1/2+y,-z
1/2-x,y,z
x,1/2-y,z
loop_
_atom_site_type_symbol
_atom_site_label
_atom_site_fract_x
_atom_site_fract_y
_atom_site_fract_z
Si Si1 0.424213 0.580688 0.439350
Si Si2 0.035986 0.913924 0.934324
Si Si3 0.969749 0.421021 0.379480
Si Si4 0.155763 0.912934 0.016134
Si Si5 0.423164 0.424037 0.779526
Si Si6 0.813233 0.078907 0.653512
Si Si7 0.189534 0.416891 0.863315
Si Si8 0.184853 0.418883 0.175693
O O1 0.437022 0.750000 0.417030
O O2 0.433952 0.550713 0.536951
O O3 0.467024 0.480938 0.386663
O O4 0.359680 0.540498 0.417024
O O5 0.011964 0.750000 0.917761
O O6 0.096394 0.902938 0.973369
O O7 0.035798 0.004307 0.847883
O O8 0.000000 0.000000 0.000000
O O9 0.972816 0.250000 0.356216
O O10 0.936387 0.509474 0.309933
O O11 0.179447 0.750000 0.034879
O O12 0.195018 0.993136 0.949277
O O13 0.150759 0.001271 0.102614
O O14 0.432560 0.250000 0.778316
O O15 0.359051 0.469618 0.800559
O O16 0.750000 0.035529 0.623054
O O17 0.815011 0.250000 0.676318
O O18 0.830394 0.990440 0.735906
O O19 0.250000 0.431046 0.817646
O O20 0.176611 0.250000 0.890030
O O21 0.250000 0.437503 0.155694
O O22 0.166419 0.250000 0.179020
#
# Coordination Sequence:
#
# PCOD8242421 Si02
#       8
#     8   8   8   8   8   8   8   8
#     4   9  19  36  57  80 105 134 169 209 256 310
#     4  10  21  36  52  72 100 133 170 211 255 304
#     4  10  20  35  56  81 107 135 171 214 257 304
#     4  10  20  32  48  71  97 128 168 211 252 296
#     4  10  20  35  55  77 104 138 173 213 260 307
#     4   9  18  34  55  77 103 135 170 210 257 308
#     4   9  18  33  52  73  99 133 172 212 255 304
#     4  10  20  32  47  70 100 132 166 203 243 292
#
# _framework density 18.400558
#
# number of rings (size 3 to 8) (size 9 to 14) (size 15 to 20)
#    0.000    2.375    0.000    2.250    0.000    6.500 
#    0.000    1.875    0.000    0.750    0.000    0.000 
#    0.000    0.000    0.000    0.000    0.000    0.000 
#
# Total GULP energy -793495.015348 kJ/mol
# GULP energy per Si atom -12398.359615 kJ/mol
# Density = 1.835868 g / cm^3
# Si number density = 18.400558 Si / 1000 Ang^3
#
#
#
# Elastic Constant Matrix: (Units=GPa)
#
#
# Indices 1 2 3 4 5 6 
#
# 1 82.1469 44.0851 54.9684 0.0000 0.0000 0.0000
# 2 44.0851 115.5503 60.5617 0.0000 0.0000 0.0000
# 3 54.9684 60.5617 106.8899 0.0000 0.0000 0.0000
# 4 0.0000 0.0000 0.0000 34.2685 0.0000 0.0000
# 5 0.0000 0.0000 0.0000 0.0000 20.0769 0.0000
# 6 0.0000 0.0000 0.0000 0.0000 0.0000 22.5501
#
#
#
# Elastic Compliance Matrix: (Units=1/GPa)
#
#
# Indices 1 2 3 4 5 6 
#
# 1 0.019298 -0.003074 -0.008182 0.000000 0.000000 0.000000
# 2 -0.003074 0.012799 -0.005671 0.000000 0.000000 0.000000
# 3 -0.008182 -0.005671 0.016776 0.000000 0.000000 0.000000
# 4 0.000000 0.000000 0.000000 0.029181 0.000000 0.000000
# 5 0.000000 0.000000 0.000000 0.000000 0.049809 0.000000
# 6 0.000000 0.000000 0.000000 0.000000 0.000000 0.044346
#
#
# Mechanical properties :
#
#
# Convention : Reuss Voigt Hill
#
# Bulk Modulus (GPa) = 66.58308 69.31306 67.94807
# Shear Modulus (GPa) = 23.68869 25.04389 24.36629
#
# Velocity S-wave (km/s) = 3.59191 3.69323 3.64292
# Velocity P-wave (km/s) = 7.31207 7.47913 7.39607
#
# Compressibility (1/GPa) = 0.01501883
#
# Stress axis : x y z
#
# Youngs Moduli (GPa) = 51.81770 78.12891 59.60784
#
# Poissons Ratio (x) = 0.24019 0.48774
# Poissons Ratio (y) = 0.15930 0.33803
# Poissons Ratio (z) = 0.42400 0.44306
#
# Static dielectric constant tensor:
#      x y z
#    x 3.285420 0.000000 0.000000 
#    y 0.000000 3.662610 0.000000 
#    z 0.000000 0.000000 3.233700 
# 
# 
# High freq. dielectric constant tensor:
#      x y z
#    x 1.710540 0.000000 0.000000 
#    y 0.000000 1.725910 0.000000 
#    z 0.000000 0.000000 1.699160 
# 
# From -- ./inp_files/24683.got.cif
#   From: 2010.03.12/outbox.cif.g09.slc.cpg/sg59_13_cif.got.tgz:24683.got - 2010.04.16 16:29:54.
