data_PCOD8242548
_publ_section_title
;
Structure prediction by ZEFSAII (Michael W. Deem and Ramdas Pophale) SiO2 
 PCOD8242548
Probable space group: P M M N
;
_chemical_formula_sum "Si O2"
_cell_formula_units_Z 56
_cell_length_a 8.888711
_cell_length_b 19.557283
_cell_length_c 16.075051
_cell_angle_alpha 90.000000
_cell_angle_beta 90.000000
_cell_angle_gamma 90.000000
_cell_volume 2794.471378
_symmetry_space_group_name_H-M "P M M N"
_symmetry_group_IT_number 59
_space_group.IT_coordinate_system_code '2'
_symmetry_cell_setting 'orthorhombic'
loop_
_space_group_symop_operation_xyz
x,y,z
1/2-x,1/2-y,z
1/2+x,-y,-z
-x,1/2+y,-z
-x,-y,-z
1/2+x,1/2+y,-z
1/2-x,y,z
x,1/2-y,z
loop_
_atom_site_type_symbol
_atom_site_label
_atom_site_fract_x
_atom_site_fract_y
_atom_site_fract_z
Si Si1 0.928791 0.174327 0.841064
Si Si2 0.075005 0.955087 0.257156
Si Si3 0.427559 0.826500 0.972282
Si Si4 0.427943 0.454035 0.571698
Si Si5 0.574011 0.171527 0.498945
Si Si6 0.078629 0.170667 0.328671
Si Si7 0.423128 0.408665 0.168935
O O1 0.750000 0.170442 0.842872
O O2 0.980764 0.250000 0.810820
O O3 0.990030 0.116736 0.777925
O O4 0.989099 0.160588 0.934369
O O5 0.250000 0.949559 0.282286
O O6 0.982727 0.978990 0.337971
O O7 0.052841 0.010727 0.183984
O O8 0.250000 0.832690 0.971141
O O9 0.476253 0.750000 0.943148
O O10 0.491404 0.885158 0.913186
O O11 0.500000 0.500000 0.500000
O O12 0.250000 0.459589 0.565339
O O13 0.482210 0.375584 0.562558
O O14 0.750000 0.157784 0.509917
O O15 0.532041 0.250000 0.518494
O O16 0.527031 0.151439 0.405694
O O17 0.250000 0.147964 0.349587
O O18 0.070440 0.250000 0.307546
O O19 0.013781 0.131055 0.249382
O O20 0.250000 0.389528 0.156367
#
# Coordination Sequence:
#
# PCOD8242548 Si02
#       7
#     8   8   8   8   8   8   8
#     4   8  16  34  58  81 108 145 187 228 270 320
#     4  10  21  37  57  82 110 143 184 228 278 335
#     4   9  18  33  54  79 107 144 188 227 264 315
#     4  12  25  41  61  84 113 148 188 234 284 339
#     4  10  21  37  58  84 112 144 185 231 281 338
#     4   9  17  30  48  71 104 145 183 222 274 332
#     4  10  20  32  49  77 111 143 177 222 277 333
#
# _framework density 20.039567999999999
#
# number of rings (size 3 to 8) (size 9 to 14) (size 15 to 20)
#    0.000    2.286    0.000    3.857    0.000    5.143 
#    0.000    3.571    0.000    0.857    0.000    0.000 
#    0.000    0.000    0.000    0.000    0.000    0.000 
#
# Total GULP energy -694416.014089 kJ/mol
# GULP energy per Si atom -12400.285966 kJ/mol
# Density = 1.999396 g / cm^3
# Si number density = 20.039568 Si / 1000 Ang^3
#
#
#
# Elastic Constant Matrix: (Units=GPa)
#
#
# Indices 1 2 3 4 5 6 
#
# 1 73.3481 34.1227 35.1894 0.0000 0.0000 0.0000
# 2 34.1227 97.6104 50.8799 0.0000 0.0000 0.0000
# 3 35.1894 50.8799 93.3236 0.0000 0.0000 0.0000
# 4 0.0000 0.0000 0.0000 38.2239 0.0000 0.0000
# 5 0.0000 0.0000 0.0000 0.0000 27.8042 0.0000
# 6 0.0000 0.0000 0.0000 0.0000 0.0000 25.7464
#
#
#
# Elastic Compliance Matrix: (Units=1/GPa)
#
#
# Indices 1 2 3 4 5 6 
#
# 1 0.017579 -0.003758 -0.004580 0.000000 0.000000 0.000000
# 2 -0.003758 0.015116 -0.006824 0.000000 0.000000 0.000000
# 3 -0.004580 -0.006824 0.016163 0.000000 0.000000 0.000000
# 4 0.000000 0.000000 0.000000 0.026162 0.000000 0.000000
# 5 0.000000 0.000000 0.000000 0.000000 0.035966 0.000000
# 6 0.000000 0.000000 0.000000 0.000000 0.000000 0.038840
#
#
# Mechanical properties :
#
#
# Convention : Reuss Voigt Hill
#
# Bulk Modulus (GPa) = 53.95501 56.07401 55.01451
# Shear Modulus (GPa) = 26.83464 27.96092 27.39778
#
# Velocity S-wave (km/s) = 3.66332 3.73940 3.70156
# Velocity P-wave (km/s) = 6.69895 6.83276 6.76618
#
# Compressibility (1/GPa) = 0.01853396
#
# Stress axis : x y z
#
# Youngs Moduli (GPa) = 56.88583 66.15678 61.87120
#
# Poissons Ratio (x) = 0.24863 0.28334
# Poissons Ratio (y) = 0.21379 0.42220
# Poissons Ratio (z) = 0.26051 0.45145
#
# Static dielectric constant tensor:
#      x y z
#    x 3.387850 0.000000 0.000000 
#    y 0.000000 3.901950 0.000000 
#    z 0.000000 0.000000 3.635270 
# 
# 
# High freq. dielectric constant tensor:
#      x y z
#    x 1.753800 0.000000 0.000000 
#    y 0.000000 1.793990 0.000000 
#    z 0.000000 0.000000 1.777190 
# 
# From -- ./inp_files/21066.got.cif
#   From: 2010.03.12/outbox.cif.g09.slc.cpg/sg59_11_cif.got.tgz:21066.got - 2010.04.16 16:29:54.
