data_PCOD8242210
_publ_section_title
;
Structure prediction by ZEFSAII (Michael W. Deem and Ramdas Pophale) SiO2 
 PCOD8242210
Probable space group: P M M N
;
_chemical_formula_sum "Si O2"
_cell_formula_units_Z 40
_cell_length_a 15.719973
_cell_length_b 9.197202
_cell_length_c 13.385268
_cell_angle_alpha 90.000000
_cell_angle_beta 90.000000
_cell_angle_gamma 90.000000
_cell_volume 1935.238930
_symmetry_space_group_name_H-M "P M M N"
_symmetry_group_IT_number 59
_space_group.IT_coordinate_system_code '2'
_symmetry_cell_setting 'orthorhombic'
loop_
_space_group_symop_operation_xyz
x,y,z
1/2-x,1/2-y,z
1/2+x,-y,-z
-x,1/2+y,-z
-x,-y,-z
1/2+x,1/2+y,-z
1/2-x,y,z
x,1/2-y,z
loop_
_atom_site_type_symbol
_atom_site_label
_atom_site_fract_x
_atom_site_fract_y
_atom_site_fract_z
Si Si1 0.386180 0.411653 0.576062
Si Si2 0.425294 0.075979 0.937846
Si Si3 0.750000 0.425535 0.079903
Si Si4 0.517289 0.089326 0.739017
Si Si5 0.845517 0.918682 0.645416
Si Si6 0.750000 0.080113 0.307468
O O1 0.345226 0.250000 0.585246
O O2 0.477984 0.414066 0.627724
O O3 0.390865 0.454388 0.459988
O O4 0.332166 0.527698 0.635097
O O5 0.419642 0.250000 0.958682
O O6 0.448164 0.041606 0.821935
O O7 0.335576 0.998316 0.966452
O O8 0.500000 0.000000 0.000000
O O9 0.750000 0.250000 0.063901
O O10 0.750000 0.475661 0.194600
O O11 0.549560 0.250000 0.766370
O O12 0.600677 0.988552 0.735798
O O13 0.750000 0.982989 0.644544
O O14 0.843300 0.750000 0.668187
O O15 0.750000 0.250000 0.308356
#
# Coordination Sequence:
#
# PCOD8242210 Si02
#       6
#     8   8   4   8   8   4
#     4  10  19  36  58  82 119 160 200 244 297 356
#     4  11  24  44  69  96 126 163 205 256 317 377
#     4  11  23  41  67  98 127 158 203 259 316 374
#     4  10  22  38  60  87 117 157 199 247 304 361
#     4  10  21  36  56  82 118 164 206 247 296 355
#     4  11  21  31  55  92 121 152 197 251 296 340
#
# _framework density 20.669281999999999
#
# number of rings (size 3 to 8) (size 9 to 14) (size 15 to 20)
#    0.000    1.600    3.000    1.800    0.000    4.400 
#    1.800    0.000    0.000    0.000    0.000    0.000 
#    0.000    0.000    0.000    0.000    0.000    0.000 
#
# Total GULP energy -495800.068526 kJ/mol
# GULP energy per Si atom -12395.001713 kJ/mol
# Density = 2.062224 g / cm^3
# Si number density = 20.669282 Si / 1000 Ang^3
#
#
#
# Elastic Constant Matrix: (Units=GPa)
#
#
# Indices 1 2 3 4 5 6 
#
# 1 128.1905 58.4565 44.0869 0.0000 0.0000 0.0000
# 2 58.4565 64.6995 29.0339 0.0000 0.0000 0.0000
# 3 44.0869 29.0339 38.5928 0.0000 0.0000 0.0000
# 4 0.0000 0.0000 0.0000 29.9787 0.0000 0.0000
# 5 0.0000 0.0000 0.0000 0.0000 22.9738 0.0000
# 6 0.0000 0.0000 0.0000 0.0000 0.0000 42.2649
#
#
#
# Elastic Compliance Matrix: (Units=1/GPa)
#
#
# Indices 1 2 3 4 5 6 
#
# 1 0.015897 -0.009381 -0.011103 0.000000 0.000000 0.000000
# 2 -0.009381 0.028869 -0.011002 0.000000 0.000000 0.000000
# 3 -0.011103 -0.011002 0.046872 0.000000 0.000000 0.000000
# 4 0.000000 0.000000 0.000000 0.033357 0.000000 0.000000
# 5 0.000000 0.000000 0.000000 0.000000 0.043528 0.000000
# 6 0.000000 0.000000 0.000000 0.000000 0.000000 0.023660
#
#
# Mechanical properties :
#
#
# Convention : Reuss Voigt Hill
#
# Bulk Modulus (GPa) = 34.88407 54.95969 44.92188
# Shear Modulus (GPa) = 18.88851 25.70384 22.29618
#
# Velocity S-wave (km/s) = 3.02627 3.53026 3.28794
# Velocity P-wave (km/s) = 5.39675 6.57760 6.01622
#
# Compressibility (1/GPa) = 0.02866638
#
# Stress axis : x y z
#
# Youngs Moduli (GPa) = 62.90446 34.63939 21.33448
#
# Poissons Ratio (x) = 0.32494 0.23688
# Poissons Ratio (y) = 0.59009 0.23473
# Poissons Ratio (z) = 0.69843 0.38111
#
# Static dielectric constant tensor:
#      x y z
#    x 3.655480 0.000000 0.000000 
#    y 0.000000 3.722210 0.000000 
#    z 0.000000 0.000000 3.640310 
# 
# 
# High freq. dielectric constant tensor:
#      x y z
#    x 1.811540 0.000000 0.000000 
#    y 0.000000 1.807460 0.000000 
#    z 0.000000 0.000000 1.792660 
# 
# From -- ./inp_files/20023.got.cif
#   From: 2010.03.12/outbox.cif.g09.slc.cpg/sg59_11_cif.got.tgz:20023.got - 2010.04.16 16:29:54.
