data_PCOD8242642
_publ_section_title
;
Structure prediction by ZEFSAII (Michael W. Deem and Ramdas Pophale) SiO2 
 PCOD8242642
Probable space group: P M M N
;
_chemical_formula_sum "Si O2"
_cell_formula_units_Z 64
_cell_length_a 22.967803
_cell_length_b 8.913647
_cell_length_c 18.920837
_cell_angle_alpha 90.000000
_cell_angle_beta 90.000000
_cell_angle_gamma 90.000000
_cell_volume 3873.604083
_symmetry_space_group_name_H-M "P M M N"
_symmetry_group_IT_number 59
_space_group.IT_coordinate_system_code '2'
_symmetry_cell_setting 'orthorhombic'
loop_
_space_group_symop_operation_xyz
x,y,z
1/2-x,1/2-y,z
1/2+x,-y,-z
-x,1/2+y,-z
-x,-y,-z
1/2+x,1/2+y,-z
1/2-x,y,z
x,1/2-y,z
loop_
_atom_site_type_symbol
_atom_site_label
_atom_site_fract_x
_atom_site_fract_y
_atom_site_fract_z
Si Si1 0.483378 0.425069 0.108943
Si Si2 0.816667 0.426516 0.106144
Si Si3 0.912959 0.074595 0.480508
Si Si4 0.317717 0.076821 0.607903
Si Si5 0.472899 0.425958 0.394498
Si Si6 0.868983 0.575644 0.242440
Si Si7 0.504501 0.074464 0.748885
Si Si8 0.586684 0.575238 0.027253
O O1 0.494874 0.250000 0.119501
O O2 0.465466 0.500012 0.182717
O O3 0.431295 0.455664 0.053604
O O4 0.542590 0.498307 0.081512
O O5 0.750000 0.477641 0.101813
O O6 0.823718 0.250000 0.098171
O O7 0.843182 0.476081 0.180432
O O8 0.849819 0.506173 0.040972
O O9 0.912069 0.250000 0.496915
O O10 0.963778 0.032233 0.425391
O O11 0.851702 0.023863 0.448418
O O12 0.923034 0.987330 0.553624
O O13 0.250000 0.046344 0.596088
O O14 0.334419 0.250000 0.595466
O O15 0.334743 0.029469 0.687041
O O16 0.464735 0.250000 0.384842
O O17 0.464785 0.505456 0.319512
O O18 0.859968 0.750000 0.223735
O O19 0.936348 0.535805 0.252796
O O20 0.516553 0.250000 0.750461
O O21 0.586512 0.750000 0.045452
#
# Coordination Sequence:
#
# PCOD8242642 Si02
#       8
#     8   8   8   8   8   8   8   8
#     4  10  20  33  51  73 100 129 164 207 253 301
#     4  11  23  35  49  71 100 135 173 212 251 293
#     4  10  20  33  50  72  98 129 166 210 253 294
#     4  10  20  34  51  70  97 135 174 209 246 290
#     4  10  20  33  51  72  99 132 166 206 253 300
#     4  10  20  33  49  70 100 137 176 209 240 290
#     4  11  20  31  51  77 103 133 168 203 248 301
#     4  10  20  34  51  72  96 130 169 208 251 296
#
# _framework density 16.522081
#
# number of rings (size 3 to 8) (size 9 to 14) (size 15 to 20)
#    0.000    1.750    2.500    2.625    0.000    5.250 
#    0.000    0.000    0.000    0.000    0.000    0.875 
#    0.000    3.000    0.000    0.000    0.000    0.000 
#
# Total GULP energy -793911.247799 kJ/mol
# GULP energy per Si atom -12404.863247 kJ/mol
# Density = 1.648448 g / cm^3
# Si number density = 16.522081 Si / 1000 Ang^3
#
#
#
# Elastic Constant Matrix: (Units=GPa)
#
#
# Indices 1 2 3 4 5 6 
#
# 1 61.5268 30.5095 36.4692 0.0000 0.0000 0.0000
# 2 30.5095 79.8437 49.0273 0.0000 0.0000 0.0000
# 3 36.4692 49.0273 109.8604 0.0000 0.0000 0.0000
# 4 0.0000 0.0000 0.0000 32.3904 0.0000 0.0000
# 5 0.0000 0.0000 0.0000 0.0000 20.4053 0.0000
# 6 0.0000 0.0000 0.0000 0.0000 0.0000 25.5429
#
#
#
# Elastic Compliance Matrix: (Units=1/GPa)
#
#
# Indices 1 2 3 4 5 6 
#
# 1 0.021775 -0.005347 -0.004842 0.000000 0.000000 0.000000
# 2 -0.005347 0.018565 -0.006510 0.000000 0.000000 0.000000
# 3 -0.004842 -0.006510 0.013615 0.000000 0.000000 0.000000
# 4 0.000000 0.000000 0.000000 0.030873 0.000000 0.000000
# 5 0.000000 0.000000 0.000000 0.000000 0.049007 0.000000
# 6 0.000000 0.000000 0.000000 0.000000 0.000000 0.039150
#
#
# Mechanical properties :
#
#
# Convention : Reuss Voigt Hill
#
# Bulk Modulus (GPa) = 48.64671 53.69364 51.17017
# Shear Modulus (GPa) = 23.44826 24.68271 24.06548
#
# Velocity S-wave (km/s) = 3.77132 3.86932 3.82064
# Velocity P-wave (km/s) = 6.96213 7.24782 7.10641
#
# Compressibility (1/GPa) = 0.02055637
#
# Stress axis : x y z
#
# Youngs Moduli (GPa) = 45.92497 53.86440 73.44839
#
# Poissons Ratio (x) = 0.28803 0.35564
# Poissons Ratio (y) = 0.24557 0.47815
# Poissons Ratio (z) = 0.22237 0.35066
#
# Static dielectric constant tensor:
#      x y z
#    x 2.969310 0.000000 0.000000 
#    y 0.000000 3.172550 0.000000 
#    z 0.000000 0.000000 3.133160 
# 
# 
# High freq. dielectric constant tensor:
#      x y z
#    x 1.606510 0.000000 0.000000 
#    y 0.000000 1.650940 0.000000 
#    z 0.000000 0.000000 1.634960 
# 
# From -- ./inp_files/24743.got.cif
#   From: 2010.03.12/outbox.cif.g09.slc.cpg/sg59_13_cif.got.tgz:24743.got - 2010.04.16 16:29:54.
