data_PCOD8242069
_publ_section_title
;
Structure prediction by ZEFSAII (Michael W. Deem and Ramdas Pophale) SiO2 
 PCOD8242069
Probable space group: P M M N
;
_chemical_formula_sum "Si O2"
_cell_formula_units_Z 64
_cell_length_a 15.373811
_cell_length_b 13.751162
_cell_length_c 16.482438
_cell_angle_alpha 90.000000
_cell_angle_beta 90.000000
_cell_angle_gamma 90.000000
_cell_volume 3484.515390
_symmetry_space_group_name_H-M "P M M N"
_symmetry_group_IT_number 59
_space_group.IT_coordinate_system_code '2'
_symmetry_cell_setting 'orthorhombic'
loop_
_space_group_symop_operation_xyz
x,y,z
1/2-x,1/2-y,z
1/2+x,-y,-z
-x,1/2+y,-z
-x,-y,-z
1/2+x,1/2+y,-z
1/2-x,y,z
x,1/2-y,z
loop_
_atom_site_type_symbol
_atom_site_label
_atom_site_fract_x
_atom_site_fract_y
_atom_site_fract_z
Si Si1 0.941825 0.641558 0.421954
Si Si2 0.652179 0.474733 0.342713
Si Si3 0.650935 0.860634 0.028001
Si Si4 0.848389 0.950369 0.719009
Si Si5 0.061182 0.640242 0.268875
Si Si6 0.921923 0.525932 0.175568
Si Si7 0.511576 0.861931 0.603235
Si Si8 0.554499 0.862991 0.863998
O O1 0.901935 0.750000 0.422691
O O2 0.864514 0.568228 0.399815
O O3 0.019417 0.632894 0.357745
O O4 0.983543 0.614972 0.508257
O O5 0.750000 0.437023 0.358743
O O6 0.643780 0.505078 0.248958
O O7 0.583410 0.390923 0.364302
O O8 0.750000 0.874089 0.999664
O O9 0.634138 0.750000 0.056687
O O10 0.589744 0.887883 0.952949
O O11 0.632649 0.934073 0.100798
O O12 0.750000 0.926773 0.693063
O O13 0.871155 0.889352 0.799100
O O14 0.913876 0.923175 0.647140
O O15 0.857662 0.066255 0.735343
O O16 0.092587 0.750000 0.249928
O O17 0.991679 0.607477 0.201319
O O18 0.968140 0.425211 0.151526
O O19 0.526882 0.750000 0.623825
O O20 0.529940 0.750000 0.855425
#
# Coordination Sequence:
#
# PCOD8242069 Si02
#       8
#     8   8   8   8   8   8   8   8
#     4   9  19  37  59  78 107 147 183 230 283 329
#     4  11  22  36  57  84 115 148 186 230 279 337
#     4  10  20  33  53  82 111 139 179 231 280 331
#     4  11  22  35  56  82 107 142 186 231 278 324
#     4   9  18  35  56  79 109 142 179 223 278 336
#     4  10  19  35  55  82 110 146 185 224 276 334
#     4  11  22  39  57  78 111 148 190 233 275 328
#     4  10  20  36  56  78 108 146 186 229 277 324
#
# _framework density 18.366973000000002
#
# number of rings (size 3 to 8) (size 9 to 14) (size 15 to 20)
#    0.000    1.875    3.750    2.250    0.000    3.250 
#    0.000    1.250    0.000    3.375    0.000    0.000 
#    0.000    0.000    0.000    0.000    0.000    0.000 
#
# Total GULP energy -793643.385154 kJ/mol
# GULP energy per Si atom -12400.677893 kJ/mol
# Density = 1.832517 g / cm^3
# Si number density = 18.366973 Si / 1000 Ang^3
#
#
#
# Elastic Constant Matrix: (Units=GPa)
#
#
# Indices 1 2 3 4 5 6 
#
# 1 93.3802 28.6105 16.5247 0.0000 0.0000 0.0000
# 2 28.6105 106.9519 33.9813 0.0000 0.0000 0.0000
# 3 16.5247 33.9813 89.8762 0.0000 0.0000 0.0000
# 4 0.0000 0.0000 0.0000 29.4774 0.0000 0.0000
# 5 0.0000 0.0000 0.0000 0.0000 15.5736 0.0000
# 6 0.0000 0.0000 0.0000 0.0000 0.0000 11.0947
#
#
#
# Elastic Compliance Matrix: (Units=1/GPa)
#
#
# Indices 1 2 3 4 5 6 
#
# 1 0.011761 -0.002795 -0.001106 0.000000 0.000000 0.000000
# 2 -0.002795 0.011291 -0.003755 0.000000 0.000000 0.000000
# 3 -0.001106 -0.003755 0.012749 0.000000 0.000000 0.000000
# 4 0.000000 0.000000 0.000000 0.033924 0.000000 0.000000
# 5 0.000000 0.000000 0.000000 0.000000 0.064211 0.000000
# 6 0.000000 0.000000 0.000000 0.000000 0.000000 0.090133
#
#
# Mechanical properties :
#
#
# Convention : Reuss Voigt Hill
#
# Bulk Modulus (GPa) = 48.80442 49.82680 49.31561
# Shear Modulus (GPa) = 20.30778 25.30192 22.80485
#
# Velocity S-wave (km/s) = 3.32877 3.71560 3.52749
# Velocity P-wave (km/s) = 6.43458 6.75240 6.59540
#
# Compressibility (1/GPa) = 0.02048995
#
# Stress axis : x y z
#
# Youngs Moduli (GPa) = 85.02775 88.56844 78.43479
#
# Poissons Ratio (x) = 0.24753 0.08672
# Poissons Ratio (y) = 0.23764 0.29453
# Poissons Ratio (z) = 0.09401 0.33258
#
# Static dielectric constant tensor:
#      x y z
#    x 3.095860 0.000000 0.000000 
#    y 0.000000 3.556520 0.000000 
#    z 0.000000 0.000000 3.434280 
# 
# 
# High freq. dielectric constant tensor:
#      x y z
#    x 1.688220 0.000000 0.000000 
#    y 0.000000 1.720920 0.000000 
#    z 0.000000 0.000000 1.720060 
# 
# From -- ./inp_files/27734.got.cif
#   From: 2010.03.12/outbox.cif.g09.slc.cpg/sg59_14_cif.got.tgz:27734.got - 2010.04.16 16:29:54.
