data_PCOD8242060
_publ_section_title
;
Structure prediction by ZEFSAII (Michael W. Deem and Ramdas Pophale) SiO2 
 PCOD8242060
Probable space group: P M M N
;
_chemical_formula_sum "Si O2"
_cell_formula_units_Z 48
_cell_length_a 9.732791
_cell_length_b 9.339517
_cell_length_c 29.350144
_cell_angle_alpha 90.000000
_cell_angle_beta 90.000000
_cell_angle_gamma 90.000000
_cell_volume 2667.915381
_symmetry_space_group_name_H-M "P M M N"
_symmetry_group_IT_number 59
_space_group.IT_coordinate_system_code '2'
_symmetry_cell_setting 'orthorhombic'
loop_
_space_group_symop_operation_xyz
x,y,z
1/2-x,1/2-y,z
1/2+x,-y,-z
-x,1/2+y,-z
-x,-y,-z
1/2+x,1/2+y,-z
1/2-x,y,z
x,1/2-y,z
loop_
_atom_site_type_symbol
_atom_site_label
_atom_site_fract_x
_atom_site_fract_y
_atom_site_fract_z
Si Si1 0.589328 0.917535 0.537043
Si Si2 0.250000 0.082623 0.049934
Si Si3 0.590568 0.086879 0.202558
Si Si4 0.907692 0.084114 0.375848
Si Si5 0.586838 0.910969 0.287825
Si Si6 0.482594 0.916615 0.897707
Si Si7 0.750000 0.579629 0.052031
O O1 0.750000 0.967405 0.537901
O O2 0.581137 0.750000 0.525813
O O3 0.515526 0.952588 0.584640
O O4 0.500000 0.000000 0.500000
O O5 0.250000 0.250000 0.042632
O O6 0.122691 0.033751 0.079731
O O7 0.250000 0.014877 0.999344
O O8 0.750000 0.054000 0.192689
O O9 0.571014 0.250000 0.218528
O O10 0.508082 0.054997 0.156304
O O11 0.529088 0.987675 0.242530
O O12 0.750000 0.043073 0.389900
O O13 0.913660 0.250000 0.362442
O O14 0.960876 0.994381 0.332783
O O15 0.750000 0.913280 0.285501
O O16 0.528780 0.750000 0.289801
O O17 0.444450 0.750000 0.906758
O O18 0.378822 0.022364 0.921168
O O19 0.750000 0.750000 0.052618
#
# Coordination Sequence:
#
# PCOD8242060 Si02
#       7
#     8   4   8   8   8   8   4
#     4  10  21  36  55  80 110 144 183 225 267 312
#     4   9  20  35  53  75 103 133 171 215 260 311
#     4   9  16  28  48  73  97 127 168 210 254 303
#     4   9  17  31  51  74 102 136 173 214 258 308
#     4   9  17  28  46  74 103 130 162 209 262 307
#     4  10  19  35  55  75 100 135 174 215 257 310
#     4  11  21  33  51  79 105 133 169 213 262 311
#
# _framework density 17.991575000000001
#
# number of rings (size 3 to 8) (size 9 to 14) (size 15 to 20)
#    0.000    2.500    0.833    1.750    0.000    4.333 
#    0.000    2.917    1.833    0.000    0.000    0.000 
#    0.000    0.000    0.000    0.000    0.000    0.000 
#
# Total GULP energy -595046.189537 kJ/mol
# GULP energy per Si atom -12396.795615 kJ/mol
# Density = 1.795063 g / cm^3
# Si number density = 17.991575 Si / 1000 Ang^3
#
#
#
# Elastic Constant Matrix: (Units=GPa)
#
#
# Indices 1 2 3 4 5 6 
#
# 1 97.9873 43.2137 60.4551 0.0000 0.0000 0.0000
# 2 43.2137 84.2936 75.7559 0.0000 0.0000 0.0000
# 3 60.4551 75.7559 153.0625 0.0000 0.0000 0.0000
# 4 0.0000 0.0000 0.0000 31.9598 0.0000 0.0000
# 5 0.0000 0.0000 0.0000 0.0000 11.8847 0.0000
# 6 0.0000 0.0000 0.0000 0.0000 0.0000 21.6946
#
#
#
# Elastic Compliance Matrix: (Units=1/GPa)
#
#
# Indices 1 2 3 4 5 6 
#
# 1 0.014218 -0.004038 -0.003617 0.000000 0.000000 0.000000
# 2 -0.004038 0.022515 -0.009548 0.000000 0.000000 0.000000
# 3 -0.003617 -0.009548 0.012688 0.000000 0.000000 0.000000
# 4 0.000000 0.000000 0.000000 0.031289 0.000000 0.000000
# 5 0.000000 0.000000 0.000000 0.000000 0.084142 0.000000
# 6 0.000000 0.000000 0.000000 0.000000 0.000000 0.046094
#
#
# Mechanical properties :
#
#
# Convention : Reuss Voigt Hill
#
# Bulk Modulus (GPa) = 66.60815 77.13255 71.87035
# Shear Modulus (GPa) = 19.97145 23.50241 21.73693
#
# Velocity S-wave (km/s) = 3.33535 3.61820 3.47965
# Velocity P-wave (km/s) = 7.20659 7.77301 7.49515
#
# Compressibility (1/GPa) = 0.01501318
#
# Stress axis : x y z
#
# Youngs Moduli (GPa) = 70.33392 44.41527 78.81668
#
# Poissons Ratio (x) = 0.17936 0.28508
# Poissons Ratio (y) = 0.28403 0.75257
# Poissons Ratio (z) = 0.25439 0.42409
#
# Static dielectric constant tensor:
#      x y z
#    x 2.842510 0.000000 0.000000 
#    y 0.000000 3.305540 0.000000 
#    z 0.000000 0.000000 3.493870 
# 
# 
# High freq. dielectric constant tensor:
#      x y z
#    x 1.669150 0.000000 0.000000 
#    y 0.000000 1.688120 0.000000 
#    z 0.000000 0.000000 1.711080 
# 
# From -- ./inp_files/32945.got.cif
#   From: 2010.03.12/outbox.cif.g09.slc.cpg/sg59_17_cif.got.tgz:32945.got - 2010.04.16 16:29:54.
