data_PCOD8242903
_publ_section_title
;
Structure prediction by ZEFSAII (Michael W. Deem and Ramdas Pophale) SiO2 
 PCOD8242903
Probable space group: P M M N
;
_chemical_formula_sum "Si O2"
_cell_formula_units_Z 64
_cell_length_a 15.060545
_cell_length_b 9.208992
_cell_length_c 23.812007
_cell_angle_alpha 90.000000
_cell_angle_beta 90.000000
_cell_angle_gamma 90.000000
_cell_volume 3302.545315
_symmetry_space_group_name_H-M "P M M N"
_symmetry_group_IT_number 59
_space_group.IT_coordinate_system_code '2'
_symmetry_cell_setting 'orthorhombic'
loop_
_space_group_symop_operation_xyz
x,y,z
1/2-x,1/2-y,z
1/2+x,-y,-z
-x,1/2+y,-z
-x,-y,-z
1/2+x,1/2+y,-z
1/2-x,y,z
x,1/2-y,z
loop_
_atom_site_type_symbol
_atom_site_label
_atom_site_fract_x
_atom_site_fract_y
_atom_site_fract_z
Si Si1 0.481711 0.077527 0.135689
Si Si2 0.652323 0.077357 0.071597
Si Si3 0.413396 0.921692 0.475047
Si Si4 0.146604 0.585136 0.054732
Si Si5 0.647239 0.079353 0.649301
Si Si6 0.851355 0.417017 0.326986
Si Si7 0.848078 0.592887 0.430932
Si Si8 0.523743 0.919071 0.737530
O O1 0.480697 0.250000 0.132304
O O2 0.577206 0.018120 0.113904
O O3 0.464934 0.024214 0.199079
O O4 0.403471 0.017760 0.097675
O O5 0.750000 0.016859 0.089276
O O6 0.656319 0.250000 0.072212
O O7 0.628696 0.027296 0.008328
O O8 0.414590 0.750000 0.484561
O O9 0.396167 0.962423 0.410544
O O10 0.500000 0.000000 0.500000
O O11 0.338270 0.995469 0.513214
O O12 0.250000 0.576213 0.069149
O O13 0.112231 0.750000 0.061511
O O14 0.750000 0.028068 0.650429
O O15 0.641457 0.250000 0.659247
O O16 0.592628 0.002682 0.698292
O O17 0.750000 0.460619 0.309572
O O18 0.852994 0.250000 0.345352
O O19 0.892421 0.505979 0.379615
O O20 0.919940 0.447847 0.276775
O O21 0.750000 0.627526 0.410606
O O22 0.897985 0.750000 0.440205
O O23 0.546639 0.750000 0.731826
#
# Coordination Sequence:
#
# PCOD8242903 Si02
#       8
#     8   8   8   8   8   8   8   8
#     4  10  20  33  52  79 108 138 175 221 270 315
#     4   8  15  30  53  80 109 140 173 211 259 317
#     4  11  22  36  56  81 107 133 167 215 270 326
#     4   9  18  33  53  77 105 139 178 216 258 313
#     4  10  23  42  60  77 102 143 190 227 262 310
#     4   9  18  34  55  77 105 142 179 217 266 325
#     4  10  20  33  51  77 105 131 163 204 253 312
#     4  10  22  37  53  78 108 138 178 226 271 314
#
# _framework density 19.378992
#
# number of rings (size 3 to 8) (size 9 to 14) (size 15 to 20)
#    0.000    2.375    0.000    3.000    0.000    6.750 
#    0.000    5.000    0.000    1.125    0.000    1.750 
#    0.000    0.000    0.000    0.000    0.000    0.000 
#
# Total GULP energy -793147.287477 kJ/mol
# GULP energy per Si atom -12392.926367 kJ/mol
# Density = 1.933489 g / cm^3
# Si number density = 19.378992 Si / 1000 Ang^3
#
#
#
# Elastic Constant Matrix: (Units=GPa)
#
#
# Indices 1 2 3 4 5 6 
#
# 1 110.6323 35.8710 69.0472 0.0000 0.0000 0.0000
# 2 35.8710 56.0952 46.3226 0.0000 0.0000 0.0000
# 3 69.0472 46.3226 143.2356 0.0000 0.0000 0.0000
# 4 0.0000 0.0000 0.0000 28.8587 0.0000 0.0000
# 5 0.0000 0.0000 0.0000 0.0000 24.3402 0.0000
# 6 0.0000 0.0000 0.0000 0.0000 0.0000 25.3555
#
#
#
# Elastic Compliance Matrix: (Units=1/GPa)
#
#
# Indices 1 2 3 4 5 6 
#
# 1 0.013720 -0.004519 -0.005152 0.000000 0.000000 0.000000
# 2 -0.004519 0.025811 -0.006169 0.000000 0.000000 0.000000
# 3 -0.005152 -0.006169 0.011460 0.000000 0.000000 0.000000
# 4 0.000000 0.000000 0.000000 0.034652 0.000000 0.000000
# 5 0.000000 0.000000 0.000000 0.000000 0.041084 0.000000
# 6 0.000000 0.000000 0.000000 0.000000 0.000000 0.039439
#
#
# Mechanical properties :
#
#
# Convention : Reuss Voigt Hill
#
# Bulk Modulus (GPa) = 51.78454 68.04940 59.91697
# Shear Modulus (GPa) = 24.47596 26.29238 25.38417
#
# Velocity S-wave (km/s) = 3.55775 3.68740 3.62315
# Velocity P-wave (km/s) = 6.60733 7.30209 6.96338
#
# Compressibility (1/GPa) = 0.01931078
#
# Stress axis : x y z
#
# Youngs Moduli (GPa) = 72.88818 38.74378 87.25823
#
# Poissons Ratio (x) = 0.17507 0.44958
# Poissons Ratio (y) = 0.32935 0.53830
# Poissons Ratio (z) = 0.37554 0.23901
#
# Static dielectric constant tensor:
#      x y z
#    x -3.782970 0.000000 0.000000 
#    y 0.000000 3.740420 0.000000 
#    z 0.000000 0.000000 3.732990 
# 
# 
# High freq. dielectric constant tensor:
#      x y z
#    x 1.765100 0.000000 0.000000 
#    y 0.000000 1.737480 0.000000 
#    z 0.000000 0.000000 1.749450 
# 
# From -- ./inp_files/32098.got.cif
#   From: 2010.03.12/outbox.cif.g09.slc.cpg/sg59_17_cif.got.tgz:32098.got - 2010.04.16 16:29:54.
