data_PCOD8242380
_publ_section_title
;
Structure prediction by ZEFSAII (Michael W. Deem and Ramdas Pophale) SiO2 
 PCOD8242380
Probable space group: P M M N
;
_chemical_formula_sum "Si O2"
_cell_formula_units_Z 56
_cell_length_a 17.998458
_cell_length_b 9.176495
_cell_length_c 18.960041
_cell_angle_alpha 90.000000
_cell_angle_beta 90.000000
_cell_angle_gamma 90.000000
_cell_volume 3131.492698
_symmetry_space_group_name_H-M "P M M N"
_symmetry_group_IT_number 59
_space_group.IT_coordinate_system_code '2'
_symmetry_cell_setting 'orthorhombic'
loop_
_space_group_symop_operation_xyz
x,y,z
1/2-x,1/2-y,z
1/2+x,-y,-z
-x,1/2+y,-z
-x,-y,-z
1/2+x,1/2+y,-z
1/2-x,y,z
x,1/2-y,z
loop_
_atom_site_type_symbol
_atom_site_label
_atom_site_fract_x
_atom_site_fract_y
_atom_site_fract_z
Si Si1 0.611648 0.417175 0.270006
Si Si2 0.466134 0.920488 0.933248
Si Si3 0.071033 0.918553 0.580992
Si Si4 0.918037 0.079908 0.573801
Si Si5 0.667266 0.077471 0.708477
Si Si6 0.165266 0.418527 0.859607
Si Si7 0.953045 0.914224 0.790608
O O1 0.632235 0.250000 0.251144
O O2 0.626133 0.452803 0.352985
O O3 0.659916 0.521945 0.220569
O O4 0.524413 0.445192 0.257691
O O5 0.452870 0.750000 0.948617
O O6 0.525585 0.943980 0.871400
O O7 0.387123 0.990835 0.912190
O O8 0.500000 0.000000 0.000000
O O9 0.047813 0.750000 0.583928
O O10 0.110423 0.955796 0.506015
O O11 0.996480 0.008453 0.589078
O O12 0.930439 0.250000 0.583796
O O13 0.858702 0.022721 0.630935
O O14 0.750000 0.016614 0.721157
O O15 0.666281 0.250000 0.712675
O O16 0.613878 0.019421 0.769706
O O17 0.250000 0.435951 0.885538
O O18 0.140681 0.250000 0.860219
O O19 0.925022 0.750000 0.780170
#
# Coordination Sequence:
#
# PCOD8242380 Si02
#       7
#     8   8   8   8   8   8   8
#     4   9  17  30  50  75 102 132 171 218 262 311
#     4  10  21  38  61  87 112 139 171 211 256 307
#     4   9  16  28  46  69  96 126 168 219 266 314
#     4   9  17  28  44  67  95 129 170 217 268 312
#     4  10  20  32  46  68 100 136 176 220 263 308
#     4  10  21  36  55  81 112 144 176 213 259 311
#     4   9  18  33  52  75 101 129 166 209 250 299
#
# _framework density 17.882847000000002
#
# number of rings (size 3 to 8) (size 9 to 14) (size 15 to 20)
#    0.000    2.571    1.429    1.714    0.000    4.857 
#    0.000    1.429    0.000    3.429    0.000    0.000 
#    0.000    0.000    0.000    0.000    0.000    0.000 
#
# Total GULP energy -694179.980288 kJ/mol
# GULP energy per Si atom -12396.071077 kJ/mol
# Density = 1.784214 g / cm^3
# Si number density = 17.882847 Si / 1000 Ang^3
#
#
#
# Elastic Constant Matrix: (Units=GPa)
#
#
# Indices 1 2 3 4 5 6 
#
# 1 86.4788 42.8941 40.9298 0.0000 0.0000 0.0000
# 2 42.8941 73.8717 46.2602 0.0000 0.0000 0.0000
# 3 40.9298 46.2602 108.7940 0.0000 0.0000 0.0000
# 4 0.0000 0.0000 0.0000 29.2470 0.0000 0.0000
# 5 0.0000 0.0000 0.0000 0.0000 18.6018 0.0000
# 6 0.0000 0.0000 0.0000 0.0000 0.0000 24.9149
#
#
#
# Elastic Compliance Matrix: (Units=1/GPa)
#
#
# Indices 1 2 3 4 5 6 
#
# 1 0.016923 -0.007959 -0.002982 0.000000 0.000000 0.000000
# 2 -0.007959 0.022193 -0.006442 0.000000 0.000000 0.000000
# 3 -0.002982 -0.006442 0.013053 0.000000 0.000000 0.000000
# 4 0.000000 0.000000 0.000000 0.034192 0.000000 0.000000
# 5 0.000000 0.000000 0.000000 0.000000 0.053758 0.000000
# 6 0.000000 0.000000 0.000000 0.000000 0.000000 0.040137
#
#
# Mechanical properties :
#
#
# Convention : Reuss Voigt Hill
#
# Bulk Modulus (GPa) = 57.46641 58.81256 58.13948
# Shear Modulus (GPa) = 22.64269 23.82343 23.23306
#
# Velocity S-wave (km/s) = 3.56219 3.65388 3.60833
# Velocity P-wave (km/s) = 7.00882 7.12462 7.06696
#
# Compressibility (1/GPa) = 0.01740147
#
# Stress axis : x y z
#
# Youngs Moduli (GPa) = 59.09258 45.06026 76.61024
#
# Poissons Ratio (x) = 0.35861 0.22849
# Poissons Ratio (y) = 0.47029 0.49355
# Poissons Ratio (z) = 0.17624 0.29029
#
# Static dielectric constant tensor:
#      x y z
#    x 3.104360 0.000000 0.000000 
#    y 0.000000 3.311980 0.000000 
#    z 0.000000 0.000000 3.507240 
# 
# 
# High freq. dielectric constant tensor:
#      x y z
#    x 1.663110 0.000000 0.000000 
#    y 0.000000 1.692390 0.000000 
#    z 0.000000 0.000000 1.697690 
# 
# From -- ./inp_files/30597.got.cif
#   From: 2010.03.12/outbox.cif.g09.slc.cpg/sg59_16_cif.got.tgz:30597.got - 2010.04.16 16:29:54.
