data_PCOD8242773
_publ_section_title
;
Structure prediction by ZEFSAII (Michael W. Deem and Ramdas Pophale) SiO2 
 PCOD8242773
Probable space group: P M M N
;
_chemical_formula_sum "Si O2"
_cell_formula_units_Z 64
_cell_length_a 21.525590
_cell_length_b 9.029966
_cell_length_c 16.593999
_cell_angle_alpha 90.000000
_cell_angle_beta 90.000000
_cell_angle_gamma 90.000000
_cell_volume 3225.464294
_symmetry_space_group_name_H-M "P M M N"
_symmetry_group_IT_number 59
_space_group.IT_coordinate_system_code '2'
_symmetry_cell_setting 'orthorhombic'
loop_
_space_group_symop_operation_xyz
x,y,z
1/2-x,1/2-y,z
1/2+x,-y,-z
-x,1/2+y,-z
-x,-y,-z
1/2+x,1/2+y,-z
1/2-x,y,z
x,1/2-y,z
loop_
_atom_site_type_symbol
_atom_site_label
_atom_site_fract_x
_atom_site_fract_y
_atom_site_fract_z
Si Si1 0.987594 0.575280 0.180562
Si Si2 0.321376 0.924437 0.548342
Si Si3 0.179786 0.080582 0.063530
Si Si4 0.088161 0.916073 0.948230
Si Si5 0.888484 0.918537 0.777589
Si Si6 0.817131 0.410538 0.193927
Si Si7 0.612189 0.921251 0.311707
Si Si8 0.320904 0.420150 0.384222
O O1 0.980419 0.750000 0.170976
O O2 0.969053 0.505040 0.093054
O O3 0.946617 0.521537 0.258174
O O4 0.057452 0.530507 0.198260
O O5 0.250000 0.974187 0.570032
O O6 0.327086 0.750000 0.551658
O O7 0.375053 0.991778 0.605692
O O8 0.339105 0.977948 0.459272
O O9 0.250000 0.018562 0.046434
O O10 0.176402 0.250000 0.033751
O O11 0.167923 0.069067 0.159086
O O12 0.122354 0.994075 0.022666
O O13 0.066410 0.750000 0.973483
O O14 0.138609 0.909762 0.880210
O O15 0.914147 0.750000 0.775863
O O16 0.863529 0.967171 0.690605
O O17 0.750000 0.436454 0.156142
O O18 0.821457 0.250000 0.239235
O O19 0.828608 0.543705 0.255857
O O20 0.606647 0.750000 0.332747
O O21 0.250000 0.446307 0.358416
O O22 0.332128 0.250000 0.408711
#
# Coordination Sequence:
#
# PCOD8242773 Si02
#       8
#     8   8   8   8   8   8   8   8
#     4  10  22  39  57  79 109 146 187 229 272 319
#     4  10  20  33  52  81 114 144 176 218 270 325
#     4  10  21  37  58  85 115 143 175 221 275 329
#     4  10  20  35  55  79 109 145 184 224 267 319
#     4  10  21  38  60  83 107 141 184 226 272 325
#     4   9  17  29  46  70 102 138 174 215 264 315
#     4  10  20  33  50  74 104 139 181 223 263 315
#     4   9  18  35  59  84 110 140 176 221 273 327
#
# _framework density 19.842103000000002
#
# number of rings (size 3 to 8) (size 9 to 14) (size 15 to 20)
#    0.000    2.250    0.000    2.625    0.000    8.250 
#    0.000    0.625    0.000    2.250    0.000    0.000 
#    0.000    0.000    0.000    0.000    0.000    0.000 
#
# Total GULP energy -793126.600368 kJ/mol
# GULP energy per Si atom -12392.603131 kJ/mol
# Density = 1.979694 g / cm^3
# Si number density = 19.842103 Si / 1000 Ang^3
#
#
#
# Elastic Constant Matrix: (Units=GPa)
#
#
# Indices 1 2 3 4 5 6 
#
# 1 46.1954 17.7075 15.0139 0.0000 0.0000 0.0000
# 2 17.7075 68.4287 31.3090 0.0000 0.0000 0.0000
# 3 15.0139 31.3090 88.0095 0.0000 0.0000 0.0000
# 4 0.0000 0.0000 0.0000 29.1251 0.0000 0.0000
# 5 0.0000 0.0000 0.0000 0.0000 30.2883 0.0000
# 6 0.0000 0.0000 0.0000 0.0000 0.0000 29.7513
#
#
#
# Elastic Compliance Matrix: (Units=1/GPa)
#
#
# Indices 1 2 3 4 5 6 
#
# 1 0.024411 -0.005269 -0.002290 0.000000 0.000000 0.000000
# 2 -0.005269 0.018592 -0.005715 0.000000 0.000000 0.000000
# 3 -0.002290 -0.005715 0.013786 0.000000 0.000000 0.000000
# 4 0.000000 0.000000 0.000000 0.034335 0.000000 0.000000
# 5 0.000000 0.000000 0.000000 0.000000 0.033016 0.000000
# 6 0.000000 0.000000 0.000000 0.000000 0.000000 0.033612
#
#
# Mechanical properties :
#
#
# Convention : Reuss Voigt Hill
#
# Bulk Modulus (GPa) = 33.06769 36.74380 34.90575
# Shear Modulus (GPa) = 25.72265 27.07317 26.39791
#
# Velocity S-wave (km/s) = 3.60442 3.69783 3.65142
# Velocity P-wave (km/s) = 5.83301 6.06549 5.95039
#
# Compressibility (1/GPa) = 0.03024100
#
# Stress axis : x y z
#
# Youngs Moduli (GPa) = 40.96477 53.78592 72.53626
#
# Poissons Ratio (x) = 0.28341 0.16610
# Poissons Ratio (y) = 0.21585 0.41456
# Poissons Ratio (z) = 0.09381 0.30740
#
# Static dielectric constant tensor:
#      x y z
#    x 3.436970 0.000000 0.000000 
#    y 0.000000 3.888140 0.000000 
#    z 0.000000 0.000000 3.755590 
# 
# 
# High freq. dielectric constant tensor:
#      x y z
#    x 1.763670 0.000000 0.000000 
#    y 0.000000 1.770380 0.000000 
#    z 0.000000 0.000000 1.774580 
# 
# From -- ./inp_files/24713.got.cif
#   From: 2010.03.12/outbox.cif.g09.slc.cpg/sg59_13_cif.got.tgz:24713.got - 2010.04.16 16:29:54.
