data_PCOD8242189
_publ_section_title
;
Structure prediction by ZEFSAII (Michael W. Deem and Ramdas Pophale) SiO2 
 PCOD8242189
Probable space group: P M M N
;
_chemical_formula_sum "Si O2"
_cell_formula_units_Z 64
_cell_length_a 18.684529
_cell_length_b 18.366787
_cell_length_c 10.033583
_cell_angle_alpha 90.000000
_cell_angle_beta 90.000000
_cell_angle_gamma 90.000000
_cell_volume 3443.272481
_symmetry_space_group_name_H-M "P M M N"
_symmetry_group_IT_number 59
_space_group.IT_coordinate_system_code '2'
_symmetry_cell_setting 'orthorhombic'
loop_
_space_group_symop_operation_xyz
x,y,z
1/2-x,1/2-y,z
1/2+x,-y,-z
-x,1/2+y,-z
-x,-y,-z
1/2+x,1/2+y,-z
1/2-x,y,z
x,1/2-y,z
loop_
_atom_site_type_symbol
_atom_site_label
_atom_site_fract_x
_atom_site_fract_y
_atom_site_fract_z
Si Si1 0.169278 0.604487 0.262774
Si Si2 0.668296 0.666673 0.552890
Si Si3 0.832086 0.166012 0.445372
Si Si4 0.531188 0.335315 0.842849
Si Si5 0.331113 0.439172 0.204410
Si Si6 0.450717 0.406122 0.597158
Si Si7 0.548869 0.428261 0.350105
Si Si8 0.973037 0.927177 0.930718
O O1 0.250000 0.623378 0.216062
O O2 0.153185 0.636777 0.407041
O O3 0.114594 0.640684 0.158070
O O4 0.157164 0.517999 0.271246
O O5 0.750000 0.656745 0.507890
O O6 0.650318 0.750000 0.587336
O O7 0.651509 0.620218 0.684064
O O8 0.621090 0.639711 0.428675
O O9 0.750000 0.155224 0.403862
O O10 0.854843 0.250000 0.439921
O O11 0.879467 0.120321 0.341312
O O12 0.523686 0.250000 0.824231
O O13 0.490682 0.375943 0.725057
O O14 0.496022 0.357740 0.982797
O O15 0.250000 0.430766 0.149360
O O16 0.386508 0.429030 0.082448
O O17 0.501037 0.397309 0.469416
O O18 0.428615 0.489027 0.623279
O O19 0.505846 0.419818 0.214787
O O20 0.000000 0.000000 0.000000
#
# Coordination Sequence:
#
# PCOD8242189 Si02
#       8
#     8   8   8   8   8   8   8   8
#     4  10  19  35  61  91 122 159 202 250 304 363
#     4  10  21  36  58  91 125 155 198 260 315 358
#     4  10  21  36  57  91 130 162 199 252 309 366
#     4  12  25  40  62  92 125 163 203 251 309 366
#     4  10  20  38  64  88 117 161 210 251 300 365
#     4  11  21  38  62  90 118 152 203 259 303 363
#     4  11  22  37  64  89 117 159 207 248 306 353
#     4  12  23  43  61  87 126 163 201 252 301 365
#
# _framework density 18.586969
#
# number of rings (size 3 to 8) (size 9 to 14) (size 15 to 20)
#    0.000    1.250    5.000    1.500    0.000    3.750 
#    0.000    1.875    0.000    0.750    0.000    0.000 
#    0.000    0.000    0.000    0.000    0.000    0.000 
#
# Total GULP energy -793862.081685 kJ/mol
# GULP energy per Si atom -12404.095026 kJ/mol
# Density = 1.854466 g / cm^3
# Si number density = 18.586969 Si / 1000 Ang^3
#
#
#
# Elastic Constant Matrix: (Units=GPa)
#
#
# Indices 1 2 3 4 5 6 
#
# 1 126.1695 50.2632 42.3418 0.0000 0.0000 0.0000
# 2 50.2632 99.9193 18.8871 0.0000 0.0000 0.0000
# 3 42.3418 18.8871 70.4114 0.0000 0.0000 0.0000
# 4 0.0000 0.0000 0.0000 26.8743 0.0000 0.0000
# 5 0.0000 0.0000 0.0000 0.0000 28.5319 0.0000
# 6 0.0000 0.0000 0.0000 0.0000 0.0000 30.7555
#
#
#
# Elastic Compliance Matrix: (Units=1/GPa)
#
#
# Indices 1 2 3 4 5 6 
#
# 1 0.011799 -0.004840 -0.005797 0.000000 0.000000 0.000000
# 2 -0.004840 0.012528 -0.000450 0.000000 0.000000 0.000000
# 3 -0.005797 -0.000450 0.017809 0.000000 0.000000 0.000000
# 4 0.000000 0.000000 0.000000 0.037210 0.000000 0.000000
# 5 0.000000 0.000000 0.000000 0.000000 0.035048 0.000000
# 6 0.000000 0.000000 0.000000 0.000000 0.000000 0.032515
#
#
# Mechanical properties :
#
#
# Convention : Reuss Voigt Hill
#
# Bulk Modulus (GPa) = 50.09508 57.72049 53.90778
# Shear Modulus (GPa) = 28.45145 29.56622 29.00884
#
# Velocity S-wave (km/s) = 3.91669 3.99268 3.95487
# Velocity P-wave (km/s) = 6.88942 7.23720 7.06545
#
# Compressibility (1/GPa) = 0.01996204
#
# Stress axis : x y z
#
# Youngs Moduli (GPa) = 84.74968 79.82309 56.15073
#
# Poissons Ratio (x) = 0.38632 0.32553
# Poissons Ratio (y) = 0.41017 0.02527
# Poissons Ratio (z) = 0.49133 0.03592
#
# Static dielectric constant tensor:
#      x y z
#    x 3.850180 0.000000 0.000000 
#    y 0.000000 3.577320 0.000000 
#    z 0.000000 0.000000 3.369790 
# 
# 
# High freq. dielectric constant tensor:
#      x y z
#    x 1.735640 0.000000 0.000000 
#    y 0.000000 1.733110 0.000000 
#    z 0.000000 0.000000 1.692830 
# 
# From -- ./inp_files/11598.got.cif
#   From: 2010.03.12/outbox.cif.g09.slc.cpg/sg59_6_cif.got.tgz:11598.got - 2010.04.16 16:29:54.
