data_PCOD8242076
_publ_section_title
;
Structure prediction by ZEFSAII (Michael W. Deem and Ramdas Pophale) SiO2 
 PCOD8242076
Probable space group: P M M N
;
_chemical_formula_sum "Si O2"
_cell_formula_units_Z 40
_cell_length_a 8.861810
_cell_length_b 10.054880
_cell_length_c 24.054618
_cell_angle_alpha 90.000000
_cell_angle_beta 90.000000
_cell_angle_gamma 90.000000
_cell_volume 2143.373173
_symmetry_space_group_name_H-M "P M M N"
_symmetry_group_IT_number 59
_space_group.IT_coordinate_system_code '2'
_symmetry_cell_setting 'orthorhombic'
loop_
_space_group_symop_operation_xyz
x,y,z
1/2-x,1/2-y,z
1/2+x,-y,-z
-x,1/2+y,-z
-x,-y,-z
1/2+x,1/2+y,-z
1/2-x,y,z
x,1/2-y,z
loop_
_atom_site_type_symbol
_atom_site_label
_atom_site_fract_x
_atom_site_fract_y
_atom_site_fract_z
Si Si1 0.572458 0.901921 0.456011
Si Si2 0.426490 0.597718 0.339654
Si Si3 0.571926 0.250000 0.924590
Si Si4 0.570593 0.973608 0.876382
Si Si5 0.570942 0.600884 0.754350
Si Si6 0.070548 0.750000 0.949947
O O1 0.750000 0.920923 0.457249
O O2 0.526464 0.750000 0.470299
O O3 0.513309 0.941245 0.395400
O O4 0.500000 0.000000 0.500000
O O5 0.250000 0.573424 0.350108
O O6 0.458185 0.750000 0.322133
O O7 0.491221 0.502596 0.291248
O O8 0.750000 0.250000 0.928658
O O9 0.516899 0.377830 0.890387
O O10 0.507505 0.250000 0.987092
O O11 0.750000 0.954520 0.880416
O O12 0.509759 0.939036 0.814990
O O13 0.492349 0.880331 0.920890
O O14 0.750000 0.593310 0.755190
O O15 0.515884 0.750000 0.739484
O O16 0.250000 0.750000 0.947361
#
# Coordination Sequence:
#
# PCOD8242076 Si02
#       6
#     8   8   4   8   8   4
#     4  10  21  37  57  82 113 148 184 222 263 311
#     4   9  18  32  52  78 107 138 173 219 270 317
#     4   9  20  33  53  81 105 133 178 227 270 321
#     4  10  19  35  56  78 103 138 180 223 269 322
#     4   9  17  30  51  78 102 129 173 223 267 314
#     4  11  21  35  51  75 109 141 174 221 274 325
#
# _framework density 18.662174
#
# number of rings (size 3 to 8) (size 9 to 14) (size 15 to 20)
#    0.000    2.400    1.000    1.500    1.400    2.000 
#    0.000    4.500    0.000    0.000    0.000    0.000 
#    0.000    0.000    0.000    0.000    0.000    0.000 
#
# Total GULP energy -496023.516683 kJ/mol
# GULP energy per Si atom -12400.587917 kJ/mol
# Density = 1.861970 g / cm^3
# Si number density = 18.662174 Si / 1000 Ang^3
#
#
#
# Elastic Constant Matrix: (Units=GPa)
#
#
# Indices 1 2 3 4 5 6 
#
# 1 35.7180 27.9781 30.5224 0.0000 0.0000 0.0000
# 2 27.9781 155.3223 92.5275 0.0000 0.0000 0.0000
# 3 30.5224 92.5275 150.2592 0.0000 0.0000 0.0000
# 4 0.0000 0.0000 0.0000 48.0583 0.0000 0.0000
# 5 0.0000 0.0000 0.0000 0.0000 26.5195 0.0000
# 6 0.0000 0.0000 0.0000 0.0000 0.0000 20.9663
#
#
#
# Elastic Compliance Matrix: (Units=1/GPa)
#
#
# Indices 1 2 3 4 5 6 
#
# 1 0.034891 -0.003258 -0.005081 0.000000 0.000000 0.000000
# 2 -0.003258 0.010472 -0.005787 0.000000 0.000000 0.000000
# 3 -0.005081 -0.005787 0.011251 0.000000 0.000000 0.000000
# 4 0.000000 0.000000 0.000000 0.020808 0.000000 0.000000
# 5 0.000000 0.000000 0.000000 0.000000 0.037708 0.000000
# 6 0.000000 0.000000 0.000000 0.000000 0.000000 0.047696
#
#
# Mechanical properties :
#
#
# Convention : Reuss Voigt Hill
#
# Bulk Modulus (GPa) = 35.25831 71.48396 53.37113
# Shear Modulus (GPa) = 24.93354 31.79357 28.36355
#
# Velocity S-wave (km/s) = 3.65916 4.13199 3.90274
# Velocity P-wave (km/s) = 6.06519 7.81996 6.99780
#
# Compressibility (1/GPa) = 0.02836211
#
# Stress axis : x y z
#
# Youngs Moduli (GPa) = 28.66045 95.48839 88.88166
#
# Poissons Ratio (x) = 0.31109 0.45164
# Poissons Ratio (y) = 0.09337 0.51436
# Poissons Ratio (z) = 0.14563 0.55259
#
# Static dielectric constant tensor:
#      x y z
#    x 3.124160 0.000000 0.000000 
#    y 0.000000 3.319610 0.000000 
#    z 0.000000 0.000000 3.530130 
# 
# 
# High freq. dielectric constant tensor:
#      x y z
#    x 1.690100 0.000000 0.000000 
#    y 0.000000 1.738080 0.000000 
#    z 0.000000 0.000000 1.733820 
# 
# From -- ./inp_files/32441.got.cif
#   From: 2010.03.12/outbox.cif.g09.slc.cpg/sg59_17_cif.got.tgz:32441.got - 2010.04.16 16:29:54.
