data_PCOD8242061
_publ_section_title
;
Structure prediction by ZEFSAII (Michael W. Deem and Ramdas Pophale) SiO2 
 PCOD8242061
Probable space group: P M M N
;
_chemical_formula_sum "Si O2"
_cell_formula_units_Z 40
_cell_length_a 10.189270
_cell_length_b 9.011427
_cell_length_c 24.369149
_cell_angle_alpha 90.000000
_cell_angle_beta 90.000000
_cell_angle_gamma 90.000000
_cell_volume 2237.571917
_symmetry_space_group_name_H-M "P M M N"
_symmetry_group_IT_number 59
_space_group.IT_coordinate_system_code '2'
_symmetry_cell_setting 'orthorhombic'
loop_
_space_group_symop_operation_xyz
x,y,z
1/2-x,1/2-y,z
1/2+x,-y,-z
-x,1/2+y,-z
-x,-y,-z
1/2+x,1/2+y,-z
1/2-x,y,z
x,1/2-y,z
loop_
_atom_site_type_symbol
_atom_site_label
_atom_site_fract_x
_atom_site_fract_y
_atom_site_fract_z
Si Si1 0.902268 0.074718 0.542688
Si Si2 0.250000 0.073852 0.058815
Si Si3 0.598275 0.420856 0.759895
Si Si4 0.514566 0.424311 0.879205
Si Si5 0.750000 0.574468 0.065124
Si Si6 0.405415 0.416006 0.346782
O O1 0.750000 0.031017 0.530506
O O2 0.920806 0.250000 0.540579
O O3 0.947718 0.017253 0.602188
O O4 0.000000 0.000000 0.500000
O O5 0.250000 0.250000 0.060062
O O6 0.377281 0.015629 0.088989
O O7 0.250000 0.011689 0.996642
O O8 0.750000 0.459196 0.771465
O O9 0.582368 0.250000 0.743334
O O10 0.517684 0.460298 0.814526
O O11 0.538570 0.515975 0.709738
O O12 0.539116 0.250000 0.889361
O O13 0.376589 0.482243 0.902145
O O14 0.750000 0.750000 0.063530
O O15 0.250000 0.413958 0.342289
O O16 0.461575 0.250000 0.354821
#
# Coordination Sequence:
#
# PCOD8242061 Si02
#       6
#     8   4   8   8   4   8
#     4  10  20  34  54  80 110 143 179 219 260 307
#     4  11  21  33  51  79 105 131 170 217 260 307
#     4   9  16  28  48  73  97 126 168 215 259 305
#     4  10  19  35  55  75 100 136 174 212 259 313
#     4   9  20  35  53  75 103 135 172 213 258 313
#     4   9  17  29  48  75 104 135 170 214 264 307
#
# _framework density 17.876521
#
# number of rings (size 3 to 8) (size 9 to 14) (size 15 to 20)
#    0.000    2.400    1.000    2.100    0.000    4.400 
#    0.000    1.500    2.200    0.000    0.000    0.000 
#    0.000    0.000    0.000    0.000    0.000    0.000 
#
# Total GULP energy -495982.166127 kJ/mol
# GULP energy per Si atom -12399.554153 kJ/mol
# Density = 1.783583 g / cm^3
# Si number density = 17.876521 Si / 1000 Ang^3
#
#
#
# Elastic Constant Matrix: (Units=GPa)
#
#
# Indices 1 2 3 4 5 6 
#
# 1 94.9859 42.7470 65.8483 0.0000 0.0000 0.0000
# 2 42.7470 84.6032 66.3244 0.0000 0.0000 0.0000
# 3 65.8483 66.3244 162.3312 0.0000 0.0000 0.0000
# 4 0.0000 0.0000 0.0000 33.1178 0.0000 0.0000
# 5 0.0000 0.0000 0.0000 0.0000 23.3872 0.0000
# 6 0.0000 0.0000 0.0000 0.0000 0.0000 164.9370
#
#
#
# Elastic Compliance Matrix: (Units=1/GPa)
#
#
# Indices 1 2 3 4 5 6 
#
# 1 0.015647 -0.004311 -0.004586 0.000000 0.000000 0.000000
# 2 -0.004311 0.018578 -0.005842 0.000000 0.000000 0.000000
# 3 -0.004586 -0.005842 0.010407 0.000000 0.000000 0.000000
# 4 0.000000 0.000000 0.000000 0.030195 0.000000 0.000000
# 5 0.000000 0.000000 0.000000 0.000000 0.042758 0.000000
# 6 0.000000 0.000000 0.000000 0.000000 0.000000 0.006063
#
#
# Mechanical properties :
#
#
# Convention : Reuss Voigt Hill
#
# Bulk Modulus (GPa) = 65.98421 76.86219 71.42320
# Shear Modulus (GPa) = 31.61026 55.42178 43.51602
#
# Velocity S-wave (km/s) = 4.20963 5.57403 4.93917
# Velocity P-wave (km/s) = 7.78583 9.19326 8.51866
#
# Compressibility (1/GPa) = 0.01515514
#
# Stress axis : x y z
#
# Youngs Moduli (GPa) = 63.91021 53.82837 96.08773
#
# Poissons Ratio (x) = 0.23205 0.44063
# Poissons Ratio (y) = 0.27551 0.56131
# Poissons Ratio (z) = 0.29308 0.31445
#
# Static dielectric constant tensor:
#      x y z
#    x 3.006810 0.000000 0.000000 
#    y 0.000000 3.327210 0.000000 
#    z 0.000000 0.000000 3.556290 
# 
# 
# High freq. dielectric constant tensor:
#      x y z
#    x 1.658150 0.000000 0.000000 
#    y 0.000000 1.688290 0.000000 
#    z 0.000000 0.000000 1.708270 
# 
# From -- ./inp_files/32421.got.cif
#   From: 2010.03.12/outbox.cif.g09.slc.cpg/sg59_17_cif.got.tgz:32421.got - 2010.04.16 16:29:54.
