data_PCOD8242488
_publ_section_title
;
Structure prediction by ZEFSAII (Michael W. Deem and Ramdas Pophale) SiO2 
 PCOD8242488
Probable space group: P M M N
;
_chemical_formula_sum "Si O2"
_cell_formula_units_Z 48
_cell_length_a 18.583368
_cell_length_b 9.048500
_cell_length_c 15.736032
_cell_angle_alpha 90.000000
_cell_angle_beta 90.000000
_cell_angle_gamma 90.000000
_cell_volume 2646.039043
_symmetry_space_group_name_H-M "P M M N"
_symmetry_group_IT_number 59
_space_group.IT_coordinate_system_code '2'
_symmetry_cell_setting 'orthorhombic'
loop_
_space_group_symop_operation_xyz
x,y,z
1/2-x,1/2-y,z
1/2+x,-y,-z
-x,1/2+y,-z
-x,-y,-z
1/2+x,1/2+y,-z
1/2-x,y,z
x,1/2-y,z
loop_
_atom_site_type_symbol
_atom_site_label
_atom_site_fract_x
_atom_site_fract_y
_atom_site_fract_z
Si Si1 0.912545 0.077885 0.079418
Si Si2 0.835493 0.418147 0.393956
Si Si3 0.420649 0.077736 0.092584
Si Si4 0.664758 0.086406 0.576578
Si Si5 0.164440 0.083271 0.770326
Si Si6 0.167007 0.925876 0.239719
O O1 0.897112 0.250000 0.067147
O O2 0.995001 0.045861 0.102696
O O3 0.862819 0.017027 0.153500
O O4 0.890444 0.996781 0.992661
O O5 0.750000 0.417035 0.388303
O O6 0.864037 0.250000 0.383746
O O7 0.859279 0.488128 0.486484
O O8 0.866846 0.518783 0.318371
O O9 0.403008 0.250000 0.087984
O O10 0.382227 0.007291 0.172747
O O11 0.750000 0.098194 0.578772
O O12 0.631701 0.250000 0.574363
O O13 0.641875 0.012330 0.666464
O O14 0.250000 0.079322 0.770819
O O15 0.135529 0.250000 0.780602
O O16 0.250000 0.966347 0.221815
O O17 0.155820 0.750000 0.234729
#
# Coordination Sequence:
#
# PCOD8242488 Si02
#       6
#     8   8   8   8   8   8
#     4  10  21  37  55  71  90 124 166 200 236 290
#     4   8  13  24  44  68  95 128 162 194 230 275
#     4  10  21  36  53  73  96 123 158 201 246 288
#     4   7  11  22  42  68  96 126 161 196 227 268
#     4  10  20  32  48  74 104 128 154 196 246 287
#     4   9  17  30  50  76 103 131 163 196 233 282
#
# _framework density 18.140322000000001
#
# number of rings (size 3 to 8) (size 9 to 14) (size 15 to 20)
#    0.000    3.000    0.000    3.500    0.000    4.000 
#    0.000    0.833    0.000    4.000    0.000    0.000 
#    0.000    0.000    0.000    0.000    0.000    0.000 
#
# Total GULP energy -594699.810270 kJ/mol
# GULP energy per Si atom -12389.579381 kJ/mol
# Density = 1.809903 g / cm^3
# Si number density = 18.140322 Si / 1000 Ang^3
#
#
#
# Elastic Constant Matrix: (Units=GPa)
#
#
# Indices 1 2 3 4 5 6 
#
# 1 17.7248 19.6052 27.3804 0.0000 0.0000 0.0000
# 2 19.6052 68.5126 50.3650 0.0000 0.0000 0.0000
# 3 27.3804 50.3650 165.9986 0.0000 0.0000 0.0000
# 4 0.0000 0.0000 0.0000 23.3236 0.0000 0.0000
# 5 0.0000 0.0000 0.0000 0.0000 -15.0865 0.0000
# 6 0.0000 0.0000 0.0000 0.0000 0.0000 22.0906
#
#
#
# Elastic Compliance Matrix: (Units=1/GPa)
#
#
# Indices 1 2 3 4 5 6 
#
# 1 0.092501 -0.019632 -0.009301 0.000000 0.000000 0.000000
# 2 -0.019632 0.022953 -0.003726 0.000000 0.000000 0.000000
# 3 -0.009301 -0.003726 0.008689 0.000000 0.000000 0.000000
# 4 0.000000 0.000000 0.000000 0.042875 0.000000 0.000000
# 5 0.000000 0.000000 0.000000 0.000000 -0.066284 0.000000
# 6 0.000000 0.000000 0.000000 0.000000 0.000000 0.045268
#
#
# Mechanical properties :
#
#
# Convention : Reuss Voigt Hill
#
# Bulk Modulus (GPa) = 16.99980 49.65967 33.32974
# Shear Modulus (GPa) = 21.65194 16.39122 19.02158
#
# Velocity S-wave (km/s) = 3.45857 3.00922 3.24169
# Velocity P-wave (km/s) = 5.03394 6.28559 5.69426
#
# Compressibility (1/GPa) = 0.05882421
#
# Stress axis : x y z
#
# Youngs Moduli (GPa) = 10.81075 43.56813 115.09243
#
# Poissons Ratio (x) = 0.85534 1.07045
# Poissons Ratio (y) = 0.21224 0.42881
# Poissons Ratio (z) = 0.10055 0.16232
#
# Static dielectric constant tensor:
#      x y z
#    x 2.906450 0.000000 0.000000 
#    y 0.000000 3.338500 0.000000 
#    z 0.000000 0.000000 3.886380 
# 
# 
# High freq. dielectric constant tensor:
#      x y z
#    x 1.653220 0.000000 0.000000 
#    y 0.000000 1.687610 0.000000 
#    z 0.000000 0.000000 1.731080 
# 
# From -- ./inp_files/24102.got.cif
#   From: 2010.03.12/outbox.cif.g09.slc.cpg/sg59_13_cif.got.tgz:24102.got - 2010.04.16 16:29:54.
