data_PCOD8242363
_publ_section_title
;
Structure prediction by ZEFSAII (Michael W. Deem and Ramdas Pophale) SiO2 
 PCOD8242363
Probable space group: P M M N
;
_chemical_formula_sum "Si O2"
_cell_formula_units_Z 64
_cell_length_a 9.417701
_cell_length_b 18.431255
_cell_length_c 20.804122
_cell_angle_alpha 90.000000
_cell_angle_beta 90.000000
_cell_angle_gamma 90.000000
_cell_volume 3611.180509
_symmetry_space_group_name_H-M "P M M N"
_symmetry_group_IT_number 59
_space_group.IT_coordinate_system_code '2'
_symmetry_cell_setting 'orthorhombic'
loop_
_space_group_symop_operation_xyz
x,y,z
1/2-x,1/2-y,z
1/2+x,-y,-z
-x,1/2+y,-z
-x,-y,-z
1/2+x,1/2+y,-z
1/2-x,y,z
x,1/2-y,z
loop_
_atom_site_type_symbol
_atom_site_label
_atom_site_fract_x
_atom_site_fract_y
_atom_site_fract_z
Si Si1 0.918970 0.902709 0.113960
Si Si2 0.093737 0.590584 0.370535
Si Si3 0.581616 0.425489 0.490279
Si Si4 0.587980 0.582891 0.629508
Si Si5 0.593905 0.594516 0.256415
Si Si6 0.913829 0.166802 0.996914
Si Si7 0.909139 0.077951 0.251914
Si Si8 0.918647 0.066162 0.110970
O O1 0.750000 0.896148 0.106167
O O2 0.965897 0.881660 0.186666
O O3 0.996221 0.847266 0.066893
O O4 0.972144 0.984324 0.097850
O O5 0.250000 0.615086 0.350432
O O6 0.060092 0.619364 0.442970
O O7 0.083135 0.503752 0.371484
O O8 0.994876 0.626060 0.316207
O O9 0.500000 0.500000 0.500000
O O10 0.750000 0.438333 0.476785
O O11 0.505782 0.385523 0.430088
O O12 0.750000 0.611400 0.625108
O O13 0.515724 0.611732 0.695314
O O14 0.750000 0.627192 0.265192
O O15 0.598384 0.508161 0.259017
O O16 0.750000 0.147135 0.983393
O O17 0.931056 0.250000 0.017341
O O18 0.976529 0.118389 0.055062
O O19 0.750000 0.109922 0.261859
O O20 0.970282 0.095788 0.180633
O O21 0.750000 0.065620 0.113436
#
# Coordination Sequence:
#
# PCOD8242363 Si02
#       8
#     8   8   8   8   8   8   8   8
#     4   9  17  30  47  65  84 110 146 182 215 255
#     4   8  14  21  29  44  67  95 128 165 201 239
#     4   9  15  21  28  41  64  97 135 169 202 243
#     4   9  15  21  29  45  69  96 129 168 206 245
#     4   8  14  23  36  53  71  94 128 169 208 245
#     4  10  20  32  46  66  91 116 141 173 216 263
#     4   8  13  23  38  52  69  97 131 168 208 246
#     4   8  15  29  47  65  85 111 145 181 216 258
#
# _framework density 17.722736999999999
#
# number of rings (size 3 to 8) (size 9 to 14) (size 15 to 20)
#    0.000    3.375    0.000    3.375    0.000    4.250 
#    0.000    2.500    0.000    0.000    0.000    0.000 
#    0.000    0.000    0.000    1.125    0.000   18.750 
#
# Total GULP energy -792942.875326 kJ/mol
# GULP energy per Si atom -12389.732427 kJ/mol
# Density = 1.768240 g / cm^3
# Si number density = 17.722737 Si / 1000 Ang^3
#
#
#
# Elastic Constant Matrix: (Units=GPa)
#
#
# Indices 1 2 3 4 5 6 
#
# 1 85.1543 10.0845 63.3087 0.0000 0.0000 0.0000
# 2 10.0845 19.2915 15.5787 0.0000 0.0000 0.0000
# 3 63.3087 15.5787 146.3486 0.0000 0.0000 0.0000
# 4 0.0000 0.0000 0.0000 2.1450 0.0000 0.0000
# 5 0.0000 0.0000 0.0000 0.0000 33.3781 0.0000
# 6 0.0000 0.0000 0.0000 0.0000 0.0000 9.1457
#
#
#
# Elastic Compliance Matrix: (Units=1/GPa)
#
#
# Indices 1 2 3 4 5 6 
#
# 1 0.017503 -0.003321 -0.007218 0.000000 0.000000 0.000000
# 2 -0.003321 0.057341 -0.004668 0.000000 0.000000 0.000000
# 3 -0.007218 -0.004668 0.010452 0.000000 0.000000 0.000000
# 4 0.000000 0.000000 0.000000 0.466202 0.000000 0.000000
# 5 0.000000 0.000000 0.000000 0.000000 0.029960 0.000000
# 6 0.000000 0.000000 0.000000 0.000000 0.000000 0.109341
#
#
# Mechanical properties :
#
#
# Convention : Reuss Voigt Hill
#
# Bulk Modulus (GPa) = 18.22016 47.63760 32.92888
# Shear Modulus (GPa) = 6.76126 19.72193 13.24159
#
# Velocity S-wave (km/s) = 1.95533 3.33949 2.73638
# Velocity P-wave (km/s) = 3.92438 6.46586 5.34827
#
# Compressibility (1/GPa) = 0.05488425
#
# Stress axis : x y z
#
# Youngs Moduli (GPa) = 57.13305 17.43940 95.67244
#
# Poissons Ratio (x) = 0.05791 0.69058
# Poissons Ratio (y) = 0.18972 0.44655
# Poissons Ratio (z) = 0.41239 0.08140
#
# Static dielectric constant tensor:
#      x y z
#    x 3.311680 0.000000 0.000000 
#    y 0.000000 2.593390 0.000000 
#    z 0.000000 0.000000 3.897990 
# 
# 
# High freq. dielectric constant tensor:
#      x y z
#    x 1.674850 0.000000 0.000000 
#    y 0.000000 1.601150 0.000000 
#    z 0.000000 0.000000 1.709240 
# 
# From -- ./inp_files/29743.got.cif
#   From: 2010.03.12/outbox.cif.g09.slc.cpg/sg59_15_cif.got.tgz:29743.got - 2010.04.16 16:29:54.
