data_PCOD8242159
_publ_section_title
;
Structure prediction by ZEFSAII (Michael W. Deem and Ramdas Pophale) SiO2 
 PCOD8242159
Probable space group: P M M N
;
_chemical_formula_sum "Si O2"
_cell_formula_units_Z 64
_cell_length_a 25.530301
_cell_length_b 8.780265
_cell_length_c 14.258743
_cell_angle_alpha 90.000000
_cell_angle_beta 90.000000
_cell_angle_gamma 90.000000
_cell_volume 3196.279874
_symmetry_space_group_name_H-M "P M M N"
_symmetry_group_IT_number 59
_space_group.IT_coordinate_system_code '2'
_symmetry_cell_setting 'orthorhombic'
loop_
_space_group_symop_operation_xyz
x,y,z
1/2-x,1/2-y,z
1/2+x,-y,-z
-x,1/2+y,-z
-x,-y,-z
1/2+x,1/2+y,-z
1/2-x,y,z
x,1/2-y,z
loop_
_atom_site_type_symbol
_atom_site_label
_atom_site_fract_x
_atom_site_fract_y
_atom_site_fract_z
Si Si1 0.690827 0.069828 0.904316
Si Si2 0.908000 0.429992 0.388032
Si Si3 0.636945 0.430695 0.090521
Si Si4 0.809099 0.572377 0.713458
Si Si5 0.692249 0.069575 0.276565
Si Si6 0.404309 0.427990 0.412433
Si Si7 0.492812 0.574485 0.292771
Si Si8 0.973531 0.924779 0.089027
O O1 0.750000 0.010816 0.916976
O O2 0.688444 0.250000 0.903028
O O3 0.668274 0.009135 0.806149
O O4 0.657184 0.005183 0.990914
O O5 0.915774 0.250000 0.374120
O O6 0.850791 0.485396 0.352227
O O7 0.914186 0.471679 0.496322
O O8 0.951103 0.517905 0.328359
O O9 0.633000 0.250000 0.088218
O O10 0.676125 0.485040 0.172455
O O11 0.580537 0.495276 0.113410
O O12 0.750000 0.516195 0.689356
O O13 0.809982 0.750000 0.734583
O O14 0.846684 0.531417 0.626876
O O15 0.750000 0.001599 0.300666
O O16 0.695097 0.250000 0.278377
O O17 0.409370 0.250000 0.436838
O O18 0.447399 0.470749 0.335535
O O19 0.485187 0.750000 0.322976
O O20 0.489536 0.557789 0.180171
O O21 0.963028 0.750000 0.065140
O O22 0.000000 0.000000 0.000000
#
# Coordination Sequence:
#
# PCOD8242159 Si02
#       8
#     8   8   8   8   8   8   8   8
#     4   9  18  32  54  84 115 149 189 234 281 332
#     4  11  22  39  63  90 120 154 195 246 299 351
#     4  10  19  35  59  86 119 156 195 238 287 348
#     4   9  20  39  59  82 116 156 194 237 292 350
#     4   9  18  34  59  90 122 158 199 243 293 352
#     4  11  24  40  62  88 116 154 198 243 296 358
#     4  11  24  43  64  87 118 154 196 246 294 349
#     4  11  25  41  60  87 121 157 194 240 294 351
#
# _framework density 20.023278000000001
#
# number of rings (size 3 to 8) (size 9 to 14) (size 15 to 20)
#    0.000    1.875    1.250    2.250    1.750    5.000 
#    0.000    0.000    0.000    3.750    0.000    0.000 
#    0.000    0.000    0.000    0.000    0.000    0.000 
#
# Total GULP energy -793693.012370 kJ/mol
# GULP energy per Si atom -12401.453318 kJ/mol
# Density = 1.997770 g / cm^3
# Si number density = 20.023278 Si / 1000 Ang^3
#
#
#
# Elastic Constant Matrix: (Units=GPa)
#
#
# Indices 1 2 3 4 5 6 
#
# 1 102.4957 13.0708 30.2076 0.0000 0.0000 0.0000
# 2 13.0708 31.0915 22.1619 0.0000 0.0000 0.0000
# 3 30.2076 22.1619 101.5421 0.0000 0.0000 0.0000
# 4 0.0000 0.0000 0.0000 27.1645 0.0000 0.0000
# 5 0.0000 0.0000 0.0000 0.0000 34.3868 0.0000
# 6 0.0000 0.0000 0.0000 0.0000 0.0000 22.6892
#
#
#
# Elastic Compliance Matrix: (Units=1/GPa)
#
#
# Indices 1 2 3 4 5 6 
#
# 1 0.010880 -0.002684 -0.002651 0.000000 0.000000 0.000000
# 2 -0.002684 0.038751 -0.007659 0.000000 0.000000 0.000000
# 3 -0.002651 -0.007659 0.012308 0.000000 0.000000 0.000000
# 4 0.000000 0.000000 0.000000 0.036813 0.000000 0.000000
# 5 0.000000 0.000000 0.000000 0.000000 0.029081 0.000000
# 6 0.000000 0.000000 0.000000 0.000000 0.000000 0.044074
#
#
# Mechanical properties :
#
#
# Convention : Reuss Voigt Hill
#
# Bulk Modulus (GPa) = 27.81571 40.66778 34.24174
# Shear Modulus (GPa) = 23.82326 28.16070 25.99198
#
# Velocity S-wave (km/s) = 3.45306 3.75427 3.60681
# Velocity P-wave (km/s) = 5.46077 6.25676 5.87227
#
# Compressibility (1/GPa) = 0.03595091
#
# Stress axis : x y z
#
# Youngs Moduli (GPa) = 91.91102 25.80581 81.24591
#
# Poissons Ratio (x) = 0.06928 0.21537
# Poissons Ratio (y) = 0.24673 0.62226
# Poissons Ratio (z) = 0.24364 0.19765
#
# Static dielectric constant tensor:
#      x y z
#    x 3.907200 0.000000 0.000000 
#    y 0.000000 3.490470 0.000000 
#    z 0.000000 0.000000 3.735180 
# 
# 
# High freq. dielectric constant tensor:
#      x y z
#    x 1.787900 0.000000 0.000000 
#    y 0.000000 1.766380 0.000000 
#    z 0.000000 0.000000 1.789590 
# 
# From -- ./inp_files/24729.got.cif
#   From: 2010.03.12/outbox.cif.g09.slc.cpg/sg59_13_cif.got.tgz:24729.got - 2010.04.16 16:29:54.
