data_PCOD8242628
_publ_section_title
;
Structure prediction by ZEFSAII (Michael W. Deem and Ramdas Pophale) SiO2 
 PCOD8242628
Probable space group: P M M N
;
_chemical_formula_sum "Si O2"
_cell_formula_units_Z 64
_cell_length_a 13.806082
_cell_length_b 9.040845
_cell_length_c 31.611465
_cell_angle_alpha 90.000000
_cell_angle_beta 90.000000
_cell_angle_gamma 90.000000
_cell_volume 3945.700304
_symmetry_space_group_name_H-M "P M M N"
_symmetry_group_IT_number 59
_space_group.IT_coordinate_system_code '2'
_symmetry_cell_setting 'orthorhombic'
loop_
_space_group_symop_operation_xyz
x,y,z
1/2-x,1/2-y,z
1/2+x,-y,-z
-x,1/2+y,-z
-x,-y,-z
1/2+x,1/2+y,-z
1/2-x,y,z
x,1/2-y,z
loop_
_atom_site_type_symbol
_atom_site_label
_atom_site_fract_x
_atom_site_fract_y
_atom_site_fract_z
Si Si1 0.861598 0.075768 0.562077
Si Si2 0.639320 0.077470 0.314633
Si Si3 0.361801 0.576683 0.851885
Si Si4 0.969162 0.425208 0.399730
Si Si5 0.047924 0.576141 0.938490
Si Si6 0.135438 0.080975 0.523663
Si Si7 0.134836 0.416814 0.768490
Si Si8 0.858138 0.922465 0.984576
O O1 0.750000 0.037656 0.570496
O O2 0.880689 0.250000 0.561940
O O3 0.899124 0.008650 0.517700
O O4 0.923195 0.995132 0.598685
O O5 0.750000 0.029295 0.323770
O O6 0.633455 0.250000 0.305026
O O7 0.575240 0.032115 0.354633
O O8 0.595422 0.995029 0.273804
O O9 0.250000 0.534003 0.860090
O O10 0.373323 0.750000 0.844452
O O11 0.425000 0.520282 0.891660
O O12 0.404660 0.497151 0.810423
O O13 0.971921 0.250000 0.406761
O O14 0.903999 0.500255 0.435284
O O15 0.064265 0.750000 0.941539
O O16 0.936631 0.530873 0.948881
O O17 0.121240 0.504736 0.971723
O O18 0.250000 0.077174 0.526531
O O19 0.097249 0.250000 0.521187
O O20 0.250000 0.426742 0.768441
O O21 0.096599 0.250000 0.768815
O O22 0.750000 0.963703 0.968533
O O23 0.867171 0.750000 0.994301
#
# Coordination Sequence:
#
# PCOD8242628 Si02
#       8
#     8   8   8   8   8   8   8   8
#     4  10  21  36  51  66  88 119 154 191 227 262
#     4   9  18  32  48  67  93 122 147 172 210 263
#     4   9  16  26  41  60  83 112 144 177 213 256
#     4  11  21  32  49  71  94 120 150 184 221 264
#     4   9  17  28  42  61  84 114 152 186 217 260
#     4  10  20  33  49  69  94 123 153 185 220 260
#     4   9  17  28  43  64  89 115 141 173 215 260
#     4   9  17  28  41  59  86 117 147 184 227 262
#
# _framework density 16.220186999999999
#
# number of rings (size 3 to 8) (size 9 to 14) (size 15 to 20)
#    0.000    2.500    0.000    2.625    0.000    5.750 
#    0.000    2.500    0.000    0.000    0.000    0.875 
#    0.000    5.000    0.000    0.000    0.000    0.000 
#
# Total GULP energy -793585.059718 kJ/mol
# GULP energy per Si atom -12399.766558 kJ/mol
# Density = 1.618327 g / cm^3
# Si number density = 16.220187 Si / 1000 Ang^3
#
#
#
# Elastic Constant Matrix: (Units=GPa)
#
#
# Indices 1 2 3 4 5 6 
#
# 1 68.7311 33.0163 59.2339 0.0000 0.0000 0.0000
# 2 33.0163 73.0695 62.4026 0.0000 0.0000 0.0000
# 3 59.2339 62.4026 147.8164 0.0000 0.0000 0.0000
# 4 0.0000 0.0000 0.0000 27.8990 0.0000 0.0000
# 5 0.0000 0.0000 0.0000 0.0000 22.9408 0.0000
# 6 0.0000 0.0000 0.0000 0.0000 0.0000 21.1404
#
#
#
# Elastic Compliance Matrix: (Units=1/GPa)
#
#
# Indices 1 2 3 4 5 6 
#
# 1 0.022925 -0.003930 -0.007527 0.000000 0.000000 0.000000
# 2 -0.003930 0.022075 -0.007745 0.000000 0.000000 0.000000
# 3 -0.007527 -0.007745 0.013051 0.000000 0.000000 0.000000
# 4 0.000000 0.000000 0.000000 0.035844 0.000000 0.000000
# 5 0.000000 0.000000 0.000000 0.000000 0.043590 0.000000
# 6 0.000000 0.000000 0.000000 0.000000 0.000000 0.047303
#
#
# Mechanical properties :
#
#
# Convention : Reuss Voigt Hill
#
# Bulk Modulus (GPa) = 50.89792 66.54697 58.72244
# Shear Modulus (GPa) = 21.76370 23.39367 22.57868
#
# Velocity S-wave (km/s) = 3.66699 3.80183 3.73501
# Velocity P-wave (km/s) = 7.02684 7.77098 7.40826
#
# Compressibility (1/GPa) = 0.01964717
#
# Stress axis : x y z
#
# Youngs Moduli (GPa) = 43.62145 45.29947 76.62219
#
# Poissons Ratio (x) = 0.17802 0.57677
# Poissons Ratio (y) = 0.17143 0.59341
# Poissons Ratio (z) = 0.32836 0.35083
#
# Static dielectric constant tensor:
#      x y z
#    x 3.086640 0.000000 0.000000 
#    y 0.000000 3.150090 0.000000 
#    z 0.000000 0.000000 3.102310 
# 
# 
# High freq. dielectric constant tensor:
#      x y z
#    x 1.602920 0.000000 0.000000 
#    y 0.000000 1.632140 0.000000 
#    z 0.000000 0.000000 1.614040 
# 
# From -- ./inp_files/33207.got.cif
#   From: 2010.03.12/outbox.cif.g09.slc.cpg/sg59_17_cif.got.tgz:33207.got - 2010.04.16 16:29:54.
