data_PCOD8242892
_publ_section_title
;
Structure prediction by ZEFSAII (Michael W. Deem and Ramdas Pophale) SiO2 
 PCOD8242892
Probable space group: P M M N
;
_chemical_formula_sum "Si O2"
_cell_formula_units_Z 48
_cell_length_a 9.591200
_cell_length_b 8.443830
_cell_length_c 29.443019
_cell_angle_alpha 90.000000
_cell_angle_beta 90.000000
_cell_angle_gamma 90.000000
_cell_volume 2384.485948
_symmetry_space_group_name_H-M "P M M N"
_symmetry_group_IT_number 59
_space_group.IT_coordinate_system_code '2'
_symmetry_cell_setting 'orthorhombic'
loop_
_space_group_symop_operation_xyz
x,y,z
1/2-x,1/2-y,z
1/2+x,-y,-z
-x,1/2+y,-z
-x,-y,-z
1/2+x,1/2+y,-z
1/2-x,y,z
x,1/2-y,z
loop_
_atom_site_type_symbol
_atom_site_label
_atom_site_fract_x
_atom_site_fract_y
_atom_site_fract_z
Si Si1 0.914007 0.430066 0.809851
Si Si2 0.250000 0.065050 0.946163
Si Si3 0.515329 0.568987 0.900845
Si Si4 0.405841 0.561227 0.290947
Si Si5 0.250000 0.571871 0.042156
Si Si6 0.908719 0.938559 0.372983
Si Si7 0.089283 0.562094 0.458198
O O1 0.750000 0.441688 0.818628
O O2 0.966064 0.250000 0.814521
O O3 0.949383 0.496421 0.759487
O O4 0.993657 0.535038 0.846996
O O5 0.250000 0.250000 0.932786
O O6 0.127013 0.966878 0.924817
O O7 0.250000 0.051034 0.000614
O O8 0.560180 0.750000 0.908535
O O9 0.619835 0.450901 0.925314
O O10 0.250000 0.498823 0.303405
O O11 0.401305 0.750000 0.291368
O O12 0.519720 0.497153 0.326762
O O13 0.250000 0.750000 0.022769
O O14 0.750000 0.005205 0.377233
O O15 0.903867 0.750000 0.372954
O O16 0.006840 0.999702 0.413826
O O17 0.250000 0.497900 0.458815
O O18 0.092463 0.750000 0.459310
O O19 0.000000 0.500000 0.500000
#
# Coordination Sequence:
#
# PCOD8242892 Si02
#       7
#     8   4   8   8   4   8   8
#     4   9  17  32  55  81 109 143 185 229 276 333
#     4  12  26  44  62  86 118 154 192 238 291 344
#     4  12  24  40  61  88 119 154 193 236 286 343
#     4   8  14  26  46  71  99 134 177 226 275 327
#     4  12  24  42  66  90 118 152 194 238 283 342
#     4   9  16  27  45  72 106 140 180 231 285 337
#     4  10  20  33  51  76 107 146 190 238 289 342
#
# _framework density 20.130125
#
# number of rings (size 3 to 8) (size 9 to 14) (size 15 to 20)
#    0.000    2.000    0.833    5.500    0.000    3.000 
#    1.500    0.000    0.000    1.000    0.000    2.333 
#    0.000    0.000    0.000    0.000    0.000    0.000 
#
# Total GULP energy -595035.848363 kJ/mol
# GULP energy per Si atom -12396.580174 kJ/mol
# Density = 2.008431 g / cm^3
# Si number density = 20.130125 Si / 1000 Ang^3
#
#
#
# Elastic Constant Matrix: (Units=GPa)
#
#
# Indices 1 2 3 4 5 6 
#
# 1 146.9310 10.8554 75.5991 0.0000 0.0000 0.0000
# 2 10.8554 48.5383 15.6170 0.0000 0.0000 0.0000
# 3 75.5991 15.6170 164.8499 0.0000 0.0000 0.0000
# 4 0.0000 0.0000 0.0000 24.9029 0.0000 0.0000
# 5 0.0000 0.0000 0.0000 0.0000 36.3785 0.0000
# 6 0.0000 0.0000 0.0000 0.0000 0.0000 18.9629
#
#
#
# Elastic Compliance Matrix: (Units=1/GPa)
#
#
# Indices 1 2 3 4 5 6 
#
# 1 0.008931 -0.000701 -0.004029 0.000000 0.000000 0.000000
# 2 -0.000701 0.021305 -0.001697 0.000000 0.000000 0.000000
# 3 -0.004029 -0.001697 0.008075 0.000000 0.000000 0.000000
# 4 0.000000 0.000000 0.000000 0.040156 0.000000 0.000000
# 5 0.000000 0.000000 0.000000 0.000000 0.027489 0.000000
# 6 0.000000 0.000000 0.000000 0.000000 0.000000 0.052734
#
#
# Mechanical properties :
#
#
# Convention : Reuss Voigt Hill
#
# Bulk Modulus (GPa) = 39.28288 62.71804 51.00046
# Shear Modulus (GPa) = 27.77326 33.26537 30.51931
#
# Velocity S-wave (km/s) = 3.71844 4.06953 3.89794
# Velocity P-wave (km/s) = 6.16381 7.30105 6.75640
#
# Compressibility (1/GPa) = 0.02545638
#
# Stress axis : x y z
#
# Youngs Moduli (GPa) = 111.97189 46.93734 123.84447
#
# Poissons Ratio (x) = 0.03290 0.49899
# Poissons Ratio (y) = 0.07849 0.21015
# Poissons Ratio (z) = 0.45116 0.07965
#
# Static dielectric constant tensor:
#      x y z
#    x 3.714850 0.000000 0.000000 
#    y 0.000000 3.241770 0.000000 
#    z 0.000000 0.000000 3.981050 
# 
# 
# High freq. dielectric constant tensor:
#      x y z
#    x 1.783800 0.000000 0.000000 
#    y 0.000000 1.745160 0.000000 
#    z 0.000000 0.000000 1.802040 
# 
# From -- ./inp_files/33054.got.cif
#   From: 2010.03.12/outbox.cif.g09.slc.cpg/sg59_17_cif.got.tgz:33054.got - 2010.04.16 16:29:54.
