data_PCOD8242935
_publ_section_title
;
Structure prediction by ZEFSAII (Michael W. Deem and Ramdas Pophale) SiO2 
 PCOD8242935
Probable space group: P M M N
;
_chemical_formula_sum "Si O2"
_cell_formula_units_Z 48
_cell_length_a 20.454165
_cell_length_b 14.084062
_cell_length_c 9.101166
_cell_angle_alpha 90.000000
_cell_angle_beta 90.000000
_cell_angle_gamma 90.000000
_cell_volume 2621.843224
_symmetry_space_group_name_H-M "P M M N"
_symmetry_group_IT_number 59
_space_group.IT_coordinate_system_code '2'
_symmetry_cell_setting 'orthorhombic'
loop_
_space_group_symop_operation_xyz
x,y,z
1/2-x,1/2-y,z
1/2+x,-y,-z
-x,1/2+y,-z
-x,-y,-z
1/2+x,1/2+y,-z
1/2-x,y,z
x,1/2-y,z
loop_
_atom_site_type_symbol
_atom_site_label
_atom_site_fract_x
_atom_site_fract_y
_atom_site_fract_z
Si Si1 0.628684 0.144972 0.224377
Si Si2 0.578533 0.009442 0.984709
Si Si3 0.489014 0.854178 0.552160
Si Si4 0.076649 0.992097 0.347672
Si Si5 0.179071 0.484843 0.597745
Si Si6 0.172644 0.361824 0.862643
O O1 0.657368 0.250000 0.191252
O O2 0.574042 0.152260 0.347891
O O3 0.683057 0.075199 0.291585
O O4 0.599735 0.101769 0.075239
O O5 0.597705 0.031896 0.816910
O O6 0.621200 0.917077 0.032221
O O7 0.500000 0.000000 0.000000
O O8 0.513068 0.750000 0.504695
O O9 0.475742 0.914005 0.403609
O O10 0.544661 0.903827 0.649322
O O11 0.137632 0.993668 0.455088
O O12 0.250000 0.463783 0.534012
O O13 0.155443 0.394823 0.695569
O O14 0.250000 0.384688 0.897361
O O15 0.159192 0.250000 0.878656
#
# Coordination Sequence:
#
# PCOD8242935 Si02
#       6
#     8   8   8   8   8   8
#     4   9  18  34  54  75 103 141 180 217 265 327
#     4  11  21  34  53  83 118 147 182 229 284 333
#     4   9  18  33  51  72 103 140 176 218 264 315
#     4  10  20  33  51  78 109 137 179 221 274 328
#     4   9  19  36  56  77 102 138 183 230 271 321
#     4   9  20  39  59  79 109 151 192 227 274 340
#
# _framework density 18.307732000000001
#
# number of rings (size 3 to 8) (size 9 to 14) (size 15 to 20)
#    0.000    2.500    1.667    0.000    2.333    3.667 
#    0.000    0.000    0.000    2.000    0.000    4.667 
#    0.000    0.000    0.000    0.000    0.000    0.000 
#
# Total GULP energy -594796.063070 kJ/mol
# GULP energy per Si atom -12391.584647 kJ/mol
# Density = 1.826606 g / cm^3
# Si number density = 18.307732 Si / 1000 Ang^3
#
#
#
# Elastic Constant Matrix: (Units=GPa)
#
#
# Indices 1 2 3 4 5 6 
#
# 1 59.4574 20.1513 21.3215 0.0000 0.0000 0.0000
# 2 20.1513 128.0873 28.9954 0.0000 0.0000 0.0000
# 3 21.3215 28.9954 101.2989 0.0000 0.0000 0.0000
# 4 0.0000 0.0000 0.0000 18.4173 0.0000 0.0000
# 5 0.0000 0.0000 0.0000 0.0000 18.4505 0.0000
# 6 0.0000 0.0000 0.0000 0.0000 0.0000 22.3029
#
#
#
# Elastic Compliance Matrix: (Units=1/GPa)
#
#
# Indices 1 2 3 4 5 6 
#
# 1 0.018754 -0.002199 -0.003318 0.000000 0.000000 0.000000
# 2 -0.002199 0.008606 -0.002000 0.000000 0.000000 0.000000
# 3 -0.003318 -0.002000 0.011143 0.000000 0.000000 0.000000
# 4 0.000000 0.000000 0.000000 0.054297 0.000000 0.000000
# 5 0.000000 0.000000 0.000000 0.000000 0.054199 0.000000
# 6 0.000000 0.000000 0.000000 0.000000 0.000000 0.044837
#
#
# Mechanical properties :
#
#
# Convention : Reuss Voigt Hill
#
# Bulk Modulus (GPa) = 42.61223 47.75332 45.18277
# Shear Modulus (GPa) = 23.28901 26.39250 24.84075
#
# Velocity S-wave (km/s) = 3.57050 3.80096 3.68753
# Velocity P-wave (km/s) = 6.35012 6.73821 6.54704
#
# Compressibility (1/GPa) = 0.02346744
#
# Stress axis : x y z
#
# Youngs Moduli (GPa) = 53.32205 116.19757 89.74484
#
# Poissons Ratio (x) = 0.25556 0.29776
# Poissons Ratio (y) = 0.11728 0.17953
# Poissons Ratio (z) = 0.17691 0.23244
#
# Static dielectric constant tensor:
#      x y z
#    x 3.323920 0.000000 0.000000 
#    y 0.000000 3.765570 0.000000 
#    z 0.000000 0.000000 3.290140 
# 
# 
# High freq. dielectric constant tensor:
#      x y z
#    x 1.702260 0.000000 0.000000 
#    y 0.000000 1.712860 0.000000 
#    z 0.000000 0.000000 1.699450 
# 
# From -- ./inp_files/9178.got.cif
#   From: 2010.03.12/outbox.cif.g09.slc.cpg/sg59_5_cif.got.tgz:9178.got - 2010.04.16 16:29:54.
