data_PCOD8242983
_publ_section_title
;
Structure prediction by ZEFSAII (Michael W. Deem and Ramdas Pophale) SiO2 
 PCOD8242983
Probable space group: P M M N
;
_chemical_formula_sum "Si O2"
_cell_formula_units_Z 56
_cell_length_a 23.887012
_cell_length_b 8.905455
_cell_length_c 14.029023
_cell_angle_alpha 90.000000
_cell_angle_beta 90.000000
_cell_angle_gamma 90.000000
_cell_volume 2984.319856
_symmetry_space_group_name_H-M "P M M N"
_symmetry_group_IT_number 59
_space_group.IT_coordinate_system_code '2'
_symmetry_cell_setting 'orthorhombic'
loop_
_space_group_symop_operation_xyz
x,y,z
1/2-x,1/2-y,z
1/2+x,-y,-z
-x,1/2+y,-z
-x,-y,-z
1/2+x,1/2+y,-z
1/2-x,y,z
x,1/2-y,z
loop_
_atom_site_type_symbol
_atom_site_label
_atom_site_fract_x
_atom_site_fract_y
_atom_site_fract_z
Si Si1 0.586065 0.926743 0.169208
Si Si2 0.522961 0.927608 0.793695
Si Si3 0.129476 0.074811 0.326519
Si Si4 0.186504 0.573192 0.498923
Si Si5 0.187576 0.920405 0.160977
Si Si6 0.415577 0.574971 0.035301
Si Si7 0.686542 0.576255 0.304028
O O1 0.579589 0.750000 0.154075
O O2 0.644743 0.967888 0.218972
O O3 0.535058 0.990249 0.233893
O O4 0.582410 0.010944 0.069680
O O5 0.514679 0.750000 0.799080
O O6 0.568406 0.972363 0.713333
O O7 0.541264 0.986470 0.897732
O O8 0.133327 0.250000 0.344871
O O9 0.141661 0.993355 0.425612
O O10 0.175853 0.029205 0.249282
O O11 0.250000 0.520351 0.474152
O O12 0.181825 0.750000 0.495322
O O13 0.169814 0.519112 0.603831
O O14 0.250000 0.950481 0.123479
O O15 0.179948 0.750000 0.198151
O O16 0.147148 0.953358 0.072777
O O17 0.431871 0.750000 0.035213
O O18 0.750000 0.539785 0.270681
O O19 0.679995 0.750000 0.331573
#
# Coordination Sequence:
#
# PCOD8242983 Si02
#       7
#     8   8   8   8   8   8   8
#     4  11  22  36  56  79 103 135 174 215 262 310
#     4  10  21  37  55  77 106 138 176 218 257 304
#     4  10  20  33  52  78 106 138 174 212 257 309
#     4  10  20  34  55  82 109 138 172 211 256 307
#     4   9  18  32  49  73 106 140 174 213 258 308
#     4  10  20  34  53  76 105 141 178 217 260 307
#     4   9  20  39  59  79 105 136 172 215 259 306
#
# _framework density 18.764742999999999
#
# number of rings (size 3 to 8) (size 9 to 14) (size 15 to 20)
#    0.000    2.143    0.000    3.000    0.000    6.857 
#    0.000    0.714    0.000    0.000    0.000    0.000 
#    0.000    0.000    0.000    0.000    0.000    0.000 
#
# Total GULP energy -694517.828722 kJ/mol
# GULP energy per Si atom -12402.104084 kJ/mol
# Density = 1.872203 g / cm^3
# Si number density = 18.764743 Si / 1000 Ang^3
#
#
#
# Elastic Constant Matrix: (Units=GPa)
#
#
# Indices 1 2 3 4 5 6 
#
# 1 109.3064 26.1799 37.8956 0.0000 0.0000 0.0000
# 2 26.1799 51.9319 23.1408 0.0000 0.0000 0.0000
# 3 37.8956 23.1408 69.6266 0.0000 0.0000 0.0000
# 4 0.0000 0.0000 0.0000 31.1572 0.0000 0.0000
# 5 0.0000 0.0000 0.0000 0.0000 22.3099 0.0000
# 6 0.0000 0.0000 0.0000 0.0000 0.0000 28.3044
#
#
#
# Elastic Compliance Matrix: (Units=1/GPa)
#
#
# Indices 1 2 3 4 5 6 
#
# 1 0.011833 -0.003634 -0.005233 0.000000 0.000000 0.000000
# 2 -0.003634 0.023719 -0.005906 0.000000 0.000000 0.000000
# 3 -0.005233 -0.005906 0.019173 0.000000 0.000000 0.000000
# 4 0.000000 0.000000 0.000000 0.032095 0.000000 0.000000
# 5 0.000000 0.000000 0.000000 0.000000 0.044823 0.000000
# 6 0.000000 0.000000 0.000000 0.000000 0.000000 0.035330
#
#
# Mechanical properties :
#
#
# Convention : Reuss Voigt Hill
#
# Bulk Modulus (GPa) = 39.71152 45.03307 42.37230
# Shear Modulus (GPa) = 24.40076 25.93086 25.16581
#
# Velocity S-wave (km/s) = 3.60995 3.72141 3.66611
# Velocity P-wave (km/s) = 6.21164 6.52044 6.36791
#
# Compressibility (1/GPa) = 0.02518161
#
# Stress axis : x y z
#
# Youngs Moduli (GPa) = 84.50941 42.15983 52.15641
#
# Poissons Ratio (x) = 0.15319 0.27292
# Poissons Ratio (y) = 0.30707 0.30802
# Poissons Ratio (z) = 0.44221 0.24898
#
# Static dielectric constant tensor:
#      x y z
#    x 3.749390 0.000000 0.000000 
#    y 0.000000 3.520110 0.000000 
#    z 0.000000 0.000000 3.243790 
# 
# 
# High freq. dielectric constant tensor:
#      x y z
#    x 1.734690 0.000000 0.000000 
#    y 0.000000 1.738310 0.000000 
#    z 0.000000 0.000000 1.712320 
# 
# From -- ./inp_files/24263.got.cif
#   From: 2010.03.12/outbox.cif.g09.slc.cpg/sg59_13_cif.got.tgz:24263.got - 2010.04.16 16:29:54.
