data_PCOD8242881
_publ_section_title
;
Structure prediction by ZEFSAII (Michael W. Deem and Ramdas Pophale) SiO2 
 PCOD8242881
Probable space group: P M M N
;
_chemical_formula_sum "Si O2"
_cell_formula_units_Z 40
_cell_length_a 8.763530
_cell_length_b 9.171099
_cell_length_c 25.666878
_cell_angle_alpha 90.000000
_cell_angle_beta 90.000000
_cell_angle_gamma 90.000000
_cell_volume 2062.877816
_symmetry_space_group_name_H-M "P M M N"
_symmetry_group_IT_number 59
_space_group.IT_coordinate_system_code '2'
_symmetry_cell_setting 'orthorhombic'
loop_
_space_group_symop_operation_xyz
x,y,z
1/2-x,1/2-y,z
1/2+x,-y,-z
-x,1/2+y,-z
-x,-y,-z
1/2+x,1/2+y,-z
1/2-x,y,z
x,1/2-y,z
loop_
_atom_site_type_symbol
_atom_site_label
_atom_site_fract_x
_atom_site_fract_y
_atom_site_fract_z
Si Si1 0.931061 0.411017 0.353617
Si Si2 0.931061 0.914908 0.452044
Si Si3 0.073068 0.579066 0.762865
Si Si4 0.570030 0.416248 0.048318
Si Si5 0.072103 0.919136 0.143780
O O1 0.750000 0.403302 0.355657
O O2 0.998190 0.250000 0.364864
O O3 0.994396 0.519491 0.397714
O O4 0.978679 0.462824 0.295828
O O5 0.750000 0.926408 0.454466
O O6 0.988709 0.750000 0.455072
O O7 0.000000 0.000000 0.500000
O O8 0.250000 0.540063 0.772411
O O9 0.045690 0.750000 0.773412
O O10 0.967719 0.482554 0.799813
O O11 0.750000 0.420123 0.042712
O O12 0.510113 0.250000 0.048663
O O13 0.523777 0.493344 0.101513
O O14 0.500000 0.500000 0.000000
O O15 0.250000 0.940596 0.132308
O O16 0.026012 0.750000 0.141423
#
# Coordination Sequence:
#
# PCOD8242881 Si02
#       5
#     8   8   8   8   8
#     4   8  15  30  52  76 103 135 172 217 267 318
#     4  10  20  33  51  76 104 136 176 219 265 320
#     4   9  18  34  57  83 107 135 176 222 268 321
#     4  11  24  41  62  88 115 144 182 225 268 318
#     4  11  24  39  55  80 114 149 185 223 264 314
#
# _framework density 19.390388999999999
#
# number of rings (size 3 to 8) (size 9 to 14) (size 15 to 20)
#    0.000    2.200    0.000    4.200    0.000   10.400 
#    0.000    3.000    0.000    1.200    0.000    0.000 
#    0.000    0.000    0.000    0.000    0.000    0.000 
#
# Total GULP energy -496034.177764 kJ/mol
# GULP energy per Si atom -12400.854444 kJ/mol
# Density = 1.934626 g / cm^3
# Si number density = 19.390389 Si / 1000 Ang^3
#
#
#
# Elastic Constant Matrix: (Units=GPa)
#
#
# Indices 1 2 3 4 5 6 
#
# 1 35.6751 36.3537 25.4689 0.0000 0.0000 0.0000
# 2 36.3537 151.9754 89.1790 0.0000 0.0000 0.0000
# 3 25.4689 89.1790 156.9369 0.0000 0.0000 0.0000
# 4 0.0000 0.0000 0.0000 43.2454 0.0000 0.0000
# 5 0.0000 0.0000 0.0000 0.0000 33.6528 0.0000
# 6 0.0000 0.0000 0.0000 0.0000 0.0000 28.0535
#
#
#
# Elastic Compliance Matrix: (Units=1/GPa)
#
#
# Indices 1 2 3 4 5 6 
#
# 1 0.037292 -0.008055 -0.001475 0.000000 0.000000 0.000000
# 2 -0.008055 0.011612 -0.005291 0.000000 0.000000 0.000000
# 3 -0.001475 -0.005291 0.009618 0.000000 0.000000 0.000000
# 4 0.000000 0.000000 0.000000 0.023124 0.000000 0.000000
# 5 0.000000 0.000000 0.000000 0.000000 0.029715 0.000000
# 6 0.000000 0.000000 0.000000 0.000000 0.000000 0.035646
#
#
# Mechanical properties :
#
#
# Convention : Reuss Voigt Hill
#
# Bulk Modulus (GPa) = 34.62639 71.84339 53.23489
# Shear Modulus (GPa) = 26.84202 33.89605 30.36903
#
# Velocity S-wave (km/s) = 3.72465 4.18555 3.96181
# Velocity P-wave (km/s) = 6.03271 7.77752 6.96001
#
# Compressibility (1/GPa) = 0.02887971
#
# Stress axis : x y z
#
# Youngs Moduli (GPa) = 26.81546 86.12035 103.97253
#
# Poissons Ratio (x) = 0.69372 0.15332
# Poissons Ratio (y) = 0.21600 0.55012
# Poissons Ratio (z) = 0.03954 0.45567
#
# Static dielectric constant tensor:
#      x y z
#    x 3.273720 0.000000 0.000000 
#    y 0.000000 3.689770 0.000000 
#    z 0.000000 0.000000 3.832440 
# 
# 
# High freq. dielectric constant tensor:
#      x y z
#    x 1.729530 0.000000 0.000000 
#    y 0.000000 1.762230 0.000000 
#    z 0.000000 0.000000 1.773510 
# 
# From -- ./inp_files/31118.got.cif
#   From: 2010.03.12/outbox.cif.g09.slc.cpg/sg59_16_cif.got.tgz:31118.got - 2010.04.16 16:29:54.
