data_PCOD8242673
_publ_section_title
;
Structure prediction by ZEFSAII (Michael W. Deem and Ramdas Pophale) SiO2 
 PCOD8242673
Probable space group: P M M N
;
_chemical_formula_sum "Si O2"
_cell_formula_units_Z 56
_cell_length_a 9.086669
_cell_length_b 19.138455
_cell_length_c 19.395568
_cell_angle_alpha 90.000000
_cell_angle_beta 90.000000
_cell_angle_gamma 90.000000
_cell_volume 3372.982486
_symmetry_space_group_name_H-M "P M M N"
_symmetry_group_IT_number 59
_space_group.IT_coordinate_system_code '2'
_symmetry_cell_setting 'orthorhombic'
loop_
_space_group_symop_operation_xyz
x,y,z
1/2-x,1/2-y,z
1/2+x,-y,-z
-x,1/2+y,-z
-x,-y,-z
1/2+x,1/2+y,-z
1/2-x,y,z
x,1/2-y,z
loop_
_atom_site_type_symbol
_atom_site_label
_atom_site_fract_x
_atom_site_fract_y
_atom_site_fract_z
Si Si1 0.077148 0.427029 0.312047
Si Si2 0.575459 0.827614 0.806302
Si Si3 0.422979 0.422690 0.069600
Si Si4 0.422663 0.583245 0.071144
Si Si5 0.583774 0.557923 0.295861
Si Si6 0.922423 0.670405 0.189206
Si Si7 0.583080 0.011621 0.429535
O O1 0.250000 0.430266 0.325159
O O2 0.029934 0.360011 0.267398
O O3 0.026352 0.496689 0.269542
O O4 0.993702 0.425188 0.386118
O O5 0.750000 0.825368 0.811418
O O6 0.507728 0.750000 0.811569
O O7 0.515667 0.875071 0.868448
O O8 0.250000 0.412776 0.056728
O O9 0.459850 0.502790 0.088336
O O10 0.507557 0.396810 0.002030
O O11 0.250000 0.597157 0.067948
O O12 0.491587 0.632877 0.128372
O O13 0.750000 0.537895 0.273451
O O14 0.540146 0.631808 0.261851
O O15 0.574888 0.558169 0.380373
O O16 0.750000 0.667265 0.172450
O O17 0.976929 0.750000 0.196439
O O18 0.750000 0.032634 0.446422
O O19 0.500000 0.000000 0.500000
#
# Coordination Sequence:
#
# PCOD8242673 Si02
#       7
#     8   8   8   8   8   8   8
#     4   9  16  28  49  74  98 126 157 195 239 283
#     4   9  17  29  47  71  97 125 163 204 237 280
#     4   9  18  33  51  70  94 129 168 205 246 292
#     4  10  20  33  49  71  97 125 162 210 255 293
#     4   8  17  31  48  71  97 123 156 197 236 280
#     4  10  20  34  51  70  95 129 165 201 245 298
#     4   9  17  30  50  77 102 126 157 196 237 277
#
# _framework density 16.602518
#
# number of rings (size 3 to 8) (size 9 to 14) (size 15 to 20)
#    0.857    2.000    0.000    1.714    0.000    3.143 
#    0.000    2.857    0.000    4.286    0.000    4.000 
#    0.000    0.000    0.000    0.000    0.000    0.000 
#
# Total GULP energy -693845.555850 kJ/mol
# GULP energy per Si atom -12390.099212 kJ/mol
# Density = 1.656473 g / cm^3
# Si number density = 16.602518 Si / 1000 Ang^3
#
#
#
# Elastic Constant Matrix: (Units=GPa)
#
#
# Indices 1 2 3 4 5 6 
#
# 1 68.4836 37.1162 49.1916 0.0000 0.0000 0.0000
# 2 37.1162 102.4656 65.7395 0.0000 0.0000 0.0000
# 3 49.1916 65.7395 128.3405 0.0000 0.0000 0.0000
# 4 0.0000 0.0000 0.0000 10.9083 0.0000 0.0000
# 5 0.0000 0.0000 0.0000 0.0000 26.9385 0.0000
# 6 0.0000 0.0000 0.0000 0.0000 0.0000 18.4097
#
#
#
# Elastic Compliance Matrix: (Units=1/GPa)
#
#
# Indices 1 2 3 4 5 6 
#
# 1 0.021024 -0.003643 -0.006193 0.000000 0.000000 0.000000
# 2 -0.003643 0.015168 -0.006373 0.000000 0.000000 0.000000
# 3 -0.006193 -0.006373 0.013430 0.000000 0.000000 0.000000
# 4 0.000000 0.000000 0.000000 0.091673 0.000000 0.000000
# 5 0.000000 0.000000 0.000000 0.000000 0.037122 0.000000
# 6 0.000000 0.000000 0.000000 0.000000 0.000000 0.054319
#
#
# Mechanical properties :
#
#
# Convention : Reuss Voigt Hill
#
# Bulk Modulus (GPa) = 58.12198 67.04269 62.58233
# Shear Modulus (GPa) = 18.45785 21.06746 19.76265
#
# Velocity S-wave (km/s) = 3.33791 3.56607 3.45387
# Velocity P-wave (km/s) = 7.06678 7.57790 7.32680
#
# Compressibility (1/GPa) = 0.01720519
#
# Stress axis : x y z
#
# Youngs Moduli (GPa) = 47.56386 65.92958 74.46132
#
# Poissons Ratio (x) = 0.24016 0.46110
# Poissons Ratio (y) = 0.17326 0.47455
# Poissons Ratio (z) = 0.29454 0.42018
#
# Static dielectric constant tensor:
#      x y z
#    x 3.053890 0.000000 0.000000 
#    y 0.000000 3.116380 0.000000 
#    z 0.000000 0.000000 3.082950 
# 
# 
# High freq. dielectric constant tensor:
#      x y z
#    x 1.635210 0.000000 0.000000 
#    y 0.000000 1.615440 0.000000 
#    z 0.000000 0.000000 1.636360 
# 
# From -- ./inp_files/29282.got.cif
#   From: 2010.03.12/outbox.cif.g09.slc.cpg/sg59_15_cif.got.tgz:29282.got - 2010.04.16 16:29:54.
