data_PCOD8242501
_publ_section_title
;
Structure prediction by ZEFSAII (Michael W. Deem and Ramdas Pophale) SiO2 
 PCOD8242501
Probable space group: P M M N
;
_chemical_formula_sum "Si O2"
_cell_formula_units_Z 56
_cell_length_a 15.433318
_cell_length_b 8.846156
_cell_length_c 19.978681
_cell_angle_alpha 90.000000
_cell_angle_beta 90.000000
_cell_angle_gamma 90.000000
_cell_volume 2727.600185
_symmetry_space_group_name_H-M "P M M N"
_symmetry_group_IT_number 59
_space_group.IT_coordinate_system_code '2'
_symmetry_cell_setting 'orthorhombic'
loop_
_space_group_symop_operation_xyz
x,y,z
1/2-x,1/2-y,z
1/2+x,-y,-z
-x,1/2+y,-z
-x,-y,-z
1/2+x,1/2+y,-z
1/2-x,y,z
x,1/2-y,z
loop_
_atom_site_type_symbol
_atom_site_label
_atom_site_fract_x
_atom_site_fract_y
_atom_site_fract_z
Si Si1 0.899627 0.585206 0.566005
Si Si2 0.851311 0.421715 0.698367
Si Si3 0.151608 0.572419 0.697754
Si Si4 0.902168 0.415580 0.440907
Si Si5 0.148245 0.571432 0.844431
Si Si6 0.497925 0.929588 0.072724
Si Si7 0.149363 0.428140 0.163060
O O1 0.856610 0.750000 0.578912
O O2 0.896529 0.485869 0.632560
O O3 0.854972 0.506331 0.501328
O O4 0.997778 0.607086 0.543632
O O5 0.750000 0.431429 0.685397
O O6 0.881876 0.250000 0.710324
O O7 0.878057 0.519903 0.762659
O O8 0.250000 0.526116 0.690466
O O9 0.136659 0.750000 0.698714
O O10 0.105721 0.502020 0.631966
O O11 0.118899 0.514381 0.770102
O O12 0.856925 0.250000 0.438095
O O13 0.250000 0.536245 0.857368
O O14 0.131436 0.750000 0.853503
O O15 0.088501 0.477462 0.894058
O O16 0.492343 0.750000 0.068728
O O17 0.412615 0.989651 0.110483
O O18 0.500000 0.000000 0.000000
O O19 0.250000 0.471574 0.148475
O O20 0.134792 0.250000 0.157592
#
# Coordination Sequence:
#
# PCOD8242501 Si02
#       7
#     8   8   8   8   8   8   8
#     4  10  20  32  48  74 108 149 193 242 294 344
#     4  10  21  37  57  82 112 148 192 241 294 355
#     4   8  15  30  54  81 106 139 187 237 288 345
#     4   9  18  32  49  73 106 148 193 238 289 345
#     4   9  19  38  64  93 125 161 202 252 305 359
#     4  12  26  43  65  95 127 164 204 245 295 358
#     4  10  22  42  67  94 125 160 200 251 307 363
#
# _framework density 20.530868000000002
#
# number of rings (size 3 to 8) (size 9 to 14) (size 15 to 20)
#    0.000    2.286    0.000    3.429    2.000    3.714 
#    0.000    2.143    0.000    0.857    0.000    0.000 
#    0.000    0.000    0.000    0.000    0.000    0.000 
#
# Total GULP energy -693957.774403 kJ/mol
# GULP energy per Si atom -12392.103114 kJ/mol
# Density = 2.048414 g / cm^3
# Si number density = 20.530868 Si / 1000 Ang^3
#
#
#
# Elastic Constant Matrix: (Units=GPa)
#
#
# Indices 1 2 3 4 5 6 
#
# 1 68.1129 42.9594 59.8255 0.0000 0.0000 0.0000
# 2 42.9594 121.8442 66.9385 0.0000 0.0000 0.0000
# 3 59.8255 66.9385 189.5096 0.0000 0.0000 0.0000
# 4 0.0000 0.0000 0.0000 35.9165 0.0000 0.0000
# 5 0.0000 0.0000 0.0000 0.0000 -43.9577 0.0000
# 6 0.0000 0.0000 0.0000 0.0000 0.0000 21.9214
#
#
#
# Elastic Compliance Matrix: (Units=1/GPa)
#
#
# Indices 1 2 3 4 5 6 
#
# 1 0.022535 -0.005009 -0.005345 0.000000 0.000000 0.000000
# 2 -0.005009 0.011297 -0.002409 0.000000 0.000000 0.000000
# 3 -0.005345 -0.002409 0.007815 0.000000 0.000000 0.000000
# 4 0.000000 0.000000 0.000000 0.027842 0.000000 0.000000
# 5 0.000000 0.000000 0.000000 0.000000 -0.022749 0.000000
# 6 0.000000 0.000000 0.000000 0.000000 0.000000 0.045618
#
#
# Mechanical properties :
#
#
# Convention : Reuss Voigt Hill
#
# Bulk Modulus (GPa) = 62.02966 79.87928 70.95447
# Shear Modulus (GPa) = 40.56568 16.75892 28.66230
#
# Velocity S-wave (km/s) = 4.44986 2.86016 3.74044
# Velocity P-wave (km/s) = 7.52862 7.06390 7.29996
#
# Compressibility (1/GPa) = 0.01612132
#
# Stress axis : x y z
#
# Youngs Moduli (GPa) = 44.37498 88.52150 127.96051
#
# Poissons Ratio (x) = 0.44341 0.68392
# Poissons Ratio (y) = 0.22228 0.30824
# Poissons Ratio (z) = 0.23717 0.21324
#
# Static dielectric constant tensor:
#      x y z
#    x 3.579550 0.000000 0.000000 
#    y 0.000000 3.839020 0.000000 
#    z 0.000000 0.000000 3.963200 
# 
# 
# High freq. dielectric constant tensor:
#      x y z
#    x 1.792060 0.000000 0.000000 
#    y 0.000000 1.788890 0.000000 
#    z 0.000000 0.000000 1.816130 
# 
# From -- ./inp_files/30389.got.cif
#   From: 2010.03.12/outbox.cif.g09.slc.cpg/sg59_16_cif.got.tgz:30389.got - 2010.04.16 16:29:54.
