data_PCOD8242613
_publ_section_title
;
Structure prediction by ZEFSAII (Michael W. Deem and Ramdas Pophale) SiO2 
 PCOD8242613
Probable space group: P M M N
;
_chemical_formula_sum "Si O2"
_cell_formula_units_Z 48
_cell_length_a 19.181452
_cell_length_b 8.968613
_cell_length_c 15.038762
_cell_angle_alpha 90.000000
_cell_angle_beta 90.000000
_cell_angle_gamma 90.000000
_cell_volume 2587.133563
_symmetry_space_group_name_H-M "P M M N"
_symmetry_group_IT_number 59
_space_group.IT_coordinate_system_code '2'
_symmetry_cell_setting 'orthorhombic'
loop_
_space_group_symop_operation_xyz
x,y,z
1/2-x,1/2-y,z
1/2+x,-y,-z
-x,1/2+y,-z
-x,-y,-z
1/2+x,1/2+y,-z
1/2-x,y,z
x,1/2-y,z
loop_
_atom_site_type_symbol
_atom_site_label
_atom_site_fract_x
_atom_site_fract_y
_atom_site_fract_z
Si Si1 0.671311 0.078882 0.720485
Si Si2 0.934924 0.426736 0.176016
Si Si3 0.589302 0.925267 0.868689
Si Si4 0.586555 0.080062 0.557495
Si Si5 0.170325 0.572684 0.970621
Si Si6 0.952790 0.424679 0.370801
O O1 0.750000 0.029895 0.739195
O O2 0.658745 0.250000 0.750348
O O3 0.656983 0.061685 0.614573
O O4 0.620774 0.969646 0.773647
O O5 0.931611 0.250000 0.179489
O O6 0.871036 0.487139 0.116285
O O7 0.927391 0.493985 0.276381
O O8 0.008306 0.475293 0.131318
O O9 0.597287 0.750000 0.883810
O O10 0.632026 0.010980 0.943283
O O11 0.559320 0.250000 0.559492
O O12 0.598727 0.033881 0.453635
O O13 0.529078 0.980143 0.604631
O O14 0.250000 0.514616 0.966262
O O15 0.168599 0.750000 0.976109
O O16 0.958235 0.250000 0.355954
#
# Coordination Sequence:
#
# PCOD8242613 Si02
#       6
#     8   8   8   8   8   8
#     4  10  20  33  48  71 106 140 169 205 251 302
#     4   9  18  33  53  77 101 128 165 209 251 295
#     4  11  21  34  53  76 100 129 168 213 255 298
#     4   9  17  29  48  73  99 130 165 200 242 291
#     4  10  21  37  54  72  99 134 167 203 253 308
#     4   9  16  30  51  73  99 127 160 204 246 286
#
# _framework density 18.553352
#
# number of rings (size 3 to 8) (size 9 to 14) (size 15 to 20)
#    0.000    2.333    1.667    1.500    0.000    2.667 
#    0.000    2.500    0.000    5.000    0.000    0.000 
#    0.000    4.000    0.000    0.000    0.000    0.000 
#
# Total GULP energy -594879.347088 kJ/mol
# GULP energy per Si atom -12393.319731 kJ/mol
# Density = 1.851112 g / cm^3
# Si number density = 18.553352 Si / 1000 Ang^3
#
#
#
# Elastic Constant Matrix: (Units=GPa)
#
#
# Indices 1 2 3 4 5 6 
#
# 1 104.2460 14.8471 69.5822 0.0000 0.0000 0.0000
# 2 14.8471 13.2863 17.0100 0.0000 0.0000 0.0000
# 3 69.5822 17.0100 148.5681 0.0000 0.0000 0.0000
# 4 0.0000 0.0000 0.0000 20.4319 0.0000 0.0000
# 5 0.0000 0.0000 0.0000 0.0000 24.7673 0.0000
# 6 0.0000 0.0000 0.0000 0.0000 0.0000 19.1921
#
#
#
# Elastic Compliance Matrix: (Units=1/GPa)
#
#
# Indices 1 2 3 4 5 6 
#
# 1 0.014819 -0.008992 -0.005911 0.000000 0.000000 0.000000
# 2 -0.008992 0.093650 -0.006511 0.000000 0.000000 0.000000
# 3 -0.005911 -0.006511 0.010245 0.000000 0.000000 0.000000
# 4 0.000000 0.000000 0.000000 0.048943 0.000000 0.000000
# 5 0.000000 0.000000 0.000000 0.000000 0.040376 0.000000
# 6 0.000000 0.000000 0.000000 0.000000 0.000000 0.052105
#
#
# Mechanical properties :
#
#
# Convention : Reuss Voigt Hill
#
# Bulk Modulus (GPa) = 13.17771 52.10877 32.64324
# Shear Modulus (GPa) = 15.23185 23.85567 19.54376
#
# Velocity S-wave (km/s) = 2.86838 3.58968 3.24911
# Velocity P-wave (km/s) = 4.25301 6.73260 5.63099
#
# Compressibility (1/GPa) = 0.07588573
#
# Stress axis : x y z
#
# Youngs Moduli (GPa) = 67.48199 10.67809 97.61115
#
# Poissons Ratio (x) = 0.09602 0.57697
# Poissons Ratio (y) = 0.60680 0.63553
# Poissons Ratio (z) = 0.39888 0.06952
#
# Static dielectric constant tensor:
#      x y z
#    x 3.427360 0.000000 0.000000 
#    y 0.000000 3.192220 0.000000 
#    z 0.000000 0.000000 3.922350 
# 
# 
# High freq. dielectric constant tensor:
#      x y z
#    x 1.700360 0.000000 0.000000 
#    y 0.000000 1.694900 0.000000 
#    z 0.000000 0.000000 1.739240 
# 
# From -- ./inp_files/20406.got.cif
#   From: 2010.03.12/outbox.cif.g09.slc.cpg/sg59_11_cif.got.tgz:20406.got - 2010.04.16 16:29:54.
