data_PCOD8242994
_publ_section_title
;
Structure prediction by ZEFSAII (Michael W. Deem and Ramdas Pophale) SiO2 
 PCOD8242994
Probable space group: P M M N
;
_chemical_formula_sum "Si O2"
_cell_formula_units_Z 48
_cell_length_a 9.290575
_cell_length_b 8.927397
_cell_length_c 30.758231
_cell_angle_alpha 90.000000
_cell_angle_beta 90.000000
_cell_angle_gamma 90.000000
_cell_volume 2551.107715
_symmetry_space_group_name_H-M "P M M N"
_symmetry_group_IT_number 59
_space_group.IT_coordinate_system_code '2'
_symmetry_cell_setting 'orthorhombic'
loop_
_space_group_symop_operation_xyz
x,y,z
1/2-x,1/2-y,z
1/2+x,-y,-z
-x,1/2+y,-z
-x,-y,-z
1/2+x,1/2+y,-z
1/2-x,y,z
x,1/2-y,z
loop_
_atom_site_type_symbol
_atom_site_label
_atom_site_fract_x
_atom_site_fract_y
_atom_site_fract_z
Si Si1 0.409965 0.928118 0.366525
Si Si2 0.918466 0.420046 0.538186
Si Si3 0.417133 0.573414 0.960321
Si Si4 0.916224 0.425287 0.883168
Si Si5 0.585028 0.576456 0.792892
Si Si6 0.918969 0.923364 0.283556
O O1 0.250000 0.987226 0.354728
O O2 0.406492 0.750000 0.369500
O O3 0.457303 0.989388 0.414152
O O4 0.519655 0.982788 0.329507
O O5 0.750000 0.435506 0.529853
O O6 0.969741 0.250000 0.536986
O O7 0.000000 0.500000 0.500000
O O8 0.250000 0.529037 0.963020
O O9 0.438881 0.750000 0.962765
O O10 0.481457 0.513765 0.915574
O O11 0.500000 0.500000 0.000000
O O12 0.750000 0.460306 0.894526
O O13 0.948951 0.250000 0.886731
O O14 0.954750 0.480176 0.835082
O O15 0.750000 0.548428 0.779265
O O16 0.556097 0.750000 0.803223
O O17 0.483819 0.523660 0.754275
O O18 0.750000 0.947079 0.284317
O O19 0.961198 0.750000 0.275887
#
# Coordination Sequence:
#
# PCOD8242994 Si02
#       6
#     8   8   8   8   8   8
#     4   8  15  30  51  72  97 132 173 215 257 305
#     4   9  18  32  50  74 102 132 169 212 258 310
#     4  11  24  40  59  85 116 150 187 226 270 319
#     4  10  21  38  61  87 112 141 181 226 270 317
#     4  10  21  37  57  80 107 142 180 216 260 315
#     4  10  20  33  52  79 106 133 170 216 264 313
#
# _framework density 18.815356000000001
#
# number of rings (size 3 to 8) (size 9 to 14) (size 15 to 20)
#    0.000    2.333    0.000    3.500    0.000    8.000 
#    0.000    2.500    0.000    1.000    0.000    0.000 
#    0.000    0.000    0.000    0.000    0.000    0.000 
#
# Total GULP energy -595206.155370 kJ/mol
# GULP energy per Si atom -12400.128237 kJ/mol
# Density = 1.877253 g / cm^3
# Si number density = 18.815356 Si / 1000 Ang^3
#
#
#
# Elastic Constant Matrix: (Units=GPa)
#
#
# Indices 1 2 3 4 5 6 
#
# 1 98.7218 47.7486 76.3746 0.0000 0.0000 0.0000
# 2 47.7486 58.9331 41.6321 0.0000 0.0000 0.0000
# 3 76.3746 41.6321 136.6897 0.0000 0.0000 0.0000
# 4 0.0000 0.0000 0.0000 33.8791 0.0000 0.0000
# 5 0.0000 0.0000 0.0000 0.0000 41.2480 0.0000
# 6 0.0000 0.0000 0.0000 0.0000 0.0000 28.9064
#
#
#
# Elastic Compliance Matrix: (Units=1/GPa)
#
#
# Indices 1 2 3 4 5 6 
#
# 1 0.023210 -0.012288 -0.009226 0.000000 0.000000 0.000000
# 2 -0.012288 0.028126 -0.001701 0.000000 0.000000 0.000000
# 3 -0.009226 -0.001701 0.012989 0.000000 0.000000 0.000000
# 4 0.000000 0.000000 0.000000 0.029517 0.000000 0.000000
# 5 0.000000 0.000000 0.000000 0.000000 0.024244 0.000000
# 6 0.000000 0.000000 0.000000 0.000000 0.000000 0.034594
#
#
# Mechanical properties :
#
#
# Convention : Reuss Voigt Hill
#
# Bulk Modulus (GPa) = 55.87924 69.53947 62.70935
# Shear Modulus (GPa) = 24.38150 29.37933 26.88041
#
# Velocity S-wave (km/s) = 3.60367 3.95581 3.78384
# Velocity P-wave (km/s) = 6.86137 7.60945 7.24507
#
# Compressibility (1/GPa) = 0.01789573
#
# Stress axis : x y z
#
# Youngs Moduli (GPa) = 43.08427 35.55490 76.98948
#
# Poissons Ratio (x) = 0.43689 0.71031
# Poissons Ratio (y) = 0.52941 0.13092
# Poissons Ratio (z) = 0.39750 0.06046
#
# Static dielectric constant tensor:
#      x y z
#    x 3.254010 0.000000 0.000000 
#    y 0.000000 3.338050 0.000000 
#    z 0.000000 0.000000 3.695400 
# 
# 
# High freq. dielectric constant tensor:
#      x y z
#    x 1.728860 0.000000 0.000000 
#    y 0.000000 1.715750 0.000000 
#    z 0.000000 0.000000 1.747780 
# 
# From -- ./inp_files/32838.got.cif
#   From: 2010.03.12/outbox.cif.g09.slc.cpg/sg59_17_cif.got.tgz:32838.got - 2010.04.16 16:29:54.
