data_PCOD8242544
_publ_section_title
;
Structure prediction by ZEFSAII (Michael W. Deem and Ramdas Pophale) SiO2 
 PCOD8242544
Probable space group: P M M N
;
_chemical_formula_sum "Si O2"
_cell_formula_units_Z 64
_cell_length_a 19.450766
_cell_length_b 9.558025
_cell_length_c 19.185977
_cell_angle_alpha 90.000000
_cell_angle_beta 90.000000
_cell_angle_gamma 90.000000
_cell_volume 3566.882399
_symmetry_space_group_name_H-M "P M M N"
_symmetry_group_IT_number 59
_space_group.IT_coordinate_system_code '2'
_symmetry_cell_setting 'orthorhombic'
loop_
_space_group_symop_operation_xyz
x,y,z
1/2-x,1/2-y,z
1/2+x,-y,-z
-x,1/2+y,-z
-x,-y,-z
1/2+x,1/2+y,-z
1/2-x,y,z
x,1/2-y,z
loop_
_atom_site_type_symbol
_atom_site_label
_atom_site_fract_x
_atom_site_fract_y
_atom_site_fract_z
Si Si1 0.538256 0.584563 0.208500
Si Si2 0.669681 0.590048 0.438077
Si Si3 0.064289 0.908761 0.480540
Si Si4 0.673946 0.408255 0.886696
Si Si5 0.673885 0.916269 0.279325
Si Si6 0.472472 0.911791 0.063443
Si Si7 0.574295 0.094344 0.682230
Si Si8 0.171631 0.095468 0.246454
O O1 0.541844 0.750000 0.205446
O O2 0.615234 0.525777 0.225970
O O3 0.507282 0.529816 0.134990
O O4 0.489554 0.537105 0.272113
O O5 0.750000 0.580946 0.454888
O O6 0.643529 0.750000 0.448928
O O7 0.632216 0.484971 0.490952
O O8 0.655244 0.540816 0.358621
O O9 0.061466 0.750000 0.510432
O O10 0.058453 0.902301 0.398142
O O11 0.000000 0.000000 0.500000
O O12 0.750000 0.435815 0.920914
O O13 0.670904 0.250000 0.857271
O O14 0.610557 0.431059 0.939149
O O15 0.660571 0.513955 0.824775
O O16 0.750000 0.975158 0.258590
O O17 0.676451 0.750000 0.276226
O O18 0.492301 0.750000 0.052986
O O19 0.500000 0.000000 0.000000
O O20 0.594312 0.250000 0.708639
O O21 0.636728 0.987957 0.691215
O O22 0.250000 0.106743 0.267897
O O23 0.139459 0.250000 0.237996
#
# Coordination Sequence:
#
# PCOD8242544 Si02
#       8
#     8   8   8   8   8   8   8   8
#     4   9  16  30  51  73  98 128 170 217 255 300
#     4   9  18  34  55  77 105 142 180 219 267 324
#     4  11  23  36  53  76 105 140 180 227 275 323
#     4   9  17  33  56  76 100 140 182 210 243 305
#     4   8  14  27  51  79 102 130 170 213 258 310
#     4  10  20  34  53  78 107 139 174 215 264 313
#     4  10  20  35  53  72  97 136 181 220 256 308
#     4  10  20  32  49  77 108 133 163 212 266 308
#
# _framework density 17.94284
#
# number of rings (size 3 to 8) (size 9 to 14) (size 15 to 20)
#    0.000    2.500    1.250    2.250    0.000    5.000 
#    0.000    3.125    0.000    1.500    0.000    0.000 
#    0.000    0.000    0.000    0.000    0.000    0.000 
#
# Total GULP energy -793099.926912 kJ/mol
# GULP energy per Si atom -12392.186358 kJ/mol
# Density = 1.790200 g / cm^3
# Si number density = 17.942840 Si / 1000 Ang^3
#
#
#
# Elastic Constant Matrix: (Units=GPa)
#
#
# Indices 1 2 3 4 5 6 
#
# 1 109.8160 50.5735 61.3117 0.0000 0.0000 0.0000
# 2 50.5735 92.6924 37.1582 0.0000 0.0000 0.0000
# 3 61.3117 37.1582 90.4060 0.0000 0.0000 0.0000
# 4 0.0000 0.0000 0.0000 24.9302 0.0000 0.0000
# 5 0.0000 0.0000 0.0000 0.0000 27.6487 0.0000
# 6 0.0000 0.0000 0.0000 0.0000 0.0000 23.4874
#
#
#
# Elastic Compliance Matrix: (Units=1/GPa)
#
#
# Indices 1 2 3 4 5 6 
#
# 1 0.016689 -0.005470 -0.009070 0.000000 0.000000 0.000000
# 2 -0.005470 0.014709 -0.002336 0.000000 0.000000 0.000000
# 3 -0.009070 -0.002336 0.018173 0.000000 0.000000 0.000000
# 4 0.000000 0.000000 0.000000 0.040112 0.000000 0.000000
# 5 0.000000 0.000000 0.000000 0.000000 0.036168 0.000000
# 6 0.000000 0.000000 0.000000 0.000000 0.000000 0.042576
#
#
# Mechanical properties :
#
#
# Convention : Reuss Voigt Hill
#
# Bulk Modulus (GPa) = 63.21585 65.66682 64.44134
# Shear Modulus (GPa) = 24.10197 24.80466 24.45332
#
# Velocity S-wave (km/s) = 3.66903 3.72213 3.69568
# Velocity P-wave (km/s) = 7.29776 7.42628 7.36230
#
# Compressibility (1/GPa) = 0.01581882
#
# Stress axis : x y z
#
# Youngs Moduli (GPa) = 59.91962 67.98466 55.02786
#
# Poissons Ratio (x) = 0.37185 0.49911
# Poissons Ratio (y) = 0.32774 0.12856
# Poissons Ratio (z) = 0.54348 0.15883
#
# Static dielectric constant tensor:
#      x y z
#    x 3.727730 0.000000 0.000000 
#    y 0.000000 3.406170 0.000000 
#    z 0.000000 0.000000 3.093960 
# 
# 
# High freq. dielectric constant tensor:
#      x y z
#    x 1.707680 0.000000 0.000000 
#    y 0.000000 1.672520 0.000000 
#    z 0.000000 0.000000 1.670930 
# 
# From -- ./inp_files/26206.got.cif
#   From: 2010.03.12/outbox.cif.g09.slc.cpg/sg59_14_cif.got.tgz:26206.got - 2010.04.16 16:29:54.
