data_PCOD8242895
_publ_section_title
;
Structure prediction by ZEFSAII (Michael W. Deem and Ramdas Pophale) SiO2 
 PCOD8242895
Probable space group: P M M N
;
_chemical_formula_sum "Si O2"
_cell_formula_units_Z 56
_cell_length_a 20.942722
_cell_length_b 10.093863
_cell_length_c 13.932359
_cell_angle_alpha 90.000000
_cell_angle_beta 90.000000
_cell_angle_gamma 90.000000
_cell_volume 2945.202702
_symmetry_space_group_name_H-M "P M M N"
_symmetry_group_IT_number 59
_space_group.IT_coordinate_system_code '2'
_symmetry_cell_setting 'orthorhombic'
loop_
_space_group_symop_operation_xyz
x,y,z
1/2-x,1/2-y,z
1/2+x,-y,-z
-x,1/2+y,-z
-x,-y,-z
1/2+x,1/2+y,-z
1/2-x,y,z
x,1/2-y,z
loop_
_atom_site_type_symbol
_atom_site_label
_atom_site_fract_x
_atom_site_fract_y
_atom_site_fract_z
Si Si1 0.322879 0.602263 0.711646
Si Si2 0.986856 0.393684 0.626936
Si Si3 0.318321 0.403941 0.370542
Si Si4 0.931414 0.902434 0.757478
Si Si5 0.603582 0.008248 0.467186
Si Si6 0.058952 0.402352 0.019996
Si Si7 0.823787 0.903719 0.118992
O O1 0.250000 0.577151 0.680766
O O2 0.331420 0.750000 0.755554
O O3 0.366521 0.594927 0.617577
O O4 0.343067 0.493874 0.790596
O O5 0.980952 0.250000 0.676773
O O6 0.986065 0.506632 0.709637
O O7 0.932247 0.401657 0.545686
O O8 0.054836 0.401342 0.575162
O O9 0.250000 0.474840 0.354949
O O10 0.310499 0.250000 0.354089
O O11 0.366599 0.457613 0.290149
O O12 0.340854 0.428979 0.478961
O O13 0.946296 0.750000 0.729803
O O14 0.924141 0.921994 0.869529
O O15 0.038394 0.250000 0.998774
O O16 0.124134 0.438268 0.963166
O O17 0.000000 0.500000 0.000000
O O18 0.750000 0.933475 0.085401
O O19 0.829649 0.750000 0.149045
#
# Coordination Sequence:
#
# PCOD8242895 Si02
#       7
#     8   8   8   8   8   8   8
#     4  10  21  36  55  80 109 144 184 224 273 329
#     4  10  21  35  53  77 107 146 186 223 267 324
#     4   9  17  31  53  80 108 139 177 222 269 322
#     4   9  20  37  55  79 110 139 176 224 276 329
#     4  10  20  33  51  76 110 144 183 223 271 316
#     4  10  22  39  59  86 114 146 185 233 288 339
#     4   9  20  39  60  83 113 147 187 234 283 338
#
# _framework density 19.013971999999999
#
# number of rings (size 3 to 8) (size 9 to 14) (size 15 to 20)
#    0.000    2.429    0.000    1.286    2.000    6.857 
#    0.000    4.286    0.000    3.857    0.000    4.000 
#    0.000    0.000    0.000    0.000    0.000    0.000 
#
# Total GULP energy -694062.300584 kJ/mol
# GULP energy per Si atom -12393.969653 kJ/mol
# Density = 1.897070 g / cm^3
# Si number density = 19.013972 Si / 1000 Ang^3
#
#
#
# Elastic Constant Matrix: (Units=GPa)
#
#
# Indices 1 2 3 4 5 6 
#
# 1 95.1774 41.4186 46.2235 0.0000 0.0000 0.0000
# 2 41.4186 94.8697 55.3683 0.0000 0.0000 0.0000
# 3 46.2235 55.3683 112.0511 0.0000 0.0000 0.0000
# 4 0.0000 0.0000 0.0000 17.1548 0.0000 0.0000
# 5 0.0000 0.0000 0.0000 0.0000 19.8028 0.0000
# 6 0.0000 0.0000 0.0000 0.0000 0.0000 19.0759
#
#
#
# Elastic Compliance Matrix: (Units=1/GPa)
#
#
# Indices 1 2 3 4 5 6 
#
# 1 0.014085 -0.003876 -0.003895 0.000000 0.000000 0.000000
# 2 -0.003876 0.015879 -0.006247 0.000000 0.000000 0.000000
# 3 -0.003895 -0.006247 0.013618 0.000000 0.000000 0.000000
# 4 0.000000 0.000000 0.000000 0.058293 0.000000 0.000000
# 5 0.000000 0.000000 0.000000 0.000000 0.050498 0.000000
# 6 0.000000 0.000000 0.000000 0.000000 0.000000 0.052422
#
#
# Mechanical properties :
#
#
# Convention : Reuss Voigt Hill
#
# Bulk Modulus (GPa) = 64.32775 65.34655 64.83715
# Shear Modulus (GPa) = 21.00709 21.81255 21.40982
#
# Velocity S-wave (km/s) = 3.32750 3.39069 3.35924
# Velocity P-wave (km/s) = 6.97626 7.05488 7.01568
#
# Compressibility (1/GPa) = 0.01554539
#
# Stress axis : x y z
#
# Youngs Moduli (GPa) = 70.99679 62.97548 73.42987
#
# Poissons Ratio (x) = 0.24410 0.28602
# Poissons Ratio (y) = 0.27519 0.45875
# Poissons Ratio (z) = 0.27654 0.39344
#
# Static dielectric constant tensor:
#      x y z
#    x 4.063310 0.000000 0.000000 
#    y 0.000000 3.403910 0.000000 
#    z 0.000000 0.000000 3.384980 
# 
# 
# High freq. dielectric constant tensor:
#      x y z
#    x 1.747720 0.000000 0.000000 
#    y 0.000000 1.729460 0.000000 
#    z 0.000000 0.000000 1.729330 
# 
# From -- ./inp_files/18326.got.cif
#   From: 2010.03.12/outbox.cif.g09.slc.cpg/sg59_10_cif.got.tgz:18326.got - 2010.04.16 16:29:54.
