data_PCOD8242415
_publ_section_title
;
Structure prediction by ZEFSAII (Michael W. Deem and Ramdas Pophale) SiO2 
 PCOD8242415
Probable space group: P M M N
;
_chemical_formula_sum "Si O2"
_cell_formula_units_Z 64
_cell_length_a 14.819547
_cell_length_b 9.178631
_cell_length_c 23.583410
_cell_angle_alpha 90.000000
_cell_angle_beta 90.000000
_cell_angle_gamma 90.000000
_cell_volume 3207.889798
_symmetry_space_group_name_H-M "P M M N"
_symmetry_group_IT_number 59
_space_group.IT_coordinate_system_code '2'
_symmetry_cell_setting 'orthorhombic'
loop_
_space_group_symop_operation_xyz
x,y,z
1/2-x,1/2-y,z
1/2+x,-y,-z
-x,1/2+y,-z
-x,-y,-z
1/2+x,1/2+y,-z
1/2-x,y,z
x,1/2-y,z
loop_
_atom_site_type_symbol
_atom_site_label
_atom_site_fract_x
_atom_site_fract_y
_atom_site_fract_z
Si Si1 0.346787 0.413838 0.768562
Si Si2 0.473668 0.920938 0.419869
Si Si3 0.142528 0.083182 0.979648
Si Si4 0.401623 0.586913 0.869989
Si Si5 0.148968 0.590826 0.086050
Si Si6 0.973748 0.079147 0.709396
Si Si7 0.405142 0.413972 0.187858
Si Si8 0.145703 0.421284 0.509077
O O1 0.250000 0.421758 0.736662
O O2 0.367723 0.250000 0.789620
O O3 0.336703 0.512914 0.824195
O O4 0.423403 0.463440 0.724882
O O5 0.458520 0.750000 0.427780
O O6 0.460457 0.969875 0.355103
O O7 0.576018 0.962153 0.439909
O O8 0.394142 0.001640 0.453446
O O9 0.250000 0.070972 0.973437
O O10 0.111226 0.250000 0.981842
O O11 0.094813 0.005206 0.927147
O O12 0.103878 0.008207 0.037052
O O13 0.367462 0.750000 0.883301
O O14 0.498685 0.586748 0.841709
O O15 0.250000 0.618092 0.065560
O O16 0.100425 0.750000 0.091514
O O17 0.155999 0.509618 0.146404
O O18 0.954411 0.250000 0.717509
O O19 0.907064 0.988460 0.750086
O O20 0.366848 0.250000 0.194309
O O21 0.250000 0.472242 0.521548
O O22 0.145090 0.250000 0.497875
#
# Coordination Sequence:
#
# PCOD8242415 Si02
#       8
#     8   8   8   8   8   8   8   8
#     4   9  17  29  46  69  97 130 168 209 254 305
#     4   9  18  33  54  80 110 144 181 221 263 307
#     4  10  20  33  50  72  97 126 161 201 247 300
#     4  10  20  32  47  69  97 129 163 200 246 300
#     4  10  21  37  56  75  94 119 155 202 255 307
#     4   9  18  33  52  74 102 136 172 211 254 298
#     4  10  21  36  53  73  98 129 164 202 246 297
#     4   9  18  33  54  81 113 147 181 218 262 310
#
# _framework density 19.950810000000001
#
# number of rings (size 3 to 8) (size 9 to 14) (size 15 to 20)
#    0.000    2.500    0.000    1.875    0.000    6.500 
#    0.000    3.125    0.000    0.750    0.000    7.000 
#    0.000    0.000    0.000    0.000    0.000    0.000 
#
# Total GULP energy -793239.492069 kJ/mol
# GULP energy per Si atom -12394.367064 kJ/mol
# Density = 1.990540 g / cm^3
# Si number density = 19.950810 Si / 1000 Ang^3
#
#
#
# Elastic Constant Matrix: (Units=GPa)
#
#
# Indices 1 2 3 4 5 6 
#
# 1 47.2063 13.0081 10.6683 0.0000 0.0000 0.0000
# 2 13.0081 116.4148 59.5637 0.0000 0.0000 0.0000
# 3 10.6683 59.5637 139.8875 0.0000 0.0000 0.0000
# 4 0.0000 0.0000 0.0000 34.9929 0.0000 0.0000
# 5 0.0000 0.0000 0.0000 0.0000 15.8694 0.0000
# 6 0.0000 0.0000 0.0000 0.0000 0.0000 21.2697
#
#
#
# Elastic Compliance Matrix: (Units=1/GPa)
#
#
# Indices 1 2 3 4 5 6 
#
# 1 0.021927 -0.002039 -0.000804 0.000000 0.000000 0.000000
# 2 -0.002039 0.011172 -0.004602 0.000000 0.000000 0.000000
# 3 -0.000804 -0.004602 0.009169 0.000000 0.000000 0.000000
# 4 0.000000 0.000000 0.000000 0.028577 0.000000 0.000000
# 5 0.000000 0.000000 0.000000 0.000000 0.063014 0.000000
# 6 0.000000 0.000000 0.000000 0.000000 0.000000 0.047015
#
#
# Mechanical properties :
#
#
# Convention : Reuss Voigt Hill
#
# Bulk Modulus (GPa) = 36.52340 52.22097 44.37219
# Shear Modulus (GPa) = 24.40323 29.11096 26.75709
#
# Velocity S-wave (km/s) = 3.50118 3.82401 3.66615
# Velocity P-wave (km/s) = 5.88989 6.76233 6.34113
#
# Compressibility (1/GPa) = 0.02737971
#
# Stress axis : x y z
#
# Youngs Moduli (GPa) = 45.60559 89.50796 109.05979
#
# Poissons Ratio (x) = 0.18248 0.08771
# Poissons Ratio (y) = 0.09297 0.50185
# Poissons Ratio (z) = 0.03668 0.41188
#
# Static dielectric constant tensor:
#      x y z
#    x 3.505020 0.000000 0.000000 
#    y 0.000000 3.850660 0.000000 
#    z 0.000000 0.000000 3.563080 
# 
# 
# High freq. dielectric constant tensor:
#      x y z
#    x 1.767230 0.000000 0.000000 
#    y 0.000000 1.781200 0.000000 
#    z 0.000000 0.000000 1.765510 
# 
# From -- ./inp_files/32299.got.cif
#   From: 2010.03.12/outbox.cif.g09.slc.cpg/sg59_17_cif.got.tgz:32299.got - 2010.04.16 16:29:54.
