data_PCOD8242006
_publ_section_title
;
Structure prediction by ZEFSAII (Michael W. Deem and Ramdas Pophale) SiO2 
 PCOD8242006
Probable space group: P M M N
;
_chemical_formula_sum "Si O2"
_cell_formula_units_Z 64
_cell_length_a 17.999010
_cell_length_b 8.625450
_cell_length_c 21.412648
_cell_angle_alpha 90.000000
_cell_angle_beta 90.000000
_cell_angle_gamma 90.000000
_cell_volume 3324.304198
_symmetry_space_group_name_H-M "P M M N"
_symmetry_group_IT_number 59
_space_group.IT_coordinate_system_code '2'
_symmetry_cell_setting 'orthorhombic'
loop_
_space_group_symop_operation_xyz
x,y,z
1/2-x,1/2-y,z
1/2+x,-y,-z
-x,1/2+y,-z
-x,-y,-z
1/2+x,1/2+y,-z
1/2-x,y,z
x,1/2-y,z
loop_
_atom_site_type_symbol
_atom_site_label
_atom_site_fract_x
_atom_site_fract_y
_atom_site_fract_z
Si Si1 0.029670 0.930778 0.563348
Si Si2 0.543267 0.568679 0.691068
Si Si3 0.163562 0.430134 0.000139
Si Si4 0.425291 0.930749 0.111588
Si Si5 0.913317 0.069386 0.116624
Si Si6 0.833587 0.932559 0.373205
Si Si7 0.093476 0.431291 0.754295
Si Si8 0.334657 0.932115 0.233854
O O1 0.032924 0.750000 0.554842
O O2 0.974632 0.978988 0.619767
O O3 0.112898 0.989114 0.576439
O O4 0.000000 0.000000 0.500000
O O5 0.528688 0.750000 0.701676
O O6 0.491636 0.470824 0.737934
O O7 0.627311 0.521425 0.707924
O O8 0.250000 0.471951 0.004121
O O9 0.149103 0.250000 0.014550
O O10 0.133986 0.469370 0.931666
O O11 0.119938 0.535716 0.049025
O O12 0.446294 0.750000 0.114339
O O13 0.374251 0.980785 0.169651
O O14 0.499932 0.030046 0.111678
O O15 0.901332 0.250000 0.103436
O O16 0.881885 0.026335 0.184952
O O17 0.750000 0.986706 0.387636
O O18 0.843079 0.750000 0.379565
O O19 0.854340 0.984388 0.302936
O O20 0.100188 0.250000 0.768730
O O21 0.250000 0.988905 0.230173
O O22 0.339677 0.750000 0.246022
#
# Coordination Sequence:
#
# PCOD8242006 Si02
#       8
#     8   8   8   8   8   8   8   8
#     4  10  21  37  59  87 117 155 199 239 283 336
#     4  10  20  35  56  83 114 147 187 233 280 334
#     4  11  25  43  60  80 110 149 192 239 293 350
#     4  11  22  39  62  85 112 148 191 237 288 345
#     4  12  24  38  59  86 115 149 192 239 287 342
#     4   9  19  36  59  87 119 154 192 237 288 341
#     4  10  19  34  57  84 114 150 189 230 282 341
#     4  10  21  36  57  85 115 149 188 232 285 343
#
# _framework density 19.252148999999999
#
# number of rings (size 3 to 8) (size 9 to 14) (size 15 to 20)
#    0.000    1.625    1.250    3.750    0.000    5.000 
#    0.000    1.875    0.000    0.750    0.000    0.000 
#    0.000    0.000    0.000    0.000    0.000    0.000 
#
# Total GULP energy -793905.863110 kJ/mol
# GULP energy per Si atom -12404.779111 kJ/mol
# Density = 1.920833 g / cm^3
# Si number density = 19.252149 Si / 1000 Ang^3
#
#
#
# Elastic Constant Matrix: (Units=GPa)
#
#
# Indices 1 2 3 4 5 6 
#
# 1 72.1385 28.1652 42.3905 0.0000 0.0000 0.0000
# 2 28.1652 43.6559 22.4305 0.0000 0.0000 0.0000
# 3 42.3905 22.4305 116.5538 0.0000 0.0000 0.0000
# 4 0.0000 0.0000 0.0000 34.6158 0.0000 0.0000
# 5 0.0000 0.0000 0.0000 0.0000 25.2494 0.0000
# 6 0.0000 0.0000 0.0000 0.0000 0.0000 28.0721
#
#
#
# Elastic Compliance Matrix: (Units=1/GPa)
#
#
# Indices 1 2 3 4 5 6 
#
# 1 0.021484 -0.010927 -0.005711 0.000000 0.000000 0.000000
# 2 -0.010927 0.030977 -0.001987 0.000000 0.000000 0.000000
# 3 -0.005711 -0.001987 0.011039 0.000000 0.000000 0.000000
# 4 0.000000 0.000000 0.000000 0.028889 0.000000 0.000000
# 5 0.000000 0.000000 0.000000 0.000000 0.039605 0.000000
# 6 0.000000 0.000000 0.000000 0.000000 0.000000 0.035622
#
#
# Mechanical properties :
#
#
# Convention : Reuss Voigt Hill
#
# Bulk Modulus (GPa) = 38.09452 46.48009 42.28731
# Shear Modulus (GPa) = 23.40641 26.87828 25.14234
#
# Velocity S-wave (km/s) = 3.49059 3.74052 3.61771
# Velocity P-wave (km/s) = 6.00631 6.54603 6.28197
#
# Compressibility (1/GPa) = 0.02625049
#
# Stress axis : x y z
#
# Youngs Moduli (GPa) = 46.54575 32.28199 90.58542
#
# Poissons Ratio (x) = 0.35273 0.51733
# Poissons Ratio (y) = 0.50858 0.18004
# Poissons Ratio (z) = 0.26582 0.06416
#
# Static dielectric constant tensor:
#      x y z
#    x 3.565150 0.000000 0.000000 
#    y 0.000000 3.474840 0.000000 
#    z 0.000000 0.000000 3.566220 
# 
# 
# High freq. dielectric constant tensor:
#      x y z
#    x 1.746530 0.000000 0.000000 
#    y 0.000000 1.754070 0.000000 
#    z 0.000000 0.000000 1.748730 
# 
# From -- ./inp_files/29534.got.cif
#   From: 2010.03.12/outbox.cif.g09.slc.cpg/sg59_15_cif.got.tgz:29534.got - 2010.04.16 16:29:54.
