data_PCOD8242243
_publ_section_title
;
Structure prediction by ZEFSAII (Michael W. Deem and Ramdas Pophale) SiO2 
 PCOD8242243
Probable space group: P M M N
;
_chemical_formula_sum "Si O2"
_cell_formula_units_Z 40
_cell_length_a 25.467095
_cell_length_b 8.526097
_cell_length_c 9.220415
_cell_angle_alpha 90.000000
_cell_angle_beta 90.000000
_cell_angle_gamma 90.000000
_cell_volume 2002.074094
_symmetry_space_group_name_H-M "P M M N"
_symmetry_group_IT_number 59
_space_group.IT_coordinate_system_code '2'
_symmetry_cell_setting 'orthorhombic'
loop_
_space_group_symop_operation_xyz
x,y,z
1/2-x,1/2-y,z
1/2+x,-y,-z
-x,1/2+y,-z
-x,-y,-z
1/2+x,1/2+y,-z
1/2-x,y,z
x,1/2-y,z
loop_
_atom_site_type_symbol
_atom_site_label
_atom_site_fract_x
_atom_site_fract_y
_atom_site_fract_z
Si Si1 0.848825 0.935916 0.847336
Si Si2 0.250000 0.568271 0.646278
Si Si3 0.942737 0.933211 0.650249
Si Si4 0.155409 0.433228 0.825703
Si Si5 0.437938 0.930810 0.658989
Si Si6 0.250000 0.435221 0.328844
O O1 0.845880 0.750000 0.850975
O O2 0.904194 0.988973 0.778384
O O3 0.801441 0.005310 0.750450
O O4 0.844300 0.000026 0.010633
O O5 0.250000 0.750000 0.608710
O O6 0.198377 0.527195 0.736000
O O7 0.250000 0.474981 0.496940
O O8 0.935770 0.750000 0.612553
O O9 0.001939 0.969759 0.700526
O O10 0.927546 0.031571 0.508814
O O11 0.169312 0.250000 0.820698
O O12 0.098051 0.460880 0.759217
O O13 0.424227 0.750000 0.687444
O O14 0.250000 0.250000 0.313062
#
# Coordination Sequence:
#
# PCOD8242243 Si02
#       6
#     8   4   8   8   8   4
#     4   9  19  35  57  83 109 143 189 232 269 322
#     4  12  25  40  58  84 114 142 179 226 276 330
#     4   9  18  35  57  80 111 151 192 233 276 324
#     4  11  22  38  59  82 110 146 185 224 274 333
#     4  10  20  34  54  83 115 147 187 233 278 325
#     4  10  19  36  62  86 108 140 185 232 276 326
#
# _framework density 19.979281
#
# number of rings (size 3 to 8) (size 9 to 14) (size 15 to 20)
#    0.000    2.000    0.000    3.900    0.000    4.800 
#    0.000    5.000    0.000    0.000    0.000    0.000 
#    0.000    0.000    0.000    0.000    0.000    0.000 
#
# Total GULP energy -496132.592262 kJ/mol
# GULP energy per Si atom -12403.314807 kJ/mol
# Density = 1.993381 g / cm^3
# Si number density = 19.979281 Si / 1000 Ang^3
#
#
#
# Elastic Constant Matrix: (Units=GPa)
#
#
# Indices 1 2 3 4 5 6 
#
# 1 136.3081 10.8779 75.7836 0.0000 0.0000 0.0000
# 2 10.8779 23.9448 0.4770 0.0000 0.0000 0.0000
# 3 75.7836 0.4770 130.0775 0.0000 0.0000 0.0000
# 4 0.0000 0.0000 0.0000 15.8654 0.0000 0.0000
# 5 0.0000 0.0000 0.0000 0.0000 15.8291 0.0000
# 6 0.0000 0.0000 0.0000 0.0000 0.0000 22.1755
#
#
#
# Elastic Compliance Matrix: (Units=1/GPa)
#
#
# Indices 1 2 3 4 5 6 
#
# 1 0.011433 -0.005062 -0.006643 0.000000 0.000000 0.000000
# 2 -0.005062 0.044007 0.002788 0.000000 0.000000 0.000000
# 3 -0.006643 0.002788 0.011547 0.000000 0.000000 0.000000
# 4 0.000000 0.000000 0.000000 0.063030 0.000000 0.000000
# 5 0.000000 0.000000 0.000000 0.000000 0.063175 0.000000
# 6 0.000000 0.000000 0.000000 0.000000 0.000000 0.045095
#
#
# Mechanical properties :
#
#
# Convention : Reuss Voigt Hill
#
# Bulk Modulus (GPa) = 20.34413 51.62304 35.98359
# Shear Modulus (GPa) = 18.34827 24.32014 21.33421
#
# Velocity S-wave (km/s) = 3.03374 3.49272 3.27129
# Velocity P-wave (km/s) = 4.74090 6.49306 5.68489
#
# Compressibility (1/GPa) = 0.04915422
#
# Stress axis : x y z
#
# Youngs Moduli (GPa) = 87.46344 22.72379 86.59902
#
# Poissons Ratio (x) = 0.11502 0.57524
# Poissons Ratio (y) = 0.44272 -0.24141
# Poissons Ratio (z) = 0.58098 -0.06335
#
# Static dielectric constant tensor:
#      x y z
#    x 3.876780 0.000000 0.000000 
#    y 0.000000 3.367060 0.000000 
#    z 0.000000 0.000000 3.708250 
# 
# 
# High freq. dielectric constant tensor:
#      x y z
#    x 1.796010 0.000000 0.000000 
#    y 0.000000 1.756830 0.000000 
#    z 0.000000 0.000000 1.781660 
# 
# From -- ./inp_files/5923.got.cif
#   From: 2010.03.12/outbox.cif.g09.slc.cpg/sg59_3_cif.got.tgz:5923.got - 2010.04.16 16:29:54.
