data_PCOD8242707
_publ_section_title
;
Structure prediction by ZEFSAII (Michael W. Deem and Ramdas Pophale) SiO2 
 PCOD8242707
Probable space group: P M M N
;
_chemical_formula_sum "Si O2"
_cell_formula_units_Z 64
_cell_length_a 8.802958
_cell_length_b 13.858528
_cell_length_c 31.007323
_cell_angle_alpha 90.000000
_cell_angle_beta 90.000000
_cell_angle_gamma 90.000000
_cell_volume 3782.770615
_symmetry_space_group_name_H-M "P M M N"
_symmetry_group_IT_number 59
_space_group.IT_coordinate_system_code '2'
_symmetry_cell_setting 'orthorhombic'
loop_
_space_group_symop_operation_xyz
x,y,z
1/2-x,1/2-y,z
1/2+x,-y,-z
-x,1/2+y,-z
-x,-y,-z
1/2+x,1/2+y,-z
1/2-x,y,z
x,1/2-y,z
loop_
_atom_site_type_symbol
_atom_site_label
_atom_site_fract_x
_atom_site_fract_y
_atom_site_fract_z
Si Si1 0.430874 0.359172 0.757955
Si Si2 0.429688 0.025495 0.934763
Si Si3 0.568451 0.481950 0.453508
Si Si4 0.076548 0.353201 0.605739
Si Si5 0.570578 0.858561 0.981442
Si Si6 0.923805 0.989053 0.317665
Si Si7 0.430566 0.357326 0.854350
Si Si8 0.572230 0.638288 0.619099
O O1 0.250000 0.357848 0.754100
O O2 0.489776 0.250000 0.746481
O O3 0.492272 0.446498 0.727249
O O4 0.484096 0.386910 0.806322
O O5 0.250000 0.015053 0.933556
O O6 0.494308 0.067651 0.889689
O O7 0.500813 0.920185 0.942230
O O8 0.481842 0.097445 0.972843
O O9 0.500000 0.500000 0.500000
O O10 0.750000 0.474847 0.455416
O O11 0.502271 0.573522 0.427756
O O12 0.508142 0.389948 0.426389
O O13 0.250000 0.339863 0.592001
O O14 0.991711 0.250000 0.603565
O O15 0.065703 0.393797 0.653494
O O16 0.750000 0.860466 0.977205
O O17 0.507414 0.750000 0.978195
O O18 0.750000 0.024941 0.312991
O O19 0.015992 0.077066 0.339268
O O20 0.250000 0.356313 0.856439
O O21 0.490940 0.250000 0.865375
O O22 0.750000 0.620476 0.613406
O O23 0.534734 0.750000 0.628330
#
# Coordination Sequence:
#
# PCOD8242707 Si02
#       8
#     8   8   8   8   8   8   8   8
#     4   8  13  22  41  71 100 121 142 172 217 274
#     4   9  16  26  42  63  85 111 146 187 226 265
#     4  10  20  33  50  72  97 124 153 186 223 264
#     4   8  14  25  42  64  88 113 139 166 201 248
#     4   9  17  28  41  58  82 113 148 185 227 273
#     4   9  16  27  47  72  93 113 141 181 223 263
#     4   8  13  22  39  65  94 119 143 175 218 269
#     4  10  21  36  52  68  89 122 161 197 232 267
#
# _framework density 16.918817000000001
#
# number of rings (size 3 to 8) (size 9 to 14) (size 15 to 20)
#    0.000    3.125    0.000    3.000    0.000    4.750 
#    0.000    1.250    0.000   15.000    0.000    7.000 
#    0.000    0.000    0.000    0.000    0.000    0.000 
#
# Total GULP energy -792907.127738 kJ/mol
# GULP energy per Si atom -12389.173871 kJ/mol
# Density = 1.688031 g / cm^3
# Si number density = 16.918817 Si / 1000 Ang^3
#
#
#
# Elastic Constant Matrix: (Units=GPa)
#
#
# Indices 1 2 3 4 5 6 
#
# 1 36.7322 30.7587 24.8209 0.0000 0.0000 0.0000
# 2 30.7587 127.4902 64.5158 0.0000 0.0000 0.0000
# 3 24.8209 64.5158 125.0285 0.0000 0.0000 0.0000
# 4 0.0000 0.0000 0.0000 24.4710 0.0000 0.0000
# 5 0.0000 0.0000 0.0000 0.0000 17.6780 0.0000
# 6 0.0000 0.0000 0.0000 0.0000 0.0000 19.2890
#
#
#
# Elastic Compliance Matrix: (Units=1/GPa)
#
#
# Indices 1 2 3 4 5 6 
#
# 1 0.035231 -0.006714 -0.003530 0.000000 0.000000 0.000000
# 2 -0.006714 0.011895 -0.004805 0.000000 0.000000 0.000000
# 3 -0.003530 -0.004805 0.011178 0.000000 0.000000 0.000000
# 4 0.000000 0.000000 0.000000 0.040865 0.000000 0.000000
# 5 0.000000 0.000000 0.000000 0.000000 0.056568 0.000000
# 6 0.000000 0.000000 0.000000 0.000000 0.000000 0.051843
#
#
# Mechanical properties :
#
#
# Convention : Reuss Voigt Hill
#
# Bulk Modulus (GPa) = 35.45182 58.82687 47.13934
# Shear Modulus (GPa) = 20.23637 23.56464 21.90050
#
# Velocity S-wave (km/s) = 3.46220 3.73608 3.60174
# Velocity P-wave (km/s) = 6.08128 7.31140 6.72453
#
# Compressibility (1/GPa) = 0.02820730
#
# Stress axis : x y z
#
# Youngs Moduli (GPa) = 28.38395 84.06784 89.45796
#
# Poissons Ratio (x) = 0.56441 0.31577
# Poissons Ratio (y) = 0.19056 0.42986
# Poissons Ratio (z) = 0.10019 0.40396
#
# Static dielectric constant tensor:
#      x y z
#    x 2.817370 0.000000 0.000000 
#    y 0.000000 3.386010 0.000000 
#    z 0.000000 0.000000 3.387870 
# 
# 
# High freq. dielectric constant tensor:
#      x y z
#    x 1.615210 0.000000 0.000000 
#    y 0.000000 1.647860 0.000000 
#    z 0.000000 0.000000 1.649490 
# 
# From -- ./inp_files/33241.got.cif
#   From: 2010.03.12/outbox.cif.g09.slc.cpg/sg59_17_cif.got.tgz:33241.got - 2010.04.16 16:29:54.
