data_PCOD8242228
_publ_section_title
;
Structure prediction by ZEFSAII (Michael W. Deem and Ramdas Pophale) SiO2 
 PCOD8242228
Probable space group: P M M N
;
_chemical_formula_sum "Si O2"
_cell_formula_units_Z 48
_cell_length_a 8.991753
_cell_length_b 37.620191
_cell_length_c 7.504166
_cell_angle_alpha 90.000000
_cell_angle_beta 90.000000
_cell_angle_gamma 90.000000
_cell_volume 2538.445229
_symmetry_space_group_name_H-M "P M M N"
_symmetry_group_IT_number 59
_space_group.IT_coordinate_system_code '2'
_symmetry_cell_setting 'orthorhombic'
loop_
_space_group_symop_operation_xyz
x,y,z
1/2-x,1/2-y,z
1/2+x,-y,-z
-x,1/2+y,-z
-x,-y,-z
1/2+x,1/2+y,-z
1/2-x,y,z
x,1/2-y,z
loop_
_atom_site_type_symbol
_atom_site_label
_atom_site_fract_x
_atom_site_fract_y
_atom_site_fract_z
Si Si1 0.922547 0.037549 0.504480
Si Si2 0.925346 0.661510 0.302715
Si Si3 0.078624 0.209099 0.029581
Si Si4 0.074251 0.907801 0.785471
Si Si5 0.926314 0.330785 0.334326
Si Si6 0.577376 0.090560 0.811748
O O1 0.750000 0.031305 0.468049
O O2 0.991331 0.062758 0.349603
O O3 0.949927 0.055159 0.697269
O O4 0.000000 0.000000 0.500000
O O5 0.750000 0.661587 0.331714
O O6 0.003100 0.678094 0.475365
O O7 0.980330 0.621614 0.272438
O O8 0.974082 0.685771 0.137437
O O9 0.250000 0.201314 0.076721
O O10 0.052896 0.250000 0.979907
O O11 0.978145 0.199416 0.198251
O O12 0.250000 0.907167 0.764504
O O13 0.012690 0.868968 0.733899
O O14 0.025697 0.917411 0.986479
O O15 0.750000 0.330293 0.350709
O O16 0.750000 0.102315 0.804663
#
# Coordination Sequence:
#
# PCOD8242228 Si02
#       6
#     8   8   8   8   8   8
#     4  10  21  37  55  81 116 152 188 234 295 348
#     4  11  22  36  59  90 120 155 197 240 292 355
#     4  10  23  42  60  84 122 160 192 237 297 350
#     4   9  18  34  58  83 110 146 189 237 290 339
#     4  11  21  37  63  90 116 152 198 246 290 343
#     4  10  19  36  60  83 110 151 196 241 291 343
#
# _framework density 18.909210999999999
#
# number of rings (size 3 to 8) (size 9 to 14) (size 15 to 20)
#    0.000    1.833    3.333    1.000    0.000    3.000 
#    0.000    2.500    0.000    0.000    0.000    0.000 
#    0.000    0.000    0.000    0.000    0.000    0.000 
#
# Total GULP energy -595375.567449 kJ/mol
# GULP energy per Si atom -12403.657655 kJ/mol
# Density = 1.886617 g / cm^3
# Si number density = 18.909211 Si / 1000 Ang^3
#
#
#
# Elastic Constant Matrix: (Units=GPa)
#
#
# Indices 1 2 3 4 5 6 
#
# 1 55.0385 27.0533 38.7526 0.0000 0.0000 0.0000
# 2 27.0533 86.3386 26.5632 0.0000 0.0000 0.0000
# 3 38.7526 26.5632 133.0898 0.0000 0.0000 0.0000
# 4 0.0000 0.0000 0.0000 29.5747 0.0000 0.0000
# 5 0.0000 0.0000 0.0000 0.0000 29.3414 0.0000
# 6 0.0000 0.0000 0.0000 0.0000 0.0000 31.2539
#
#
#
# Elastic Compliance Matrix: (Units=1/GPa)
#
#
# Indices 1 2 3 4 5 6 
#
# 1 0.025543 -0.006089 -0.006222 0.000000 0.000000 0.000000
# 2 -0.006089 0.013792 -0.000980 0.000000 0.000000 0.000000
# 3 -0.006222 -0.000980 0.009521 0.000000 0.000000 0.000000
# 4 0.000000 0.000000 0.000000 0.033813 0.000000 0.000000
# 5 0.000000 0.000000 0.000000 0.000000 0.034082 0.000000
# 6 0.000000 0.000000 0.000000 0.000000 0.000000 0.031996
#
#
# Mechanical properties :
#
#
# Convention : Reuss Voigt Hill
#
# Bulk Modulus (GPa) = 44.89611 51.02278 47.95944
# Shear Modulus (GPa) = 27.35930 30.17384 28.76657
#
# Velocity S-wave (km/s) = 3.80791 3.99898 3.90462
# Velocity P-wave (km/s) = 6.56720 6.95443 6.76359
#
# Compressibility (1/GPa) = 0.02227365
#
# Stress axis : x y z
#
# Youngs Moduli (GPa) = 39.14923 72.50720 105.03098
#
# Poissons Ratio (x) = 0.44152 0.65353
# Poissons Ratio (y) = 0.23839 0.10289
# Poissons Ratio (z) = 0.24360 0.07103
#
# Static dielectric constant tensor:
#      x y z
#    x 3.278740 0.000000 0.000000 
#    y 0.000000 3.409540 0.000000 
#    z 0.000000 0.000000 3.890060 
# 
# 
# High freq. dielectric constant tensor:
#      x y z
#    x 1.716560 0.000000 0.000000 
#    y 0.000000 1.728810 0.000000 
#    z 0.000000 0.000000 1.752330 
# 
# From -- ./inp_files/6302.got.cif
#   From: 2010.03.12/outbox.cif.g09.slc.cpg/sg59_4_cif.got.tgz:6302.got - 2010.04.16 16:29:54.
