data_PCOD8242771
_publ_section_title
;
Structure prediction by ZEFSAII (Michael W. Deem and Ramdas Pophale) SiO2 
 PCOD8242771
Probable space group: P M M N
;
_chemical_formula_sum "Si O2"
_cell_formula_units_Z 48
_cell_length_a 9.250788
_cell_length_b 16.169273
_cell_length_c 17.888414
_cell_angle_alpha 90.000000
_cell_angle_beta 90.000000
_cell_angle_gamma 90.000000
_cell_volume 2675.722431
_symmetry_space_group_name_H-M "P M M N"
_symmetry_group_IT_number 59
_space_group.IT_coordinate_system_code '2'
_symmetry_cell_setting 'orthorhombic'
loop_
_space_group_symop_operation_xyz
x,y,z
1/2-x,1/2-y,z
1/2+x,-y,-z
-x,1/2+y,-z
-x,-y,-z
1/2+x,1/2+y,-z
1/2-x,y,z
x,1/2-y,z
loop_
_atom_site_type_symbol
_atom_site_label
_atom_site_fract_x
_atom_site_fract_y
_atom_site_fract_z
Si Si1 0.584795 0.654905 0.341195
Si Si2 0.078450 0.250000 0.220827
Si Si3 0.078063 0.250000 0.051624
Si Si4 0.580506 0.917926 0.027346
Si Si5 0.914548 0.558059 0.195994
Si Si6 0.419753 0.422718 0.278686
Si Si7 0.579720 0.479825 0.575868
O O1 0.750000 0.634254 0.363887
O O2 0.549095 0.750000 0.350966
O O3 0.555876 0.630794 0.255286
O O4 0.475646 0.608516 0.396078
O O5 0.250000 0.250000 0.217247
O O6 0.018282 0.250000 0.136304
O O7 0.022659 0.170193 0.266268
O O8 0.250000 0.250000 0.047826
O O9 0.021015 0.165698 0.012225
O O10 0.750000 0.929707 0.010919
O O11 0.547744 0.906039 0.114995
O O12 0.500000 0.000000 0.000000
O O13 0.750000 0.527357 0.199745
O O14 0.011927 0.479172 0.214504
O O15 0.250000 0.429050 0.266738
O O16 0.463032 0.451538 0.362028
O O17 0.500000 0.500000 0.500000
O O18 0.750000 0.476345 0.561904
#
# Coordination Sequence:
#
# PCOD8242771 Si02
#       7
#     8   4   4   8   8   8   8
#     4   9  18  33  54  78 102 134 172 211 257 308
#     4   9  16  30  51  73  96 125 172 216 243 289
#     4   9  18  30  49  75 102 135 172 214 259 305
#     4  10  20  33  50  74 104 138 176 218 266 315
#     4   9  18  31  50  74 102 133 169 213 258 306
#     4   9  18  33  54  76  98 132 172 209 251 302
#     4  10  20  35  54  77 107 137 167 208 256 309
#
# _framework density 17.939079
#
# number of rings (size 3 to 8) (size 9 to 14) (size 15 to 20)
#    0.000    2.667    0.000    1.500    1.167    3.000 
#    1.500    0.833    0.000    3.000    0.000    0.000 
#    0.000    0.000    0.000    0.000    0.000    0.000 
#
# Total GULP energy -595152.376211 kJ/mol
# GULP energy per Si atom -12399.007838 kJ/mol
# Density = 1.789825 g / cm^3
# Si number density = 17.939079 Si / 1000 Ang^3
#
#
#
# Elastic Constant Matrix: (Units=GPa)
#
#
# Indices 1 2 3 4 5 6 
#
# 1 46.4699 45.6968 45.4014 0.0000 0.0000 0.0000
# 2 45.6968 156.9616 77.3785 0.0000 0.0000 0.0000
# 3 45.4014 77.3785 131.9413 0.0000 0.0000 0.0000
# 4 0.0000 0.0000 0.0000 19.7806 0.0000 0.0000
# 5 0.0000 0.0000 0.0000 0.0000 25.2912 0.0000
# 6 0.0000 0.0000 0.0000 0.0000 0.0000 28.3828
#
#
#
# Elastic Compliance Matrix: (Units=1/GPa)
#
#
# Indices 1 2 3 4 5 6 
#
# 1 0.036248 -0.006195 -0.008840 0.000000 0.000000 0.000000
# 2 -0.006195 0.010021 -0.003745 0.000000 0.000000 0.000000
# 3 -0.008840 -0.003745 0.012817 0.000000 0.000000 0.000000
# 4 0.000000 0.000000 0.000000 0.050555 0.000000 0.000000
# 5 0.000000 0.000000 0.000000 0.000000 0.039539 0.000000
# 6 0.000000 0.000000 0.000000 0.000000 0.000000 0.035233
#
#
# Mechanical properties :
#
#
# Convention : Reuss Voigt Hill
#
# Bulk Modulus (GPa) = 46.45551 74.70291 60.57921
# Shear Modulus (GPa) = 21.81997 25.81734 23.81866
#
# Velocity S-wave (km/s) = 3.49139 3.79775 3.64779
# Velocity P-wave (km/s) = 6.49658 7.80791 7.18224
#
# Compressibility (1/GPa) = 0.02152597
#
# Stress axis : x y z
#
# Youngs Moduli (GPa) = 27.58783 99.79211 78.01985
#
# Poissons Ratio (x) = 0.61823 0.68968
# Poissons Ratio (y) = 0.17091 0.29219
# Poissons Ratio (z) = 0.24387 0.37373
#
# Static dielectric constant tensor:
#      x y z
#    x 3.182090 0.000000 0.000000 
#    y 0.000000 3.531470 0.000000 
#    z 0.000000 0.000000 3.506000 
# 
# 
# High freq. dielectric constant tensor:
#      x y z
#    x 1.674170 0.000000 0.000000 
#    y 0.000000 1.697580 0.000000 
#    z 0.000000 0.000000 1.700000 
# 
# From -- ./inp_files/25528.got.cif
#   From: 2010.03.12/outbox.cif.g09.slc.cpg/sg59_13_cif.got.tgz:25528.got - 2010.04.16 16:29:54.
