data_PCOD8242306
_publ_section_title
;
Structure prediction by ZEFSAII (Michael W. Deem and Ramdas Pophale) SiO2 
 PCOD8242306
Probable space group: P M M N
;
_chemical_formula_sum "Si O2"
_cell_formula_units_Z 64
_cell_length_a 9.343187
_cell_length_b 17.596197
_cell_length_c 23.042910
_cell_angle_alpha 90.000000
_cell_angle_beta 90.000000
_cell_angle_gamma 90.000000
_cell_volume 3788.359458
_symmetry_space_group_name_H-M "P M M N"
_symmetry_group_IT_number 59
_space_group.IT_coordinate_system_code '2'
_symmetry_cell_setting 'orthorhombic'
loop_
_space_group_symop_operation_xyz
x,y,z
1/2-x,1/2-y,z
1/2+x,-y,-z
-x,1/2+y,-z
-x,-y,-z
1/2+x,1/2+y,-z
1/2-x,y,z
x,1/2-y,z
loop_
_atom_site_type_symbol
_atom_site_label
_atom_site_fract_x
_atom_site_fract_y
_atom_site_fract_z
Si Si1 0.917669 0.021419 0.370198
Si Si2 0.912828 0.550856 0.127650
Si Si3 0.416133 0.833778 0.558393
Si Si4 0.917438 0.058463 0.540063
Si Si5 0.412211 0.336379 0.173272
Si Si6 0.084618 0.543035 0.762579
Si Si7 0.581931 0.163194 0.944189
Si Si8 0.584399 0.106082 0.068654
O O1 0.750000 0.011362 0.384777
O O2 0.975228 0.101989 0.396820
O O3 0.948743 0.016667 0.302184
O O4 0.006241 0.950150 0.397255
O O5 0.750000 0.578388 0.124867
O O6 0.953655 0.524769 0.192846
O O7 0.940141 0.482188 0.082776
O O8 0.010458 0.621628 0.110355
O O9 0.250000 0.825463 0.571941
O O10 0.488638 0.750000 0.567219
O O11 0.438582 0.859589 0.490974
O O12 0.750000 0.038082 0.545147
O O13 0.000000 0.000000 0.500000
O O14 0.250000 0.365767 0.165815
O O15 0.415576 0.250000 0.194303
O O16 0.489811 0.383826 0.223432
O O17 0.491686 0.342939 0.111860
O O18 0.250000 0.566619 0.770659
O O19 0.750000 0.156699 0.935894
O O20 0.530482 0.250000 0.945108
O O21 0.532019 0.123002 0.003646
O O22 0.750000 0.129323 0.076771
#
# Coordination Sequence:
#
# PCOD8242306 Si02
#       8
#     8   8   8   8   8   8   8   8
#     4   9  17  30  49  70  91 118 156 199 232 266
#     4   9  18  32  49  69  92 120 155 193 235 283
#     4   8  14  25  43  69  97 121 147 180 218 262
#     4   9  16  27  45  67  93 125 155 185 222 262
#     4  10  20  31  44  67  98 127 155 190 231 276
#     4   9  19  34  50  68  90 122 163 199 233 277
#     4  10  20  32  48  71  95 119 150 191 240 290
#     4   9  18  33  51  69  91 121 155 189 231 287
#
# _framework density 16.893856
#
# number of rings (size 3 to 8) (size 9 to 14) (size 15 to 20)
#    0.000    2.875    0.000    3.000    0.000    5.250 
#    0.000    1.250    0.000   10.125    0.000    3.500 
#    0.000    0.000    0.000    0.000    0.000    0.000 
#
# Total GULP energy -793273.943125 kJ/mol
# GULP energy per Si atom -12394.905361 kJ/mol
# Density = 1.685540 g / cm^3
# Si number density = 16.893856 Si / 1000 Ang^3
#
#
#
# Elastic Constant Matrix: (Units=GPa)
#
#
# Indices 1 2 3 4 5 6 
#
# 1 60.9806 26.9209 42.0911 0.0000 0.0000 0.0000
# 2 26.9209 68.7714 52.0483 0.0000 0.0000 0.0000
# 3 42.0911 52.0483 120.7573 0.0000 0.0000 0.0000
# 4 0.0000 0.0000 0.0000 15.4684 0.0000 0.0000
# 5 0.0000 0.0000 0.0000 0.0000 25.9046 0.0000
# 6 0.0000 0.0000 0.0000 0.0000 0.0000 24.8860
#
#
#
# Elastic Compliance Matrix: (Units=1/GPa)
#
#
# Indices 1 2 3 4 5 6 
#
# 1 0.022398 -0.004244 -0.005978 0.000000 0.000000 0.000000
# 2 -0.004244 0.022385 -0.008169 0.000000 0.000000 0.000000
# 3 -0.005978 -0.008169 0.013886 0.000000 0.000000 0.000000
# 4 0.000000 0.000000 0.000000 0.064648 0.000000 0.000000
# 5 0.000000 0.000000 0.000000 0.000000 0.038603 0.000000
# 6 0.000000 0.000000 0.000000 0.000000 0.000000 0.040183
#
#
# Mechanical properties :
#
#
# Convention : Reuss Voigt Hill
#
# Bulk Modulus (GPa) = 45.68828 54.73665 50.21247
# Shear Modulus (GPa) = 20.31033 21.88174 21.09603
#
# Velocity S-wave (km/s) = 3.47108 3.60286 3.53759
# Velocity P-wave (km/s) = 6.57020 7.05536 6.81710
#
# Compressibility (1/GPa) = 0.02188745
#
# Stress axis : x y z
#
# Youngs Moduli (GPa) = 44.64610 44.67350 72.01616
#
# Poissons Ratio (x) = 0.18957 0.43052
# Poissons Ratio (y) = 0.18946 0.58830
# Poissons Ratio (z) = 0.26690 0.36494
#
# Static dielectric constant tensor:
#      x y z
#    x 3.174550 0.000000 0.000000 
#    y 0.000000 3.174350 0.000000 
#    z 0.000000 0.000000 3.376690 
# 
# 
# High freq. dielectric constant tensor:
#      x y z
#    x 1.642880 0.000000 0.000000 
#    y 0.000000 1.632230 0.000000 
#    z 0.000000 0.000000 1.643540 
# 
# From -- ./inp_files/31742.got.cif
#   From: 2010.03.12/outbox.cif.g09.slc.cpg/sg59_16_cif.got.tgz:31742.got - 2010.04.16 16:29:54.
