data_PCOD8242538
_publ_section_title
;
Structure prediction by ZEFSAII (Michael W. Deem and Ramdas Pophale) SiO2 
 PCOD8242538
Probable space group: P M M N
;
_chemical_formula_sum "Si O2"
_cell_formula_units_Z 48
_cell_length_a 8.930732
_cell_length_b 17.916675
_cell_length_c 16.361428
_cell_angle_alpha 90.000000
_cell_angle_beta 90.000000
_cell_angle_gamma 90.000000
_cell_volume 2617.976105
_symmetry_space_group_name_H-M "P M M N"
_symmetry_group_IT_number 59
_space_group.IT_coordinate_system_code '2'
_symmetry_cell_setting 'orthorhombic'
loop_
_space_group_symop_operation_xyz
x,y,z
1/2-x,1/2-y,z
1/2+x,-y,-z
-x,1/2+y,-z
-x,-y,-z
1/2+x,1/2+y,-z
1/2-x,y,z
x,1/2-y,z
loop_
_atom_site_type_symbol
_atom_site_label
_atom_site_fract_x
_atom_site_fract_y
_atom_site_fract_z
Si Si1 0.075516 0.663723 0.017556
Si Si2 0.076873 0.549756 0.736936
Si Si3 0.074439 0.980013 0.415256
Si Si4 0.078101 0.666772 0.324281
Si Si5 0.922264 0.837575 0.850111
Si Si6 0.077809 0.397404 0.827023
O O1 0.250000 0.649269 0.003811
O O2 0.041085 0.750000 0.037178
O O3 0.990817 0.637235 0.936402
O O4 0.018269 0.613915 0.091890
O O5 0.250000 0.561795 0.715496
O O6 0.053597 0.482385 0.800149
O O7 0.989537 0.534796 0.653366
O O8 0.010656 0.624028 0.776524
O O9 0.250000 0.993127 0.422329
O O10 0.034865 0.893888 0.393132
O O11 0.000000 0.000000 0.500000
O O12 0.250000 0.655125 0.297176
O O13 0.051975 0.750000 0.360158
O O14 0.977275 0.657592 0.244168
O O15 0.750000 0.862268 0.848162
O O16 0.942396 0.750000 0.837120
O O17 0.250000 0.378882 0.845542
#
# Coordination Sequence:
#
# PCOD8242538 Si02
#       6
#     8   8   8   8   8   8
#     4  10  20  33  50  73 103 141 181 217 257 306
#     4  10  21  37  56  78 104 136 173 211 258 316
#     4  10  20  36  58  81 107 138 172 214 262 314
#     4   9  18  33  53  77 105 137 172 210 256 310
#     4  10  21  37  56  77 102 134 175 222 266 306
#     4  10  20  32  49  76 107 138 173 213 257 305
#
# _framework density 18.334773999999999
#
# number of rings (size 3 to 8) (size 9 to 14) (size 15 to 20)
#    0.000    2.167    0.000    3.000    0.000    7.667 
#    0.000    0.833    0.000    3.000    0.000    0.000 
#    0.000    0.000    0.000    0.000    0.000    0.000 
#
# Total GULP energy -595400.994567 kJ/mol
# GULP energy per Si atom -12404.187387 kJ/mol
# Density = 1.829304 g / cm^3
# Si number density = 18.334774 Si / 1000 Ang^3
#
#
#
# Elastic Constant Matrix: (Units=GPa)
#
#
# Indices 1 2 3 4 5 6 
#
# 1 103.0209 41.6894 60.9870 0.0000 0.0000 0.0000
# 2 41.6894 67.7355 57.8283 0.0000 0.0000 0.0000
# 3 60.9870 57.8283 130.1053 0.0000 0.0000 0.0000
# 4 0.0000 0.0000 0.0000 22.4047 0.0000 0.0000
# 5 0.0000 0.0000 0.0000 0.0000 39.7877 0.0000
# 6 0.0000 0.0000 0.0000 0.0000 0.0000 28.7280
#
#
#
# Elastic Compliance Matrix: (Units=1/GPa)
#
#
# Indices 1 2 3 4 5 6 
#
# 1 0.014415 -0.005001 -0.004534 0.000000 0.000000 0.000000
# 2 -0.005001 0.025526 -0.009002 0.000000 0.000000 0.000000
# 3 -0.004534 -0.009002 0.013812 0.000000 0.000000 0.000000
# 4 0.000000 0.000000 0.000000 0.044633 0.000000 0.000000
# 5 0.000000 0.000000 0.000000 0.000000 0.025133 0.000000
# 6 0.000000 0.000000 0.000000 0.000000 0.000000 0.034809
#
#
# Mechanical properties :
#
#
# Convention : Reuss Voigt Hill
#
# Bulk Modulus (GPa) = 59.95157 69.09679 64.52418
# Shear Modulus (GPa) = 24.88028 27.54121 26.21074
#
# Velocity S-wave (km/s) = 3.68774 3.87994 3.78506
# Velocity P-wave (km/s) = 7.13456 7.60525 7.37366
#
# Compressibility (1/GPa) = 0.01668013
#
# Stress axis : x y z
#
# Youngs Moduli (GPa) = 69.37407 39.17550 72.39874
#
# Poissons Ratio (x) = 0.19591 0.32826
# Poissons Ratio (y) = 0.34693 0.65170
# Poissons Ratio (z) = 0.31455 0.35264
#
# Static dielectric constant tensor:
#      x y z
#    x 3.620860 0.000000 0.000000 
#    y 0.000000 3.382020 0.000000 
#    z 0.000000 0.000000 3.369990 
# 
# 
# High freq. dielectric constant tensor:
#      x y z
#    x 1.727510 0.000000 0.000000 
#    y 0.000000 1.705600 0.000000 
#    z 0.000000 0.000000 1.700080 
# 
# From -- ./inp_files/20439.got.cif
#   From: 2010.03.12/outbox.cif.g09.slc.cpg/sg59_11_cif.got.tgz:20439.got - 2010.04.16 16:29:54.
