data_PCOD8242042
_publ_section_title
;
Structure prediction by ZEFSAII (Michael W. Deem and Ramdas Pophale) SiO2 
 PCOD8242042
Probable space group: P M M N
;
_chemical_formula_sum "Si O2"
_cell_formula_units_Z 64
_cell_length_a 8.791179
_cell_length_b 30.978456
_cell_length_c 11.834176
_cell_angle_alpha 90.000000
_cell_angle_beta 90.000000
_cell_angle_gamma 90.000000
_cell_volume 3222.885786
_symmetry_space_group_name_H-M "P M M N"
_symmetry_group_IT_number 59
_space_group.IT_coordinate_system_code '2'
_symmetry_cell_setting 'orthorhombic'
loop_
_space_group_symop_operation_xyz
x,y,z
1/2-x,1/2-y,z
1/2+x,-y,-z
-x,1/2+y,-z
-x,-y,-z
1/2+x,1/2+y,-z
1/2-x,y,z
x,1/2-y,z
loop_
_atom_site_type_symbol
_atom_site_label
_atom_site_fract_x
_atom_site_fract_y
_atom_site_fract_z
Si Si1 0.070084 0.622783 0.357966
Si Si2 0.575218 0.862915 0.120350
Si Si3 0.427526 0.033153 0.586652
Si Si4 0.921208 0.066785 0.002722
Si Si5 0.576955 0.994968 0.163496
Si Si6 0.581087 0.301048 0.277611
Si Si7 0.077022 0.800492 0.970543
Si Si8 0.427927 0.300087 0.504936
O O1 0.250000 0.620709 0.368244
O O2 0.021630 0.621785 0.227330
O O3 0.001347 0.580887 0.420938
O O4 0.013236 0.668053 0.409769
O O5 0.750000 0.864368 0.155645
O O6 0.537620 0.893950 0.013998
O O7 0.529717 0.816250 0.072970
O O8 0.250000 0.038632 0.561386
O O9 0.500000 0.000000 0.500000
O O10 0.459795 0.010648 0.706033
O O11 0.750000 0.083959 0.987037
O O12 0.940975 0.045183 0.126593
O O13 0.954038 0.031594 0.906473
O O14 0.750000 0.979058 0.136760
O O15 0.750000 0.319297 0.305266
O O16 0.590445 0.250000 0.269913
O O17 0.526489 0.318100 0.154186
O O18 0.466519 0.314940 0.376907
O O19 0.250000 0.815135 0.993544
O O20 0.060932 0.750000 0.973162
O O21 0.250000 0.305167 0.525185
O O22 0.478566 0.250000 0.526054
#
# Coordination Sequence:
#
# PCOD8242042 Si02
#       8
#     8   8   8   8   8   8   8   8
#     4  12  25  42  64  88 117 160 208 253 304 362
#     4  12  24  38  57  84 120 158 195 245 304 358
#     4  11  23  42  65  90 123 161 201 247 302 362
#     4  10  19  34  59  87 113 147 191 236 286 348
#     4   9  19  36  60  87 115 148 188 237 288 341
#     4   8  15  32  58  84 112 149 192 239 291 348
#     4   9  19  37  60  86 117 156 200 243 291 350
#     4  10  21  38  62  92 125 161 202 251 306 362
#
# _framework density 19.857980000000001
#
# number of rings (size 3 to 8) (size 9 to 14) (size 15 to 20)
#    0.000    1.875    1.250    4.125    0.000    3.000 
#    2.250    1.250    0.000    0.000    0.000    0.000 
#    0.000    0.000    0.000    0.000    0.000    0.000 
#
# Total GULP energy -793321.091637 kJ/mol
# GULP energy per Si atom -12395.642057 kJ/mol
# Density = 1.981278 g / cm^3
# Si number density = 19.857980 Si / 1000 Ang^3
#
#
#
# Elastic Constant Matrix: (Units=GPa)
#
#
# Indices 1 2 3 4 5 6 
#
# 1 109.2876 49.1670 40.1765 0.0000 0.0000 0.0000
# 2 49.1670 81.7690 53.4781 0.0000 0.0000 0.0000
# 3 40.1765 53.4781 78.5727 0.0000 0.0000 0.0000
# 4 0.0000 0.0000 0.0000 34.1784 0.0000 0.0000
# 5 0.0000 0.0000 0.0000 0.0000 29.7346 0.0000
# 6 0.0000 0.0000 0.0000 0.0000 0.0000 32.9381
#
#
#
# Elastic Compliance Matrix: (Units=1/GPa)
#
#
# Indices 1 2 3 4 5 6 
#
# 1 0.012780 -0.006147 -0.002351 0.000000 0.000000 0.000000
# 2 -0.006147 0.024997 -0.013870 0.000000 0.000000 0.000000
# 3 -0.002351 -0.013870 0.023370 0.000000 0.000000 0.000000
# 4 0.000000 0.000000 0.000000 0.029258 0.000000 0.000000
# 5 0.000000 0.000000 0.000000 0.000000 0.033631 0.000000
# 6 0.000000 0.000000 0.000000 0.000000 0.000000 0.030360
#
#
# Mechanical properties :
#
#
# Convention : Reuss Voigt Hill
#
# Bulk Modulus (GPa) = 60.93844 61.69695 61.31770
# Shear Modulus (GPa) = 24.43767 27.82409 26.13088
#
# Velocity S-wave (km/s) = 3.51183 3.74726 3.63145
# Velocity P-wave (km/s) = 6.87006 7.06110 6.96623
#
# Compressibility (1/GPa) = 0.01641000
#
# Stress axis : x y z
#
# Youngs Moduli (GPa) = 78.24842 40.00479 42.79035
#
# Poissons Ratio (x) = 0.24590 0.10060
# Poissons Ratio (y) = 0.48097 0.59352
# Poissons Ratio (z) = 0.18397 0.55488
#
# Static dielectric constant tensor:
#      x y z
#    x 3.678470 0.000000 0.000000 
#    y 0.000000 3.639340 0.000000 
#    z 0.000000 0.000000 3.835220 
# 
# 
# High freq. dielectric constant tensor:
#      x y z
#    x 1.774770 0.000000 0.000000 
#    y 0.000000 1.767480 0.000000 
#    z 0.000000 0.000000 1.770610 
# 
# From -- ./inp_files/15076.got.cif
#   From: 2010.03.12/outbox.cif.g09.slc.cpg/sg59_8_cif.got.tgz:15076.got - 2010.04.16 16:29:54.
