data_PCOD8242085
_publ_section_title
;
Structure prediction by ZEFSAII (Michael W. Deem and Ramdas Pophale) SiO2 
 PCOD8242085
Probable space group: P M M N
;
_chemical_formula_sum "Si O2"
_cell_formula_units_Z 40
_cell_length_a 10.176269
_cell_length_b 9.022623
_cell_length_c 24.307689
_cell_angle_alpha 90.000000
_cell_angle_beta 90.000000
_cell_angle_gamma 90.000000
_cell_volume 2231.850299
_symmetry_space_group_name_H-M "P M M N"
_symmetry_group_IT_number 59
_space_group.IT_coordinate_system_code '2'
_symmetry_cell_setting 'orthorhombic'
loop_
_space_group_symop_operation_xyz
x,y,z
1/2-x,1/2-y,z
1/2+x,-y,-z
-x,1/2+y,-z
-x,-y,-z
1/2+x,1/2+y,-z
1/2-x,y,z
x,1/2-y,z
loop_
_atom_site_type_symbol
_atom_site_label
_atom_site_fract_x
_atom_site_fract_y
_atom_site_fract_z
Si Si1 0.750000 0.425565 0.430349
Si Si2 0.597427 0.425065 0.957104
Si Si3 0.094373 0.084140 0.153620
Si Si4 0.098625 0.579305 0.260442
Si Si5 0.001970 0.423801 0.620706
Si Si6 0.750000 0.074193 0.554835
O O1 0.750000 0.250000 0.430318
O O2 0.624677 0.483349 0.398560
O O3 0.750000 0.487095 0.492731
O O4 0.750000 0.468038 0.969307
O O5 0.578238 0.250000 0.959060
O O6 0.551868 0.483141 0.897552
O O7 0.500000 0.500000 0.000000
O O8 0.250000 0.086265 0.157994
O O9 0.038048 0.250000 0.145718
O O10 0.038423 0.015831 0.210254
O O11 0.250000 0.539464 0.272384
O O12 0.085473 0.750000 0.243522
O O13 0.017001 0.543054 0.314948
O O14 0.024985 0.250000 0.610109
O O15 0.878138 0.484609 0.586345
O O16 0.750000 0.250000 0.556766
#
# Coordination Sequence:
#
# PCOD8242085 Si02
#       6
#     4   8   8   8   8   4
#     4  11  23  35  49  75 111 141 168 211 264 317
#     4  10  20  34  54  80 110 144 181 219 260 309
#     4   9  17  29  48  76 108 139 171 213 263 311
#     4   9  16  29  52  78 100 127 170 221 263 305
#     4  10  19  35  57  77 100 136 177 215 259 314
#     4   9  18  35  57  79 101 131 176 221 260 307
#
# _framework density 17.922349000000001
#
# number of rings (size 3 to 8) (size 9 to 14) (size 15 to 20)
#    0.000    2.400    1.000    2.100    0.000    4.400 
#    0.000    1.500    2.200    0.000    0.000    0.000 
#    0.000    0.000    0.000    0.000    0.000    0.000 
#
# Total GULP energy -495991.634446 kJ/mol
# GULP energy per Si atom -12399.790861 kJ/mol
# Density = 1.788156 g / cm^3
# Si number density = 17.922349 Si / 1000 Ang^3
#
#
#
# Elastic Constant Matrix: (Units=GPa)
#
#
# Indices 1 2 3 4 5 6 
#
# 1 94.2526 43.6969 61.2748 0.0000 0.0000 0.0000
# 2 43.6969 87.0718 66.2848 0.0000 0.0000 0.0000
# 3 61.2748 66.2848 151.4167 0.0000 0.0000 0.0000
# 4 0.0000 0.0000 0.0000 33.5081 0.0000 0.0000
# 5 0.0000 0.0000 0.0000 0.0000 25.0940 0.0000
# 6 0.0000 0.0000 0.0000 0.0000 0.0000 -14.8445
#
#
#
# Elastic Compliance Matrix: (Units=1/GPa)
#
#
# Indices 1 2 3 4 5 6 
#
# 1 0.015491 -0.004502 -0.004298 0.000000 0.000000 0.000000
# 2 -0.004502 0.018534 -0.006291 0.000000 0.000000 0.000000
# 3 -0.004298 -0.006291 0.011098 0.000000 0.000000 0.000000
# 4 0.000000 0.000000 0.000000 0.029844 0.000000 0.000000
# 5 0.000000 0.000000 0.000000 0.000000 0.039850 0.000000
# 6 0.000000 0.000000 0.000000 0.000000 0.000000 -0.067365
#
#
# Mechanical properties :
#
#
# Convention : Reuss Voigt Hill
#
# Bulk Modulus (GPa) = 66.93779 75.02821 70.98300
# Shear Modulus (GPa) = 60.52177 19.51716 40.01946
#
# Velocity S-wave (km/s) = 5.81740 3.30356 4.73052
# Velocity P-wave (km/s) = 9.08586 7.51699 8.33840
#
# Compressibility (1/GPa) = 0.01493924
#
# Stress axis : x y z
#
# Youngs Moduli (GPa) = 64.55216 53.95578 90.10853
#
# Poissons Ratio (x) = 0.24293 0.38729
# Poissons Ratio (y) = 0.29064 0.56691
# Poissons Ratio (z) = 0.27745 0.33946
#
# Static dielectric constant tensor:
#      x y z
#    x 2.891070 0.000000 0.000000 
#    y 0.000000 3.315730 0.000000 
#    z 0.000000 0.000000 3.554930 
# 
# 
# High freq. dielectric constant tensor:
#      x y z
#    x 1.662150 0.000000 0.000000 
#    y 0.000000 1.689380 0.000000 
#    z 0.000000 0.000000 1.709730 
# 
# From -- ./inp_files/28750.got.cif
#   From: 2010.03.12/outbox.cif.g09.slc.cpg/sg59_15_cif.got.tgz:28750.got - 2010.04.16 16:29:54.
