data_PCOD8242166
_publ_section_title
;
Structure prediction by ZEFSAII (Michael W. Deem and Ramdas Pophale) SiO2 
 PCOD8242166
Probable space group: P M M N
;
_chemical_formula_sum "Si O2"
_cell_formula_units_Z 48
_cell_length_a 30.198578
_cell_length_b 8.870774
_cell_length_c 9.460057
_cell_angle_alpha 90.000000
_cell_angle_beta 90.000000
_cell_angle_gamma 90.000000
_cell_volume 2534.205104
_symmetry_space_group_name_H-M "P M M N"
_symmetry_group_IT_number 59
_space_group.IT_coordinate_system_code '2'
_symmetry_cell_setting 'orthorhombic'
loop_
_space_group_symop_operation_xyz
x,y,z
1/2-x,1/2-y,z
1/2+x,-y,-z
-x,1/2+y,-z
-x,-y,-z
1/2+x,1/2+y,-z
1/2-x,y,z
x,1/2-y,z
loop_
_atom_site_type_symbol
_atom_site_label
_atom_site_fract_x
_atom_site_fract_y
_atom_site_fract_z
Si Si1 0.074396 0.921709 0.666984
Si Si2 0.329401 0.428727 0.354245
Si Si3 0.921104 0.072727 0.654610
Si Si4 0.997848 0.573151 0.151981
Si Si5 0.676359 0.424489 0.345951
Si Si6 0.750000 0.571791 0.841278
Si Si7 0.750000 0.929283 0.159945
O O1 0.059533 0.750000 0.693417
O O2 0.065082 0.968806 0.505181
O O3 0.125835 0.943929 0.703130
O O4 0.047172 0.029029 0.769744
O O5 0.329305 0.250000 0.374233
O O6 0.377260 0.483072 0.300459
O O7 0.315840 0.503949 0.501310
O O8 0.293912 0.484461 0.239027
O O9 0.910909 0.250000 0.665701
O O10 0.960223 0.018312 0.756634
O O11 0.998889 0.750000 0.132497
O O12 0.000000 0.500000 0.000000
O O13 0.689920 0.250000 0.353900
O O14 0.705994 0.509867 0.233001
O O15 0.750000 0.750000 0.845557
O O16 0.750000 0.508090 0.000030
O O17 0.750000 0.750000 0.167040
#
# Coordination Sequence:
#
# PCOD8242166 Si02
#       7
#     8   8   8   8   8   4   4
#     4   9  19  37  59  81 108 140 180 229 277 327
#     4  10  19  35  60  85 108 141 183 227 273 326
#     4   9  20  38  57  81 111 142 179 228 278 325
#     4  11  23  37  55  80 113 149 184 224 275 330
#     4  10  21  38  58  83 113 144 180 227 279 328
#     4   9  21  37  52  78 114 143 176 225 274 316
#     4  11  22  37  56  80 112 149 188 229 270 322
#
# _framework density 18.940847999999999
#
# number of rings (size 3 to 8) (size 9 to 14) (size 15 to 20)
#    0.000    2.167    0.000    3.750    0.000    6.667 
#    0.000    7.917    0.000    0.000    0.000    0.000 
#    0.000    0.000    0.000    0.000    0.000    0.000 
#
# Total GULP energy -595368.952347 kJ/mol
# GULP energy per Si atom -12403.519841 kJ/mol
# Density = 1.889774 g / cm^3
# Si number density = 18.940848 Si / 1000 Ang^3
#
#
#
# Elastic Constant Matrix: (Units=GPa)
#
#
# Indices 1 2 3 4 5 6 
#
# 1 128.3384 51.6911 91.7763 0.0000 0.0000 0.0000
# 2 51.6911 78.6144 51.1796 0.0000 0.0000 0.0000
# 3 91.7763 51.1796 143.9001 0.0000 0.0000 0.0000
# 4 0.0000 0.0000 0.0000 28.2793 0.0000 0.0000
# 5 0.0000 0.0000 0.0000 0.0000 9.1033 0.0000
# 6 0.0000 0.0000 0.0000 0.0000 0.0000 36.9761
#
#
#
# Elastic Compliance Matrix: (Units=1/GPa)
#
#
# Indices 1 2 3 4 5 6 
#
# 1 0.015674 -0.004943 -0.008239 0.000000 0.000000 0.000000
# 2 -0.004943 0.018112 -0.003289 0.000000 0.000000 0.000000
# 3 -0.008239 -0.003289 0.013374 0.000000 0.000000 0.000000
# 4 0.000000 0.000000 0.000000 0.035362 0.000000 0.000000
# 5 0.000000 0.000000 0.000000 0.000000 0.109850 0.000000
# 6 0.000000 0.000000 0.000000 0.000000 0.000000 0.027044
#
#
# Mechanical properties :
#
#
# Convention : Reuss Voigt Hill
#
# Bulk Modulus (GPa) = 70.33286 82.23856 76.28571
# Shear Modulus (GPa) = 19.44795 25.28547 22.36671
#
# Velocity S-wave (km/s) = 3.20781 3.65769 3.44011
# Velocity P-wave (km/s) = 7.13677 7.83270 7.49282
#
# Compressibility (1/GPa) = 0.01421811
#
# Stress axis : x y z
#
# Youngs Moduli (GPa) = 63.79838 55.21312 74.77363
#
# Poissons Ratio (x) = 0.27290 0.61605
# Poissons Ratio (y) = 0.31533 0.24595
# Poissons Ratio (z) = 0.52563 0.18161
#
# Static dielectric constant tensor:
#      x y z
#    x 3.609460 0.000000 0.000000 
#    y 0.000000 3.432600 0.000000 
#    z 0.000000 0.000000 3.555530 
# 
# 
# High freq. dielectric constant tensor:
#      x y z
#    x 1.747750 0.000000 0.000000 
#    y 0.000000 1.736060 0.000000 
#    z 0.000000 0.000000 1.735020 
# 
# From -- ./inp_files/13034.got.cif
#   From: 2010.03.12/outbox.cif.g09.slc.cpg/sg59_7_cif.got.tgz:13034.got - 2010.04.16 16:29:54.
