data_PCOD8242330
_publ_section_title
;
Structure prediction by ZEFSAII (Michael W. Deem and Ramdas Pophale) SiO2 
 PCOD8242330
Probable space group: P M M N
;
_chemical_formula_sum "Si O2"
_cell_formula_units_Z 64
_cell_length_a 9.249489
_cell_length_b 20.972463
_cell_length_c 18.313993
_cell_angle_alpha 90.000000
_cell_angle_beta 90.000000
_cell_angle_gamma 90.000000
_cell_volume 3552.631981
_symmetry_space_group_name_H-M "P M M N"
_symmetry_group_IT_number 59
_space_group.IT_coordinate_system_code '2'
_symmetry_cell_setting 'orthorhombic'
loop_
_space_group_symop_operation_xyz
x,y,z
1/2-x,1/2-y,z
1/2+x,-y,-z
-x,1/2+y,-z
-x,-y,-z
1/2+x,1/2+y,-z
1/2-x,y,z
x,1/2-y,z
loop_
_atom_site_type_symbol
_atom_site_label
_atom_site_fract_x
_atom_site_fract_y
_atom_site_fract_z
Si Si1 0.912272 0.680332 0.709847
Si Si2 0.082854 0.557110 0.037897
Si Si3 0.588340 0.453559 0.788932
Si Si4 0.918524 0.679631 0.047993
Si Si5 0.586719 0.182146 0.806131
Si Si6 0.583733 0.440071 0.290845
Si Si7 0.581951 0.057520 0.462304
Si Si8 0.912740 0.679546 0.536333
O O1 0.750000 0.668760 0.738378
O O2 0.967627 0.750000 0.737017
O O3 0.915604 0.679296 0.623088
O O4 0.011383 0.624066 0.741211
O O5 0.250000 0.556274 0.014441
O O6 0.063396 0.549333 0.124518
O O7 0.011513 0.623657 0.009579
O O8 0.000000 0.500000 0.000000
O O9 0.750000 0.477673 0.770360
O O10 0.562862 0.381325 0.757105
O O11 0.474808 0.498876 0.750928
O O12 0.750000 0.661287 0.044347
O O13 0.944674 0.750000 0.011743
O O14 0.966877 0.683674 0.131639
O O15 0.750000 0.176236 0.840400
O O16 0.574977 0.250000 0.762109
O O17 0.750000 0.433839 0.272568
O O18 0.553927 0.448415 0.376313
O O19 0.750000 0.054358 0.482399
O O20 0.519609 0.124618 0.493065
O O21 0.500000 0.000000 0.500000
O O22 0.750000 0.665112 0.508751
O O23 0.962304 0.750000 0.508480
#
# Coordination Sequence:
#
# PCOD8242330 Si02
#       8
#     8   8   8   8   8   8   8   8
#     4   8  14  26  45  67  90 118 152 188 228 275
#     4  10  20  33  50  72  97 126 159 194 234 279
#     4   9  18  31  48  70  95 125 157 188 229 281
#     4   9  16  26  43  68  95 122 154 192 232 274
#     4   8  14  26  44  66  91 118 152 194 234 271
#     4  10  20  31  46  70  97 124 155 193 234 275
#     4  10  20  32  47  69  95 124 159 196 235 278
#     4   8  14  26  45  68  92 118 149 187 232 279
#
# _framework density 18.014811999999999
#
# number of rings (size 3 to 8) (size 9 to 14) (size 15 to 20)
#    0.000    3.000    0.000    3.000    0.000    5.250 
#    0.000    2.500    0.000    1.500    0.000    8.750 
#    0.000    0.000    0.000    0.000    0.000    0.000 
#
# Total GULP energy -792916.410942 kJ/mol
# GULP energy per Si atom -12389.318921 kJ/mol
# Density = 1.797381 g / cm^3
# Si number density = 18.014812 Si / 1000 Ang^3
#
#
#
# Elastic Constant Matrix: (Units=GPa)
#
#
# Indices 1 2 3 4 5 6 
#
# 1 123.8224 98.1165 26.6159 0.0000 0.0000 0.0000
# 2 98.1165 201.8547 30.4909 0.0000 0.0000 0.0000
# 3 26.6159 30.4909 15.5875 0.0000 0.0000 0.0000
# 4 0.0000 0.0000 0.0000 22.8883 0.0000 0.0000
# 5 0.0000 0.0000 0.0000 0.0000 19.8055 0.0000
# 6 0.0000 0.0000 0.0000 0.0000 0.0000 35.7538
#
#
#
# Elastic Compliance Matrix: (Units=1/GPa)
#
#
# Indices 1 2 3 4 5 6 
#
# 1 0.015758 -0.005103 -0.016925 0.000000 0.000000 0.000000
# 2 -0.005103 0.008684 -0.008274 0.000000 0.000000 0.000000
# 3 -0.016925 -0.008274 0.109238 0.000000 0.000000 0.000000
# 4 0.000000 0.000000 0.000000 0.043690 0.000000 0.000000
# 5 0.000000 0.000000 0.000000 0.000000 0.050491 0.000000
# 6 0.000000 0.000000 0.000000 0.000000 0.000000 0.027969
#
#
# Mechanical properties :
#
#
# Convention : Reuss Voigt Hill
#
# Bulk Modulus (GPa) = 13.68428 72.41236 43.04832
# Shear Modulus (GPa) = 14.67171 28.09228 21.38199
#
# Velocity S-wave (km/s) = 2.85691 3.95321 3.44890
# Velocity P-wave (km/s) = 4.30060 7.81795 6.30934
#
# Compressibility (1/GPa) = 0.07307654
#
# Stress axis : x y z
#
# Youngs Moduli (GPa) = 63.46178 115.15095 9.15434
#
# Poissons Ratio (x) = 0.58759 0.15493
# Poissons Ratio (y) = 0.32383 0.07574
# Poissons Ratio (z) = 1.07406 0.95278
#
# Static dielectric constant tensor:
#      x y z
#    x 3.446000 0.000000 0.000000 
#    y 0.000000 4.019430 0.000000 
#    z 0.000000 0.000000 2.695110 
# 
# 
# High freq. dielectric constant tensor:
#      x y z
#    x 1.705130 0.000000 0.000000 
#    y 0.000000 1.728360 0.000000 
#    z 0.000000 0.000000 1.619440 
# 
# From -- ./inp_files/26332.got.cif
#   From: 2010.03.12/outbox.cif.g09.slc.cpg/sg59_14_cif.got.tgz:26332.got - 2010.04.16 16:29:54.
