data_PCOD8242444
_publ_section_title
;
Structure prediction by ZEFSAII (Michael W. Deem and Ramdas Pophale) SiO2 
 PCOD8242444
Probable space group: P M M N
;
_chemical_formula_sum "Si O2"
_cell_formula_units_Z 64
_cell_length_a 18.317841
_cell_length_b 9.025814
_cell_length_c 21.471550
_cell_angle_alpha 90.000000
_cell_angle_beta 90.000000
_cell_angle_gamma 90.000000
_cell_volume 3549.964918
_symmetry_space_group_name_H-M "P M M N"
_symmetry_group_IT_number 59
_space_group.IT_coordinate_system_code '2'
_symmetry_cell_setting 'orthorhombic'
loop_
_space_group_symop_operation_xyz
x,y,z
1/2-x,1/2-y,z
1/2+x,-y,-z
-x,1/2+y,-z
-x,-y,-z
1/2+x,1/2+y,-z
1/2-x,y,z
x,1/2-y,z
loop_
_atom_site_type_symbol
_atom_site_label
_atom_site_fract_x
_atom_site_fract_y
_atom_site_fract_z
Si Si1 0.524247 0.575225 0.563174
Si Si2 0.670068 0.074813 0.110551
Si Si3 0.668726 0.921450 0.629706
Si Si4 0.577572 0.073562 0.995876
Si Si5 0.335552 0.578857 0.750491
Si Si6 0.605814 0.076840 0.745632
Si Si7 0.541302 0.576832 0.320171
Si Si8 0.332922 0.926195 0.123905
O O1 0.500000 0.500000 0.500000
O O2 0.513725 0.750000 0.557271
O O3 0.608597 0.531445 0.578236
O O4 0.472761 0.514387 0.617386
O O5 0.750000 0.004803 0.099910
O O6 0.676457 0.250000 0.104972
O O7 0.641703 0.033156 0.179314
O O8 0.617628 0.012626 0.057447
O O9 0.750000 0.955713 0.603462
O O10 0.658705 0.750000 0.645687
O O11 0.658264 0.006564 0.694205
O O12 0.570042 0.250000 0.995124
O O13 0.621623 0.015986 0.935481
O O14 0.500000 0.000000 0.000000
O O15 0.250000 0.551055 0.739305
O O16 0.355235 0.750000 0.737605
O O17 0.380429 0.473325 0.704964
O O18 0.620933 0.250000 0.743257
O O19 0.521247 0.039975 0.730849
O O20 0.627205 0.013999 0.813650
O O21 0.542989 0.750000 0.336384
O O22 0.250000 0.987515 0.120783
O O23 0.331556 0.750000 0.123394
#
# Coordination Sequence:
#
# PCOD8242444 Si02
#       8
#     8   8   8   8   8   8   8   8
#     4  10  20  36  57  79 107 142 178 214 252 300
#     4   8  15  30  51  71  91 124 172 217 255 305
#     4   9  18  33  53  78 106 135 168 207 252 299
#     4  10  20  32  48  70  96 128 167 211 258 307
#     4   9  18  33  53  75  99 130 173 222 266 309
#     4   9  18  31  49  75 103 133 168 207 250 301
#     4  10  20  33  52  78 108 138 168 207 256 310
#     4   9  17  30  49  71  96 129 168 208 250 299
#
# _framework density 18.028348999999999
#
# number of rings (size 3 to 8) (size 9 to 14) (size 15 to 20)
#    0.000    2.750    0.000    2.250    1.750    3.500 
#    0.000    1.250    0.000    5.250    0.000    0.000 
#    0.000    0.000    0.000    0.000    0.000    0.000 
#
# Total GULP energy -793453.423184 kJ/mol
# GULP energy per Si atom -12397.709737 kJ/mol
# Density = 1.798732 g / cm^3
# Si number density = 18.028349 Si / 1000 Ang^3
#
#
#
# Elastic Constant Matrix: (Units=GPa)
#
#
# Indices 1 2 3 4 5 6 
#
# 1 119.2431 37.3324 83.0770 0.0000 0.0000 0.0000
# 2 37.3324 43.5993 42.6481 0.0000 0.0000 0.0000
# 3 83.0770 42.6481 142.9400 0.0000 0.0000 0.0000
# 4 0.0000 0.0000 0.0000 21.0596 0.0000 0.0000
# 5 0.0000 0.0000 0.0000 0.0000 26.2305 0.0000
# 6 0.0000 0.0000 0.0000 0.0000 0.0000 27.2412
#
#
#
# Elastic Compliance Matrix: (Units=1/GPa)
#
#
# Indices 1 2 3 4 5 6 
#
# 1 0.015183 -0.006169 -0.006984 0.000000 0.000000 0.000000
# 2 -0.006169 0.034896 -0.006826 0.000000 0.000000 0.000000
# 3 -0.006984 -0.006826 0.013092 0.000000 0.000000 0.000000
# 4 0.000000 0.000000 0.000000 0.047484 0.000000 0.000000
# 5 0.000000 0.000000 0.000000 0.000000 0.038124 0.000000
# 6 0.000000 0.000000 0.000000 0.000000 0.000000 0.036709
#
#
# Mechanical properties :
#
#
# Convention : Reuss Voigt Hill
#
# Bulk Modulus (GPa) = 43.08069 70.21084 56.64576
# Shear Modulus (GPa) = 21.44230 24.42125 22.93178
#
# Velocity S-wave (km/s) = 3.45246 3.68449 3.57036
# Velocity P-wave (km/s) = 6.31194 7.55843 6.96313
#
# Compressibility (1/GPa) = 0.02321225
#
# Stress axis : x y z
#
# Youngs Moduli (GPa) = 65.86110 28.65673 76.38473
#
# Poissons Ratio (x) = 0.17680 0.53346
# Poissons Ratio (y) = 0.40633 0.52140
# Poissons Ratio (z) = 0.45997 0.19561
#
# Static dielectric constant tensor:
#      x y z
#    x 3.479570 0.000000 0.000000 
#    y 0.000000 3.063610 0.000000 
#    z 0.000000 0.000000 3.512120 
# 
# 
# High freq. dielectric constant tensor:
#      x y z
#    x 1.704600 0.000000 0.000000 
#    y 0.000000 1.671750 0.000000 
#    z 0.000000 0.000000 1.696310 
# 
# From -- ./inp_files/30768.got.cif
#   From: 2010.03.12/outbox.cif.g09.slc.cpg/sg59_16_cif.got.tgz:30768.got - 2010.04.16 16:29:54.
