data_PCOD8242838
_publ_section_title
;
Structure prediction by ZEFSAII (Michael W. Deem and Ramdas Pophale) SiO2 
 PCOD8242838
Probable space group: P M M N
;
_chemical_formula_sum "Si O2"
_cell_formula_units_Z 48
_cell_length_a 16.696417
_cell_length_b 8.715619
_cell_length_c 18.466221
_cell_angle_alpha 90.000000
_cell_angle_beta 90.000000
_cell_angle_gamma 90.000000
_cell_volume 2687.197264
_symmetry_space_group_name_H-M "P M M N"
_symmetry_group_IT_number 59
_space_group.IT_coordinate_system_code '2'
_symmetry_cell_setting 'orthorhombic'
loop_
_space_group_symop_operation_xyz
x,y,z
1/2-x,1/2-y,z
1/2+x,-y,-z
-x,1/2+y,-z
-x,-y,-z
1/2+x,1/2+y,-z
1/2-x,y,z
x,1/2-y,z
loop_
_atom_site_type_symbol
_atom_site_label
_atom_site_fract_x
_atom_site_fract_y
_atom_site_fract_z
Si Si1 0.428844 0.926743 0.301243
Si Si2 0.481700 0.074310 0.075887
Si Si3 0.016678 0.569705 0.577511
Si Si4 0.931844 0.427856 0.215809
Si Si5 0.659622 0.929587 0.330690
Si Si6 0.339684 0.569763 0.164549
O O1 0.424491 0.750000 0.325339
O O2 0.354171 0.972913 0.249630
O O3 0.438425 0.029993 0.373202
O O4 0.506021 0.956212 0.252157
O O5 0.466186 0.250000 0.060627
O O6 0.558743 0.050117 0.129203
O O7 0.400310 0.012300 0.110656
O O8 0.500000 0.000000 0.000000
O O9 0.027642 0.750000 0.571324
O O10 0.097712 0.498500 0.611001
O O11 0.000000 0.500000 0.500000
O O12 0.948792 0.250000 0.236538
O O13 0.848666 0.484607 0.251792
O O14 0.750000 0.959009 0.358297
O O15 0.642580 0.750000 0.321386
O O16 0.250000 0.518044 0.144357
O O17 0.352234 0.750000 0.154258
#
# Coordination Sequence:
#
# PCOD8242838 Si02
#       6
#     8   8   8   8   8   8
#     4   9  16  29  50  73  97 127 163 201 243 295
#     4  10  20  33  51  75 102 135 172 210 253 302
#     4  11  21  34  53  75 102 136 172 209 251 300
#     4   9  17  30  49  72  96 125 164 203 241 292
#     4  10  20  34  53  77 103 130 164 208 255 302
#     4   9  18  33  53  76 102 132 166 207 254 302
#
# _framework density 17.862477999999999
#
# number of rings (size 3 to 8) (size 9 to 14) (size 15 to 20)
#    0.000    2.333    0.000    5.500    0.000    4.333 
#    0.000    1.667    0.000    4.000    0.000    0.000 
#    0.000    0.000    0.000    0.000    0.000    0.000 
#
# Total GULP energy -594702.969449 kJ/mol
# GULP energy per Si atom -12389.645197 kJ/mol
# Density = 1.782182 g / cm^3
# Si number density = 17.862478 Si / 1000 Ang^3
#
#
#
# Elastic Constant Matrix: (Units=GPa)
#
#
# Indices 1 2 3 4 5 6 
#
# 1 90.2287 53.7227 61.1425 0.0000 0.0000 0.0000
# 2 53.7227 104.4696 67.9478 0.0000 0.0000 0.0000
# 3 61.1425 67.9478 152.1379 0.0000 0.0000 0.0000
# 4 0.0000 0.0000 0.0000 33.6272 0.0000 0.0000
# 5 0.0000 0.0000 0.0000 0.0000 20.6436 0.0000
# 6 0.0000 0.0000 0.0000 0.0000 0.0000 22.6785
#
#
#
# Elastic Compliance Matrix: (Units=1/GPa)
#
#
# Indices 1 2 3 4 5 6 
#
# 1 0.017780 -0.006336 -0.004316 0.000000 0.000000 0.000000
# 2 -0.006336 0.015749 -0.004487 0.000000 0.000000 0.000000
# 3 -0.004316 -0.004487 0.010312 0.000000 0.000000 0.000000
# 4 0.000000 0.000000 0.000000 0.029738 0.000000 0.000000
# 5 0.000000 0.000000 0.000000 0.000000 0.048441 0.000000
# 6 0.000000 0.000000 0.000000 0.000000 0.000000 0.044095
#
#
# Mechanical properties :
#
#
# Convention : Reuss Voigt Hill
#
# Bulk Modulus (GPa) = 73.73525 79.16249 76.44887
# Shear Modulus (GPa) = 24.88627 26.32475 25.60551
#
# Velocity S-wave (km/s) = 3.73663 3.84310 3.79024
# Velocity P-wave (km/s) = 7.74503 8.00666 7.87693
#
# Compressibility (1/GPa) = 0.01356203
#
# Stress axis : x y z
#
# Youngs Moduli (GPa) = 56.24258 63.49519 96.97831
#
# Poissons Ratio (x) = 0.40233 0.41853
# Poissons Ratio (y) = 0.35637 0.43518
# Poissons Ratio (z) = 0.24273 0.28493
#
# Static dielectric constant tensor:
#      x y z
#    x 3.909220 0.000000 0.000000 
#    y 0.000000 3.418950 0.000000 
#    z 0.000000 0.000000 3.500100 
# 
# 
# High freq. dielectric constant tensor:
#      x y z
#    x 1.666220 0.000000 0.000000 
#    y 0.000000 1.706710 0.000000 
#    z 0.000000 0.000000 1.687130 
# 
# From -- ./inp_files/27780.got.cif
#   From: 2010.03.12/outbox.cif.g09.slc.cpg/sg59_14_cif.got.tgz:27780.got - 2010.04.16 16:29:54.
