data_PCOD8242121
_publ_section_title
;
Structure prediction by ZEFSAII (Michael W. Deem and Ramdas Pophale) SiO2 
 PCOD8242121
Probable space group: P M M N
;
_chemical_formula_sum "Si O2"
_cell_formula_units_Z 48
_cell_length_a 15.017214
_cell_length_b 18.766811
_cell_length_c 9.099945
_cell_angle_alpha 90.000000
_cell_angle_beta 90.000000
_cell_angle_gamma 90.000000
_cell_volume 2564.593973
_symmetry_space_group_name_H-M "P M M N"
_symmetry_group_IT_number 59
_space_group.IT_coordinate_system_code '2'
_symmetry_cell_setting 'orthorhombic'
loop_
_space_group_symop_operation_xyz
x,y,z
1/2-x,1/2-y,z
1/2+x,-y,-z
-x,1/2+y,-z
-x,-y,-z
1/2+x,1/2+y,-z
1/2-x,y,z
x,1/2-y,z
loop_
_atom_site_type_symbol
_atom_site_label
_atom_site_fract_x
_atom_site_fract_y
_atom_site_fract_z
Si Si1 0.996517 0.829071 0.178423
Si Si2 0.578672 0.468126 0.104377
Si Si3 0.147365 0.083881 0.335317
Si Si4 0.150640 0.939714 0.184781
Si Si5 0.014058 0.330899 0.160158
Si Si6 0.646625 0.587232 0.322535
O O1 0.030425 0.750000 0.210328
O O2 0.910492 0.843935 0.278443
O O3 0.080443 0.877946 0.220964
O O4 0.961998 0.837875 0.011761
O O5 0.557787 0.393453 0.188535
O O6 0.609218 0.521255 0.230130
O O7 0.500000 0.500000 0.000000
O O8 0.658358 0.452222 0.990569
O O9 0.250000 0.096600 0.299609
O O10 0.098040 0.151899 0.264252
O O11 0.129612 0.074168 0.506807
O O12 0.112933 0.011178 0.260850
O O13 0.250000 0.920323 0.243227
O O14 0.980222 0.250000 0.195560
O O15 0.750000 0.600713 0.287764
#
# Coordination Sequence:
#
# PCOD8242121 Si02
#       6
#     8   8   8   8   8   8
#     4  10  21  37  55  81 113 145 186 233 282 335
#     4  11  18  36  58  85 107 144 188 238 280 328
#     4  10  21  35  53  81 112 146 190 233 279 336
#     4  10  19  35  58  82 109 145 187 232 280 335
#     4  10  20  35  54  78 111 147 183 228 282 337
#     4  11  22  36  57  82 112 148 188 236 283 332
#
# _framework density 18.716412999999999
#
# number of rings (size 3 to 8) (size 9 to 14) (size 15 to 20)
#    0.000    1.667    5.000    0.500    0.000    6.333 
#    0.000    3.333    0.000    1.500    0.000    2.333 
#    0.000    2.667    0.000    0.000    0.000    0.000 
#
# Total GULP energy -594902.190924 kJ/mol
# GULP energy per Si atom -12393.795644 kJ/mol
# Density = 1.867381 g / cm^3
# Si number density = 18.716413 Si / 1000 Ang^3
#
#
#
# Elastic Constant Matrix: (Units=GPa)
#
#
# Indices 1 2 3 4 5 6 
#
# 1 81.4585 42.5636 31.2859 0.0000 0.0000 0.0000
# 2 42.5636 117.2212 24.1262 0.0000 0.0000 0.0000
# 3 31.2859 24.1262 55.2029 0.0000 0.0000 0.0000
# 4 0.0000 0.0000 0.0000 16.1374 0.0000 0.0000
# 5 0.0000 0.0000 0.0000 0.0000 29.9011 0.0000
# 6 0.0000 0.0000 0.0000 0.0000 0.0000 21.4481
#
#
#
# Elastic Compliance Matrix: (Units=1/GPa)
#
#
# Indices 1 2 3 4 5 6 
#
# 1 0.017888 -0.004844 -0.008021 0.000000 0.000000 0.000000
# 2 -0.004844 0.010686 -0.001925 0.000000 0.000000 0.000000
# 3 -0.008021 -0.001925 0.023502 0.000000 0.000000 0.000000
# 4 0.000000 0.000000 0.000000 0.061968 0.000000 0.000000
# 5 0.000000 0.000000 0.000000 0.000000 0.033444 0.000000
# 6 0.000000 0.000000 0.000000 0.000000 0.000000 0.046624
#
#
# Mechanical properties :
#
#
# Convention : Reuss Voigt Hill
#
# Bulk Modulus (GPa) = 44.45193 49.98157 47.21675
# Shear Modulus (GPa) = 21.62723 23.89113 22.75918
#
# Velocity S-wave (km/s) = 3.40299 3.57666 3.49090
# Velocity P-wave (km/s) = 6.26436 6.61962 6.44444
#
# Compressibility (1/GPa) = 0.02249621
#
# Stress axis : x y z
#
# Youngs Moduli (GPa) = 55.90340 93.57986 42.54982
#
# Poissons Ratio (x) = 0.45334 0.34128
# Poissons Ratio (y) = 0.27082 0.08190
# Poissons Ratio (z) = 0.44838 0.18012
#
# Static dielectric constant tensor:
#      x y z
#    x 3.431180 0.000000 0.000000 
#    y 0.000000 3.724880 0.000000 
#    z 0.000000 0.000000 3.525570 
# 
# 
# High freq. dielectric constant tensor:
#      x y z
#    x 1.717210 0.000000 0.000000 
#    y 0.000000 1.728170 0.000000 
#    z 0.000000 0.000000 1.720710 
# 
# From -- ./inp_files/9060.got.cif
#   From: 2010.03.12/outbox.cif.g09.slc.cpg/sg59_5_cif.got.tgz:9060.got - 2010.04.16 16:29:54.
