data_PCOD8242293
_publ_section_title
;
Structure prediction by ZEFSAII (Michael W. Deem and Ramdas Pophale) SiO2 
 PCOD8242293
Probable space group: P M M N
;
_chemical_formula_sum "Si O2"
_cell_formula_units_Z 64
_cell_length_a 30.081329
_cell_length_b 9.106259
_cell_length_c 14.981880
_cell_angle_alpha 90.000000
_cell_angle_beta 90.000000
_cell_angle_gamma 90.000000
_cell_volume 4103.962012
_symmetry_space_group_name_H-M "P M M N"
_symmetry_group_IT_number 59
_space_group.IT_coordinate_system_code '2'
_symmetry_cell_setting 'orthorhombic'
loop_
_space_group_symop_operation_xyz
x,y,z
1/2-x,1/2-y,z
1/2+x,-y,-z
-x,1/2+y,-z
-x,-y,-z
1/2+x,1/2+y,-z
1/2-x,y,z
x,1/2-y,z
loop_
_atom_site_type_symbol
_atom_site_label
_atom_site_fract_x
_atom_site_fract_y
_atom_site_fract_z
Si Si1 0.697609 0.419652 0.275797
Si Si2 0.870551 0.579583 0.611392
Si Si3 0.044581 0.583948 0.603761
Si Si4 0.697086 0.585780 0.100191
Si Si5 0.802839 0.087102 0.931678
Si Si6 0.867171 0.578890 0.402608
Si Si7 0.041530 0.915795 0.391325
Si Si8 0.801673 0.421225 0.732403
O O1 0.750000 0.440620 0.286899
O O2 0.683753 0.250000 0.278708
O O3 0.680609 0.486472 0.182259
O O4 0.675336 0.505846 0.356960
O O5 0.877583 0.750000 0.631931
O O6 0.861946 0.551312 0.507443
O O7 0.914392 0.495038 0.645034
O O8 0.828060 0.520216 0.663201
O O9 0.046495 0.750000 0.640661
O O10 0.088264 0.496832 0.635066
O O11 0.041497 0.583987 0.497633
O O12 0.001515 0.502928 0.644581
O O13 0.750000 0.586785 0.096816
O O14 0.678321 0.750000 0.112269
O O15 0.677863 0.521012 0.007365
O O16 0.750000 0.093117 0.936682
O O17 0.821785 0.250000 0.950074
O O18 0.816773 0.034232 0.832738
O O19 0.869309 0.750000 0.379113
O O20 0.040197 0.750000 0.354182
O O21 0.750000 0.455834 0.717930
O O22 0.811461 0.250000 0.715149
#
# Coordination Sequence:
#
# PCOD8242293 Si02
#       8
#     8   8   8   8   8   8   8   8
#     4  10  20  32  45  61  83 114 150 184 217 255
#     4  10  20  31  43  61  86 116 149 184 219 255
#     4   9  16  27  44  64  84 106 136 175 218 261
#     4   9  16  26  42  63  84 106 134 172 218 262
#     4   8  14  26  43  61  81 106 137 174 216 259
#     4  10  20  32  44  60  85 116 149 183 218 256
#     4   9  16  27  44  63  83 108 138 174 217 261
#     4   9  18  31  45  61  84 116 151 184 217 255
#
# _framework density 15.594687
#
# number of rings (size 3 to 8) (size 9 to 14) (size 15 to 20)
#    0.000    2.750    0.000    3.000    0.000    8.000 
#    0.000    3.750    0.000    0.000    0.000    0.000 
#    0.000    1.000    0.000    3.750    0.000    5.750 
#
# Total GULP energy -793519.007833 kJ/mol
# GULP energy per Si atom -12398.734497 kJ/mol
# Density = 1.555919 g / cm^3
# Si number density = 15.594687 Si / 1000 Ang^3
#
#
#
# Elastic Constant Matrix: (Units=GPa)
#
#
# Indices 1 2 3 4 5 6 
#
# 1 60.4783 50.8252 36.0163 0.0000 0.0000 0.0000
# 2 50.8252 134.4887 52.3515 0.0000 0.0000 0.0000
# 3 36.0163 52.3515 57.9471 0.0000 0.0000 0.0000
# 4 0.0000 0.0000 0.0000 24.7803 0.0000 0.0000
# 5 0.0000 0.0000 0.0000 0.0000 0.8870 0.0000
# 6 0.0000 0.0000 0.0000 0.0000 0.0000 28.7047
#
#
#
# Elastic Compliance Matrix: (Units=1/GPa)
#
#
# Indices 1 2 3 4 5 6 
#
# 1 0.029191 -0.006122 -0.012612 0.000000 0.000000 0.000000
# 2 -0.006122 0.012753 -0.007716 0.000000 0.000000 0.000000
# 3 -0.012612 -0.007716 0.032067 0.000000 0.000000 0.000000
# 4 0.000000 0.000000 0.000000 0.040355 0.000000 0.000000
# 5 0.000000 0.000000 0.000000 0.000000 1.127338 0.000000
# 6 0.000000 0.000000 0.000000 0.000000 0.000000 0.034838
#
#
# Mechanical properties :
#
#
# Convention : Reuss Voigt Hill
#
# Bulk Modulus (GPa) = 47.37175 59.03335 53.20255
# Shear Modulus (GPa) = 3.74118 18.45582 11.09850
#
# Velocity S-wave (km/s) = 1.55055 3.44389 2.67064
# Velocity P-wave (km/s) = 5.80073 7.33149 6.61057
#
# Compressibility (1/GPa) = 0.02110963
#
# Stress axis : x y z
#
# Youngs Moduli (GPa) = 34.25754 78.41382 31.18451
#
# Poissons Ratio (x) = 0.48006 0.39330
# Poissons Ratio (y) = 0.20973 0.24063
# Poissons Ratio (z) = 0.43206 0.60506
#
# Static dielectric constant tensor:
#      x y z
#    x 2.787810 0.000000 0.000000 
#    y 0.000000 3.201860 0.000000 
#    z 0.000000 0.000000 2.815030 
# 
# 
# High freq. dielectric constant tensor:
#      x y z
#    x 1.569250 0.000000 0.000000 
#    y 0.000000 1.616600 0.000000 
#    z 0.000000 0.000000 1.567110 
# 
# From -- ./inp_files/25112.got.cif
#   From: 2010.03.12/outbox.cif.g09.slc.cpg/sg59_13_cif.got.tgz:25112.got - 2010.04.16 16:29:54.
