data_PCOD8242930
_publ_section_title
;
Structure prediction by ZEFSAII (Michael W. Deem and Ramdas Pophale) SiO2 
 PCOD8242930
Probable space group: P M M N
;
_chemical_formula_sum "Si O2"
_cell_formula_units_Z 48
_cell_length_a 8.923914
_cell_length_b 9.403769
_cell_length_c 29.000190
_cell_angle_alpha 90.000000
_cell_angle_beta 90.000000
_cell_angle_gamma 90.000000
_cell_volume 2433.650294
_symmetry_space_group_name_H-M "P M M N"
_symmetry_group_IT_number 59
_space_group.IT_coordinate_system_code '2'
_symmetry_cell_setting 'orthorhombic'
loop_
_space_group_symop_operation_xyz
x,y,z
1/2-x,1/2-y,z
1/2+x,-y,-z
-x,1/2+y,-z
-x,-y,-z
1/2+x,1/2+y,-z
1/2-x,y,z
x,1/2-y,z
loop_
_atom_site_type_symbol
_atom_site_label
_atom_site_fract_x
_atom_site_fract_y
_atom_site_fract_z
Si Si1 0.428144 0.588049 0.368994
Si Si2 0.928406 0.588946 0.717710
Si Si3 0.426521 0.250000 0.070378
Si Si4 0.072383 0.085224 0.458408
Si Si5 0.426653 0.021352 0.895342
Si Si6 0.579817 0.408193 0.803524
Si Si7 0.572944 0.750000 0.032426
O O1 0.250000 0.593676 0.367256
O O2 0.491594 0.750000 0.371585
O O3 0.492039 0.507187 0.323957
O O4 0.482438 0.495238 0.412427
O O5 0.750000 0.590427 0.715298
O O6 0.991338 0.750000 0.714321
O O7 0.981553 0.519285 0.765765
O O8 0.250000 0.250000 0.066710
O O9 0.482187 0.378463 0.100859
O O10 0.498562 0.250000 0.018771
O O11 0.250000 0.078429 0.463336
O O12 0.018305 0.250000 0.457452
O O13 0.000000 0.000000 0.500000
O O14 0.250000 0.995514 0.896169
O O15 0.471687 0.093417 0.847512
O O16 0.480704 0.113431 0.939073
O O17 0.750000 0.447299 0.818250
O O18 0.576059 0.250000 0.781734
O O19 0.750000 0.750000 0.028817
#
# Coordination Sequence:
#
# PCOD8242930 Si02
#       7
#     8   8   4   8   8   8   4
#     4   9  16  28  48  74 105 141 181 228 280 331
#     4   9  17  29  48  75 106 138 175 225 277 322
#     4  11  23  39  59  85 113 143 183 231 272 317
#     4  10  20  33  51  77 109 146 189 235 284 336
#     4  11  22  39  59  83 113 148 182 221 274 332
#     4  10  20  34  53  79 108 140 179 223 271 323
#     4   9  20  39  61  83 111 145 185 225 268 323
#
# _framework density 19.723458000000001
#
# number of rings (size 3 to 8) (size 9 to 14) (size 15 to 20)
#    0.000    2.167    0.833    2.750    1.167    5.000 
#    0.000    2.500    0.000    1.000    0.000    0.000 
#    0.000    0.000    0.000    0.000    0.000    0.000 
#
# Total GULP energy -595123.122019 kJ/mol
# GULP energy per Si atom -12398.398375 kJ/mol
# Density = 1.967857 g / cm^3
# Si number density = 19.723458 Si / 1000 Ang^3
#
#
#
# Elastic Constant Matrix: (Units=GPa)
#
#
# Indices 1 2 3 4 5 6 
#
# 1 33.1100 21.4272 19.4781 0.0000 0.0000 0.0000
# 2 21.4272 166.3925 57.9400 0.0000 0.0000 0.0000
# 3 19.4781 57.9400 120.7625 0.0000 0.0000 0.0000
# 4 0.0000 0.0000 0.0000 41.7525 0.0000 0.0000
# 5 0.0000 0.0000 0.0000 0.0000 24.1816 0.0000
# 6 0.0000 0.0000 0.0000 0.0000 0.0000 13.5413
#
#
#
# Elastic Compliance Matrix: (Units=1/GPa)
#
#
# Indices 1 2 3 4 5 6 
#
# 1 0.034584 -0.003015 -0.004132 0.000000 0.000000 0.000000
# 2 -0.003015 0.007478 -0.003102 0.000000 0.000000 0.000000
# 3 -0.004132 -0.003102 0.010435 0.000000 0.000000 0.000000
# 4 0.000000 0.000000 0.000000 0.023951 0.000000 0.000000
# 5 0.000000 0.000000 0.000000 0.000000 0.041354 0.000000
# 6 0.000000 0.000000 0.000000 0.000000 0.000000 0.073848
#
#
# Mechanical properties :
#
#
# Convention : Reuss Voigt Hill
#
# Bulk Modulus (GPa) = 31.24889 57.55060 44.39974
# Shear Modulus (GPa) = 22.44030 30.65638 26.54834
#
# Velocity S-wave (km/s) = 3.37671 3.94675 3.67281
# Velocity P-wave (km/s) = 5.57502 7.07186 6.36758
#
# Compressibility (1/GPa) = 0.03200114
#
# Stress axis : x y z
#
# Youngs Moduli (GPa) = 28.91507 133.72282 95.82914
#
# Poissons Ratio (x) = 0.40316 0.39593
# Poissons Ratio (y) = 0.08718 0.29723
# Poissons Ratio (z) = 0.11947 0.41476
#
# Static dielectric constant tensor:
#      x y z
#    x 3.068690 0.000000 0.000000 
#    y 0.000000 3.867430 0.000000 
#    z 0.000000 0.000000 3.728550 
# 
# 
# High freq. dielectric constant tensor:
#      x y z
#    x 1.714660 0.000000 0.000000 
#    y 0.000000 1.788810 0.000000 
#    z 0.000000 0.000000 1.779300 
# 
# From -- ./inp_files/33047.got.cif
#   From: 2010.03.12/outbox.cif.g09.slc.cpg/sg59_17_cif.got.tgz:33047.got - 2010.04.16 16:29:54.
