data_PCOD8242194
_publ_section_title
;
Structure prediction by ZEFSAII (Michael W. Deem and Ramdas Pophale) SiO2 
 PCOD8242194
Probable space group: P M M N
;
_chemical_formula_sum "Si O2"
_cell_formula_units_Z 64
_cell_length_a 13.835010
_cell_length_b 18.463305
_cell_length_c 12.286386
_cell_angle_alpha 90.000000
_cell_angle_beta 90.000000
_cell_angle_gamma 90.000000
_cell_volume 3138.434554
_symmetry_space_group_name_H-M "P M M N"
_symmetry_group_IT_number 59
_space_group.IT_coordinate_system_code '2'
_symmetry_cell_setting 'orthorhombic'
loop_
_space_group_symop_operation_xyz
x,y,z
1/2-x,1/2-y,z
1/2+x,-y,-z
-x,1/2+y,-z
-x,-y,-z
1/2+x,1/2+y,-z
1/2-x,y,z
x,1/2-y,z
loop_
_atom_site_type_symbol
_atom_site_label
_atom_site_fract_x
_atom_site_fract_y
_atom_site_fract_z
Si Si1 0.140116 0.173321 0.972599
Si Si2 0.046659 0.941702 0.871405
Si Si3 0.138966 0.527331 0.088379
Si Si4 0.136721 0.422969 0.785521
Si Si5 0.923187 0.831392 0.788841
Si Si6 0.360369 0.577216 0.327952
Si Si7 0.640929 0.581626 0.591167
Si Si8 0.036596 0.337075 0.598342
O O1 0.250000 0.177346 0.933746
O O2 0.089052 0.250000 0.941141
O O3 0.095772 0.108383 0.900777
O O4 0.136689 0.163704 0.100540
O O5 0.030714 0.865812 0.808182
O O6 0.087187 0.998228 0.781871
O O7 0.115604 0.929032 0.976275
O O8 0.936680 0.961417 0.908722
O O9 0.250000 0.498408 0.081203
O O10 0.125760 0.575575 0.196838
O O11 0.250000 0.435484 0.779500
O O12 0.106188 0.368685 0.690937
O O13 0.937695 0.750000 0.746491
O O14 0.859621 0.876069 0.704294
O O15 0.250000 0.595868 0.356836
O O16 0.390782 0.501047 0.383988
O O17 0.426175 0.641397 0.375738
O O18 0.750000 0.583469 0.543730
O O19 0.567268 0.622782 0.512157
O O20 0.047114 0.250000 0.589111
#
# Coordination Sequence:
#
# PCOD8242194 Si02
#       8
#     8   8   8   8   8   8   8   8
#     4   9  18  31  49  78 114 149 185 232 294 361
#     4  11  21  35  57  90 122 159 204 251 311 369
#     4  10  19  35  62  92 123 158 204 257 305 363
#     4  11  22  37  58  86 120 159 201 248 307 371
#     4  11  22  35  55  83 119 158 201 251 307 365
#     4  10  22  42  68  93 121 161 211 261 301 354
#     4  11  23  41  65  91 122 162 210 259 307 361
#     4  12  25  41  62  92 130 165 202 250 310 373
#
# _framework density 20.392333000000001
#
# number of rings (size 3 to 8) (size 9 to 14) (size 15 to 20)
#    0.000    1.375    2.500    3.750    0.000    4.500 
#    0.000    0.000    0.000    3.000    0.000    0.000 
#    0.000    0.000    0.000    0.000    0.000    0.000 
#
# Total GULP energy -793145.440469 kJ/mol
# GULP energy per Si atom -12392.897507 kJ/mol
# Density = 2.034592 g / cm^3
# Si number density = 20.392333 Si / 1000 Ang^3
#
#
#
# Elastic Constant Matrix: (Units=GPa)
#
#
# Indices 1 2 3 4 5 6 
#
# 1 99.7568 31.3819 23.1320 0.0000 0.0000 0.0000
# 2 31.3819 81.9560 10.1545 0.0000 0.0000 0.0000
# 3 23.1320 10.1545 68.3965 0.0000 0.0000 0.0000
# 4 0.0000 0.0000 0.0000 16.4937 0.0000 0.0000
# 5 0.0000 0.0000 0.0000 0.0000 33.6080 0.0000
# 6 0.0000 0.0000 0.0000 0.0000 0.0000 16.9030
#
#
#
# Elastic Compliance Matrix: (Units=1/GPa)
#
#
# Indices 1 2 3 4 5 6 
#
# 1 0.012162 -0.004225 -0.003486 0.000000 0.000000 0.000000
# 2 -0.004225 0.013898 -0.000634 0.000000 0.000000 0.000000
# 3 -0.003486 -0.000634 0.015894 0.000000 0.000000 0.000000
# 4 0.000000 0.000000 0.000000 0.060629 0.000000 0.000000
# 5 0.000000 0.000000 0.000000 0.000000 0.029755 0.000000
# 6 0.000000 0.000000 0.000000 0.000000 0.000000 0.059161
#
#
# Mechanical properties :
#
#
# Convention : Reuss Voigt Hill
#
# Bulk Modulus (GPa) = 39.58371 42.16068 40.87220
# Shear Modulus (GPa) = 23.08290 25.76366 24.42328
#
# Velocity S-wave (km/s) = 3.36808 3.55829 3.46449
# Velocity P-wave (km/s) = 5.88035 6.13201 6.00750
#
# Compressibility (1/GPa) = 0.02526292
#
# Stress axis : x y z
#
# Youngs Moduli (GPa) = 82.22450 71.95239 62.91770
#
# Poissons Ratio (x) = 0.30400 0.21933
# Poissons Ratio (y) = 0.34740 0.03992
# Poissons Ratio (z) = 0.28663 0.04565
#
# Static dielectric constant tensor:
#      x y z
#    x 3.646810 0.000000 0.000000 
#    y 0.000000 3.796090 0.000000 
#    z 0.000000 0.000000 3.757840 
# 
# 
# High freq. dielectric constant tensor:
#      x y z
#    x 1.786130 0.000000 0.000000 
#    y 0.000000 1.785680 0.000000 
#    z 0.000000 0.000000 1.797760 
# 
# From -- ./inp_files/17201.got.cif
#   From: 2010.03.12/outbox.cif.g09.slc.cpg/sg59_9_cif.got.tgz:17201.got - 2010.04.16 16:29:54.
