data_PCOD8242580
_publ_section_title
;
Structure prediction by ZEFSAII (Michael W. Deem and Ramdas Pophale) SiO2 
 PCOD8242580
Probable space group: P M M N
;
_chemical_formula_sum "Si O2"
_cell_formula_units_Z 56
_cell_length_a 22.295034
_cell_length_b 11.501778
_cell_length_c 11.747260
_cell_angle_alpha 90.000000
_cell_angle_beta 90.000000
_cell_angle_gamma 90.000000
_cell_volume 3012.379621
_symmetry_space_group_name_H-M "P M M N"
_symmetry_group_IT_number 59
_space_group.IT_coordinate_system_code '2'
_symmetry_cell_setting 'orthorhombic'
loop_
_space_group_symop_operation_xyz
x,y,z
1/2-x,1/2-y,z
1/2+x,-y,-z
-x,1/2+y,-z
-x,-y,-z
1/2+x,1/2+y,-z
1/2-x,y,z
x,1/2-y,z
loop_
_atom_site_type_symbol
_atom_site_label
_atom_site_fract_x
_atom_site_fract_y
_atom_site_fract_z
Si Si1 0.890517 0.475930 0.289693
Si Si2 0.818378 0.887906 0.474150
Si Si3 0.469927 0.381233 0.882600
Si Si4 0.112541 0.119662 0.305694
Si Si5 0.908995 0.496089 0.919108
Si Si6 0.491194 0.880475 0.571700
Si Si7 0.816957 0.115344 0.088468
O O1 0.853450 0.566367 0.364853
O O2 0.939420 0.540740 0.213054
O O3 0.926321 0.385787 0.369205
O O4 0.844489 0.404825 0.212800
O O5 0.750000 0.932005 0.471776
O O6 0.822723 0.750000 0.469573
O O7 0.849632 0.934822 0.589568
O O8 0.456792 0.250000 0.848833
O O9 0.541488 0.400562 0.884674
O O10 0.442588 0.404681 0.007772
O O11 0.135430 0.250000 0.282399
O O12 0.123165 0.046273 0.192366
O O13 0.042170 0.118304 0.332988
O O14 0.855499 0.442973 0.990818
O O15 0.494662 0.750000 0.509687
O O16 0.500000 0.000000 0.500000
O O17 0.750000 0.062066 0.086115
O O18 0.815018 0.250000 0.062030
#
# Coordination Sequence:
#
# PCOD8242580 Si02
#       7
#     8   8   8   8   8   8   8
#     4  11  20  36  58  84 113 148 187 240 288 348
#     4  10  21  36  56  82 114 154 196 236 283 343
#     4  10  20  32  52  83 115 144 182 234 293 343
#     4  10  20  36  56  82 117 151 188 232 284 343
#     4  10  20  35  54  81 109 148 188 230 285 339
#     4  11  22  37  58  89 122 155 192 239 296 355
#     4  10  22  39  58  79 107 147 191 236 286 342
#
# _framework density 18.589955
#
# number of rings (size 3 to 8) (size 9 to 14) (size 15 to 20)
#    0.000    1.714    2.857    2.143    0.000    1.143 
#    0.000    0.000    0.000    8.143    0.000    0.000 
#    0.000    0.000    0.000    0.000    0.000    0.000 
#
# Total GULP energy -694225.330974 kJ/mol
# GULP energy per Si atom -12396.880910 kJ/mol
# Density = 1.854764 g / cm^3
# Si number density = 18.589955 Si / 1000 Ang^3
#
#
#
# Elastic Constant Matrix: (Units=GPa)
#
#
# Indices 1 2 3 4 5 6 
#
# 1 126.5140 21.6496 40.9494 0.0000 0.0000 0.0000
# 2 21.6496 85.2192 28.2252 0.0000 0.0000 0.0000
# 3 40.9494 28.2252 102.8818 0.0000 0.0000 0.0000
# 4 0.0000 0.0000 0.0000 26.2088 0.0000 0.0000
# 5 0.0000 0.0000 0.0000 0.0000 23.7894 0.0000
# 6 0.0000 0.0000 0.0000 0.0000 0.0000 23.2088
#
#
#
# Elastic Compliance Matrix: (Units=1/GPa)
#
#
# Indices 1 2 3 4 5 6 
#
# 1 0.009190 -0.001235 -0.003319 0.000000 0.000000 0.000000
# 2 -0.001235 0.013073 -0.003095 0.000000 0.000000 0.000000
# 3 -0.003319 -0.003095 0.011890 0.000000 0.000000 0.000000
# 4 0.000000 0.000000 0.000000 0.038155 0.000000 0.000000
# 5 0.000000 0.000000 0.000000 0.000000 0.042036 0.000000
# 6 0.000000 0.000000 0.000000 0.000000 0.000000 0.043087
#
#
# Mechanical properties :
#
#
# Convention : Reuss Voigt Hill
#
# Bulk Modulus (GPa) = 53.03678 55.14037 54.08857
# Shear Modulus (GPa) = 27.93071 29.56077 28.74574
#
# Velocity S-wave (km/s) = 3.88037 3.99199 3.93657
# Velocity P-wave (km/s) = 6.97625 7.13959 7.05839
#
# Compressibility (1/GPa) = 0.01885484
#
# Stress axis : x y z
#
# Youngs Moduli (GPa) = 108.81505 76.49145 84.10466
#
# Poissons Ratio (x) = 0.09450 0.27913
# Poissons Ratio (y) = 0.13443 0.26029
# Poissons Ratio (z) = 0.36114 0.23673
#
# Static dielectric constant tensor:
#      x y z
#    x 3.616520 0.000000 0.000000 
#    y 0.000000 3.355400 0.000000 
#    z 0.000000 0.000000 3.408930 
# 
# 
# High freq. dielectric constant tensor:
#      x y z
#    x 1.725580 0.000000 0.000000 
#    y 0.000000 1.711820 0.000000 
#    z 0.000000 0.000000 1.720920 
# 
# From -- ./inp_files/16036.got.cif
#   From: 2010.03.12/outbox.cif.g09.slc.cpg/sg59_9_cif.got.tgz:16036.got - 2010.04.16 16:29:54.
