data_PCOD8242132
_publ_section_title
;
Structure prediction by ZEFSAII (Michael W. Deem and Ramdas Pophale) SiO2 
 PCOD8242132
Probable space group: P M M N
;
_chemical_formula_sum "Si O2"
_cell_formula_units_Z 48
_cell_length_a 14.151093
_cell_length_b 8.782904
_cell_length_c 20.283491
_cell_angle_alpha 90.000000
_cell_angle_beta 90.000000
_cell_angle_gamma 90.000000
_cell_volume 2520.988268
_symmetry_space_group_name_H-M "P M M N"
_symmetry_group_IT_number 59
_space_group.IT_coordinate_system_code '2'
_symmetry_cell_setting 'orthorhombic'
loop_
_space_group_symop_operation_xyz
x,y,z
1/2-x,1/2-y,z
1/2+x,-y,-z
-x,1/2+y,-z
-x,-y,-z
1/2+x,1/2+y,-z
1/2-x,y,z
x,1/2-y,z
loop_
_atom_site_type_symbol
_atom_site_label
_atom_site_fract_x
_atom_site_fract_y
_atom_site_fract_z
Si Si1 0.250000 0.568529 0.102647
Si Si2 0.942467 0.071521 0.691368
Si Si3 0.452042 0.068681 0.563943
Si Si4 0.250000 0.921963 0.755168
Si Si5 0.250000 0.931786 0.253486
Si Si6 0.250000 0.070093 0.613224
Si Si7 0.449778 0.575759 0.805860
Si Si8 0.054824 0.429548 0.060801
O O1 0.250000 0.750000 0.098261
O O2 0.250000 0.509238 0.178226
O O3 0.157695 0.504818 0.066362
O O4 0.933739 0.250000 0.683131
O O5 0.839653 0.001450 0.707121
O O6 0.986024 0.003400 0.624604
O O7 0.009520 0.036929 0.751933
O O8 0.454943 0.250000 0.559808
O O9 0.343797 0.011255 0.574682
O O10 0.500000 0.000000 0.500000
O O11 0.250000 0.750000 0.728409
O O12 0.162219 0.952363 0.803672
O O13 0.250000 0.023148 0.689592
O O14 0.250000 0.750000 0.252155
O O15 0.250000 0.250000 0.613831
O O16 0.476023 0.750000 0.788595
O O17 0.491160 0.529244 0.876146
O O18 0.066838 0.250000 0.051489
O O19 0.000000 0.500000 0.000000
#
# Coordination Sequence:
#
# PCOD8242132 Si02
#       8
#     4   8   8   4   4   4   8   8
#     4  11  21  38  65  90 117 159 200 248 311 362
#     4  10  19  35  58  84 112 148 194 240 285 344
#     4  10  22  37  57  83 117 153 191 238 290 348
#     4  10  20  35  58  87 115 149 190 236 293 351
#     4   9  18  32  57  89 115 145 193 242 289 346
#     4  10  20  37  58  84 113 147 189 238 291 341
#     4  10  21  36  57  86 117 149 191 243 292 343
#     4  11  24  41  61  89 125 162 203 248 298 363
#
# _framework density 19.040151999999999
#
# number of rings (size 3 to 8) (size 9 to 14) (size 15 to 20)
#    0.000    1.833    3.333    0.750    0.000    3.333 
#    0.000    2.917    0.000    0.000    0.000    0.000 
#    0.000    0.000    0.000    0.000    0.000    0.000 
#
# Total GULP energy -595136.947717 kJ/mol
# GULP energy per Si atom -12398.686411 kJ/mol
# Density = 1.899682 g / cm^3
# Si number density = 19.040152 Si / 1000 Ang^3
#
#
#
# Elastic Constant Matrix: (Units=GPa)
#
#
# Indices 1 2 3 4 5 6 
#
# 1 192.4716 35.5043 91.8601 0.0000 0.0000 0.0000
# 2 35.5043 34.1655 33.8525 0.0000 0.0000 0.0000
# 3 91.8601 33.8525 151.7054 0.0000 0.0000 0.0000
# 4 0.0000 0.0000 0.0000 29.7589 0.0000 0.0000
# 5 0.0000 0.0000 0.0000 0.0000 39.4687 0.0000
# 6 0.0000 0.0000 0.0000 0.0000 0.0000 23.8126
#
#
#
# Elastic Compliance Matrix: (Units=1/GPa)
#
#
# Indices 1 2 3 4 5 6 
#
# 1 0.007789 -0.004392 -0.003736 0.000000 0.000000 0.000000
# 2 -0.004392 0.040055 -0.006279 0.000000 0.000000 0.000000
# 3 -0.003736 -0.006279 0.010255 0.000000 0.000000 0.000000
# 4 0.000000 0.000000 0.000000 0.033603 0.000000 0.000000
# 5 0.000000 0.000000 0.000000 0.000000 0.025337 0.000000
# 6 0.000000 0.000000 0.000000 0.000000 0.000000 0.041995
#
#
# Mechanical properties :
#
#
# Convention : Reuss Voigt Hill
#
# Bulk Modulus (GPa) = 34.14740 77.86404 56.00572
# Shear Modulus (GPa) = 25.30254 33.08307 29.19280
#
# Velocity S-wave (km/s) = 3.64937 4.17291 3.91989
# Velocity P-wave (km/s) = 5.97750 8.01255 7.06865
#
# Compressibility (1/GPa) = 0.02928481
#
# Stress axis : x y z
#
# Youngs Moduli (GPa) = 128.38696 24.96593 97.51236
#
# Poissons Ratio (x) = 0.10965 0.36433
# Poissons Ratio (y) = 0.56390 0.61223
# Poissons Ratio (z) = 0.47968 0.15675
#
# Static dielectric constant tensor:
#      x y z
#    x 3.598360 0.000000 0.000000 
#    y 0.000000 3.322020 0.000000 
#    z 0.000000 0.000000 3.665500 
# 
# 
# High freq. dielectric constant tensor:
#      x y z
#    x 1.761810 0.000000 0.000000 
#    y 0.000000 1.724460 0.000000 
#    z 0.000000 0.000000 1.736110 
# 
# From -- ./inp_files/27537.got.cif
#   From: 2010.03.12/outbox.cif.g09.slc.cpg/sg59_14_cif.got.tgz:27537.got - 2010.04.16 16:29:54.
