data_PCOD8242342
_publ_section_title
;
Structure prediction by ZEFSAII (Michael W. Deem and Ramdas Pophale) SiO2 
 PCOD8242342
Probable space group: P M M N
;
_chemical_formula_sum "Si O2"
_cell_formula_units_Z 48
_cell_length_a 9.623609
_cell_length_b 14.171890
_cell_length_c 19.372369
_cell_angle_alpha 90.000000
_cell_angle_beta 90.000000
_cell_angle_gamma 90.000000
_cell_volume 2642.095280
_symmetry_space_group_name_H-M "P M M N"
_symmetry_group_IT_number 59
_space_group.IT_coordinate_system_code '2'
_symmetry_cell_setting 'orthorhombic'
loop_
_space_group_symop_operation_xyz
x,y,z
1/2-x,1/2-y,z
1/2+x,-y,-z
-x,1/2+y,-z
-x,-y,-z
1/2+x,1/2+y,-z
1/2-x,y,z
x,1/2-y,z
loop_
_atom_site_type_symbol
_atom_site_label
_atom_site_fract_x
_atom_site_fract_y
_atom_site_fract_z
Si Si1 0.089322 0.142423 0.003071
Si Si2 0.584892 0.143251 0.629433
Si Si3 0.089186 0.528571 0.098913
Si Si4 0.408258 0.862129 0.667671
Si Si5 0.913444 0.000050 0.744077
Si Si6 0.085342 0.854735 0.519121
O O1 0.250000 0.134281 0.981961
O O2 0.050397 0.250000 0.022952
O O3 0.999757 0.109649 0.937674
O O4 0.055329 0.075220 0.068224
O O5 0.750000 0.145939 0.633266
O O6 0.527312 0.250000 0.638134
O O7 0.538964 0.098200 0.554208
O O8 0.527991 0.079792 0.691898
O O9 0.250000 0.553955 0.088015
O O10 0.047935 0.530360 0.178843
O O11 0.250000 0.894197 0.681744
O O12 0.419764 0.750000 0.669674
O O13 0.507451 0.903483 0.726565
O O14 0.462166 0.901014 0.592021
O O15 0.750000 0.982189 0.736042
O O16 0.250000 0.848698 0.522646
O O17 0.022821 0.750000 0.515976
#
# Coordination Sequence:
#
# PCOD8242342 Si02
#       6
#     8   8   8   8   8   8
#     4   9  18  34  55  74  93 124 163 197 232 277
#     4   8  14  26  44  66  93 125 161 199 238 282
#     4   9  19  34  50  73 104 129 153 191 236 285
#     4   9  18  32  48  66  91 127 168 203 236 277
#     4  10  20  31  47  74 102 126 153 190 239 287
#     4   7  11  23  43  63  85 119 163 204 236 271
#
# _framework density 18.167399
#
# number of rings (size 3 to 8) (size 9 to 14) (size 15 to 20)
#    0.000    3.333    0.000    2.000    0.000    3.333 
#    0.000    3.333    0.000    0.500    0.000    2.333 
#    0.000    0.000    0.000    0.000    0.000    0.000 
#
# Total GULP energy -594640.159146 kJ/mol
# GULP energy per Si atom -12388.336649 kJ/mol
# Density = 1.812605 g / cm^3
# Si number density = 18.167399 Si / 1000 Ang^3
#
#
#
# Elastic Constant Matrix: (Units=GPa)
#
#
# Indices 1 2 3 4 5 6 
#
# 1 32.4339 20.2014 29.2172 0.0000 0.0000 0.0000
# 2 20.2014 49.1439 8.3694 0.0000 0.0000 0.0000
# 3 29.2172 8.3694 84.5114 0.0000 0.0000 0.0000
# 4 0.0000 0.0000 0.0000 23.4785 0.0000 0.0000
# 5 0.0000 0.0000 0.0000 0.0000 18.9726 0.0000
# 6 0.0000 0.0000 0.0000 0.0000 0.0000 22.4601
#
#
#
# Elastic Compliance Matrix: (Units=1/GPa)
#
#
# Indices 1 2 3 4 5 6 
#
# 1 0.061986 -0.022205 -0.019231 0.000000 0.000000 0.000000
# 2 -0.022205 0.028652 0.004839 0.000000 0.000000 0.000000
# 3 -0.019231 0.004839 0.018002 0.000000 0.000000 0.000000
# 4 0.000000 0.000000 0.000000 0.042592 0.000000 0.000000
# 5 0.000000 0.000000 0.000000 0.000000 0.052707 0.000000
# 6 0.000000 0.000000 0.000000 0.000000 0.000000 0.044523
#
#
# Mechanical properties :
#
#
# Convention : Reuss Voigt Hill
#
# Bulk Modulus (GPa) = 28.21146 31.29613 29.75380
# Shear Modulus (GPa) = 14.99378 20.20231 17.59805
#
# Velocity S-wave (km/s) = 2.87594 3.33830 3.11571
# Velocity P-wave (km/s) = 5.15659 5.66771 5.41818
#
# Compressibility (1/GPa) = 0.03544659
#
# Stress axis : x y z
#
# Youngs Moduli (GPa) = 16.13273 34.90148 55.54968
#
# Poissons Ratio (x) = 0.77499 1.06826
# Poissons Ratio (y) = 0.35823 -0.26882
# Poissons Ratio (z) = 0.31024 -0.16890
#
# Static dielectric constant tensor:
#      x y z
#    x 2.990130 0.000000 0.000000 
#    y 0.000000 3.263040 0.000000 
#    z 0.000000 0.000000 3.598890 
# 
# 
# High freq. dielectric constant tensor:
#      x y z
#    x 1.666020 0.000000 0.000000 
#    y 0.000000 1.691600 0.000000 
#    z 0.000000 0.000000 1.712390 
# 
# From -- ./inp_files/25480.got.cif
#   From: 2010.03.12/outbox.cif.g09.slc.cpg/sg59_13_cif.got.tgz:25480.got - 2010.04.16 16:29:54.
