data_PCOD8242023
_publ_section_title
;
Structure prediction by ZEFSAII (Michael W. Deem and Ramdas Pophale) SiO2 
 PCOD8242023
Probable space group: P M M N
;
_chemical_formula_sum "Si O2"
_cell_formula_units_Z 48
_cell_length_a 17.945756
_cell_length_b 8.518846
_cell_length_c 15.524752
_cell_angle_alpha 90.000000
_cell_angle_beta 90.000000
_cell_angle_gamma 90.000000
_cell_volume 2373.379556
_symmetry_space_group_name_H-M "P M M N"
_symmetry_group_IT_number 59
_space_group.IT_coordinate_system_code '2'
_symmetry_cell_setting 'orthorhombic'
loop_
_space_group_symop_operation_xyz
x,y,z
1/2-x,1/2-y,z
1/2+x,-y,-z
-x,1/2+y,-z
-x,-y,-z
1/2+x,1/2+y,-z
1/2-x,y,z
x,1/2-y,z
loop_
_atom_site_type_symbol
_atom_site_label
_atom_site_fract_x
_atom_site_fract_y
_atom_site_fract_z
Si Si1 0.911745 0.065862 0.674501
Si Si2 0.917855 0.433590 0.002596
Si Si3 0.425327 0.563731 0.664442
Si Si4 0.335808 0.432500 0.159297
Si Si5 0.833407 0.063852 0.500508
Si Si6 0.166648 0.936392 0.831012
O O1 0.898526 0.250000 0.689609
O O2 0.871906 0.005203 0.587924
O O3 0.876887 0.969206 0.752220
O O4 0.998436 0.030491 0.667148
O O5 0.924832 0.250000 0.014343
O O6 0.873165 0.469778 0.916425
O O7 0.874319 0.505528 0.084625
O O8 0.000000 0.500000 0.000000
O O9 0.440338 0.750000 0.663400
O O10 0.381163 0.504729 0.580445
O O11 0.377817 0.510545 0.746738
O O12 0.250000 0.483217 0.167204
O O13 0.344653 0.250000 0.138008
O O14 0.750000 0.993477 0.495054
O O15 0.829663 0.250000 0.498492
O O16 0.250000 0.006783 0.827069
O O17 0.170770 0.750000 0.835627
#
# Coordination Sequence:
#
# PCOD8242023 Si02
#       6
#     8   8   8   8   8   8
#     4  11  22  36  56  82 115 152 189 232 283 343
#     4  11  22  37  59  86 118 153 189 232 283 343
#     4  10  19  34  58  84 112 145 183 231 281 333
#     4  11  24  41  60  83 112 148 194 246 295 341
#     4   9  18  33  55  83 112 146 190 235 279 332
#     4   9  18  33  55  82 108 139 182 227 272 327
#
# _framework density 20.224326999999999
#
# number of rings (size 3 to 8) (size 9 to 14) (size 15 to 20)
#    0.000    1.833    0.000    4.500    0.000    6.000 
#    0.000    1.667    0.000    6.000    0.000    0.000 
#    0.000    0.000    0.000    0.000    0.000    0.000 
#
# Total GULP energy -595387.146291 kJ/mol
# GULP energy per Si atom -12403.898881 kJ/mol
# Density = 2.017830 g / cm^3
# Si number density = 20.224327 Si / 1000 Ang^3
#
#
#
# Elastic Constant Matrix: (Units=GPa)
#
#
# Indices 1 2 3 4 5 6 
#
# 1 156.9331 12.7949 61.9732 0.0000 0.0000 0.0000
# 2 12.7949 28.6391 5.6892 0.0000 0.0000 0.0000
# 3 61.9732 5.6892 159.1452 0.0000 0.0000 0.0000
# 4 0.0000 0.0000 0.0000 7.4983 0.0000 0.0000
# 5 0.0000 0.0000 0.0000 0.0000 47.8832 0.0000
# 6 0.0000 0.0000 0.0000 0.0000 0.0000 26.4033
#
#
#
# Elastic Compliance Matrix: (Units=1/GPa)
#
#
# Indices 1 2 3 4 5 6 
#
# 1 0.007760 -0.002887 -0.002919 0.000000 0.000000 0.000000
# 2 -0.002887 0.036241 -0.000171 0.000000 0.000000 0.000000
# 3 -0.002919 -0.000171 0.007426 0.000000 0.000000 0.000000
# 4 0.000000 0.000000 0.000000 0.133364 0.000000 0.000000
# 5 0.000000 0.000000 0.000000 0.000000 0.020884 0.000000
# 6 0.000000 0.000000 0.000000 0.000000 0.000000 0.037874
#
#
# Mechanical properties :
#
#
# Convention : Reuss Voigt Hill
#
# Bulk Modulus (GPa) = 25.33352 56.18133 40.75743
# Shear Modulus (GPa) = 18.61076 33.97430 26.29253
#
# Velocity S-wave (km/s) = 3.03680 4.10307 3.60952
# Velocity P-wave (km/s) = 4.98494 7.09128 6.12927
#
# Compressibility (1/GPa) = 0.03947339
#
# Stress axis : x y z
#
# Youngs Moduli (GPa) = 128.86386 27.59292 134.65716
#
# Poissons Ratio (x) = 0.07966 0.39302
# Poissons Ratio (y) = 0.37205 0.02306
# Poissons Ratio (z) = 0.37611 0.00473
#
# Static dielectric constant tensor:
#      x y z
#    x 3.990770 0.000000 0.000000 
#    y 0.000000 3.291110 0.000000 
#    z 0.000000 0.000000 3.860710 
# 
# 
# High freq. dielectric constant tensor:
#      x y z
#    x 1.810920 0.000000 0.000000 
#    y 0.000000 1.756710 0.000000 
#    z 0.000000 0.000000 1.809820 
# 
# From -- ./inp_files/20468.got.cif
#   From: 2010.03.12/outbox.cif.g09.slc.cpg/sg59_11_cif.got.tgz:20468.got - 2010.04.16 16:29:54.
