data_PCOD8242446
_publ_section_title
;
Structure prediction by ZEFSAII (Michael W. Deem and Ramdas Pophale) SiO2 
 PCOD8242446
Probable space group: P M M N
;
_chemical_formula_sum "Si O2"
_cell_formula_units_Z 48
_cell_length_a 15.394329
_cell_length_b 9.071739
_cell_length_c 18.505748
_cell_angle_alpha 90.000000
_cell_angle_beta 90.000000
_cell_angle_gamma 90.000000
_cell_volume 2584.389421
_symmetry_space_group_name_H-M "P M M N"
_symmetry_group_IT_number 59
_space_group.IT_coordinate_system_code '2'
_symmetry_cell_setting 'orthorhombic'
loop_
_space_group_symop_operation_xyz
x,y,z
1/2-x,1/2-y,z
1/2+x,-y,-z
-x,1/2+y,-z
-x,-y,-z
1/2+x,1/2+y,-z
1/2-x,y,z
x,1/2-y,z
loop_
_atom_site_type_symbol
_atom_site_label
_atom_site_fract_x
_atom_site_fract_y
_atom_site_fract_z
Si Si1 0.847734 0.922188 0.589708
Si Si2 0.013747 0.923137 0.678280
Si Si3 0.981411 0.574365 0.171794
Si Si4 0.076693 0.920611 0.958682
Si Si5 0.651570 0.421839 0.441903
Si Si6 0.842397 0.079439 0.897505
O O1 0.750000 0.969273 0.614183
O O2 0.852713 0.750000 0.574302
O O3 0.917084 0.966427 0.651100
O O4 0.875039 0.999042 0.515614
O O5 0.020412 0.750000 0.695782
O O6 0.085386 0.972336 0.619988
O O7 0.036067 0.017636 0.748343
O O8 0.974646 0.750000 0.168476
O O9 0.075298 0.510694 0.144693
O O10 0.908801 0.504259 0.117851
O O11 0.054895 0.750000 0.943529
O O12 0.156007 0.937435 0.014922
O O13 0.000000 0.000000 0.000000
O O14 0.750000 0.463501 0.418621
O O15 0.642374 0.250000 0.456924
O O16 0.750000 0.008838 0.871830
O O17 0.843536 0.250000 0.876921
#
# Coordination Sequence:
#
# PCOD8242446 Si02
#       6
#     8   8   8   8   8   8
#     4   9  18  32  50  73 100 128 158 196 245 297
#     4  10  20  33  49  70  99 132 162 197 243 292
#     4  10  20  32  48  70  97 128 160 196 237 284
#     4   9  16  29  50  70  91 121 154 189 228 273
#     4   9  18  33  52  72  93 122 165 210 245 283
#     4   8  15  29  49  72  94 118 153 194 233 276
#
# _framework density 18.573053000000002
#
# number of rings (size 3 to 8) (size 9 to 14) (size 15 to 20)
#    0.000    2.833    0.000    2.500    0.000    2.000 
#    0.000    0.833    0.000   22.500    0.000    0.000 
#    0.000    0.000    0.000    0.000    0.000    0.000 
#
# Total GULP energy -594789.169871 kJ/mol
# GULP energy per Si atom -12391.441039 kJ/mol
# Density = 1.853078 g / cm^3
# Si number density = 18.573053 Si / 1000 Ang^3
#
#
#
# Elastic Constant Matrix: (Units=GPa)
#
#
# Indices 1 2 3 4 5 6 
#
# 1 39.9034 6.7494 4.0695 0.0000 0.0000 0.0000
# 2 6.7494 51.5975 28.5487 0.0000 0.0000 0.0000
# 3 4.0695 28.5487 86.7772 0.0000 0.0000 0.0000
# 4 0.0000 0.0000 0.0000 34.4464 0.0000 0.0000
# 5 0.0000 0.0000 0.0000 0.0000 15.5320 0.0000
# 6 0.0000 0.0000 0.0000 0.0000 0.0000 14.6742
#
#
#
# Elastic Compliance Matrix: (Units=1/GPa)
#
#
# Indices 1 2 3 4 5 6 
#
# 1 0.025629 -0.003285 -0.000121 0.000000 0.000000 0.000000
# 2 -0.003285 0.024115 -0.007779 0.000000 0.000000 0.000000
# 3 -0.000121 -0.007779 0.014089 0.000000 0.000000 0.000000
# 4 0.000000 0.000000 0.000000 0.029031 0.000000 0.000000
# 5 0.000000 0.000000 0.000000 0.000000 0.064383 0.000000
# 6 0.000000 0.000000 0.000000 0.000000 0.000000 0.068147
#
#
# Mechanical properties :
#
#
# Convention : Reuss Voigt Hill
#
# Bulk Modulus (GPa) = 24.11939 28.55703 26.33821
# Shear Modulus (GPa) = 19.11426 22.19123 20.65274
#
# Velocity S-wave (km/s) = 3.21150 3.46035 3.33824
# Velocity P-wave (km/s) = 5.17359 5.60127 5.39168
#
# Compressibility (1/GPa) = 0.04146041
#
# Stress axis : x y z
#
# Youngs Moduli (GPa) = 39.01892 41.46818 70.97840
#
# Poissons Ratio (x) = 0.13624 0.00859
# Poissons Ratio (y) = 0.12820 0.55217
# Poissons Ratio (z) = 0.00472 0.32260
#
# Static dielectric constant tensor:
#      x y z
#    x 3.731290 0.000000 0.000000 
#    y 0.000000 3.316430 0.000000 
#    z 0.000000 0.000000 3.422600 
# 
# 
# High freq. dielectric constant tensor:
#      x y z
#    x 1.712350 0.000000 0.000000 
#    y 0.000000 1.706620 0.000000 
#    z 0.000000 0.000000 1.715100 
# 
# From -- ./inp_files/23630.got.cif
#   From: 2010.03.12/outbox.cif.g09.slc.cpg/sg59_12_cif.got.tgz:23630.got - 2010.04.16 16:29:54.
