data_PCOD8242823
_publ_section_title
;
Structure prediction by ZEFSAII (Michael W. Deem and Ramdas Pophale) SiO2 
 PCOD8242823
Probable space group: P M M N
;
_chemical_formula_sum "Si O2"
_cell_formula_units_Z 64
_cell_length_a 8.959506
_cell_length_b 18.773179
_cell_length_c 22.011874
_cell_angle_alpha 90.000000
_cell_angle_beta 90.000000
_cell_angle_gamma 90.000000
_cell_volume 3702.362205
_symmetry_space_group_name_H-M "P M M N"
_symmetry_group_IT_number 59
_space_group.IT_coordinate_system_code '2'
_symmetry_cell_setting 'orthorhombic'
loop_
_space_group_symop_operation_xyz
x,y,z
1/2-x,1/2-y,z
1/2+x,-y,-z
-x,1/2+y,-z
-x,-y,-z
1/2+x,1/2+y,-z
1/2-x,y,z
x,1/2-y,z
loop_
_atom_site_type_symbol
_atom_site_label
_atom_site_fract_x
_atom_site_fract_y
_atom_site_fract_z
Si Si1 0.074646 0.541916 0.445208
Si Si2 0.425809 0.828377 0.137767
Si Si3 0.576160 0.331119 0.376829
Si Si4 0.919914 0.607744 0.031572
Si Si5 0.421873 0.531198 0.202446
Si Si6 0.077403 0.331304 0.504965
Si Si7 0.579032 0.972887 0.921665
Si Si8 0.926163 0.959909 0.676982
O O1 0.250000 0.544986 0.455680
O O2 0.032795 0.506166 0.381701
O O3 0.000000 0.500000 0.500000
O O4 0.007082 0.621590 0.444719
O O5 0.250000 0.835800 0.135466
O O6 0.473220 0.750000 0.162677
O O7 0.481089 0.835040 0.067734
O O8 0.492279 0.892622 0.179709
O O9 0.750000 0.346664 0.386882
O O10 0.548791 0.250000 0.355333
O O11 0.491969 0.346756 0.439430
O O12 0.508410 0.383640 0.326229
O O13 0.750000 0.627053 0.046245
O O14 0.957986 0.528993 0.055096
O O15 0.947060 0.602475 0.957722
O O16 0.250000 0.546313 0.216259
O O17 0.442492 0.469206 0.151307
O O18 0.493431 0.502313 0.264835
O O19 0.250000 0.353237 0.501233
O O20 0.055839 0.250000 0.524940
O O21 0.750000 0.998937 0.934927
O O22 0.750000 0.946190 0.683154
#
# Coordination Sequence:
#
# PCOD8242823 Si02
#       8
#     8   8   8   8   8   8   8   8
#     4  11  21  32  49  74 102 130 160 202 254 303
#     4   9  17  30  48  68  94 131 170 205 243 285
#     4  10  20  33  51  74  97 121 151 193 246 302
#     4   9  15  23  41  69  94 116 147 191 239 280
#     4   8  15  30  49  69  93 124 166 208 239 280
#     4  10  20  34  52  73  97 126 160 199 247 301
#     4   8  14  26  44  65  91 120 149 187 235 283
#     4  10  20  33  51  74  98 127 165 205 245 293
#
# _framework density 17.286261
#
# number of rings (size 3 to 8) (size 9 to 14) (size 15 to 20)
#    0.000    2.625    1.250    2.250    0.000    2.750 
#    0.000    3.125    0.000    3.000    0.000    5.250 
#    0.000    0.000    0.000    0.000    0.000    0.000 
#
# Total GULP energy -792945.520921 kJ/mol
# GULP energy per Si atom -12389.773764 kJ/mol
# Density = 1.724692 g / cm^3
# Si number density = 17.286261 Si / 1000 Ang^3
#
#
#
# Elastic Constant Matrix: (Units=GPa)
#
#
# Indices 1 2 3 4 5 6 
#
# 1 48.8628 37.3702 35.5624 0.0000 0.0000 0.0000
# 2 37.3702 107.0790 62.0333 0.0000 0.0000 0.0000
# 3 35.5624 62.0333 116.8452 0.0000 0.0000 0.0000
# 4 0.0000 0.0000 0.0000 22.9348 0.0000 0.0000
# 5 0.0000 0.0000 0.0000 0.0000 18.8869 0.0000
# 6 0.0000 0.0000 0.0000 0.0000 0.0000 26.3841
#
#
#
# Elastic Compliance Matrix: (Units=1/GPa)
#
#
# Indices 1 2 3 4 5 6 
#
# 1 0.029915 -0.007460 -0.005144 0.000000 0.000000 0.000000
# 2 -0.007460 0.015347 -0.005877 0.000000 0.000000 0.000000
# 3 -0.005144 -0.005877 0.013244 0.000000 0.000000 0.000000
# 4 0.000000 0.000000 0.000000 0.043602 0.000000 0.000000
# 5 0.000000 0.000000 0.000000 0.000000 0.052947 0.000000
# 6 0.000000 0.000000 0.000000 0.000000 0.000000 0.037902
#
#
# Mechanical properties :
#
#
# Convention : Reuss Voigt Hill
#
# Bulk Modulus (GPa) = 46.41835 60.30210 53.36022
# Shear Modulus (GPa) = 21.08804 22.82923 21.95864
#
# Velocity S-wave (km/s) = 3.49654 3.63803 3.56799
# Velocity P-wave (km/s) = 6.57359 7.25308 6.92168
#
# Compressibility (1/GPa) = 0.02154320
#
# Stress axis : x y z
#
# Youngs Moduli (GPa) = 33.42827 65.15775 75.50391
#
# Poissons Ratio (x) = 0.48608 0.38841
# Poissons Ratio (y) = 0.24938 0.44377
# Poissons Ratio (z) = 0.17196 0.38296
#
# Static dielectric constant tensor:
#      x y z
#    x 3.172330 0.000000 0.000000 
#    y 0.000000 3.503060 0.000000 
#    z 0.000000 0.000000 3.342130 
# 
# 
# High freq. dielectric constant tensor:
#      x y z
#    x 1.661540 0.000000 0.000000 
#    y 0.000000 1.654010 0.000000 
#    z 0.000000 0.000000 1.648050 
# 
# From -- ./inp_files/29608.got.cif
#   From: 2010.03.12/outbox.cif.g09.slc.cpg/sg59_15_cif.got.tgz:29608.got - 2010.04.16 16:29:54.
