data_PCOD8242185
_publ_section_title
;
Structure prediction by ZEFSAII (Michael W. Deem and Ramdas Pophale) SiO2 
 PCOD8242185
Probable space group: P M M N
;
_chemical_formula_sum "Si O2"
_cell_formula_units_Z 40
_cell_length_a 8.753162
_cell_length_b 18.696021
_cell_length_c 12.530213
_cell_angle_alpha 90.000000
_cell_angle_beta 90.000000
_cell_angle_gamma 90.000000
_cell_volume 2050.560593
_symmetry_space_group_name_H-M "P M M N"
_symmetry_group_IT_number 59
_space_group.IT_coordinate_system_code '2'
_symmetry_cell_setting 'orthorhombic'
loop_
_space_group_symop_operation_xyz
x,y,z
1/2-x,1/2-y,z
1/2+x,-y,-z
-x,1/2+y,-z
-x,-y,-z
1/2+x,1/2+y,-z
1/2-x,y,z
x,1/2-y,z
loop_
_atom_site_type_symbol
_atom_site_label
_atom_site_fract_x
_atom_site_fract_y
_atom_site_fract_z
Si Si1 0.069807 0.434186 0.719317
Si Si2 0.072863 0.167635 0.115813
Si Si3 0.430070 0.416895 0.328913
Si Si4 0.570673 0.429740 0.948666
Si Si5 0.568956 0.829958 0.467013
O O1 0.250000 0.434654 0.738013
O O2 0.017671 0.372018 0.638564
O O3 0.019716 0.509035 0.668843
O O4 0.987447 0.418097 0.829733
O O5 0.250000 0.156714 0.087609
O O6 0.032943 0.250000 0.135353
O O7 0.027710 0.124934 0.221565
O O8 0.973506 0.139436 0.017368
O O9 0.250000 0.431966 0.336847
O O10 0.491551 0.370524 0.428007
O O11 0.750000 0.440400 0.946029
O O12 0.500000 0.500000 0.000000
O O13 0.750000 0.825696 0.473898
O O14 0.499087 0.750000 0.463296
#
# Coordination Sequence:
#
# PCOD8242185 Si02
#       5
#     8   8   8   8   8
#     4  11  22  36  59  88 119 156 198 246 297 353
#     4  10  21  37  60  90 121 155 195 240 297 359
#     4  10  19  35  61  88 117 155 197 243 291 348
#     4  12  24  40  61  85 117 156 200 248 298 353
#     4   9  19  36  58  86 119 156 199 242 288 348
#
# _framework density 19.506862000000002
#
# number of rings (size 3 to 8) (size 9 to 14) (size 15 to 20)
#    0.000    1.600    2.000    3.600    0.000    3.600 
#    0.000    3.000    0.000    6.000    0.000    0.000 
#    0.000    0.000    0.000    0.000    0.000    0.000 
#
# Total GULP energy -496180.577666 kJ/mol
# GULP energy per Si atom -12404.514442 kJ/mol
# Density = 1.946246 g / cm^3
# Si number density = 19.506862 Si / 1000 Ang^3
#
#
#
# Elastic Constant Matrix: (Units=GPa)
#
#
# Indices 1 2 3 4 5 6 
#
# 1 80.0388 45.2167 51.2853 0.0000 0.0000 0.0000
# 2 45.2167 133.1943 72.6279 0.0000 0.0000 0.0000
# 3 51.2853 72.6279 162.1903 0.0000 0.0000 0.0000
# 4 0.0000 0.0000 0.0000 33.5088 0.0000 0.0000
# 5 0.0000 0.0000 0.0000 0.0000 25.6429 0.0000
# 6 0.0000 0.0000 0.0000 0.0000 0.0000 29.6204
#
#
#
# Elastic Compliance Matrix: (Units=1/GPa)
#
#
# Indices 1 2 3 4 5 6 
#
# 1 0.016977 -0.003752 -0.003688 0.000000 0.000000 0.000000
# 2 -0.003752 0.010763 -0.003633 0.000000 0.000000 0.000000
# 3 -0.003688 -0.003633 0.008959 0.000000 0.000000 0.000000
# 4 0.000000 0.000000 0.000000 0.029843 0.000000 0.000000
# 5 0.000000 0.000000 0.000000 0.000000 0.038997 0.000000
# 6 0.000000 0.000000 0.000000 0.000000 0.000000 0.033760
#
#
# Mechanical properties :
#
#
# Convention : Reuss Voigt Hill
#
# Bulk Modulus (GPa) = 68.72074 79.29813 74.00943
# Shear Modulus (GPa) = 30.06701 31.50734 30.78717
#
# Velocity S-wave (km/s) = 3.93027 4.02331 3.97706
# Velocity P-wave (km/s) = 7.47673 7.89445 7.68843
#
# Compressibility (1/GPa) = 0.01455165
#
# Stress axis : x y z
#
# Youngs Moduli (GPa) = 58.90401 92.91407 111.62565
#
# Poissons Ratio (x) = 0.34865 0.41166
# Poissons Ratio (y) = 0.22103 0.40553
# Poissons Ratio (z) = 0.21723 0.33755
#
# Static dielectric constant tensor:
#      x y z
#    x 3.414880 0.000000 0.000000 
#    y 0.000000 3.805230 0.000000 
#    z 0.000000 0.000000 3.801240 
# 
# 
# High freq. dielectric constant tensor:
#      x y z
#    x 1.738420 0.000000 0.000000 
#    y 0.000000 1.769760 0.000000 
#    z 0.000000 0.000000 1.776210 
# 
# From -- ./inp_files/13825.got.cif
#   From: 2010.03.12/outbox.cif.g09.slc.cpg/sg59_7_cif.got.tgz:13825.got - 2010.04.16 16:29:54.
