data_PCOD8242090
_publ_section_title
;
Structure prediction by ZEFSAII (Michael W. Deem and Ramdas Pophale) SiO2 
 PCOD8242090
Probable space group: P M M N
;
_chemical_formula_sum "Si O2"
_cell_formula_units_Z 48
_cell_length_a 15.099743
_cell_length_b 9.182064
_cell_length_c 18.802164
_cell_angle_alpha 90.000000
_cell_angle_beta 90.000000
_cell_angle_gamma 90.000000
_cell_volume 2606.859996
_symmetry_space_group_name_H-M "P M M N"
_symmetry_group_IT_number 59
_space_group.IT_coordinate_system_code '2'
_symmetry_cell_setting 'orthorhombic'
loop_
_space_group_symop_operation_xyz
x,y,z
1/2-x,1/2-y,z
1/2+x,-y,-z
-x,1/2+y,-z
-x,-y,-z
1/2+x,1/2+y,-z
1/2-x,y,z
x,1/2-y,z
loop_
_atom_site_type_symbol
_atom_site_label
_atom_site_fract_x
_atom_site_fract_y
_atom_site_fract_z
Si Si1 0.850123 0.919936 0.689513
Si Si2 0.103146 0.089244 0.682336
Si Si3 0.250000 0.082403 0.905222
Si Si4 0.051772 0.419024 0.938642
Si Si5 0.955839 0.091101 0.796196
Si Si6 0.750000 0.078615 0.236678
Si Si7 0.001974 0.422899 0.424723
O O1 0.750000 0.969337 0.671769
O O2 0.857286 0.750000 0.702871
O O3 0.910161 0.962437 0.621145
O O4 0.878225 0.988088 0.766078
O O5 0.142093 0.250000 0.662167
O O6 0.017274 0.113900 0.728728
O O7 0.165759 0.991136 0.728501
O O8 0.083003 0.994110 0.612927
O O9 0.250000 0.250000 0.875595
O O10 0.341875 0.054696 0.947911
O O11 0.250000 0.961629 0.845263
O O12 0.031454 0.250000 0.946418
O O13 0.011944 0.474797 0.862778
O O14 0.000000 0.500000 0.000000
O O15 0.916773 0.250000 0.817586
O O16 0.750000 0.250000 0.246808
O O17 0.990093 0.250000 0.433133
O O18 0.000000 0.500000 0.500000
#
# Coordination Sequence:
#
# PCOD8242090 Si02
#       7
#     8   8   4   8   8   4   8
#     4   9  19  36  57  80 107 143 188 231 275 335
#     4  10  19  35  57  79 107 145 183 223 278 334
#     4  10  20  40  62  80 110 155 194 229 284 356
#     4  10  21  38  59  83 114 150 190 233 283 342
#     4   9  18  34  57  81 106 139 181 227 275 329
#     4  12  22  32  54  88 116 137 178 235 280 330
#     4  10  20  36  56  80 112 147 188 233 282 336
#
# _framework density 18.412956999999999
#
# number of rings (size 3 to 8) (size 9 to 14) (size 15 to 20)
#    0.000    2.167    1.667    1.750    0.000    3.000 
#    3.000    0.000    0.000    0.000    0.000    0.000 
#    0.000    0.000    0.000    0.000    0.000    0.000 
#
# Total GULP energy -594695.886015 kJ/mol
# GULP energy per Si atom -12389.497625 kJ/mol
# Density = 1.837105 g / cm^3
# Si number density = 18.412957 Si / 1000 Ang^3
#
#
#
# Elastic Constant Matrix: (Units=GPa)
#
#
# Indices 1 2 3 4 5 6 
#
# 1 100.4481 51.2625 44.2297 0.0000 0.0000 0.0000
# 2 51.2625 107.5941 46.7674 0.0000 0.0000 0.0000
# 3 44.2297 46.7674 108.4863 0.0000 0.0000 0.0000
# 4 0.0000 0.0000 0.0000 34.9865 0.0000 0.0000
# 5 0.0000 0.0000 0.0000 0.0000 27.5836 0.0000
# 6 0.0000 0.0000 0.0000 0.0000 0.0000 32.0653
#
#
#
# Elastic Compliance Matrix: (Units=1/GPa)
#
#
# Indices 1 2 3 4 5 6 
#
# 1 0.014172 -0.005219 -0.003528 0.000000 0.000000 0.000000
# 2 -0.005219 0.013359 -0.003631 0.000000 0.000000 0.000000
# 3 -0.003528 -0.003631 0.012222 0.000000 0.000000 0.000000
# 4 0.000000 0.000000 0.000000 0.028582 0.000000 0.000000
# 5 0.000000 0.000000 0.000000 0.000000 0.036253 0.000000
# 6 0.000000 0.000000 0.000000 0.000000 0.000000 0.031186
#
#
# Mechanical properties :
#
#
# Convention : Reuss Voigt Hill
#
# Bulk Modulus (GPa) = 66.68263 66.78307 66.73285
# Shear Modulus (GPa) = 30.20594 30.54502 30.37548
#
# Velocity S-wave (km/s) = 4.05467 4.07736 4.06603
# Velocity P-wave (km/s) = 7.62982 7.64950 7.63967
#
# Compressibility (1/GPa) = 0.01499641
#
# Stress axis : x y z
#
# Youngs Moduli (GPa) = 70.56041 74.85603 81.82211
#
# Poissons Ratio (x) = 0.39065 0.28869
# Poissons Ratio (y) = 0.36823 0.29712
# Poissons Ratio (z) = 0.24896 0.27182
#
# Static dielectric constant tensor:
#      x y z
#    x 3.511520 0.000000 0.000000 
#    y 0.000000 2.924770 0.000000 
#    z 0.000000 0.000000 3.385720 
# 
# 
# High freq. dielectric constant tensor:
#      x y z
#    x 1.708310 0.000000 0.000000 
#    y 0.000000 1.719810 0.000000 
#    z 0.000000 0.000000 1.701730 
# 
# From -- ./inp_files/25511.got.cif
#   From: 2010.03.12/outbox.cif.g09.slc.cpg/sg59_13_cif.got.tgz:25511.got - 2010.04.16 16:29:54.
