data_PCOD8242252
_publ_section_title
;
Structure prediction by ZEFSAII (Michael W. Deem and Ramdas Pophale) SiO2 
 PCOD8242252
Probable space group: P M M N
;
_chemical_formula_sum "Si O2"
_cell_formula_units_Z 64
_cell_length_a 8.896282
_cell_length_b 28.599892
_cell_length_c 12.533693
_cell_angle_alpha 90.000000
_cell_angle_beta 90.000000
_cell_angle_gamma 90.000000
_cell_volume 3188.981406
_symmetry_space_group_name_H-M "P M M N"
_symmetry_group_IT_number 59
_space_group.IT_coordinate_system_code '2'
_symmetry_cell_setting 'orthorhombic'
loop_
_space_group_symop_operation_xyz
x,y,z
1/2-x,1/2-y,z
1/2+x,-y,-z
-x,1/2+y,-z
-x,-y,-z
1/2+x,1/2+y,-z
1/2-x,y,z
x,1/2-y,z
loop_
_atom_site_type_symbol
_atom_site_label
_atom_site_fract_x
_atom_site_fract_y
_atom_site_fract_z
Si Si1 0.921774 0.058909 0.263189
Si Si2 0.075407 0.196112 0.998580
Si Si3 0.427458 0.478051 0.896060
Si Si4 0.922782 0.159950 0.202595
Si Si5 0.575536 0.372968 0.604846
Si Si6 0.575473 0.378994 0.849117
Si Si7 0.572053 0.198309 0.429325
Si Si8 0.074033 0.451100 0.479751
O O1 0.750000 0.055092 0.303101
O O2 0.939671 0.103984 0.186188
O O3 0.026098 0.068047 0.364668
O O4 0.970819 0.011991 0.202063
O O5 0.250000 0.183899 0.985713
O O6 0.043258 0.250000 0.969082
O O7 0.979457 0.163202 0.922095
O O8 0.027051 0.187107 0.120026
O O9 0.250000 0.475816 0.912707
O O10 0.487792 0.426515 0.873504
O O11 0.500000 0.500000 0.000000
O O12 0.750000 0.175533 0.185370
O O13 0.979988 0.173109 0.320864
O O14 0.750000 0.383423 0.580923
O O15 0.547700 0.361999 0.728513
O O16 0.515868 0.329944 0.533126
O O17 0.479138 0.417950 0.574855
O O18 0.750000 0.388444 0.872426
O O19 0.750000 0.201435 0.431516
O O20 0.500541 0.250000 0.434670
O O21 0.250000 0.456531 0.485371
O O22 0.000000 0.500000 0.500000
#
# Coordination Sequence:
#
# PCOD8242252 Si02
#       8
#     8   8   8   8   8   8   8   8
#     4  10  21  38  60  88 123 161 202 251 307 364
#     4  11  25  43  63  89 124 163 204 258 320 378
#     4  11  23  39  62  91 125 164 208 259 314 375
#     4  10  19  36  64  93 125 161 205 258 308 369
#     4  10  21  40  62  88 124 159 201 255 305 363
#     4  11  24  41  64  90 121 164 212 261 310 370
#     4   9  17  32  59  92 123 158 199 249 308 361
#     4  12  24  37  58  86 119 160 204 248 300 361
#
# _framework density 20.069102999999998
#
# number of rings (size 3 to 8) (size 9 to 14) (size 15 to 20)
#    0.000    1.500    1.250    4.125    0.000    7.500 
#    0.000    1.250    0.000    0.375    0.000    0.000 
#    0.000    0.000    0.000    0.000    0.000    0.000 
#
# Total GULP energy -793822.343960 kJ/mol
# GULP energy per Si atom -12403.474124 kJ/mol
# Density = 2.002342 g / cm^3
# Si number density = 20.069103 Si / 1000 Ang^3
#
#
#
# Elastic Constant Matrix: (Units=GPa)
#
#
# Indices 1 2 3 4 5 6 
#
# 1 80.1359 32.6934 39.7003 0.0000 0.0000 0.0000
# 2 32.6934 130.6331 47.6266 0.0000 0.0000 0.0000
# 3 39.7003 47.6266 115.9598 0.0000 0.0000 0.0000
# 4 0.0000 0.0000 0.0000 34.4544 0.0000 0.0000
# 5 0.0000 0.0000 0.0000 0.0000 28.3858 0.0000
# 6 0.0000 0.0000 0.0000 0.0000 0.0000 28.2555
#
#
#
# Elastic Compliance Matrix: (Units=1/GPa)
#
#
# Indices 1 2 3 4 5 6 
#
# 1 0.015594 -0.002301 -0.004394 0.000000 0.000000 0.000000
# 2 -0.002301 0.009343 -0.003049 0.000000 0.000000 0.000000
# 3 -0.004394 -0.003049 0.011380 0.000000 0.000000 0.000000
# 4 0.000000 0.000000 0.000000 0.029024 0.000000 0.000000
# 5 0.000000 0.000000 0.000000 0.000000 0.035229 0.000000
# 6 0.000000 0.000000 0.000000 0.000000 0.000000 0.035391
#
#
# Mechanical properties :
#
#
# Convention : Reuss Voigt Hill
#
# Bulk Modulus (GPa) = 59.42129 62.97437 61.19783
# Shear Modulus (GPa) = 31.04443 31.99971 31.52207
#
# Velocity S-wave (km/s) = 3.93730 3.99742 3.96748
# Velocity P-wave (km/s) = 7.09524 7.26311 7.17966
#
# Compressibility (1/GPa) = 0.01682898
#
# Stress axis : x y z
#
# Youngs Moduli (GPa) = 64.12612 107.03622 87.86995
#
# Poissons Ratio (x) = 0.24627 0.38609
# Poissons Ratio (y) = 0.14754 0.26796
# Poissons Ratio (z) = 0.28176 0.32640
#
# Static dielectric constant tensor:
#      x y z
#    x 3.572260 0.000000 0.000000 
#    y 0.000000 3.864640 0.000000 
#    z 0.000000 0.000000 3.849970 
# 
# 
# High freq. dielectric constant tensor:
#      x y z
#    x 1.768640 0.000000 0.000000 
#    y 0.000000 1.796520 0.000000 
#    z 0.000000 0.000000 1.790040 
# 
# From -- ./inp_files/15010.got.cif
#   From: 2010.03.12/outbox.cif.g09.slc.cpg/sg59_8_cif.got.tgz:15010.got - 2010.04.16 16:29:54.
