data_PCOD8242053
_publ_section_title
;
Structure prediction by ZEFSAII (Michael W. Deem and Ramdas Pophale) SiO2 
 PCOD8242053
Probable space group: P M M N
;
_chemical_formula_sum "Si O2"
_cell_formula_units_Z 48
_cell_length_a 15.032681
_cell_length_b 8.742558
_cell_length_c 19.059441
_cell_angle_alpha 90.000000
_cell_angle_beta 90.000000
_cell_angle_gamma 90.000000
_cell_volume 2504.869604
_symmetry_space_group_name_H-M "P M M N"
_symmetry_group_IT_number 59
_space_group.IT_coordinate_system_code '2'
_symmetry_cell_setting 'orthorhombic'
loop_
_space_group_symop_operation_xyz
x,y,z
1/2-x,1/2-y,z
1/2+x,-y,-z
-x,1/2+y,-z
-x,-y,-z
1/2+x,1/2+y,-z
1/2-x,y,z
x,1/2-y,z
loop_
_atom_site_type_symbol
_atom_site_label
_atom_site_fract_x
_atom_site_fract_y
_atom_site_fract_z
Si Si1 0.852572 0.571220 0.172411
Si Si2 0.852228 0.072356 0.830535
Si Si3 0.404511 0.570046 0.680898
Si Si4 0.750000 0.431863 0.577549
Si Si5 0.089847 0.929651 0.326475
Si Si6 0.750000 0.069302 0.421048
Si Si7 0.501550 0.429658 0.076301
O O1 0.750000 0.531021 0.158848
O O2 0.871987 0.750000 0.165654
O O3 0.881307 0.519968 0.249099
O O4 0.909649 0.484325 0.114772
O O5 0.750000 0.029827 0.845340
O O6 0.870450 0.250000 0.845108
O O7 0.875480 0.030884 0.750860
O O8 0.913025 0.974577 0.881927
O O9 0.396140 0.750000 0.695558
O O10 0.502517 0.526352 0.655746
O O11 0.337399 0.514696 0.620362
O O12 0.750000 0.250000 0.577155
O O13 0.837380 0.488608 0.618196
O O14 0.750000 0.502159 0.499141
O O15 0.070055 0.750000 0.334259
O O16 0.750000 0.250000 0.427984
O O17 0.504893 0.250000 0.069223
O O18 0.500000 0.500000 0.000000
#
# Coordination Sequence:
#
# PCOD8242053 Si02
#       7
#     8   8   8   4   8   4   8
#     4  11  23  40  64  91 119 155 202 254 299 356
#     4  10  20  37  62  91 121 157 202 250 296 354
#     4  11  21  35  57  87 120 159 199 246 303 360
#     4   9  18  36  59  85 118 163 204 245 299 358
#     4  10  19  34  60  88 114 153 204 249 292 353
#     4   9  20  36  55  83 124 161 200 247 301 362
#     4  12  26  43  64  91 125 162 196 245 301 357
#
# _framework density 19.162673999999999
#
# number of rings (size 3 to 8) (size 9 to 14) (size 15 to 20)
#    0.000    1.500    3.333    2.500    0.000    2.667 
#    0.000    0.417    0.000    3.000    0.000    0.000 
#    0.000    0.000    0.000    0.000    0.000    0.000 
#
# Total GULP energy -595391.041547 kJ/mol
# GULP energy per Si atom -12403.980032 kJ/mol
# Density = 1.911906 g / cm^3
# Si number density = 19.162674 Si / 1000 Ang^3
#
#
#
# Elastic Constant Matrix: (Units=GPa)
#
#
# Indices 1 2 3 4 5 6 
#
# 1 169.6423 53.9961 78.9068 0.0000 0.0000 0.0000
# 2 53.9961 29.3825 24.7589 0.0000 0.0000 0.0000
# 3 78.9068 24.7589 150.7026 0.0000 0.0000 0.0000
# 4 0.0000 0.0000 0.0000 18.1374 0.0000 0.0000
# 5 0.0000 0.0000 0.0000 0.0000 40.1240 0.0000
# 6 0.0000 0.0000 0.0000 0.0000 0.0000 26.1317
#
#
#
# Elastic Compliance Matrix: (Units=1/GPa)
#
#
# Indices 1 2 3 4 5 6 
#
# 1 0.016176 -0.026220 -0.004162 0.000000 0.000000 0.000000
# 2 -0.026220 0.082002 0.000257 0.000000 0.000000 0.000000
# 3 -0.004162 0.000257 0.008773 0.000000 0.000000 0.000000
# 4 0.000000 0.000000 0.000000 0.055135 0.000000 0.000000
# 5 0.000000 0.000000 0.000000 0.000000 0.024923 0.000000
# 6 0.000000 0.000000 0.000000 0.000000 0.000000 0.038268
#
#
# Mechanical properties :
#
#
# Convention : Reuss Voigt Hill
#
# Bulk Modulus (GPa) = 21.41330 73.89457 47.65394
# Shear Modulus (GPa) = 16.60604 29.68298 23.14451
#
# Velocity S-wave (km/s) = 2.94697 3.94000 3.47910
# Velocity P-wave (km/s) = 4.77266 7.70348 6.40788
#
# Compressibility (1/GPa) = 0.04669994
#
# Stress axis : x y z
#
# Youngs Moduli (GPa) = 61.81825 12.19476 113.98977
#
# Poissons Ratio (x) = 0.31975 0.47444
# Poissons Ratio (y) = 1.62089 -0.02924
# Poissons Ratio (z) = 0.25730 -0.00313
#
# Static dielectric constant tensor:
#      x y z
#    x 3.594940 0.000000 0.000000 
#    y 0.000000 3.371760 0.000000 
#    z 0.000000 0.000000 3.605190 
# 
# 
# High freq. dielectric constant tensor:
#      x y z
#    x 1.764560 0.000000 0.000000 
#    y 0.000000 1.732000 0.000000 
#    z 0.000000 0.000000 1.747920 
# 
# From -- ./inp_files/27440.got.cif
#   From: 2010.03.12/outbox.cif.g09.slc.cpg/sg59_14_cif.got.tgz:27440.got - 2010.04.16 16:29:54.
