data_PCOD8242877
_publ_section_title
;
Structure prediction by ZEFSAII (Michael W. Deem and Ramdas Pophale) SiO2 
 PCOD8242877
Probable space group: P M M N
;
_chemical_formula_sum "Si O2"
_cell_formula_units_Z 48
_cell_length_a 9.125255
_cell_length_b 9.090642
_cell_length_c 30.820535
_cell_angle_alpha 90.000000
_cell_angle_beta 90.000000
_cell_angle_gamma 90.000000
_cell_volume 2556.699801
_symmetry_space_group_name_H-M "P M M N"
_symmetry_group_IT_number 59
_space_group.IT_coordinate_system_code '2'
_symmetry_cell_setting 'orthorhombic'
loop_
_space_group_symop_operation_xyz
x,y,z
1/2-x,1/2-y,z
1/2+x,-y,-z
-x,1/2+y,-z
-x,-y,-z
1/2+x,1/2+y,-z
1/2-x,y,z
x,1/2-y,z
loop_
_atom_site_type_symbol
_atom_site_label
_atom_site_fract_x
_atom_site_fract_y
_atom_site_fract_z
Si Si1 0.922267 0.419190 0.960895
Si Si2 0.420474 0.077959 0.281030
Si Si3 0.423848 0.412308 0.377900
Si Si4 0.577294 0.418456 0.538929
Si Si5 0.420493 0.078550 0.126762
Si Si6 0.077082 0.080689 0.795337
O O1 0.750000 0.435285 0.967690
O O2 0.972019 0.250000 0.959536
O O3 0.972396 0.495189 0.916396
O O4 0.000000 0.500000 0.000000
O O5 0.250000 0.041533 0.273574
O O6 0.449402 0.250000 0.271775
O O7 0.471467 0.036009 0.329870
O O8 0.516669 0.977103 0.250130
O O9 0.250000 0.404904 0.378616
O O10 0.487869 0.250000 0.387623
O O11 0.482553 0.521450 0.414974
O O12 0.500000 0.500000 0.500000
O O13 0.750000 0.443384 0.534864
O O14 0.532352 0.250000 0.536386
O O15 0.250000 0.050169 0.136289
O O16 0.454518 0.250000 0.120744
O O17 0.511644 0.016898 0.166521
O O18 0.250000 0.061846 0.795511
O O19 0.030383 0.250000 0.801710
#
# Coordination Sequence:
#
# PCOD8242877 Si02
#       6
#     8   8   8   8   8   8
#     4  10  21  37  58  84 113 145 180 218 263 313
#     4   9  18  34  57  82 104 131 171 215 260 313
#     4   8  15  30  52  76 102 132 168 212 259 307
#     4  10  20  33  51  76 104 135 173 214 257 308
#     4  10  21  38  60  83 106 137 180 225 266 312
#     4  11  24  38  52  76 110 144 177 215 261 312
#
# _framework density 18.774201999999999
#
# number of rings (size 3 to 8) (size 9 to 14) (size 15 to 20)
#    0.000    2.333    0.000    3.500    0.000    8.000 
#    0.000    2.500    0.000    1.000    0.000    0.000 
#    0.000    0.000    0.000    0.000    0.000    0.000 
#
# Total GULP energy -595247.687352 kJ/mol
# GULP energy per Si atom -12400.993487 kJ/mol
# Density = 1.873147 g / cm^3
# Si number density = 18.774202 Si / 1000 Ang^3
#
#
#
# Elastic Constant Matrix: (Units=GPa)
#
#
# Indices 1 2 3 4 5 6 
#
# 1 41.4418 47.1168 46.3095 0.0000 0.0000 0.0000
# 2 47.1168 139.6987 89.5326 0.0000 0.0000 0.0000
# 3 46.3095 89.5326 164.8091 0.0000 0.0000 0.0000
# 4 0.0000 0.0000 0.0000 42.2077 0.0000 0.0000
# 5 0.0000 0.0000 0.0000 0.0000 32.5983 0.0000
# 6 0.0000 0.0000 0.0000 0.0000 0.0000 28.7977
#
#
#
# Elastic Compliance Matrix: (Units=1/GPa)
#
#
# Indices 1 2 3 4 5 6 
#
# 1 0.043227 -0.010424 -0.006483 0.000000 0.000000 0.000000
# 2 -0.010424 0.013496 -0.004402 0.000000 0.000000 0.000000
# 3 -0.006483 -0.004402 0.010281 0.000000 0.000000 0.000000
# 4 0.000000 0.000000 0.000000 0.023692 0.000000 0.000000
# 5 0.000000 0.000000 0.000000 0.000000 0.030676 0.000000
# 6 0.000000 0.000000 0.000000 0.000000 0.000000 0.034725
#
#
# Mechanical properties :
#
#
# Convention : Reuss Voigt Hill
#
# Bulk Modulus (GPa) = 41.01127 79.09636 60.05382
# Shear Modulus (GPa) = 24.17276 31.58679 27.87977
#
# Velocity S-wave (km/s) = 3.59214 4.10623 3.85776
# Velocity P-wave (km/s) = 6.25272 8.04383 7.20416
#
# Compressibility (1/GPa) = 0.02438354
#
# Stress axis : x y z
#
# Youngs Moduli (GPa) = 23.13386 74.09853 97.26721
#
# Poissons Ratio (x) = 0.77241 0.63061
# Poissons Ratio (y) = 0.24115 0.42821
# Poissons Ratio (z) = 0.14998 0.32621
#
# Static dielectric constant tensor:
#      x y z
#    x 3.195000 0.000000 0.000000 
#    y 0.000000 3.652980 0.000000 
#    z 0.000000 0.000000 3.701660 
# 
# 
# High freq. dielectric constant tensor:
#      x y z
#    x 1.702320 0.000000 0.000000 
#    y 0.000000 1.739080 0.000000 
#    z 0.000000 0.000000 1.747430 
# 
# From -- ./inp_files/32817.got.cif
#   From: 2010.03.12/outbox.cif.g09.slc.cpg/sg59_17_cif.got.tgz:32817.got - 2010.04.16 16:29:54.
