data_PCOD8242812
_publ_section_title
;
Structure prediction by ZEFSAII (Michael W. Deem and Ramdas Pophale) SiO2 
 PCOD8242812
Probable space group: P M M N
;
_chemical_formula_sum "Si O2"
_cell_formula_units_Z 56
_cell_length_a 19.694472
_cell_length_b 9.310191
_cell_length_c 17.677351
_cell_angle_alpha 90.000000
_cell_angle_beta 90.000000
_cell_angle_gamma 90.000000
_cell_volume 3241.306634
_symmetry_space_group_name_H-M "P M M N"
_symmetry_group_IT_number 59
_space_group.IT_coordinate_system_code '2'
_symmetry_cell_setting 'orthorhombic'
loop_
_space_group_symop_operation_xyz
x,y,z
1/2-x,1/2-y,z
1/2+x,-y,-z
-x,1/2+y,-z
-x,-y,-z
1/2+x,1/2+y,-z
1/2-x,y,z
x,1/2-y,z
loop_
_atom_site_type_symbol
_atom_site_label
_atom_site_fract_x
_atom_site_fract_y
_atom_site_fract_z
Si Si1 0.172229 0.916337 0.289319
Si Si2 0.936377 0.415611 0.586674
Si Si3 0.169201 0.412196 0.143519
Si Si4 0.330725 0.090589 0.860021
Si Si5 0.668923 0.411658 0.999662
Si Si6 0.670941 0.583265 0.309096
Si Si7 0.430393 0.917750 0.587402
O O1 0.250000 0.955506 0.308416
O O2 0.165301 0.750000 0.266575
O O3 0.128658 0.955148 0.362972
O O4 0.144085 0.008874 0.219305
O O5 0.957485 0.250000 0.596122
O O6 0.916797 0.450804 0.500588
O O7 0.999434 0.510754 0.614198
O O8 0.250000 0.412671 0.140894
O O9 0.140808 0.250000 0.142429
O O10 0.140445 0.496872 0.070833
O O11 0.250000 0.095173 0.862762
O O12 0.358725 0.250000 0.878453
O O13 0.353486 0.043281 0.775959
O O14 0.359306 0.980584 0.922520
O O15 0.750000 0.412272 0.999289
O O16 0.640848 0.250000 0.993619
O O17 0.750000 0.549416 0.319195
O O18 0.655802 0.750000 0.325690
O O19 0.631841 0.483990 0.367433
O O20 0.434743 0.750000 0.604542
#
# Coordination Sequence:
#
# PCOD8242812 Si02
#       7
#     8   8   8   8   8   8   8
#     4   9  17  30  48  69  93 121 155 195 237 280
#     4   9  19  35  52  69  93 126 159 193 237 287
#     4   9  16  25  38  59  89 122 153 187 229 275
#     4   8  14  25  40  59  86 120 155 189 227 272
#     4   9  15  22  35  57  86 120 155 189 226 268
#     4   9  18  32  49  70  98 130 160 193 238 288
#     4  10  20  33  51  73  95 122 159 201 238 278
#
# _framework density 17.276983999999999
#
# number of rings (size 3 to 8) (size 9 to 14) (size 15 to 20)
#    0.000    3.000    0.000    2.143    0.000    6.000 
#    0.000    2.857    0.000    1.714    0.000    1.000 
#    0.000    0.000    0.000    0.000    0.000    0.000 
#
# Total GULP energy -694319.208877 kJ/mol
# GULP energy per Si atom -12398.557301 kJ/mol
# Density = 1.723766 g / cm^3
# Si number density = 17.276984 Si / 1000 Ang^3
#
#
#
# Elastic Constant Matrix: (Units=GPa)
#
#
# Indices 1 2 3 4 5 6 
#
# 1 50.0940 42.7076 48.0606 0.0000 0.0000 0.0000
# 2 42.7076 116.9142 74.6038 0.0000 0.0000 0.0000
# 3 48.0606 74.6038 119.3420 0.0000 0.0000 0.0000
# 4 0.0000 0.0000 0.0000 35.9338 0.0000 0.0000
# 5 0.0000 0.0000 0.0000 0.0000 1.7918 0.0000
# 6 0.0000 0.0000 0.0000 0.0000 0.0000 21.1928
#
#
#
# Elastic Compliance Matrix: (Units=1/GPa)
#
#
# Indices 1 2 3 4 5 6 
#
# 1 0.035140 -0.006332 -0.010193 0.000000 0.000000 0.000000
# 2 -0.006332 0.015370 -0.007058 0.000000 0.000000 0.000000
# 3 -0.010193 -0.007058 0.016897 0.000000 0.000000 0.000000
# 4 0.000000 0.000000 0.000000 0.027829 0.000000 0.000000
# 5 0.000000 0.000000 0.000000 0.000000 0.558103 0.000000
# 6 0.000000 0.000000 0.000000 0.000000 0.000000 0.047186
#
#
# Mechanical properties :
#
#
# Convention : Reuss Voigt Hill
#
# Bulk Modulus (GPa) = 49.40710 68.56604 58.98657
# Shear Modulus (GPa) = 6.62745 19.84889 13.23817
#
# Velocity S-wave (km/s) = 1.96070 3.39317 2.77109
# Velocity P-wave (km/s) = 5.81248 7.42455 6.66741
#
# Compressibility (1/GPa) = 0.02024001
#
# Stress axis : x y z
#
# Youngs Moduli (GPa) = 28.45739 65.06041 59.18364
#
# Poissons Ratio (x) = 0.41197 0.60327
# Poissons Ratio (y) = 0.18019 0.41774
# Poissons Ratio (z) = 0.29007 0.45922
#
# Static dielectric constant tensor:
#      x y z
#    x 2.743570 0.000000 0.000000 
#    y 0.000000 3.365900 0.000000 
#    z 0.000000 0.000000 3.377100 
# 
# 
# High freq. dielectric constant tensor:
#      x y z
#    x 1.611150 0.000000 0.000000 
#    y 0.000000 1.674360 0.000000 
#    z 0.000000 0.000000 1.676860 
# 
# From -- ./inp_files/26021.got.cif
#   From: 2010.03.12/outbox.cif.g09.slc.cpg/sg59_14_cif.got.tgz:26021.got - 2010.04.16 16:29:54.
