data_PCOD8242809
_publ_section_title
;
Structure prediction by ZEFSAII (Michael W. Deem and Ramdas Pophale) SiO2 
 PCOD8242809
Probable space group: P M M N
;
_chemical_formula_sum "Si O2"
_cell_formula_units_Z 56
_cell_length_a 9.141721
_cell_length_b 20.958736
_cell_length_c 14.893891
_cell_angle_alpha 90.000000
_cell_angle_beta 90.000000
_cell_angle_gamma 90.000000
_cell_volume 2853.653386
_symmetry_space_group_name_H-M "P M M N"
_symmetry_group_IT_number 59
_space_group.IT_coordinate_system_code '2'
_symmetry_cell_setting 'orthorhombic'
loop_
_space_group_symop_operation_xyz
x,y,z
1/2-x,1/2-y,z
1/2+x,-y,-z
-x,1/2+y,-z
-x,-y,-z
1/2+x,1/2+y,-z
1/2-x,y,z
x,1/2-y,z
loop_
_atom_site_type_symbol
_atom_site_label
_atom_site_fract_x
_atom_site_fract_y
_atom_site_fract_z
Si Si1 0.075715 0.872610 0.109785
Si Si2 0.923947 0.179888 0.273727
Si Si3 0.921428 0.428123 0.406426
Si Si4 0.085067 0.866536 0.908164
Si Si5 0.583829 0.507857 0.091654
Si Si6 0.917906 0.820906 0.268134
Si Si7 0.420950 0.072406 0.592789
O O1 0.250000 0.877523 0.111342
O O2 0.004885 0.938869 0.147525
O O3 0.016518 0.819491 0.177804
O O4 0.013795 0.860024 0.007880
O O5 0.750000 0.171554 0.267492
O O6 0.966614 0.250000 0.311621
O O7 0.987353 0.124049 0.337194
O O8 0.988649 0.174939 0.171396
O O9 0.750000 0.417613 0.420053
O O10 0.953874 0.500355 0.371877
O O11 0.996064 0.414861 0.500943
O O12 0.250000 0.843462 0.923737
O O13 0.081707 0.937834 0.864808
O O14 0.750000 0.531215 0.077118
O O15 0.500000 0.500000 0.000000
O O16 0.750000 0.835642 0.242339
O O17 0.932307 0.750000 0.311037
O O18 0.977065 0.874682 0.336532
O O19 0.250000 0.081550 0.574410
#
# Coordination Sequence:
#
# PCOD8242809 Si02
#       7
#     8   8   8   8   8   8   8
#     4  10  20  33  50  77 108 141 182 226 274 321
#     4   9  17  29  48  77 108 137 172 212 253 306
#     4   9  18  33  56  82 105 131 168 213 264 315
#     4   8  16  29  47  72 105 143 180 215 259 311
#     4   9  16  28  48  72 101 137 180 227 272 315
#     4  10  22  38  55  77 104 142 186 221 266 328
#     4   9  19  36  57  78 103 135 171 214 265 322
#
# _framework density 19.623968000000001
#
# number of rings (size 3 to 8) (size 9 to 14) (size 15 to 20)
#    0.000    2.857    0.000    1.714    2.000    2.000 
#    0.000    1.429    0.000    1.714    0.000    0.000 
#    0.000    0.000    0.000    0.000    0.000    0.000 
#
# Total GULP energy -693750.344456 kJ/mol
# GULP energy per Si atom -12388.399008 kJ/mol
# Density = 1.957930 g / cm^3
# Si number density = 19.623968 Si / 1000 Ang^3
#
#
#
# Elastic Constant Matrix: (Units=GPa)
#
#
# Indices 1 2 3 4 5 6 
#
# 1 49.4076 28.8562 25.7447 0.0000 0.0000 0.0000
# 2 28.8562 133.8862 78.1721 0.0000 0.0000 0.0000
# 3 25.7447 78.1721 114.8444 0.0000 0.0000 0.0000
# 4 0.0000 0.0000 0.0000 27.8210 0.0000 0.0000
# 5 0.0000 0.0000 0.0000 0.0000 24.1934 0.0000
# 6 0.0000 0.0000 0.0000 0.0000 0.0000 16.9393
#
#
#
# Elastic Compliance Matrix: (Units=1/GPa)
#
#
# Indices 1 2 3 4 5 6 
#
# 1 0.023784 -0.003341 -0.003058 0.000000 0.000000 0.000000
# 2 -0.003341 0.012865 -0.008008 0.000000 0.000000 0.000000
# 3 -0.003058 -0.008008 0.014844 0.000000 0.000000 0.000000
# 4 0.000000 0.000000 0.000000 0.035944 0.000000 0.000000
# 5 0.000000 0.000000 0.000000 0.000000 0.041334 0.000000
# 6 0.000000 0.000000 0.000000 0.000000 0.000000 0.059034
#
#
# Mechanical properties :
#
#
# Convention : Reuss Voigt Hill
#
# Bulk Modulus (GPa) = 44.09193 62.63156 53.36175
# Shear Modulus (GPa) = 22.30383 24.81509 23.55946
#
# Velocity S-wave (km/s) = 3.37495 3.55988 3.46865
# Velocity P-wave (km/s) = 6.14038 6.99158 6.57976
#
# Compressibility (1/GPa) = 0.02267989
#
# Stress axis : x y z
#
# Youngs Moduli (GPa) = 42.04458 77.73308 67.36947
#
# Poissons Ratio (x) = 0.25970 0.20599
# Poissons Ratio (y) = 0.14047 0.53947
# Poissons Ratio (z) = 0.12856 0.62246
#
# Static dielectric constant tensor:
#      x y z
#    x 3.305100 0.000000 0.000000 
#    y 0.000000 4.010780 0.000000 
#    z 0.000000 0.000000 3.492930 
# 
# 
# High freq. dielectric constant tensor:
#      x y z
#    x 1.725830 0.000000 0.000000 
#    y 0.000000 1.772900 0.000000 
#    z 0.000000 0.000000 1.753040 
# 
# From -- ./inp_files/20975.got.cif
#   From: 2010.03.12/outbox.cif.g09.slc.cpg/sg59_11_cif.got.tgz:20975.got - 2010.04.16 16:29:54.
