data_PCOD8242850
_publ_section_title
;
Structure prediction by ZEFSAII (Michael W. Deem and Ramdas Pophale) SiO2 
 PCOD8242850
Probable space group: P M M N
;
_chemical_formula_sum "Si O2"
_cell_formula_units_Z 64
_cell_length_a 14.087478
_cell_length_b 9.141137
_cell_length_c 25.540406
_cell_angle_alpha 90.000000
_cell_angle_beta 90.000000
_cell_angle_gamma 90.000000
_cell_volume 3288.980248
_symmetry_space_group_name_H-M "P M M N"
_symmetry_group_IT_number 59
_space_group.IT_coordinate_system_code '2'
_symmetry_cell_setting 'orthorhombic'
loop_
_space_group_symop_operation_xyz
x,y,z
1/2-x,1/2-y,z
1/2+x,-y,-z
-x,1/2+y,-z
-x,-y,-z
1/2+x,1/2+y,-z
1/2-x,y,z
x,1/2-y,z
loop_
_atom_site_type_symbol
_atom_site_label
_atom_site_fract_x
_atom_site_fract_y
_atom_site_fract_z
Si Si1 0.546605 0.081127 0.274535
Si Si2 0.969731 0.578415 0.075674
Si Si3 0.353254 0.592540 0.420411
Si Si4 0.903159 0.577774 0.485761
Si Si5 0.640008 0.915263 0.366766
Si Si6 0.858428 0.923508 0.178083
Si Si7 0.140774 0.078015 0.028757
Si Si8 0.857468 0.917719 0.676780
O O1 0.573416 0.250000 0.265839
O O2 0.431638 0.058926 0.275444
O O3 0.586878 0.029709 0.330147
O O4 0.591426 0.986384 0.228917
O O5 0.989754 0.750000 0.077242
O O6 0.917483 0.522493 0.127823
O O7 0.072129 0.499776 0.070924
O O8 0.898513 0.537167 0.028600
O O9 0.250000 0.628839 0.398489
O O10 0.406885 0.750000 0.430758
O O11 0.334442 0.496995 0.472288
O O12 0.402369 0.505418 0.372859
O O13 0.904027 0.750000 0.495128
O O14 0.873838 0.537733 0.427041
O O15 0.000000 0.500000 0.500000
O O16 0.750000 0.921941 0.352427
O O17 0.601706 0.750000 0.357766
O O18 0.750000 0.980099 0.173939
O O19 0.859604 0.750000 0.182121
O O20 0.250000 0.022878 0.034000
O O21 0.135948 0.250000 0.038849
O O22 0.750000 0.964683 0.693615
O O23 0.856969 0.750000 0.658937
#
# Coordination Sequence:
#
# PCOD8242850 Si02
#       8
#     8   8   8   8   8   8   8   8
#     4  11  23  37  56  82 107 133 173 226 275 316
#     4   9  18  33  54  81 112 148 192 234 269 314
#     4  10  20  33  51  76 102 127 160 204 253 309
#     4  11  22  35  52  74 101 133 170 211 258 315
#     4  10  22  39  56  74 101 140 179 212 256 319
#     4  10  21  38  59  80 106 144 185 223 267 320
#     4   9  17  31  53  82 117 154 189 227 274 324
#     4   9  19  37  58  77 101 136 174 212 262 325
#
# _framework density 19.458918000000001
#
# number of rings (size 3 to 8) (size 9 to 14) (size 15 to 20)
#    0.000    2.125    0.000    3.000    0.000    9.500 
#    0.000    0.625    0.000    4.500    0.000    0.000 
#    0.000    0.000    0.000    0.000    0.000    0.000 
#
# Total GULP energy -793144.668125 kJ/mol
# GULP energy per Si atom -12392.885439 kJ/mol
# Density = 1.941463 g / cm^3
# Si number density = 19.458918 Si / 1000 Ang^3
#
#
#
# Elastic Constant Matrix: (Units=GPa)
#
#
# Indices 1 2 3 4 5 6 
#
# 1 129.4116 37.2836 57.9468 0.0000 0.0000 0.0000
# 2 37.2836 57.3068 34.4297 0.0000 0.0000 0.0000
# 3 57.9468 34.4297 98.8237 0.0000 0.0000 0.0000
# 4 0.0000 0.0000 0.0000 28.0970 0.0000 0.0000
# 5 0.0000 0.0000 0.0000 0.0000 30.1532 0.0000
# 6 0.0000 0.0000 0.0000 0.0000 0.0000 26.8903
#
#
#
# Elastic Compliance Matrix: (Units=1/GPa)
#
#
# Indices 1 2 3 4 5 6 
#
# 1 0.011238 -0.004240 -0.005112 0.000000 0.000000 0.000000
# 2 -0.004240 0.023669 -0.005760 0.000000 0.000000 0.000000
# 3 -0.005112 -0.005760 0.015124 0.000000 0.000000 0.000000
# 4 0.000000 0.000000 0.000000 0.035591 0.000000 0.000000
# 5 0.000000 0.000000 0.000000 0.000000 0.033164 0.000000
# 6 0.000000 0.000000 0.000000 0.000000 0.000000 0.037188
#
#
# Mechanical properties :
#
#
# Convention : Reuss Voigt Hill
#
# Bulk Modulus (GPa) = 50.49009 60.54025 55.51517
# Shear Modulus (GPa) = 25.93357 27.42023 26.67690
#
# Velocity S-wave (km/s) = 3.65462 3.75792 3.70663
# Velocity P-wave (km/s) = 6.61904 7.07168 6.84910
#
# Compressibility (1/GPa) = 0.01980587
#
# Stress axis : x y z
#
# Youngs Moduli (GPa) = 88.98390 42.24934 66.12206
#
# Poissons Ratio (x) = 0.17913 0.33804
# Poissons Ratio (y) = 0.37728 0.38087
# Poissons Ratio (z) = 0.45492 0.24336
#
# Static dielectric constant tensor:
#      x y z
#    x 3.747230 0.000000 0.000000 
#    y 0.000000 3.585830 0.000000 
#    z 0.000000 0.000000 3.124140 
# 
# 
# High freq. dielectric constant tensor:
#      x y z
#    x 1.773460 0.000000 0.000000 
#    y 0.000000 1.756340 0.000000 
#    z 0.000000 0.000000 1.736990 
# 
# From -- ./inp_files/32140.got.cif
#   From: 2010.03.12/outbox.cif.g09.slc.cpg/sg59_17_cif.got.tgz:32140.got - 2010.04.16 16:29:54.
