data_PCOD8242204
_publ_section_title
;
Structure prediction by ZEFSAII (Michael W. Deem and Ramdas Pophale) SiO2 
 PCOD8242204
Probable space group: P M M N
;
_chemical_formula_sum "Si O2"
_cell_formula_units_Z 56
_cell_length_a 23.596484
_cell_length_b 13.563962
_cell_length_c 9.382343
_cell_angle_alpha 90.000000
_cell_angle_beta 90.000000
_cell_angle_gamma 90.000000
_cell_volume 3002.929704
_symmetry_space_group_name_H-M "P M M N"
_symmetry_group_IT_number 59
_space_group.IT_coordinate_system_code '2'
_symmetry_cell_setting 'orthorhombic'
loop_
_space_group_symop_operation_xyz
x,y,z
1/2-x,1/2-y,z
1/2+x,-y,-z
-x,1/2+y,-z
-x,-y,-z
1/2+x,1/2+y,-z
1/2-x,y,z
x,1/2-y,z
loop_
_atom_site_type_symbol
_atom_site_label
_atom_site_fract_x
_atom_site_fract_y
_atom_site_fract_z
Si Si1 0.403911 0.136573 0.475701
Si Si2 0.185601 0.862739 0.811872
Si Si3 0.317137 0.058567 0.259258
Si Si4 0.990532 0.861690 0.774724
Si Si5 0.110240 0.137807 0.014834
Si Si6 0.182907 0.643361 0.133893
Si Si7 0.594821 0.996180 0.253345
O O1 0.395189 0.250000 0.519816
O O2 0.346300 0.099232 0.401272
O O3 0.457178 0.124224 0.372340
O O4 0.417983 0.072745 0.613431
O O5 0.250000 0.900675 0.799713
O O6 0.181566 0.750000 0.760847
O O7 0.146569 0.929746 0.710144
O O8 0.161280 0.874211 0.972818
O O9 0.250000 0.069616 0.275902
O O10 0.337040 0.118831 0.120669
O O11 0.336600 0.944125 0.238206
O O12 0.014686 0.750000 0.784130
O O13 0.948563 0.882983 0.905034
O O14 0.040055 0.940406 0.785732
O O15 0.113751 0.250000 0.963152
O O16 0.114427 0.069814 0.878125
O O17 0.250000 0.647188 0.124239
O O18 0.160070 0.750000 0.190254
#
# Coordination Sequence:
#
# PCOD8242204 Si02
#       7
#     8   8   8   8   8   8   8
#     4  10  23  39  54  76 111 148 182 226 270 312
#     4   9  18  32  51  80 114 140 167 216 279 328
#     4  10  19  36  58  78 105 151 191 215 263 328
#     4   9  20  39  58  78 104 140 181 220 273 333
#     4  10  21  35  54  82 112 138 178 233 274 313
#     4   8  14  28  51  77 104 134 171 217 264 310
#     4  12  20  34  59  83 106 141 184 223 273 325
#
# _framework density 18.648454999999998
#
# number of rings (size 3 to 8) (size 9 to 14) (size 15 to 20)
#    0.000    2.286    1.429    3.857    0.000    1.714 
#    0.000    1.429    0.000    7.714    0.000    0.000 
#    0.000    0.000    0.000    0.000    0.000    0.000 
#
# Total GULP energy -694326.969084 kJ/mol
# GULP energy per Si atom -12398.695876 kJ/mol
# Density = 1.860601 g / cm^3
# Si number density = 18.648455 Si / 1000 Ang^3
#
#
#
# Elastic Constant Matrix: (Units=GPa)
#
#
# Indices 1 2 3 4 5 6 
#
# 1 66.7207 35.9097 -1.0498 0.0000 0.0000 0.0000
# 2 35.9097 106.0801 15.6024 0.0000 0.0000 0.0000
# 3 -1.0498 15.6024 39.9247 0.0000 0.0000 0.0000
# 4 0.0000 0.0000 0.0000 31.3829 0.0000 0.0000
# 5 0.0000 0.0000 0.0000 0.0000 11.6486 0.0000
# 6 0.0000 0.0000 0.0000 0.0000 0.0000 30.6302
#
#
#
# Elastic Compliance Matrix: (Units=1/GPa)
#
#
# Indices 1 2 3 4 5 6 
#
# 1 0.018692 -0.006790 0.003145 0.000000 0.000000 0.000000
# 2 -0.006790 0.012468 -0.005051 0.000000 0.000000 0.000000
# 3 0.003145 -0.005051 0.027104 0.000000 0.000000 0.000000
# 4 0.000000 0.000000 0.000000 0.031865 0.000000 0.000000
# 5 0.000000 0.000000 0.000000 0.000000 0.085847 0.000000
# 6 0.000000 0.000000 0.000000 0.000000 0.000000 0.032648
#
#
# Mechanical properties :
#
#
# Convention : Reuss Voigt Hill
#
# Bulk Modulus (GPa) = 24.46684 34.85002 29.65843
# Shear Modulus (GPa) = 20.86472 25.54988 23.20730
#
# Velocity S-wave (km/s) = 3.34854 3.70547 3.53152
# Velocity P-wave (km/s) = 5.30083 6.08571 5.70678
#
# Compressibility (1/GPa) = 0.04087164
#
# Stress axis : x y z
#
# Youngs Moduli (GPa) = 53.49937 80.20343 36.89522
#
# Poissons Ratio (x) = 0.54458 -0.11604
# Poissons Ratio (y) = 0.36326 0.18636
# Poissons Ratio (z) = -0.16826 0.40512
#
# Static dielectric constant tensor:
#      x y z
#    x 3.236250 0.000000 0.000000 
#    y 0.000000 3.830310 0.000000 
#    z 0.000000 0.000000 3.194430 
# 
# 
# High freq. dielectric constant tensor:
#      x y z
#    x 1.712160 0.000000 0.000000 
#    y 0.000000 1.743650 0.000000 
#    z 0.000000 0.000000 1.699180 
# 
# From -- ./inp_files/11448.got.cif
#   From: 2010.03.12/outbox.cif.g09.slc.cpg/sg59_6_cif.got.tgz:11448.got - 2010.04.16 16:29:54.
