data_PCOD8242162
_publ_section_title
;
Structure prediction by ZEFSAII (Michael W. Deem and Ramdas Pophale) SiO2 
 PCOD8242162
Probable space group: P M M N
;
_chemical_formula_sum "Si O2"
_cell_formula_units_Z 40
_cell_length_a 9.001778
_cell_length_b 28.364550
_cell_length_c 7.739264
_cell_angle_alpha 90.000000
_cell_angle_beta 90.000000
_cell_angle_gamma 90.000000
_cell_volume 1976.076974
_symmetry_space_group_name_H-M "P M M N"
_symmetry_group_IT_number 59
_space_group.IT_coordinate_system_code '2'
_symmetry_cell_setting 'orthorhombic'
loop_
_space_group_symop_operation_xyz
x,y,z
1/2-x,1/2-y,z
1/2+x,-y,-z
-x,1/2+y,-z
-x,-y,-z
1/2+x,1/2+y,-z
1/2-x,y,z
x,1/2-y,z
loop_
_atom_site_type_symbol
_atom_site_label
_atom_site_fract_x
_atom_site_fract_y
_atom_site_fract_z
Si Si1 0.577562 0.644002 0.836346
Si Si2 0.921770 0.550645 0.299899
Si Si3 0.920518 0.805476 0.489827
Si Si4 0.925599 0.357215 0.818652
Si Si5 0.419089 0.042941 0.300729
O O1 0.750000 0.655386 0.868737
O O2 0.520792 0.670910 0.665929
O O3 0.550120 0.588104 0.817162
O O4 0.483731 0.662891 0.998468
O O5 0.750000 0.556675 0.251360
O O6 0.952796 0.557378 0.502434
O O7 0.013883 0.590012 0.200818
O O8 0.974425 0.499054 0.238027
O O9 0.750000 0.820806 0.456523
O O10 0.937526 0.750000 0.508445
O O11 0.018307 0.823063 0.331443
O O12 0.750000 0.357733 0.817017
O O13 0.250000 0.025343 0.284539
#
# Coordination Sequence:
#
# PCOD8242162 Si02
#       5
#     8   8   8   8   8
#     4  10  21  40  64  91 123 159 205 253 300 358
#     4  10  19  35  59  87 121 162 208 250 295 355
#     4  10  22  44  71  93 116 153 202 254 308 363
#     4  12  25  39  60  92 129 164 201 245 302 363
#     4   9  18  34  58  88 121 157 202 254 303 353
#
# _framework density 20.242127
#
# number of rings (size 3 to 8) (size 9 to 14) (size 15 to 20)
#    0.000    1.800    2.000    2.400    0.000    4.400 
#    0.000    2.000    0.000    0.000    0.000    0.000 
#    0.000    0.000    0.000    0.000    0.000    0.000 
#
# Total GULP energy -496203.203682 kJ/mol
# GULP energy per Si atom -12405.080092 kJ/mol
# Density = 2.019606 g / cm^3
# Si number density = 20.242127 Si / 1000 Ang^3
#
#
#
# Elastic Constant Matrix: (Units=GPa)
#
#
# Indices 1 2 3 4 5 6 
#
# 1 113.2100 42.2113 59.9423 0.0000 0.0000 0.0000
# 2 42.2113 76.3387 41.2274 0.0000 0.0000 0.0000
# 3 59.9423 41.2274 120.1597 0.0000 0.0000 0.0000
# 4 0.0000 0.0000 0.0000 8.3083 0.0000 0.0000
# 5 0.0000 0.0000 0.0000 0.0000 24.6932 0.0000
# 6 0.0000 0.0000 0.0000 0.0000 0.0000 29.3510
#
#
#
# Elastic Compliance Matrix: (Units=1/GPa)
#
#
# Indices 1 2 3 4 5 6 
#
# 1 0.013197 -0.004593 -0.005008 0.000000 0.000000 0.000000
# 2 -0.004593 0.017677 -0.003774 0.000000 0.000000 0.000000
# 3 -0.005008 -0.003774 0.012115 0.000000 0.000000 0.000000
# 4 0.000000 0.000000 0.000000 0.120362 0.000000 0.000000
# 5 0.000000 0.000000 0.000000 0.000000 0.040497 0.000000
# 6 0.000000 0.000000 0.000000 0.000000 0.000000 0.034070
#
#
# Mechanical properties :
#
#
# Convention : Reuss Voigt Hill
#
# Bulk Modulus (GPa) = 61.57389 66.27449 63.92419
# Shear Modulus (GPa) = 18.51293 23.55897 21.03595
#
# Velocity S-wave (km/s) = 3.02747 3.41524 3.22719
# Velocity P-wave (km/s) = 6.53495 6.95440 6.74794
#
# Compressibility (1/GPa) = 0.01624065
#
# Stress axis : x y z
#
# Youngs Moduli (GPa) = 75.77456 56.56961 82.54099
#
# Poissons Ratio (x) = 0.25982 0.41333
# Poissons Ratio (y) = 0.34802 0.31151
# Poissons Ratio (z) = 0.37945 0.21349
#
# Static dielectric constant tensor:
#      x y z
#    x 3.581620 0.000000 0.000000 
#    y 0.000000 3.615290 0.000000 
#    z 0.000000 0.000000 3.709490 
# 
# 
# High freq. dielectric constant tensor:
#      x y z
#    x 1.779070 0.000000 0.000000 
#    y 0.000000 1.787750 0.000000 
#    z 0.000000 0.000000 1.796520 
# 
# From -- ./inp_files/5825.got.cif
#   From: 2010.03.12/outbox.cif.g09.slc.cpg/sg59_3_cif.got.tgz:5825.got - 2010.04.16 16:29:54.
