data_PCOD8242698
_publ_section_title
;
Structure prediction by ZEFSAII (Michael W. Deem and Ramdas Pophale) SiO2 
 PCOD8242698
Probable space group: P M M N
;
_chemical_formula_sum "Si O2"
_cell_formula_units_Z 40
_cell_length_a 19.663263
_cell_length_b 9.168601
_cell_length_c 12.580376
_cell_angle_alpha 90.000000
_cell_angle_beta 90.000000
_cell_angle_gamma 90.000000
_cell_volume 2268.048216
_symmetry_space_group_name_H-M "P M M N"
_symmetry_group_IT_number 59
_space_group.IT_coordinate_system_code '2'
_symmetry_cell_setting 'orthorhombic'
loop_
_space_group_symop_operation_xyz
x,y,z
1/2-x,1/2-y,z
1/2+x,-y,-z
-x,1/2+y,-z
-x,-y,-z
1/2+x,1/2+y,-z
1/2-x,y,z
x,1/2-y,z
loop_
_atom_site_type_symbol
_atom_site_label
_atom_site_fract_x
_atom_site_fract_y
_atom_site_fract_z
Si Si1 0.825608 0.423515 0.792395
Si Si2 0.169458 0.083312 0.770492
Si Si3 0.925421 0.420060 0.383674
Si Si4 0.062297 0.579830 0.371110
Si Si5 0.830747 0.412026 0.026237
O O1 0.750000 0.487360 0.769123
O O2 0.821638 0.250000 0.789591
O O3 0.877592 0.481489 0.703625
O O4 0.852052 0.471970 0.909574
O O5 0.250000 0.067641 0.761774
O O6 0.145723 0.250000 0.762878
O O7 0.138413 0.992632 0.673821
O O8 0.142030 0.020037 0.882642
O O9 0.927412 0.250000 0.357117
O O10 0.915418 0.449934 0.508353
O O11 0.994711 0.491846 0.341542
O O12 0.047929 0.750000 0.351025
O O13 0.750000 0.403015 0.029381
O O14 0.861025 0.250000 0.046416
#
# Coordination Sequence:
#
# PCOD8242698 Si02
#       5
#     8   8   8   8   8
#     4   8  14  27  50  77  99 121 154 196 240 286
#     4  10  20  33  50  72  98 127 160 199 240 283
#     4  10  20  33  50  71  97 130 165 200 239 286
#     4   9  18  33  52  72  97 129 162 198 240 286
#     4   8  14  27  48  72  97 123 152 190 237 287
#
# _framework density 17.636310000000002
#
# number of rings (size 3 to 8) (size 9 to 14) (size 15 to 20)
#    0.000    3.000    0.000    2.400    0.000    2.800 
#    0.000    4.000    0.000    1.800    0.000    0.000 
#    0.000    0.000    0.000    0.000    0.000    0.000 
#
# Total GULP energy -495905.925688 kJ/mol
# GULP energy per Si atom -12397.648142 kJ/mol
# Density = 1.759617 g / cm^3
# Si number density = 17.636310 Si / 1000 Ang^3
#
#
#
# Elastic Constant Matrix: (Units=GPa)
#
#
# Indices 1 2 3 4 5 6 
#
# 1 58.9893 37.8895 49.9176 0.0000 0.0000 0.0000
# 2 37.8895 78.7006 48.2250 0.0000 0.0000 0.0000
# 3 49.9176 48.2250 102.1314 0.0000 0.0000 0.0000
# 4 0.0000 0.0000 0.0000 21.4189 0.0000 0.0000
# 5 0.0000 0.0000 0.0000 0.0000 15.1693 0.0000
# 6 0.0000 0.0000 0.0000 0.0000 0.0000 24.5842
#
#
#
# Elastic Compliance Matrix: (Units=1/GPa)
#
#
# Indices 1 2 3 4 5 6 
#
# 1 0.032336 -0.008279 -0.011895 0.000000 0.000000 0.000000
# 2 -0.008279 0.019999 -0.005397 0.000000 0.000000 0.000000
# 3 -0.011895 -0.005397 0.018154 0.000000 0.000000 0.000000
# 4 0.000000 0.000000 0.000000 0.046688 0.000000 0.000000
# 5 0.000000 0.000000 0.000000 0.000000 0.065923 0.000000
# 6 0.000000 0.000000 0.000000 0.000000 0.000000 0.040676
#
#
# Mechanical properties :
#
#
# Convention : Reuss Voigt Hill
#
# Bulk Modulus (GPa) = 51.68890 56.87619 54.28255
# Shear Modulus (GPa) = 17.77044 19.15376 18.46210
#
# Velocity S-wave (km/s) = 3.17772 3.29909 3.23897
# Velocity P-wave (km/s) = 6.54490 6.84335 6.69579
#
# Compressibility (1/GPa) = 0.01934651
#
# Stress axis : x y z
#
# Youngs Moduli (GPa) = 30.92567 50.00210 55.08528
#
# Poissons Ratio (x) = 0.41395 0.65526
# Poissons Ratio (y) = 0.25602 0.29730
# Poissons Ratio (z) = 0.36787 0.26987
#
# Static dielectric constant tensor:
#      x y z
#    x 3.152110 0.000000 0.000000 
#    y 0.000000 3.213910 0.000000 
#    z 0.000000 0.000000 3.530670 
# 
# 
# High freq. dielectric constant tensor:
#      x y z
#    x 1.658910 0.000000 0.000000 
#    y 0.000000 1.665620 0.000000 
#    z 0.000000 0.000000 1.690420 
# 
# From -- ./inp_files/13850.got.cif
#   From: 2010.03.12/outbox.cif.g09.slc.cpg/sg59_7_cif.got.tgz:13850.got - 2010.04.16 16:29:54.
