data_PCOD8242819
_publ_section_title
;
Structure prediction by ZEFSAII (Michael W. Deem and Ramdas Pophale) SiO2 
 PCOD8242819
Probable space group: P M M N
;
_chemical_formula_sum "Si O2"
_cell_formula_units_Z 64
_cell_length_a 10.282540
_cell_length_b 27.795352
_cell_length_c 12.295461
_cell_angle_alpha 90.000000
_cell_angle_beta 90.000000
_cell_angle_gamma 90.000000
_cell_volume 3514.126594
_symmetry_space_group_name_H-M "P M M N"
_symmetry_group_IT_number 59
_space_group.IT_coordinate_system_code '2'
_symmetry_cell_setting 'orthorhombic'
loop_
_space_group_symop_operation_xyz
x,y,z
1/2-x,1/2-y,z
1/2+x,-y,-z
-x,1/2+y,-z
-x,-y,-z
1/2+x,1/2+y,-z
1/2-x,y,z
x,1/2-y,z
loop_
_atom_site_type_symbol
_atom_site_label
_atom_site_fract_x
_atom_site_fract_y
_atom_site_fract_z
Si Si1 0.095067 0.195892 0.890436
Si Si2 0.097050 0.197127 0.288074
Si Si3 0.110652 0.548906 0.541264
Si Si4 0.897596 0.621993 0.283648
Si Si5 0.480948 0.521538 0.313048
Si Si6 0.597176 0.524592 0.913051
Si Si7 0.603458 0.872753 0.530896
Si Si8 0.595919 0.634922 0.907116
O O1 0.250000 0.199254 0.891601
O O2 0.036493 0.250000 0.888369
O O3 0.044193 0.165593 0.787094
O O4 0.041837 0.166650 0.993711
O O5 0.250000 0.202176 0.268889
O O6 0.032533 0.250000 0.278171
O O7 0.065357 0.175747 0.406353
O O8 0.037772 0.160186 0.200331
O O9 0.250000 0.574688 0.557990
O O10 0.113288 0.527733 0.418020
O O11 0.102022 0.507430 0.633875
O O12 0.991861 0.584435 0.563133
O O13 0.750000 0.611253 0.247621
O O14 0.907345 0.640753 0.405773
O O15 0.976458 0.573102 0.266213
O O16 0.416662 0.494750 0.210468
O O17 0.750000 0.518744 0.947475
O O18 0.550517 0.579914 0.914002
O O19 0.500000 0.500000 0.000000
O O20 0.750000 0.889634 0.561927
O O21 0.750000 0.635958 0.905195
#
# Coordination Sequence:
#
# PCOD8242819 Si02
#       8
#     8   8   8   8   8   8   8   8
#     4   9  16  26  42  64  91 123 158 197 244 298
#     4   9  16  27  46  71  98 129 165 206 253 304
#     4  10  20  33  53  77 102 138 178 214 253 304
#     4   9  17  29  45  67  98 132 162 200 250 297
#     4  10  20  33  51  74 103 134 174 215 253 298
#     4  11  23  37  54  76 106 141 173 209 255 306
#     4   9  18  31  47  71 103 134 165 205 253 302
#     4   9  17  29  45  67  96 127 159 200 250 299
#
# _framework density 18.212206999999999
#
# number of rings (size 3 to 8) (size 9 to 14) (size 15 to 20)
#    0.000    2.500    0.000    2.625    0.000    8.500 
#    0.000    2.500    0.000    0.375    0.000    0.000 
#    0.000   21.000    0.000    0.000    0.000    0.000 
#
# Total GULP energy -793053.027318 kJ/mol
# GULP energy per Si atom -12391.453552 kJ/mol
# Density = 1.817076 g / cm^3
# Si number density = 18.212207 Si / 1000 Ang^3
#
#
#
# Elastic Constant Matrix: (Units=GPa)
#
#
# Indices 1 2 3 4 5 6 
#
# 1 61.7017 35.3226 29.9160 0.0000 0.0000 0.0000
# 2 35.3226 165.8408 74.0978 0.0000 0.0000 0.0000
# 3 29.9160 74.0978 100.2871 0.0000 0.0000 0.0000
# 4 0.0000 0.0000 0.0000 36.0546 0.0000 0.0000
# 5 0.0000 0.0000 0.0000 0.0000 6.6863 0.0000
# 6 0.0000 0.0000 0.0000 0.0000 0.0000 17.1311
#
#
#
# Elastic Compliance Matrix: (Units=1/GPa)
#
#
# Indices 1 2 3 4 5 6 
#
# 1 0.019529 -0.002324 -0.004109 0.000000 0.000000 0.000000
# 2 -0.002324 0.009278 -0.006162 0.000000 0.000000 0.000000
# 3 -0.004109 -0.006162 0.015750 0.000000 0.000000 0.000000
# 4 0.000000 0.000000 0.000000 0.027736 0.000000 0.000000
# 5 0.000000 0.000000 0.000000 0.000000 0.149560 0.000000
# 6 0.000000 0.000000 0.000000 0.000000 0.000000 0.058373
#
#
# Mechanical properties :
#
#
# Convention : Reuss Voigt Hill
#
# Bulk Modulus (GPa) = 51.63072 67.38913 59.50993
# Shear Modulus (GPa) = 16.03225 24.54062 20.28643
#
# Velocity S-wave (km/s) = 2.97021 3.67479 3.34112
# Velocity P-wave (km/s) = 6.33829 7.42212 6.90152
#
# Compressibility (1/GPa) = 0.01936831
#
# Stress axis : x y z
#
# Youngs Moduli (GPa) = 51.20476 107.78227 63.49297
#
# Poissons Ratio (x) = 0.25046 0.26088
# Poissons Ratio (y) = 0.11899 0.39124
# Poissons Ratio (z) = 0.21039 0.66414
#
# Static dielectric constant tensor:
#      x y z
#    x 2.890360 0.000000 0.000000 
#    y 0.000000 3.548940 0.000000 
#    z 0.000000 0.000000 3.519860 
# 
# 
# High freq. dielectric constant tensor:
#      x y z
#    x 1.646110 0.000000 0.000000 
#    y 0.000000 1.711570 0.000000 
#    z 0.000000 0.000000 1.719290 
# 
# From -- ./inp_files/16329.got.cif
#   From: 2010.03.12/outbox.cif.g09.slc.cpg/sg59_9_cif.got.tgz:16329.got - 2010.04.16 16:29:54.
