data_PCOD8242179
_publ_section_title
;
Structure prediction by ZEFSAII (Michael W. Deem and Ramdas Pophale) SiO2 
 PCOD8242179
Probable space group: P M M N
;
_chemical_formula_sum "Si O2"
_cell_formula_units_Z 40
_cell_length_a 8.860093
_cell_length_b 15.247212
_cell_length_c 15.316278
_cell_angle_alpha 90.000000
_cell_angle_beta 90.000000
_cell_angle_gamma 90.000000
_cell_volume 2069.102283
_symmetry_space_group_name_H-M "P M M N"
_symmetry_group_IT_number 59
_space_group.IT_coordinate_system_code '2'
_symmetry_cell_setting 'orthorhombic'
loop_
_space_group_symop_operation_xyz
x,y,z
1/2-x,1/2-y,z
1/2+x,-y,-z
-x,1/2+y,-z
-x,-y,-z
1/2+x,1/2+y,-z
1/2-x,y,z
x,1/2-y,z
loop_
_atom_site_type_symbol
_atom_site_label
_atom_site_fract_x
_atom_site_fract_y
_atom_site_fract_z
Si Si1 0.922716 0.250000 0.457031
Si Si2 0.914187 0.653183 0.836112
Si Si3 0.930427 0.929253 0.273861
Si Si4 0.077839 0.098029 0.354259
Si Si5 0.576254 0.250000 0.663349
Si Si6 0.078987 0.995684 0.907965
O O1 0.750000 0.250000 0.424817
O O2 0.935925 0.250000 0.560241
O O3 0.999406 0.158929 0.426719
O O4 0.750000 0.610896 0.860968
O O5 0.921625 0.750000 0.874369
O O6 0.929092 0.656166 0.732334
O O7 0.055374 0.603844 0.877591
O O8 0.750000 0.931845 0.280885
O O9 0.983515 0.945171 0.172693
O O10 0.993146 0.835238 0.299727
O O11 0.995618 0.004462 0.338418
O O12 0.250000 0.078584 0.383333
O O13 0.750000 0.250000 0.694274
O O14 0.250000 0.019375 0.924507
O O15 0.000000 0.000000 0.000000
#
# Coordination Sequence:
#
# PCOD8242179 Si02
#       6
#     4   8   8   8   4   8
#     4  11  23  37  57  88 123 154 197 247 292 347
#     4   9  17  32  54  82 114 146 180 225 281 337
#     4  10  22  41  63  87 117 155 196 244 297 347
#     4  10  19  35  60  89 118 153 193 237 292 347
#     4  11  25  43  61  84 115 160 205 243 290 349
#     4  10  21  37  58  85 113 146 187 232 284 341
#
# _framework density 19.332056999999999
#
# number of rings (size 3 to 8) (size 9 to 14) (size 15 to 20)
#    0.000    2.000    1.000    2.400    0.000    6.000 
#    1.800    0.000    0.000    0.000    0.000    0.000 
#    0.000    0.000    0.000    0.000    0.000    0.000 
#
# Total GULP energy -495668.885497 kJ/mol
# GULP energy per Si atom -12391.722137 kJ/mol
# Density = 1.928806 g / cm^3
# Si number density = 19.332057 Si / 1000 Ang^3
#
#
#
# Elastic Constant Matrix: (Units=GPa)
#
#
# Indices 1 2 3 4 5 6 
#
# 1 108.2983 58.9438 46.8385 0.0000 0.0000 0.0000
# 2 58.9438 144.5793 49.7088 0.0000 0.0000 0.0000
# 3 46.8385 49.7088 88.0199 0.0000 0.0000 0.0000
# 4 0.0000 0.0000 0.0000 13.1404 0.0000 0.0000
# 5 0.0000 0.0000 0.0000 0.0000 30.6971 0.0000
# 6 0.0000 0.0000 0.0000 0.0000 0.0000 36.7795
#
#
#
# Elastic Compliance Matrix: (Units=1/GPa)
#
#
# Indices 1 2 3 4 5 6 
#
# 1 0.013457 -0.003753 -0.005041 0.000000 0.000000 0.000000
# 2 -0.003753 0.009630 -0.003441 0.000000 0.000000 0.000000
# 3 -0.005041 -0.003441 0.015987 0.000000 0.000000 0.000000
# 4 0.000000 0.000000 0.000000 0.076101 0.000000 0.000000
# 5 0.000000 0.000000 0.000000 0.000000 0.032576 0.000000
# 6 0.000000 0.000000 0.000000 0.000000 0.000000 0.027189
#
#
# Mechanical properties :
#
#
# Convention : Reuss Voigt Hill
#
# Bulk Modulus (GPa) = 68.48108 72.43107 70.45607
# Shear Modulus (GPa) = 24.47630 28.48383 26.48006
#
# Velocity S-wave (km/s) = 3.56209 3.84265 3.70503
# Velocity P-wave (km/s) = 7.24006 7.56546 7.40455
#
# Compressibility (1/GPa) = 0.01460257
#
# Stress axis : x y z
#
# Youngs Moduli (GPa) = 74.31235 103.84385 62.54985
#
# Poissons Ratio (x) = 0.38971 0.31534
# Poissons Ratio (y) = 0.27889 0.21526
# Poissons Ratio (z) = 0.37464 0.35736
#
# Static dielectric constant tensor:
#      x y z
#    x 3.732990 0.000000 0.000000 
#    y 0.000000 3.093930 0.000000 
#    z 0.000000 0.000000 3.629420 
# 
# 
# High freq. dielectric constant tensor:
#      x y z
#    x 1.762690 0.000000 0.000000 
#    y 0.000000 1.751240 0.000000 
#    z 0.000000 0.000000 1.744300 
# 
# From -- ./inp_files/19981.got.cif
#   From: 2010.03.12/outbox.cif.g09.slc.cpg/sg59_10_cif.got.tgz:19981.got - 2010.04.16 16:29:54.
