data_PCOD8242319
_publ_section_title
;
Structure prediction by ZEFSAII (Michael W. Deem and Ramdas Pophale) SiO2 
 PCOD8242319
Probable space group: P M M N
;
_chemical_formula_sum "Si O2"
_cell_formula_units_Z 56
_cell_length_a 9.487304
_cell_length_b 18.587949
_cell_length_c 18.031881
_cell_angle_alpha 90.000000
_cell_angle_beta 90.000000
_cell_angle_gamma 90.000000
_cell_volume 3179.913611
_symmetry_space_group_name_H-M "P M M N"
_symmetry_group_IT_number 59
_space_group.IT_coordinate_system_code '2'
_symmetry_cell_setting 'orthorhombic'
loop_
_space_group_symop_operation_xyz
x,y,z
1/2-x,1/2-y,z
1/2+x,-y,-z
-x,1/2+y,-z
-x,-y,-z
1/2+x,1/2+y,-z
1/2-x,y,z
x,1/2-y,z
loop_
_atom_site_type_symbol
_atom_site_label
_atom_site_fract_x
_atom_site_fract_y
_atom_site_fract_z
Si Si1 0.586915 0.071864 0.011788
Si Si2 0.408455 0.664445 0.408057
Si Si3 0.086230 0.333138 0.292072
Si Si4 0.413433 0.081747 0.146881
Si Si5 0.591727 0.412721 0.848332
Si Si6 0.408483 0.835440 0.571442
Si Si7 0.411486 0.164809 0.728465
O O1 0.750000 0.055288 0.031758
O O2 0.510246 0.113092 0.079770
O O3 0.578664 0.114562 0.933771
O O4 0.500000 0.000000 0.000000
O O5 0.250000 0.637154 0.391311
O O6 0.411217 0.750000 0.407000
O O7 0.457297 0.637124 0.489762
O O8 0.512686 0.633865 0.345276
O O9 0.250000 0.343445 0.307553
O O10 0.046822 0.250000 0.278686
O O11 0.037247 0.377260 0.220464
O O12 0.008207 0.366169 0.363993
O O13 0.250000 0.097308 0.128159
O O14 0.440836 0.997342 0.158187
O O15 0.750000 0.397099 0.819254
O O16 0.480294 0.368802 0.801088
O O17 0.250000 0.861807 0.587259
O O18 0.416098 0.750000 0.572051
O O19 0.250000 0.140754 0.724623
O O20 0.427816 0.250000 0.733858
#
# Coordination Sequence:
#
# PCOD8242319 Si02
#       7
#     8   8   8   8   8   8   8
#     4   9  17  30  49  71  91 116 153 192 228 266
#     4   8  14  26  44  64  88 120 153 184 223 270
#     4   9  17  29  46  69  97 126 152 183 228 273
#     4   9  18  32  49  70  95 122 154 189 224 267
#     4   9  18  32  49  67  89 120 154 186 223 269
#     4   8  14  25  42  65  91 119 153 189 222 262
#     4  10  20  31  45  69  96 118 146 188 233 273
#
# _framework density 17.610541000000001
#
# number of rings (size 3 to 8) (size 9 to 14) (size 15 to 20)
#    0.000    3.143    0.000    2.571    0.000    4.857 
#    0.000    3.571    0.000    3.429    0.000    0.000 
#    0.000    0.000    0.000    0.000    0.000    0.000 
#
# Total GULP energy -694036.640643 kJ/mol
# GULP energy per Si atom -12393.511440 kJ/mol
# Density = 1.757046 g / cm^3
# Si number density = 17.610541 Si / 1000 Ang^3
#
#
#
# Elastic Constant Matrix: (Units=GPa)
#
#
# Indices 1 2 3 4 5 6 
#
# 1 119.2137 25.3941 96.6865 0.0000 0.0000 0.0000
# 2 25.3941 18.1544 29.1527 0.0000 0.0000 0.0000
# 3 96.6865 29.1527 164.8306 0.0000 0.0000 0.0000
# 4 0.0000 0.0000 0.0000 -1.9504 0.0000 0.0000
# 5 0.0000 0.0000 0.0000 0.0000 41.7551 0.0000
# 6 0.0000 0.0000 0.0000 0.0000 0.0000 18.0468
#
#
#
# Elastic Compliance Matrix: (Units=1/GPa)
#
#
# Indices 1 2 3 4 5 6 
#
# 1 0.017480 -0.011153 -0.008281 0.000000 0.000000 0.000000
# 2 -0.011153 0.084049 -0.008323 0.000000 0.000000 0.000000
# 3 -0.008281 -0.008323 0.012396 0.000000 0.000000 0.000000
# 4 0.000000 0.000000 0.000000 -0.512720 0.000000 0.000000
# 5 0.000000 0.000000 0.000000 0.000000 0.023949 0.000000
# 6 0.000000 0.000000 0.000000 0.000000 0.000000 0.055411
#
#
# Mechanical properties :
#
#
# Convention : Reuss Voigt Hill
#
# Bulk Modulus (GPa) = 17.11999 67.18502 42.15250
# Shear Modulus (GPa) = -20.45419 21.63467 0.59024
#
# Velocity S-wave (km/s) = -3.41174 3.50881 0.57956
# Velocity P-wave (km/s) = 2.40362 7.39249 4.94325
#
# Compressibility (1/GPa) = 0.05841126
#
# Stress axis : x y z
#
# Youngs Moduli (GPa) = 57.20740 11.89778 80.66917
#
# Poissons Ratio (x) = 0.13270 0.66802
# Poissons Ratio (y) = 0.63806 0.67141
# Poissons Ratio (z) = 0.47373 0.09902
#
# Static dielectric constant tensor:
#      x y z
#    x 3.447970 0.000000 0.000000 
#    y 0.000000 2.767180 0.000000 
#    z 0.000000 0.000000 3.831430 
# 
# 
# High freq. dielectric constant tensor:
#      x y z
#    x 1.684730 0.000000 0.000000 
#    y 0.000000 1.620590 0.000000 
#    z 0.000000 0.000000 1.699110 
# 
# From -- ./inp_files/26079.got.cif
#   From: 2010.03.12/outbox.cif.g09.slc.cpg/sg59_14_cif.got.tgz:26079.got - 2010.04.16 16:29:54.
