data_PCOD8242395
_publ_section_title
;
Structure prediction by ZEFSAII (Michael W. Deem and Ramdas Pophale) SiO2 
 PCOD8242395
Probable space group: P M M N
;
_chemical_formula_sum "Si O2"
_cell_formula_units_Z 40
_cell_length_a 9.257763
_cell_length_b 8.794174
_cell_length_c 26.025527
_cell_angle_alpha 90.000000
_cell_angle_beta 90.000000
_cell_angle_gamma 90.000000
_cell_volume 2118.852110
_symmetry_space_group_name_H-M "P M M N"
_symmetry_group_IT_number 59
_space_group.IT_coordinate_system_code '2'
_symmetry_cell_setting 'orthorhombic'
loop_
_space_group_symop_operation_xyz
x,y,z
1/2-x,1/2-y,z
1/2+x,-y,-z
-x,1/2+y,-z
-x,-y,-z
1/2+x,1/2+y,-z
1/2-x,y,z
x,1/2-y,z
loop_
_atom_site_type_symbol
_atom_site_label
_atom_site_fract_x
_atom_site_fract_y
_atom_site_fract_z
Si Si1 0.085725 0.069465 0.953070
Si Si2 0.584583 0.430304 0.547269
Si Si3 0.411891 0.569296 0.143835
Si Si4 0.587563 0.430914 0.742733
Si Si5 0.912499 0.568788 0.353372
O O1 0.250000 0.013248 0.955783
O O2 0.074159 0.250000 0.955740
O O3 0.018680 0.005870 0.899825
O O4 0.000000 0.000000 0.000000
O O5 0.500000 0.500000 0.500000
O O6 0.750000 0.487140 0.547031
O O7 0.576609 0.250000 0.543503
O O8 0.508571 0.489558 0.599181
O O9 0.250000 0.509248 0.132577
O O10 0.411857 0.750000 0.142850
O O11 0.462966 0.513656 0.200499
O O12 0.750000 0.489076 0.731689
O O13 0.586021 0.250000 0.740603
O O14 0.480768 0.497116 0.699363
O O15 0.750000 0.505104 0.358986
O O16 0.911344 0.750000 0.352105
#
# Coordination Sequence:
#
# PCOD8242395 Si02
#       5
#     8   8   8   8   8
#     4  10  20  32  47  68  93 122 156 192 230 273
#     4  10  20  33  49  69  94 124 157 193 232 274
#     4   8  14  25  41  61  87 118 149 184 227 271
#     4   8  13  22  37  58  85 116 147 180 223 272
#     4   9  16  25  39  61  89 119 150 186 227 269
#
# _framework density 18.878147999999999
#
# number of rings (size 3 to 8) (size 9 to 14) (size 15 to 20)
#    0.000    3.000    0.000    3.000    0.000    5.600 
#    0.000    4.000    0.000    0.000    0.000    1.400 
#    0.000    1.600    0.000    0.000    0.000    0.000 
#
# Total GULP energy -495808.378514 kJ/mol
# GULP energy per Si atom -12395.209463 kJ/mol
# Density = 1.883518 g / cm^3
# Si number density = 18.878148 Si / 1000 Ang^3
#
#
#
# Elastic Constant Matrix: (Units=GPa)
#
#
# Indices 1 2 3 4 5 6 
#
# 1 182.6473 15.0981 122.9342 0.0000 0.0000 0.0000
# 2 15.0981 5.0617 14.2974 0.0000 0.0000 0.0000
# 3 122.9342 14.2974 203.9900 0.0000 0.0000 0.0000
# 4 0.0000 0.0000 0.0000 20.6813 0.0000 0.0000
# 5 0.0000 0.0000 0.0000 0.0000 46.1686 0.0000
# 6 0.0000 0.0000 0.0000 0.0000 0.0000 15.5400
#
#
#
# Elastic Compliance Matrix: (Units=1/GPa)
#
#
# Indices 1 2 3 4 5 6 
#
# 1 0.010182 -0.016257 -0.004997 0.000000 0.000000 0.000000
# 2 -0.016257 0.272283 -0.009287 0.000000 0.000000 0.000000
# 3 -0.004997 -0.009287 0.008564 0.000000 0.000000 0.000000
# 4 0.000000 0.000000 0.000000 0.048353 0.000000 0.000000
# 5 0.000000 0.000000 0.000000 0.000000 0.021660 0.000000
# 6 0.000000 0.000000 0.000000 0.000000 0.000000 0.064350
#
#
# Mechanical properties :
#
#
# Convention : Reuss Voigt Hill
#
# Bulk Modulus (GPa) = 4.34880 77.37316 40.86098
# Shear Modulus (GPa) = 8.87907 32.43595 20.65751
#
# Velocity S-wave (km/s) = 2.17108 4.14958 3.31154
# Velocity P-wave (km/s) = 2.93145 8.00208 6.02605
#
# Compressibility (1/GPa) = 0.22994827
#
# Stress axis : x y z
#
# Youngs Moduli (GPa) = 98.21238 3.67265 116.76264
#
# Poissons Ratio (x) = 0.05971 0.58343
# Poissons Ratio (y) = 1.59663 1.08435
# Poissons Ratio (z) = 0.49074 0.03411
#
# Static dielectric constant tensor:
#      x y z
#    x 3.843710 0.000000 0.000000 
#    y 0.000000 2.775590 0.000000 
#    z 0.000000 0.000000 3.883590 
# 
# 
# High freq. dielectric constant tensor:
#      x y z
#    x 1.741720 0.000000 0.000000 
#    y 0.000000 1.656620 0.000000 
#    z 0.000000 0.000000 1.754990 
# 
# From -- ./inp_files/31153.got.cif
#   From: 2010.03.12/outbox.cif.g09.slc.cpg/sg59_16_cif.got.tgz:31153.got - 2010.04.16 16:29:54.
