data_PCOD8242420
_publ_section_title
;
Structure prediction by ZEFSAII (Michael W. Deem and Ramdas Pophale) SiO2 
 PCOD8242420
Probable space group: P M M N
;
_chemical_formula_sum "Si O2"
_cell_formula_units_Z 48
_cell_length_a 15.211525
_cell_length_b 9.469375
_cell_length_c 18.404267
_cell_angle_alpha 90.000000
_cell_angle_beta 90.000000
_cell_angle_gamma 90.000000
_cell_volume 2651.017510
_symmetry_space_group_name_H-M "P M M N"
_symmetry_group_IT_number 59
_space_group.IT_coordinate_system_code '2'
_symmetry_cell_setting 'orthorhombic'
loop_
_space_group_symop_operation_xyz
x,y,z
1/2-x,1/2-y,z
1/2+x,-y,-z
-x,1/2+y,-z
-x,-y,-z
1/2+x,1/2+y,-z
1/2-x,y,z
x,1/2-y,z
loop_
_atom_site_type_symbol
_atom_site_label
_atom_site_fract_x
_atom_site_fract_y
_atom_site_fract_z
Si Si1 0.149684 0.586572 0.053920
Si Si2 0.515862 0.085651 0.820857
Si Si3 0.152639 0.087823 0.611951
Si Si4 0.924901 0.591733 0.532201
Si Si5 0.993796 0.915734 0.678662
Si Si6 0.650600 0.587049 0.087718
O O1 0.250000 0.554105 0.077121
O O2 0.136079 0.750000 0.035122
O O3 0.085892 0.539307 0.118517
O O4 0.122967 0.501219 0.982490
O O5 0.526460 0.250000 0.800940
O O6 0.416638 0.052010 0.847346
O O7 0.537770 0.991999 0.751191
O O8 0.250000 0.052541 0.640968
O O9 0.127131 0.250000 0.631598
O O10 0.156777 0.070281 0.522953
O O11 0.085257 0.982454 0.650559
O O12 0.960335 0.750000 0.527904
O O13 0.000000 0.500000 0.500000
O O14 0.915597 0.556814 0.618483
O O15 0.008366 0.750000 0.693879
O O16 0.750000 0.549962 0.113426
O O17 0.642486 0.750000 0.065328
#
# Coordination Sequence:
#
# PCOD8242420 Si02
#       6
#     8   8   8   8   8   8
#     4   9  18  33  52  72  94 123 162 207 250 292
#     4  10  20  33  49  70  99 134 166 197 241 298
#     4   9  17  31  52  73  93 123 161 198 241 295
#     4   8  15  29  47  66  88 116 151 189 228 272
#     4  10  20  32  47  70 100 129 159 199 243 286
#     4   9  18  32  50  72  96 123 159 202 244 290
#
# _framework density 18.106255999999998
#
# number of rings (size 3 to 8) (size 9 to 14) (size 15 to 20)
#    0.000    2.833    0.000    1.000    0.000    3.000 
#    0.000    2.500    0.000    1.000    0.000    0.000 
#    0.000    0.000    0.000    0.000    0.000    0.000 
#
# Total GULP energy -594696.744185 kJ/mol
# GULP energy per Si atom -12389.515504 kJ/mol
# Density = 1.806505 g / cm^3
# Si number density = 18.106256 Si / 1000 Ang^3
#
#
#
# Elastic Constant Matrix: (Units=GPa)
#
#
# Indices 1 2 3 4 5 6 
#
# 1 35.0187 9.7244 5.4592 0.0000 0.0000 0.0000
# 2 9.7244 57.2903 35.6412 0.0000 0.0000 0.0000
# 3 5.4592 35.6412 79.8846 0.0000 0.0000 0.0000
# 4 0.0000 0.0000 0.0000 35.8118 0.0000 0.0000
# 5 0.0000 0.0000 0.0000 0.0000 19.1498 0.0000
# 6 0.0000 0.0000 0.0000 0.0000 0.0000 18.7138
#
#
#
# Elastic Compliance Matrix: (Units=1/GPa)
#
#
# Indices 1 2 3 4 5 6 
#
# 1 0.029974 -0.005279 0.000307 0.000000 0.000000 0.000000
# 2 -0.005279 0.025091 -0.010834 0.000000 0.000000 0.000000
# 3 0.000307 -0.010834 0.017331 0.000000 0.000000 0.000000
# 4 0.000000 0.000000 0.000000 0.027924 0.000000 0.000000
# 5 0.000000 0.000000 0.000000 0.000000 0.052220 0.000000
# 6 0.000000 0.000000 0.000000 0.000000 0.000000 0.053437
#
#
# Mechanical properties :
#
#
# Convention : Reuss Voigt Hill
#
# Bulk Modulus (GPa) = 24.51920 30.42702 27.47311
# Shear Modulus (GPa) = 19.90590 22.82633 21.36612
#
# Velocity S-wave (km/s) = 3.31931 3.55447 3.43890
# Velocity P-wave (km/s) = 5.31617 5.80404 5.56545
#
# Compressibility (1/GPa) = 0.04078436
#
# Stress axis : x y z
#
# Youngs Moduli (GPa) = 33.36206 39.85529 57.70122
#
# Poissons Ratio (x) = 0.21038 -0.01770
# Poissons Ratio (y) = 0.17610 0.62512
# Poissons Ratio (z) = -0.01023 0.43178
#
# Static dielectric constant tensor:
#      x y z
#    x 3.700890 0.000000 0.000000 
#    y 0.000000 3.365110 0.000000 
#    z 0.000000 0.000000 3.537230 
# 
# 
# High freq. dielectric constant tensor:
#      x y z
#    x 1.683880 0.000000 0.000000 
#    y 0.000000 1.702300 0.000000 
#    z 0.000000 0.000000 1.700360 
# 
# From -- ./inp_files/20373.got.cif
#   From: 2010.03.12/outbox.cif.g09.slc.cpg/sg59_11_cif.got.tgz:20373.got - 2010.04.16 16:29:54.
