data_PCOD8242509
_publ_section_title
;
Structure prediction by ZEFSAII (Michael W. Deem and Ramdas Pophale) SiO2 
 PCOD8242509
Probable space group: P M M N
;
_chemical_formula_sum "Si O2"
_cell_formula_units_Z 56
_cell_length_a 9.293852
_cell_length_b 21.504907
_cell_length_c 14.604704
_cell_angle_alpha 90.000000
_cell_angle_beta 90.000000
_cell_angle_gamma 90.000000
_cell_volume 2918.946132
_symmetry_space_group_name_H-M "P M M N"
_symmetry_group_IT_number 59
_space_group.IT_coordinate_system_code '2'
_symmetry_cell_setting 'orthorhombic'
loop_
_space_group_symop_operation_xyz
x,y,z
1/2-x,1/2-y,z
1/2+x,-y,-z
-x,1/2+y,-z
-x,-y,-z
1/2+x,1/2+y,-z
1/2-x,y,z
x,1/2-y,z
loop_
_atom_site_type_symbol
_atom_site_label
_atom_site_fract_x
_atom_site_fract_y
_atom_site_fract_z
Si Si1 0.416270 0.552998 0.716660
Si Si2 0.085684 0.822111 0.232266
Si Si3 0.916447 0.178608 0.978052
Si Si4 0.581076 0.750000 0.757209
Si Si5 0.915020 0.386013 0.472465
Si Si6 0.911586 0.250000 0.425313
Si Si7 0.416769 0.416834 0.645936
Si Si8 0.079239 0.372811 0.139326
O O1 0.250000 0.566548 0.739594
O O2 0.465387 0.593715 0.628959
O O3 0.444212 0.480859 0.698242
O O4 0.513099 0.569796 0.804436
O O5 0.250000 0.836773 0.259898
O O6 0.051436 0.750000 0.248114
O O7 0.058685 0.840191 0.127010
O O8 0.980880 0.861071 0.295523
O O9 0.750000 0.170643 0.005141
O O10 0.965096 0.250000 0.993758
O O11 0.013446 0.131439 0.037488
O O12 0.750000 0.750000 0.749864
O O13 0.522771 0.750000 0.655936
O O14 0.526846 0.689510 0.810153
O O15 0.750000 0.406371 0.487014
O O16 0.935229 0.311689 0.486155
O O17 0.010314 0.421484 0.546605
O O18 0.750000 0.250000 0.384227
O O19 0.250000 0.403730 0.630277
O O20 0.250000 0.380576 0.132874
#
# Coordination Sequence:
#
# PCOD8242509 Si02
#       8
#     8   8   8   4   8   4   8   8
#     4  10  22  40  58  80 112 152 195 231 267 329
#     4   9  20  40  63  85 110 144 189 235 278 333
#     4   9  18  34  58  85 112 146 186 228 277 333
#     4  10  20  32  48  79 120 149 174 223 280 330
#     4  10  21  37  58  82 111 148 190 231 274 329
#     4  10  20  34  56  83 108 145 190 229 272 326
#     4  11  24  39  58  84 112 145 188 236 285 331
#     4  11  21  33  54  86 120 150 182 225 281 334
#
# _framework density 19.185006999999999
#
# number of rings (size 3 to 8) (size 9 to 14) (size 15 to 20)
#    0.000    2.000    2.143    2.143    1.000    3.714 
#    0.000    2.143    0.000    0.000    0.000    0.000 
#    0.000    0.000    0.000    0.000    0.000    0.000 
#
# Total GULP energy -694572.187338 kJ/mol
# GULP energy per Si atom -12403.074774 kJ/mol
# Density = 1.914134 g / cm^3
# Si number density = 19.185007 Si / 1000 Ang^3
#
#
#
# Elastic Constant Matrix: (Units=GPa)
#
#
# Indices 1 2 3 4 5 6 
#
# 1 70.6657 34.0036 40.4271 0.0000 0.0000 0.0000
# 2 34.0036 63.7534 24.3145 0.0000 0.0000 0.0000
# 3 40.4271 24.3145 73.6989 0.0000 0.0000 0.0000
# 4 0.0000 0.0000 0.0000 24.9751 0.0000 0.0000
# 5 0.0000 0.0000 0.0000 0.0000 34.1390 0.0000
# 6 0.0000 0.0000 0.0000 0.0000 0.0000 28.5696
#
#
#
# Elastic Compliance Matrix: (Units=1/GPa)
#
#
# Indices 1 2 3 4 5 6 
#
# 1 0.024494 -0.009083 -0.010439 0.000000 0.000000 0.000000
# 2 -0.009083 0.021311 -0.002049 0.000000 0.000000 0.000000
# 3 -0.010439 -0.002049 0.019971 0.000000 0.000000 0.000000
# 4 0.000000 0.000000 0.000000 0.040040 0.000000 0.000000
# 5 0.000000 0.000000 0.000000 0.000000 0.029292 0.000000
# 6 0.000000 0.000000 0.000000 0.000000 0.000000 0.035002
#
#
# Mechanical properties :
#
#
# Convention : Reuss Voigt Hill
#
# Bulk Modulus (GPa) = 44.18024 45.06763 44.62393
# Shear Modulus (GPa) = 22.64525 24.82825 23.73675
#
# Velocity S-wave (km/s) = 3.43937 3.60133 3.52128
# Velocity P-wave (km/s) = 6.23304 6.39021 6.31212
#
# Compressibility (1/GPa) = 0.02263456
#
# Stress axis : x y z
#
# Youngs Moduli (GPa) = 40.82641 46.92390 50.07231
#
# Poissons Ratio (x) = 0.42620 0.52273
# Poissons Ratio (y) = 0.37081 0.10258
# Poissons Ratio (z) = 0.42621 0.09613
#
# Static dielectric constant tensor:
#      x y z
#    x 3.412020 0.000000 0.000000 
#    y 0.000000 3.453680 0.000000 
#    z 0.000000 0.000000 3.403380 
# 
# 
# High freq. dielectric constant tensor:
#      x y z
#    x 1.742850 0.000000 0.000000 
#    y 0.000000 1.739040 0.000000 
#    z 0.000000 0.000000 1.745550 
# 
# From -- ./inp_files/21130.got.cif
#   From: 2010.03.12/outbox.cif.g09.slc.cpg/sg59_11_cif.got.tgz:21130.got - 2010.04.16 16:29:54.
