data_PCOD8242920
_publ_section_title
;
Structure prediction by ZEFSAII (Michael W. Deem and Ramdas Pophale) SiO2 
 PCOD8242920
Probable space group: P M M N
;
_chemical_formula_sum "Si O2"
_cell_formula_units_Z 64
_cell_length_a 9.282796
_cell_length_b 14.216578
_cell_length_c 25.310526
_cell_angle_alpha 90.000000
_cell_angle_beta 90.000000
_cell_angle_gamma 90.000000
_cell_volume 3340.219825
_symmetry_space_group_name_H-M "P M M N"
_symmetry_group_IT_number 59
_space_group.IT_coordinate_system_code '2'
_symmetry_cell_setting 'orthorhombic'
loop_
_space_group_symop_operation_xyz
x,y,z
1/2-x,1/2-y,z
1/2+x,-y,-z
-x,1/2+y,-z
-x,-y,-z
1/2+x,1/2+y,-z
1/2-x,y,z
x,1/2-y,z
loop_
_atom_site_type_symbol
_atom_site_label
_atom_site_fract_x
_atom_site_fract_y
_atom_site_fract_z
Si Si1 0.582645 0.959743 0.868791
Si Si2 0.908640 0.617538 0.466228
Si Si3 0.915294 0.859186 0.974799
Si Si4 0.419793 0.969460 0.671729
Si Si5 0.407511 0.595954 0.559232
Si Si6 0.583191 0.145672 0.638023
Si Si7 0.419654 0.642375 0.775988
Si Si8 0.916984 0.355050 0.921893
O O1 0.750000 0.937264 0.858407
O O2 0.491769 0.918662 0.821306
O O3 0.554073 0.072254 0.873880
O O4 0.529310 0.913175 0.923187
O O5 0.750000 0.664252 0.461541
O O6 0.889520 0.506561 0.465514
O O7 0.980524 0.651379 0.521782
O O8 0.010350 0.651446 0.419183
O O9 0.750000 0.883387 0.986306
O O10 0.940345 0.750000 0.963545
O O11 0.003605 0.892048 0.025833
O O12 0.250000 0.992700 0.669787
O O13 0.466137 0.911921 0.619266
O O14 0.463313 0.904403 0.720631
O O15 0.504119 0.068803 0.674981
O O16 0.250000 0.645728 0.559175
O O17 0.750000 0.116632 0.631436
O O18 0.570362 0.250000 0.664018
O O19 0.250000 0.639066 0.784662
O O20 0.475493 0.750000 0.777047
O O21 0.750000 0.354398 0.936610
O O22 0.969524 0.250000 0.905222
#
# Coordination Sequence:
#
# PCOD8242920 Si02
#       8
#     8   8   8   8   8   8   8   8
#     4  10  20  34  53  77 107 143 178 214 260 310
#     4   9  16  26  44  71 102 136 170 205 248 299
#     4   9  17  29  47  74 107 141 178 219 261 306
#     4   9  19  36  56  76 101 136 174 214 263 313
#     4   8  14  26  45  69  97 129 166 206 249 300
#     4  10  20  33  51  77 107 138 174 214 255 304
#     4  10  22  40  60  81 103 128 166 217 266 312
#     4   9  18  32  50  75 108 144 180 216 255 302
#
# _framework density 19.160416000000001
#
# number of rings (size 3 to 8) (size 9 to 14) (size 15 to 20)
#    0.000    2.750    0.000    2.250    0.000    6.250 
#    0.000    2.500    0.000    4.500    0.000    0.000 
#    0.000    0.000    0.000    0.000    0.000    0.000 
#
# Total GULP energy -793297.981868 kJ/mol
# GULP energy per Si atom -12395.280967 kJ/mol
# Density = 1.911681 g / cm^3
# Si number density = 19.160416 Si / 1000 Ang^3
#
#
#
# Elastic Constant Matrix: (Units=GPa)
#
#
# Indices 1 2 3 4 5 6 
#
# 1 73.6334 38.2475 49.0979 0.0000 0.0000 0.0000
# 2 38.2475 91.5064 64.4921 0.0000 0.0000 0.0000
# 3 49.0979 64.4921 123.3036 0.0000 0.0000 0.0000
# 4 0.0000 0.0000 0.0000 5.5555 0.0000 0.0000
# 5 0.0000 0.0000 0.0000 0.0000 33.6762 0.0000
# 6 0.0000 0.0000 0.0000 0.0000 0.0000 14.8457
#
#
#
# Elastic Compliance Matrix: (Units=1/GPa)
#
#
# Indices 1 2 3 4 5 6 
#
# 1 0.019474 -0.004236 -0.005539 0.000000 0.000000 0.000000
# 2 -0.004236 0.018230 -0.007848 0.000000 0.000000 0.000000
# 3 -0.005539 -0.007848 0.014420 0.000000 0.000000 0.000000
# 4 0.000000 0.000000 0.000000 0.180000 0.000000 0.000000
# 5 0.000000 0.000000 0.000000 0.000000 0.029695 0.000000
# 6 0.000000 0.000000 0.000000 0.000000 0.000000 0.067359
#
#
# Mechanical properties :
#
#
# Convention : Reuss Voigt Hill
#
# Bulk Modulus (GPa) = 59.24667 65.79093 62.51880
# Shear Modulus (GPa) = 13.51163 19.92256 16.71709
#
# Velocity S-wave (km/s) = 2.65841 3.22806 2.95698
# Velocity P-wave (km/s) = 6.35700 6.95020 6.66020
#
# Compressibility (1/GPa) = 0.01687859
#
# Stress axis : x y z
#
# Youngs Moduli (GPa) = 51.34946 54.85438 69.34626
#
# Poissons Ratio (x) = 0.23238 0.38409
# Poissons Ratio (y) = 0.21753 0.54424
# Poissons Ratio (z) = 0.28441 0.43051
#
# Static dielectric constant tensor:
#      x y z
#    x 3.688460 0.000000 0.000000 
#    y 0.000000 3.645000 0.000000 
#    z 0.000000 0.000000 3.369050 
# 
# 
# High freq. dielectric constant tensor:
#      x y z
#    x 1.742340 0.000000 0.000000 
#    y 0.000000 1.749100 0.000000 
#    z 0.000000 0.000000 1.721310 
# 
# From -- ./inp_files/31556.got.cif
#   From: 2010.03.12/outbox.cif.g09.slc.cpg/sg59_16_cif.got.tgz:31556.got - 2010.04.16 16:29:54.
