data_PCOD8242073
_publ_section_title
;
Structure prediction by ZEFSAII (Michael W. Deem and Ramdas Pophale) SiO2 
 PCOD8242073
Probable space group: P M M N
;
_chemical_formula_sum "Si O2"
_cell_formula_units_Z 48
_cell_length_a 29.555578
_cell_length_b 9.206706
_cell_length_c 9.332668
_cell_angle_alpha 90.000000
_cell_angle_beta 90.000000
_cell_angle_gamma 90.000000
_cell_volume 2539.507785
_symmetry_space_group_name_H-M "P M M N"
_symmetry_group_IT_number 59
_space_group.IT_coordinate_system_code '2'
_symmetry_cell_setting 'orthorhombic'
loop_
_space_group_symop_operation_xyz
x,y,z
1/2-x,1/2-y,z
1/2+x,-y,-z
-x,1/2+y,-z
-x,-y,-z
1/2+x,1/2+y,-z
1/2-x,y,z
x,1/2-y,z
loop_
_atom_site_type_symbol
_atom_site_label
_atom_site_fract_x
_atom_site_fract_y
_atom_site_fract_z
Si Si1 0.148419 0.418018 0.540621
Si Si2 0.376241 0.581401 0.808471
Si Si3 0.954581 0.081783 0.962421
Si Si4 0.750000 0.079215 0.815067
Si Si5 0.676463 0.909019 0.979497
Si Si6 0.750000 0.916369 0.527443
Si Si7 0.399298 0.091690 0.247433
O O1 0.137469 0.250000 0.571365
O O2 0.119175 0.517924 0.648274
O O3 0.202928 0.443800 0.558023
O O4 0.130153 0.463638 0.382901
O O5 0.363052 0.750000 0.801965
O O6 0.420913 0.557759 0.903525
O O7 0.334723 0.488645 0.872265
O O8 0.965010 0.250000 0.939630
O O9 0.936558 0.023190 0.807997
O O10 0.000000 0.000000 0.000000
O O11 0.750000 0.250000 0.825410
O O12 0.750000 0.032126 0.652296
O O13 0.706685 0.017699 0.891773
O O14 0.698744 0.750000 0.010058
O O15 0.632009 0.884591 0.888608
O O16 0.750000 0.750000 0.587305
O O17 0.421435 0.250000 0.283206
#
# Coordination Sequence:
#
# PCOD8242073 Si02
#       7
#     8   8   8   4   8   4   8
#     4  10  20  36  58  83 114 155 197 233 275 335
#     4  10  22  38  55  82 117 146 180 233 290 338
#     4  10  21  38  61  86 112 143 183 233 288 347
#     4  12  22  31  50  81 112 142 186 240 284 325
#     4  10  19  35  56  76 104 146 189 230 275 327
#     4  10  20  37  56  79 112 152 200 236 268 321
#     4   9  18  34  58  83 108 143 188 231 274 330
#
# _framework density 18.901299000000002
#
# number of rings (size 3 to 8) (size 9 to 14) (size 15 to 20)
#    0.000    2.000    1.667    2.250    0.000    4.667 
#    0.000    3.333    0.000    0.000    0.000    0.000 
#    0.000    0.000    0.000    0.000    0.000    0.000 
#
# Total GULP energy -594829.210895 kJ/mol
# GULP energy per Si atom -12392.275227 kJ/mol
# Density = 1.885828 g / cm^3
# Si number density = 18.901299 Si / 1000 Ang^3
#
#
#
# Elastic Constant Matrix: (Units=GPa)
#
#
# Indices 1 2 3 4 5 6 
#
# 1 64.3329 53.2327 24.4368 0.0000 0.0000 0.0000
# 2 53.2327 153.3792 52.1897 0.0000 0.0000 0.0000
# 3 24.4368 52.1897 93.4313 0.0000 0.0000 0.0000
# 4 0.0000 0.0000 0.0000 33.9200 0.0000 0.0000
# 5 0.0000 0.0000 0.0000 0.0000 21.4079 0.0000
# 6 0.0000 0.0000 0.0000 0.0000 0.0000 33.3126
#
#
#
# Elastic Compliance Matrix: (Units=1/GPa)
#
#
# Indices 1 2 3 4 5 6 
#
# 1 0.022061 -0.007029 -0.001843 0.000000 0.000000 0.000000
# 2 -0.007029 0.010290 -0.003909 0.000000 0.000000 0.000000
# 3 -0.001843 -0.003909 0.013369 0.000000 0.000000 0.000000
# 4 0.000000 0.000000 0.000000 0.029481 0.000000 0.000000
# 5 0.000000 0.000000 0.000000 0.000000 0.046712 0.000000
# 6 0.000000 0.000000 0.000000 0.000000 0.000000 0.030019
#
#
# Mechanical properties :
#
#
# Convention : Reuss Voigt Hill
#
# Bulk Modulus (GPa) = 49.61458 63.42910 56.52184
# Shear Modulus (GPa) = 27.14250 29.81372 28.47811
#
# Velocity S-wave (km/s) = 3.79359 3.97588 3.88580
# Velocity P-wave (km/s) = 6.74497 7.39647 7.07822
#
# Compressibility (1/GPa) = 0.02015536
#
# Stress axis : x y z
#
# Youngs Moduli (GPa) = 45.32928 97.18595 74.80095
#
# Poissons Ratio (x) = 0.68315 0.13789
# Poissons Ratio (y) = 0.31863 0.29241
# Poissons Ratio (z) = 0.08356 0.37991
#
# Static dielectric constant tensor:
#      x y z
#    x 3.347190 0.000000 0.000000 
#    y 0.000000 3.796850 0.000000 
#    z 0.000000 0.000000 3.415320 
# 
# 
# High freq. dielectric constant tensor:
#      x y z
#    x 1.713450 0.000000 0.000000 
#    y 0.000000 1.744550 0.000000 
#    z 0.000000 0.000000 1.727410 
# 
# From -- ./inp_files/6358.got.cif
#   From: 2010.03.12/outbox.cif.g09.slc.cpg/sg59_4_cif.got.tgz:6358.got - 2010.04.16 16:29:54.
