data_PCOD8242437
_publ_section_title
;
Structure prediction by ZEFSAII (Michael W. Deem and Ramdas Pophale) SiO2 
 PCOD8242437
Probable space group: P M M N
;
_chemical_formula_sum "Si O2"
_cell_formula_units_Z 64
_cell_length_a 18.496745
_cell_length_b 13.887764
_cell_length_c 13.152870
_cell_angle_alpha 90.000000
_cell_angle_beta 90.000000
_cell_angle_gamma 90.000000
_cell_volume 3378.688587
_symmetry_space_group_name_H-M "P M M N"
_symmetry_group_IT_number 59
_space_group.IT_coordinate_system_code '2'
_symmetry_cell_setting 'orthorhombic'
loop_
_space_group_symop_operation_xyz
x,y,z
1/2-x,1/2-y,z
1/2+x,-y,-z
-x,1/2+y,-z
-x,-y,-z
1/2+x,1/2+y,-z
1/2-x,y,z
x,1/2-y,z
loop_
_atom_site_type_symbol
_atom_site_label
_atom_site_fract_x
_atom_site_fract_y
_atom_site_fract_z
Si Si1 0.836101 0.640475 0.550851
Si Si2 0.919887 0.364341 0.055156
Si Si3 0.167382 0.364114 0.859653
Si Si4 0.665829 0.547311 0.347597
Si Si5 0.333618 0.452153 0.242640
Si Si6 0.166331 0.642463 0.749710
Si Si7 0.083016 0.135669 0.055769
Si Si8 0.667112 0.141640 0.861167
O O1 0.750000 0.636823 0.547366
O O2 0.864080 0.750000 0.557330
O O3 0.869775 0.590676 0.449771
O O4 0.864526 0.581186 0.648359
O O5 0.916956 0.250000 0.053960
O O6 0.877075 0.399944 0.154346
O O7 0.001316 0.404039 0.058137
O O8 0.881052 0.400989 0.952802
O O9 0.250000 0.399062 0.873960
O O10 0.162645 0.250000 0.856497
O O11 0.133647 0.403676 0.754170
O O12 0.121247 0.406029 0.954217
O O13 0.750000 0.573033 0.350312
O O14 0.652843 0.431579 0.343379
O O15 0.250000 0.422454 0.231741
O O16 0.376095 0.396410 0.156109
O O17 0.343497 0.568011 0.232856
O O18 0.250000 0.643460 0.781394
O O19 0.140886 0.750000 0.717271
O O20 0.083904 0.250000 0.052443
O O21 0.750000 0.142187 0.898163
O O22 0.643678 0.250000 0.827943
#
# Coordination Sequence:
#
# PCOD8242437 Si02
#       8
#     8   8   8   8   8   8   8   8
#     4   9  17  31  51  74 100 130 165 205 245 291
#     4   9  18  32  49  71 100 136 170 204 246 296
#     4   9  17  29  45  68 100 132 161 200 247 295
#     4   9  17  29  48  72  96 124 163 204 249 296
#     4  10  20  32  50  75 102 133 170 204 243 294
#     4   9  17  30  49  73  99 127 164 210 254 292
#     4  10  20  32  47  73 105 135 164 199 251 304
#     4   9  18  33  51  71  98 133 172 209 245 289
#
# _framework density 18.942260000000001
#
# number of rings (size 3 to 8) (size 9 to 14) (size 15 to 20)
#    0.000    2.750    0.000    1.500    1.750    4.750 
#    0.000    0.625    0.000    4.500    0.000    0.000 
#    0.000    0.000    0.000    0.000    0.000    0.000 
#
# Total GULP energy -793405.864660 kJ/mol
# GULP energy per Si atom -12396.966635 kJ/mol
# Density = 1.889915 g / cm^3
# Si number density = 18.942260 Si / 1000 Ang^3
#
#
#
# Elastic Constant Matrix: (Units=GPa)
#
#
# Indices 1 2 3 4 5 6 
#
# 1 60.5411 24.8228 44.7240 0.0000 0.0000 0.0000
# 2 24.8228 79.1866 69.3343 0.0000 0.0000 0.0000
# 3 44.7240 69.3343 165.9081 0.0000 0.0000 0.0000
# 4 0.0000 0.0000 0.0000 34.2831 0.0000 0.0000
# 5 0.0000 0.0000 0.0000 0.0000 2.6534 0.0000
# 6 0.0000 0.0000 0.0000 0.0000 0.0000 11.9913
#
#
#
# Elastic Compliance Matrix: (Units=1/GPa)
#
#
# Indices 1 2 3 4 5 6 
#
# 1 0.020949 -0.002558 -0.004578 0.000000 0.000000 0.000000
# 2 -0.002558 0.020228 -0.007764 0.000000 0.000000 0.000000
# 3 -0.004578 -0.007764 0.010506 0.000000 0.000000 0.000000
# 4 0.000000 0.000000 0.000000 0.029169 0.000000 0.000000
# 5 0.000000 0.000000 0.000000 0.000000 0.376875 0.000000
# 6 0.000000 0.000000 0.000000 0.000000 0.000000 0.083394
#
#
# Mechanical properties :
#
#
# Convention : Reuss Voigt Hill
#
# Bulk Modulus (GPa) = 45.69870 64.82200 55.26035
# Shear Modulus (GPa) = 8.64730 20.90254 14.77492
#
# Velocity S-wave (km/s) = 2.13892 3.32548 2.79587
# Velocity P-wave (km/s) = 5.50251 7.00287 6.29753
#
# Compressibility (1/GPa) = 0.02188246
#
# Stress axis : x y z
#
# Youngs Moduli (GPa) = 47.73585 49.43570 95.18292
#
# Poissons Ratio (x) = 0.12648 0.43574
# Poissons Ratio (y) = 0.12213 0.73899
# Poissons Ratio (z) = 0.21853 0.38381
#
# Static dielectric constant tensor:
#      x y z
#    x 3.281740 0.000000 0.000000 
#    y 0.000000 3.622920 0.000000 
#    z 0.000000 0.000000 3.527530 
# 
# 
# High freq. dielectric constant tensor:
#      x y z
#    x 1.696190 0.000000 0.000000 
#    y 0.000000 1.752740 0.000000 
#    z 0.000000 0.000000 1.719760 
# 
# From -- ./inp_files/17875.got.cif
#   From: 2010.03.12/outbox.cif.g09.slc.cpg/sg59_9_cif.got.tgz:17875.got - 2010.04.16 16:29:54.
