data_PCOD8242961
_publ_section_title
;
Structure prediction by ZEFSAII (Michael W. Deem and Ramdas Pophale) SiO2 
 PCOD8242961
Probable space group: P M M N
;
_chemical_formula_sum "Si O2"
_cell_formula_units_Z 48
_cell_length_a 9.490753
_cell_length_b 17.833061
_cell_length_c 15.917106
_cell_angle_alpha 90.000000
_cell_angle_beta 90.000000
_cell_angle_gamma 90.000000
_cell_volume 2693.957094
_symmetry_space_group_name_H-M "P M M N"
_symmetry_group_IT_number 59
_space_group.IT_coordinate_system_code '2'
_symmetry_cell_setting 'orthorhombic'
loop_
_space_group_symop_operation_xyz
x,y,z
1/2-x,1/2-y,z
1/2+x,-y,-z
-x,1/2+y,-z
-x,-y,-z
1/2+x,1/2+y,-z
1/2-x,y,z
x,1/2-y,z
loop_
_atom_site_type_symbol
_atom_site_label
_atom_site_fract_x
_atom_site_fract_y
_atom_site_fract_z
Si Si1 0.582133 0.750000 0.109269
Si Si2 0.087401 0.393221 0.986992
Si Si3 0.918687 0.750000 0.297185
Si Si4 0.584264 0.662072 0.582359
Si Si5 0.083723 0.544888 0.683141
Si Si6 0.583378 0.891476 0.399651
Si Si7 0.589031 0.038212 0.122825
O O1 0.750000 0.750000 0.114777
O O2 0.525124 0.678771 0.059362
O O3 0.520823 0.750000 0.203146
O O4 0.250000 0.384268 0.010516
O O5 0.061241 0.459197 0.921110
O O6 0.006061 0.401175 0.074934
O O7 0.750000 0.750000 0.300070
O O8 0.978343 0.675558 0.342500
O O9 0.750000 0.651352 0.598030
O O10 0.544813 0.750000 0.582672
O O11 0.497575 0.619513 0.654330
O O12 0.536773 0.624295 0.494864
O O13 0.250000 0.556734 0.669538
O O14 0.027127 0.472282 0.631699
O O15 0.045826 0.531650 0.780305
O O16 0.750000 0.890635 0.390974
O O17 0.750000 0.063696 0.113892
#
# Coordination Sequence:
#
# PCOD8242961 Si02
#       7
#     4   8   4   8   8   8   8
#     4   9  16  26  45  76 101 120 154 201 247 289
#     4   9  17  31  51  73 100 128 158 201 249 292
#     4   9  14  24  48  78 105 128 156 205 259 297
#     4  10  20  35  52  73 102 134 168 206 251 299
#     4  10  20  33  52  77 101 130 171 210 245 295
#     4   9  16  29  50  76 103 130 162 204 253 300
#     4   9  18  33  50  71  98 130 165 200 241 292
#
# _framework density 17.817654999999998
#
# number of rings (size 3 to 8) (size 9 to 14) (size 15 to 20)
#    0.000    2.667    0.833    1.500    0.000    5.000 
#    1.500    0.417    0.000    0.000    0.000    3.500 
#    0.000    0.000    0.000    0.000    0.000    0.000 
#
# Total GULP energy -595140.276236 kJ/mol
# GULP energy per Si atom -12398.755755 kJ/mol
# Density = 1.777710 g / cm^3
# Si number density = 17.817655 Si / 1000 Ang^3
#
#
#
# Elastic Constant Matrix: (Units=GPa)
#
#
# Indices 1 2 3 4 5 6 
#
# 1 35.1925 35.9672 44.2968 0.0000 0.0000 0.0000
# 2 35.9672 95.8348 60.0040 0.0000 0.0000 0.0000
# 3 44.2968 60.0040 117.8707 0.0000 0.0000 0.0000
# 4 0.0000 0.0000 0.0000 28.2297 0.0000 0.0000
# 5 0.0000 0.0000 0.0000 0.0000 25.9860 0.0000
# 6 0.0000 0.0000 0.0000 0.0000 0.0000 21.5605
#
#
#
# Elastic Compliance Matrix: (Units=1/GPa)
#
#
# Indices 1 2 3 4 5 6 
#
# 1 0.063339 -0.013016 -0.017177 0.000000 0.000000 0.000000
# 2 -0.013016 0.017991 -0.004267 0.000000 0.000000 0.000000
# 3 -0.017177 -0.004267 0.017111 0.000000 0.000000 0.000000
# 4 0.000000 0.000000 0.000000 0.035424 0.000000 0.000000
# 5 0.000000 0.000000 0.000000 0.000000 0.038482 0.000000
# 6 0.000000 0.000000 0.000000 0.000000 0.000000 0.046381
#
#
# Mechanical properties :
#
#
# Convention : Reuss Voigt Hill
#
# Bulk Modulus (GPa) = 33.87480 58.82599 46.35039
# Shear Modulus (GPa) = 16.80726 22.39724 19.60225
#
# Velocity S-wave (km/s) = 3.07464 3.54930 3.32046
# Velocity P-wave (km/s) = 5.62652 7.06286 6.38521
#
# Compressibility (1/GPa) = 0.02952047
#
# Stress axis : x y z
#
# Youngs Moduli (GPa) = 15.78809 55.58186 58.44044
#
# Poissons Ratio (x) = 0.72348 1.00384
# Poissons Ratio (y) = 0.20550 0.24938
# Poissons Ratio (z) = 0.27119 0.23718
#
# Static dielectric constant tensor:
#      x y z
#    x 2.915490 0.000000 0.000000 
#    y 0.000000 3.417830 0.000000 
#    z 0.000000 0.000000 3.419180 
# 
# 
# High freq. dielectric constant tensor:
#      x y z
#    x 1.645210 0.000000 0.000000 
#    y 0.000000 1.695440 0.000000 
#    z 0.000000 0.000000 1.698300 
# 
# From -- ./inp_files/20551.got.cif
#   From: 2010.03.12/outbox.cif.g09.slc.cpg/sg59_11_cif.got.tgz:20551.got - 2010.04.16 16:29:54.
