data_PCOD8242999
_publ_section_title
;
Structure prediction by ZEFSAII (Michael W. Deem and Ramdas Pophale) SiO2 
 PCOD8242999
Probable space group: P M M N
;
_chemical_formula_sum "Si O2"
_cell_formula_units_Z 56
_cell_length_a 22.297652
_cell_length_b 9.202681
_cell_length_c 14.678549
_cell_angle_alpha 90.000000
_cell_angle_beta 90.000000
_cell_angle_gamma 90.000000
_cell_volume 3012.011516
_symmetry_space_group_name_H-M "P M M N"
_symmetry_group_IT_number 59
_space_group.IT_coordinate_system_code '2'
_symmetry_cell_setting 'orthorhombic'
loop_
_space_group_symop_operation_xyz
x,y,z
1/2-x,1/2-y,z
1/2+x,-y,-z
-x,1/2+y,-z
-x,-y,-z
1/2+x,1/2+y,-z
1/2-x,y,z
x,1/2-y,z
loop_
_atom_site_type_symbol
_atom_site_label
_atom_site_fract_x
_atom_site_fract_y
_atom_site_fract_z
Si Si1 0.316864 0.582891 0.708618
Si Si2 0.819712 0.585483 0.916585
Si Si3 0.057830 0.419357 0.390936
Si Si4 0.422088 0.919362 0.575223
Si Si5 0.903782 0.421370 0.783222
Si Si6 0.852781 0.918953 0.117349
Si Si7 0.487556 0.417167 0.908290
O O1 0.250000 0.562370 0.665839
O O2 0.330439 0.750000 0.729620
O O3 0.368260 0.524467 0.640272
O O4 0.316933 0.500755 0.804509
O O5 0.750000 0.583726 0.895708
O O6 0.845517 0.750000 0.907968
O O7 0.849344 0.480274 0.843208
O O8 0.832433 0.524943 0.017972
O O9 0.073594 0.250000 0.388444
O O10 0.081230 0.484006 0.485421
O O11 0.095655 0.500479 0.313751
O O12 0.986551 0.445443 0.377127
O O13 0.413946 0.750000 0.549511
O O14 0.896132 0.250000 0.769228
O O15 0.965622 0.464033 0.831893
O O16 0.837412 0.750000 0.126540
O O17 0.922622 0.953739 0.131494
O O18 0.493768 0.250000 0.934029
O O19 0.500000 0.500000 0.000000
#
# Coordination Sequence:
#
# PCOD8242999 Si02
#       7
#     8   8   8   8   8   8   8
#     4  10  21  36  55  81 112 146 182 221 270 328
#     4  10  21  37  55  74 103 146 190 228 266 315
#     4  10  20  35  59  85 108 140 179 224 278 333
#     4   9  19  37  58  82 111 141 176 224 278 331
#     4  11  22  35  54  82 112 143 179 224 274 324
#     4  10  20  35  55  79 109 146 184 223 270 321
#     4  10  20  33  52  79 109 141 179 223 270 318
#
# _framework density 18.592226
#
# number of rings (size 3 to 8) (size 9 to 14) (size 15 to 20)
#    0.000    2.000    1.429    2.143    0.000    4.000 
#    0.000    0.714    0.000    2.571    0.000    0.000 
#    0.000    0.000    0.000    0.000    0.000    0.000 
#
# Total GULP energy -694533.790275 kJ/mol
# GULP energy per Si atom -12402.389112 kJ/mol
# Density = 1.854991 g / cm^3
# Si number density = 18.592226 Si / 1000 Ang^3
#
#
#
# Elastic Constant Matrix: (Units=GPa)
#
#
# Indices 1 2 3 4 5 6 
#
# 1 81.3994 30.3763 50.7097 0.0000 0.0000 0.0000
# 2 30.3763 72.3941 61.2300 0.0000 0.0000 0.0000
# 3 50.7097 61.2300 124.9902 0.0000 0.0000 0.0000
# 4 0.0000 0.0000 0.0000 37.5375 0.0000 0.0000
# 5 0.0000 0.0000 0.0000 0.0000 25.6160 0.0000
# 6 0.0000 0.0000 0.0000 0.0000 0.0000 25.5818
#
#
#
# Elastic Compliance Matrix: (Units=1/GPa)
#
#
# Indices 1 2 3 4 5 6 
#
# 1 0.016638 -0.002172 -0.005686 0.000000 0.000000 0.000000
# 2 -0.002172 0.023869 -0.010812 0.000000 0.000000 0.000000
# 3 -0.005686 -0.010812 0.015604 0.000000 0.000000 0.000000
# 4 0.000000 0.000000 0.000000 0.026640 0.000000 0.000000
# 5 0.000000 0.000000 0.000000 0.000000 0.039038 0.000000
# 6 0.000000 0.000000 0.000000 0.000000 0.000000 0.039090
#
#
# Mechanical properties :
#
#
# Convention : Reuss Voigt Hill
#
# Bulk Modulus (GPa) = 53.27285 62.60175 57.93730
# Shear Modulus (GPa) = 24.45272 26.84493 25.64882
#
# Velocity S-wave (km/s) = 3.63052 3.80396 3.71825
# Velocity P-wave (km/s) = 6.80366 7.28269 7.04724
#
# Compressibility (1/GPa) = 0.01877129
#
# Stress axis : x y z
#
# Youngs Moduli (GPa) = 60.10348 41.89522 64.08591
#
# Poissons Ratio (x) = 0.09099 0.36441
# Poissons Ratio (y) = 0.13054 0.69288
# Poissons Ratio (z) = 0.34176 0.45296
#
# Static dielectric constant tensor:
#      x y z
#    x 3.492820 0.000000 0.000000 
#    y 0.000000 3.382520 0.000000 
#    z 0.000000 0.000000 3.215590 
# 
# 
# High freq. dielectric constant tensor:
#      x y z
#    x 1.722190 0.000000 0.000000 
#    y 0.000000 1.720540 0.000000 
#    z 0.000000 0.000000 1.717110 
# 
# From -- ./inp_files/21034.got.cif
#   From: 2010.03.12/outbox.cif.g09.slc.cpg/sg59_11_cif.got.tgz:21034.got - 2010.04.16 16:29:54.
