data_PCOD8242813
_publ_section_title
;
Structure prediction by ZEFSAII (Michael W. Deem and Ramdas Pophale) SiO2 
 PCOD8242813
Probable space group: P M M N
;
_chemical_formula_sum "Si O2"
_cell_formula_units_Z 40
_cell_length_a 9.468763
_cell_length_b 19.588623
_cell_length_c 12.478144
_cell_angle_alpha 90.000000
_cell_angle_beta 90.000000
_cell_angle_gamma 90.000000
_cell_volume 2314.446507
_symmetry_space_group_name_H-M "P M M N"
_symmetry_group_IT_number 59
_space_group.IT_coordinate_system_code '2'
_symmetry_cell_setting 'orthorhombic'
loop_
_space_group_symop_operation_xyz
x,y,z
1/2-x,1/2-y,z
1/2+x,-y,-z
-x,1/2+y,-z
-x,-y,-z
1/2+x,1/2+y,-z
1/2-x,y,z
x,1/2-y,z
loop_
_atom_site_type_symbol
_atom_site_label
_atom_site_fract_x
_atom_site_fract_y
_atom_site_fract_z
Si Si1 0.406359 0.831104 0.504428
Si Si2 0.912599 0.562524 0.875127
Si Si3 0.914506 0.672377 0.701656
Si Si4 0.913555 0.170090 0.734324
Si Si5 0.414474 0.069869 0.876909
O O1 0.250000 0.858752 0.531046
O O2 0.405756 0.750000 0.503143
O O3 0.511090 0.858551 0.595879
O O4 0.452130 0.855740 0.385850
O O5 0.750000 0.541384 0.855986
O O6 0.956229 0.627600 0.804271
O O7 0.010612 0.499815 0.840196
O O8 0.939013 0.583158 0.997572
O O9 0.750000 0.669281 0.677492
O O10 0.963726 0.750000 0.725189
O O11 0.750000 0.153530 0.759674
O O12 0.942906 0.250000 0.746541
O O13 0.015848 0.132932 0.816624
O O14 0.250000 0.065060 0.847730
#
# Coordination Sequence:
#
# PCOD8242813 Si02
#       5
#     8   8   8   8   8
#     4   8  15  29  48  70  97 127 156 190 236 285
#     4   9  19  35  51  68  97 133 161 193 243 294
#     4   9  17  30  50  74  97 123 157 196 238 285
#     4   9  18  33  52  73  99 130 160 193 239 291
#     4  10  20  33  51  73  96 126 165 205 240 280
#
# _framework density 17.282748999999999
#
# number of rings (size 3 to 8) (size 9 to 14) (size 15 to 20)
#    0.000    3.000    0.000    1.800    0.000    3.600 
#    0.000    5.000    0.000    2.400    0.000    0.000 
#    0.000    0.000    0.000    0.000    0.000    0.000 
#
# Total GULP energy -495929.516000 kJ/mol
# GULP energy per Si atom -12398.237900 kJ/mol
# Density = 1.724341 g / cm^3
# Si number density = 17.282749 Si / 1000 Ang^3
#
#
#
# Elastic Constant Matrix: (Units=GPa)
#
#
# Indices 1 2 3 4 5 6 
#
# 1 88.1590 56.4576 62.3541 0.0000 0.0000 0.0000
# 2 56.4576 75.5948 57.8023 0.0000 0.0000 0.0000
# 3 62.3541 57.8023 98.8513 0.0000 0.0000 0.0000
# 4 0.0000 0.0000 0.0000 9.1474 0.0000 0.0000
# 5 0.0000 0.0000 0.0000 0.0000 34.5449 0.0000
# 6 0.0000 0.0000 0.0000 0.0000 0.0000 28.4100
#
#
#
# Elastic Compliance Matrix: (Units=1/GPa)
#
#
# Indices 1 2 3 4 5 6 
#
# 1 0.025471 -0.012187 -0.008941 0.000000 0.000000 0.000000
# 2 -0.012187 0.029757 -0.009713 0.000000 0.000000 0.000000
# 3 -0.008941 -0.009713 0.021436 0.000000 0.000000 0.000000
# 4 0.000000 0.000000 0.000000 0.109320 0.000000 0.000000
# 5 0.000000 0.000000 0.000000 0.000000 0.028948 0.000000
# 6 0.000000 0.000000 0.000000 0.000000 0.000000 0.035199
#
#
# Mechanical properties :
#
#
# Convention : Reuss Voigt Hill
#
# Bulk Modulus (GPa) = 66.74320 68.42592 67.58456
# Shear Modulus (GPa) = 15.78255 20.15321 17.96788
#
# Velocity S-wave (km/s) = 3.02519 3.41851 3.22785
# Velocity P-wave (km/s) = 7.13475 7.43368 7.28575
#
# Compressibility (1/GPa) = 0.01498280
#
# Stress axis : x y z
#
# Youngs Moduli (GPa) = 39.25963 33.60606 46.65151
#
# Poissons Ratio (x) = 0.40954 0.41712
# Poissons Ratio (y) = 0.47844 0.45311
# Poissons Ratio (z) = 0.35102 0.32641
#
# Static dielectric constant tensor:
#      x y z
#    x 3.314890 0.000000 0.000000 
#    y 0.000000 3.023170 0.000000 
#    z 0.000000 0.000000 3.363120 
# 
# 
# High freq. dielectric constant tensor:
#      x y z
#    x 1.668810 0.000000 0.000000 
#    y 0.000000 1.644650 0.000000 
#    z 0.000000 0.000000 1.671500 
# 
# From -- ./inp_files/13878.got.cif
#   From: 2010.03.12/outbox.cif.g09.slc.cpg/sg59_7_cif.got.tgz:13878.got - 2010.04.16 16:29:54.
