data_PCOD8242836
_publ_section_title
;
Structure prediction by ZEFSAII (Michael W. Deem and Ramdas Pophale) SiO2 
 PCOD8242836
Probable space group: P M M N
;
_chemical_formula_sum "Si O2"
_cell_formula_units_Z 48
_cell_length_a 9.238856
_cell_length_b 29.993741
_cell_length_c 9.477477
_cell_angle_alpha 90.000000
_cell_angle_beta 90.000000
_cell_angle_gamma 90.000000
_cell_volume 2626.283313
_symmetry_space_group_name_H-M "P M M N"
_symmetry_group_IT_number 59
_space_group.IT_coordinate_system_code '2'
_symmetry_cell_setting 'orthorhombic'
loop_
_space_group_symop_operation_xyz
x,y,z
1/2-x,1/2-y,z
1/2+x,-y,-z
-x,1/2+y,-z
-x,-y,-z
1/2+x,1/2+y,-z
1/2-x,y,z
x,1/2-y,z
loop_
_atom_site_type_symbol
_atom_site_label
_atom_site_fract_x
_atom_site_fract_y
_atom_site_fract_z
Si Si1 0.078072 0.200731 0.348186
Si Si2 0.078795 0.871128 0.152869
Si Si3 0.581169 0.447187 0.633344
Si Si4 0.582557 0.951829 0.644255
Si Si5 0.584635 0.802094 0.335507
Si Si6 0.419911 0.376132 0.140650
O O1 0.250000 0.201539 0.350903
O O2 0.019673 0.250000 0.305812
O O3 0.026590 0.188140 0.506159
O O4 0.021598 0.164632 0.236619
O O5 0.250000 0.866692 0.138158
O O6 0.032450 0.914464 0.242200
O O7 0.017939 0.827012 0.226007
O O8 0.010271 0.876617 0.000574
O O9 0.750000 0.443273 0.603302
O O10 0.502329 0.432748 0.490026
O O11 0.536714 0.497365 0.678105
O O12 0.750000 0.948183 0.604389
O O13 0.546518 0.922397 0.780507
O O14 0.750000 0.818664 0.317411
O O15 0.574535 0.750000 0.301310
O O16 0.250000 0.370685 0.107548
#
# Coordination Sequence:
#
# PCOD8242836 Si02
#       6
#     8   8   8   8   8   8
#     4   8  15  30  53  78  99 121 158 210 259 298
#     4  11  23  35  48  72 109 144 169 201 252 312
#     4   9  19  35  53  75 103 134 169 213 264 310
#     4   9  18  34  56  78  98 127 174 224 261 301
#     4   9  18  35  59  81  99 126 169 216 256 297
#     4  10  20  33  51  75 102 134 173 214 254 299
#
# _framework density 18.276779999999999
#
# number of rings (size 3 to 8) (size 9 to 14) (size 15 to 20)
#    0.000    2.667    0.000    2.500    0.000    5.000 
#    0.000    2.500    0.000    1.000    0.000    0.000 
#    0.000    0.000    0.000    0.000    0.000    0.000 
#
# Total GULP energy -595216.626377 kJ/mol
# GULP energy per Si atom -12400.346383 kJ/mol
# Density = 1.823518 g / cm^3
# Si number density = 18.276780 Si / 1000 Ang^3
#
#
#
# Elastic Constant Matrix: (Units=GPa)
#
#
# Indices 1 2 3 4 5 6 
#
# 1 54.6185 43.4906 58.5688 0.0000 0.0000 0.0000
# 2 43.4906 98.1081 72.1768 0.0000 0.0000 0.0000
# 3 58.5688 72.1768 146.8035 0.0000 0.0000 0.0000
# 4 0.0000 0.0000 0.0000 21.5906 0.0000 0.0000
# 5 0.0000 0.0000 0.0000 0.0000 30.7295 0.0000
# 6 0.0000 0.0000 0.0000 0.0000 0.0000 21.9434
#
#
#
# Elastic Compliance Matrix: (Units=1/GPa)
#
#
# Indices 1 2 3 4 5 6 
#
# 1 0.035967 -0.008440 -0.010200 0.000000 0.000000 0.000000
# 2 -0.008440 0.017949 -0.005458 0.000000 0.000000 0.000000
# 3 -0.010200 -0.005458 0.013564 0.000000 0.000000 0.000000
# 4 0.000000 0.000000 0.000000 0.046316 0.000000 0.000000
# 5 0.000000 0.000000 0.000000 0.000000 0.032542 0.000000
# 6 0.000000 0.000000 0.000000 0.000000 0.000000 0.045572
#
#
# Mechanical properties :
#
#
# Convention : Reuss Voigt Hill
#
# Bulk Modulus (GPa) = 51.85196 72.00027 61.92612
# Shear Modulus (GPa) = 20.28119 23.20563 21.74341
#
# Velocity S-wave (km/s) = 3.33478 3.56712 3.45291
# Velocity P-wave (km/s) = 6.57721 7.51304 7.06065
#
# Compressibility (1/GPa) = 0.01928567
#
# Stress axis : x y z
#
# Youngs Moduli (GPa) = 27.80356 55.71230 73.72226
#
# Poissons Ratio (x) = 0.47021 0.75195
# Poissons Ratio (y) = 0.23466 0.40235
# Poissons Ratio (z) = 0.28359 0.30406
#
# Static dielectric constant tensor:
#      x y z
#    x 3.153350 0.000000 0.000000 
#    y 0.000000 3.713800 0.000000 
#    z 0.000000 0.000000 3.334800 
# 
# 
# High freq. dielectric constant tensor:
#      x y z
#    x 1.685500 0.000000 0.000000 
#    y 0.000000 1.721750 0.000000 
#    z 0.000000 0.000000 1.705520 
# 
# From -- ./inp_files/6186.got.cif
#   From: 2010.03.12/outbox.cif.g09.slc.cpg/sg59_4_cif.got.tgz:6186.got - 2010.04.16 16:29:54.
