data_PCOD8242871
_publ_section_title
;
Structure prediction by ZEFSAII (Michael W. Deem and Ramdas Pophale) SiO2 
 PCOD8242871
Probable space group: P M M N
;
_chemical_formula_sum "Si O2"
_cell_formula_units_Z 48
_cell_length_a 9.062358
_cell_length_b 9.292521
_cell_length_c 30.916996
_cell_angle_alpha 90.000000
_cell_angle_beta 90.000000
_cell_angle_gamma 90.000000
_cell_volume 2603.586767
_symmetry_space_group_name_H-M "P M M N"
_symmetry_group_IT_number 59
_space_group.IT_coordinate_system_code '2'
_symmetry_cell_setting 'orthorhombic'
loop_
_space_group_symop_operation_xyz
x,y,z
1/2-x,1/2-y,z
1/2+x,-y,-z
-x,1/2+y,-z
-x,-y,-z
1/2+x,1/2+y,-z
1/2-x,y,z
x,1/2-y,z
loop_
_atom_site_type_symbol
_atom_site_label
_atom_site_fract_x
_atom_site_fract_y
_atom_site_fract_z
Si Si1 0.419989 0.581710 0.461820
Si Si2 0.073804 0.089208 0.132725
Si Si3 0.423183 0.084478 0.626708
Si Si4 0.582134 0.918480 0.962608
Si Si5 0.578378 0.918978 0.702442
Si Si6 0.925424 0.088517 0.786890
O O1 0.500000 0.500000 0.500000
O O2 0.250000 0.534139 0.459599
O O3 0.436731 0.750000 0.470699
O O4 0.496817 0.537556 0.417174
O O5 0.250000 0.090200 0.132613
O O6 0.016977 0.250000 0.143433
O O7 0.017879 0.041218 0.085029
O O8 0.010725 0.981443 0.169073
O O9 0.250000 0.060829 0.620535
O O10 0.460292 0.250000 0.638438
O O11 0.481932 0.981156 0.663837
O O12 0.750000 0.968417 0.964995
O O13 0.565539 0.750000 0.970523
O O14 0.500000 0.000000 0.000000
O O15 0.750000 0.953177 0.693677
O O16 0.549995 0.750000 0.706915
O O17 0.522235 0.994323 0.746260
O O18 0.750000 0.090481 0.789013
O O19 0.988604 0.250000 0.782415
#
# Coordination Sequence:
#
# PCOD8242871 Si02
#       6
#     8   8   8   8   8   8
#     4  10  21  37  58  83 110 141 176 214 257 304
#     4   8  14  26  43  64  93 126 159 200 250 301
#     4  10  21  37  56  77 103 137 175 214 256 300
#     4   9  18  31  47  69  97 129 165 205 250 300
#     4  10  20  33  51  76 104 134 167 204 249 300
#     4   9  16  26  44  71  99 126 160 204 251 298
#
# _framework density 18.436107
#
# number of rings (size 3 to 8) (size 9 to 14) (size 15 to 20)
#    0.000    2.667    0.000    3.000    0.000    6.667 
#    0.000    1.667    0.000    1.000    0.000    4.667 
#    0.000    0.000    0.000    0.000    0.000    0.000 
#
# Total GULP energy -595146.455272 kJ/mol
# GULP energy per Si atom -12398.884485 kJ/mol
# Density = 1.839415 g / cm^3
# Si number density = 18.436107 Si / 1000 Ang^3
#
#
#
# Elastic Constant Matrix: (Units=GPa)
#
#
# Indices 1 2 3 4 5 6 
#
# 1 65.3940 40.9809 58.0709 0.0000 0.0000 0.0000
# 2 40.9809 101.6355 87.7785 0.0000 0.0000 0.0000
# 3 58.0709 87.7785 178.6212 0.0000 0.0000 0.0000
# 4 0.0000 0.0000 0.0000 43.7836 0.0000 0.0000
# 5 0.0000 0.0000 0.0000 0.0000 26.8671 0.0000
# 6 0.0000 0.0000 0.0000 0.0000 0.0000 24.1362
#
#
#
# Elastic Compliance Matrix: (Units=1/GPa)
#
#
# Indices 1 2 3 4 5 6 
#
# 1 0.022796 -0.004849 -0.005028 0.000000 0.000000 0.000000
# 2 -0.004849 0.018126 -0.007331 0.000000 0.000000 0.000000
# 3 -0.005028 -0.007331 0.010836 0.000000 0.000000 0.000000
# 4 0.000000 0.000000 0.000000 0.022840 0.000000 0.000000
# 5 0.000000 0.000000 0.000000 0.000000 0.037220 0.000000
# 6 0.000000 0.000000 0.000000 0.000000 0.000000 0.041432
#
#
# Mechanical properties :
#
#
# Convention : Reuss Voigt Hill
#
# Bulk Modulus (GPa) = 57.66670 79.92347 68.79509
# Shear Modulus (GPa) = 25.84713 29.54539 27.69626
#
# Velocity S-wave (km/s) = 3.74837 4.00757 3.88014
# Velocity P-wave (km/s) = 7.07678 8.05356 7.58092
#
# Compressibility (1/GPa) = 0.01734103
#
# Stress axis : x y z
#
# Youngs Moduli (GPa) = 43.86791 55.17029 92.28729
#
# Poissons Ratio (x) = 0.26752 0.46403
# Poissons Ratio (y) = 0.21271 0.67655
# Poissons Ratio (z) = 0.22057 0.40445
#
# Static dielectric constant tensor:
#      x y z
#    x 3.097220 0.000000 0.000000 
#    y 0.000000 3.067220 0.000000 
#    z 0.000000 0.000000 3.656490 
# 
# 
# High freq. dielectric constant tensor:
#      x y z
#    x 1.677440 0.000000 0.000000 
#    y 0.000000 1.715700 0.000000 
#    z 0.000000 0.000000 1.732440 
# 
# From -- ./inp_files/32827.got.cif
#   From: 2010.03.12/outbox.cif.g09.slc.cpg/sg59_17_cif.got.tgz:32827.got - 2010.04.16 16:29:54.
