data_PCOD8242738
_publ_section_title
;
Structure prediction by ZEFSAII (Michael W. Deem and Ramdas Pophale) SiO2 
 PCOD8242738
Probable space group: P M M N
;
_chemical_formula_sum "Si O2"
_cell_formula_units_Z 64
_cell_length_a 13.816463
_cell_length_b 9.389413
_cell_length_c 27.305957
_cell_angle_alpha 90.000000
_cell_angle_beta 90.000000
_cell_angle_gamma 90.000000
_cell_volume 3542.360223
_symmetry_space_group_name_H-M "P M M N"
_symmetry_group_IT_number 59
_space_group.IT_coordinate_system_code '2'
_symmetry_cell_setting 'orthorhombic'
loop_
_space_group_symop_operation_xyz
x,y,z
1/2-x,1/2-y,z
1/2+x,-y,-z
-x,1/2+y,-z
-x,-y,-z
1/2+x,1/2+y,-z
1/2-x,y,z
x,1/2-y,z
loop_
_atom_site_type_symbol
_atom_site_label
_atom_site_fract_x
_atom_site_fract_y
_atom_site_fract_z
Si Si1 0.358010 0.915236 0.575718
Si Si2 0.481658 0.582129 0.195623
Si Si3 0.137573 0.918421 0.860275
Si Si4 0.141040 0.092217 0.124319
Si Si5 0.015469 0.907602 0.952470
Si Si6 0.863243 0.588738 0.518378
Si Si7 0.139134 0.583295 0.290399
Si Si8 0.949924 0.584914 0.620824
O O1 0.250000 0.967589 0.591360
O O2 0.356767 0.750000 0.562144
O O3 0.433457 0.943125 0.620294
O O4 0.396549 0.993526 0.527241
O O5 0.499593 0.750000 0.190303
O O6 0.582122 0.499390 0.184018
O O7 0.401205 0.531954 0.157560
O O8 0.437685 0.541508 0.248364
O O9 0.250000 0.959401 0.857802
O O10 0.119897 0.750000 0.853448
O O11 0.094328 0.967330 0.913046
O O12 0.250000 0.051098 0.113169
O O13 0.131029 0.250000 0.149120
O O14 0.088822 0.095666 0.072417
O O15 0.048297 0.750000 0.968983
O O16 0.000000 0.000000 0.000000
O O17 0.750000 0.574434 0.526723
O O18 0.894320 0.750000 0.506702
O O19 0.912788 0.534774 0.567936
O O20 0.250000 0.538027 0.276821
O O21 0.135639 0.750000 0.300589
O O22 0.104667 0.505296 0.338851
O O23 0.925814 0.750000 0.630568
#
# Coordination Sequence:
#
# PCOD8242738 Si02
#       8
#     8   8   8   8   8   8   8   8
#     4   9  18  32  49  70  97 130 168 207 245 288
#     4  10  20  35  55  79 105 130 163 211 261 307
#     4   9  19  37  58  78 104 140 180 219 257 301
#     4   9  18  33  52  73  99 133 171 209 250 300
#     4   9  18  31  47  72 106 140 173 210 253 300
#     4   9  17  29  46  70  98 127 163 207 251 295
#     4  10  22  38  54  75 104 133 159 196 252 312
#     4  10  20  33  50  73 101 132 167 207 248 294
#
# _framework density 18.067049999999998
#
# number of rings (size 3 to 8) (size 9 to 14) (size 15 to 20)
#    0.000    2.625    0.000    2.250    0.000    6.250 
#    0.000    1.875    0.000    2.250    0.000    0.000 
#    0.000    0.000    0.000    0.000    0.000    0.000 
#
# Total GULP energy -793256.221044 kJ/mol
# GULP energy per Si atom -12394.628454 kJ/mol
# Density = 1.802593 g / cm^3
# Si number density = 18.067050 Si / 1000 Ang^3
#
#
#
# Elastic Constant Matrix: (Units=GPa)
#
#
# Indices 1 2 3 4 5 6 
#
# 1 131.2407 40.2360 58.6273 0.0000 0.0000 0.0000
# 2 40.2360 55.3149 44.4611 0.0000 0.0000 0.0000
# 3 58.6273 44.4611 77.9428 0.0000 0.0000 0.0000
# 4 0.0000 0.0000 0.0000 31.6411 0.0000 0.0000
# 5 0.0000 0.0000 0.0000 0.0000 18.9856 0.0000
# 6 0.0000 0.0000 0.0000 0.0000 0.0000 25.9056
#
#
#
# Elastic Compliance Matrix: (Units=1/GPa)
#
#
# Indices 1 2 3 4 5 6 
#
# 1 0.011682 -0.002649 -0.007276 0.000000 0.000000 0.000000
# 2 -0.002649 0.033987 -0.017394 0.000000 0.000000 0.000000
# 3 -0.007276 -0.017394 0.028225 0.000000 0.000000 0.000000
# 4 0.000000 0.000000 0.000000 0.031605 0.000000 0.000000
# 5 0.000000 0.000000 0.000000 0.000000 0.052672 0.000000
# 6 0.000000 0.000000 0.000000 0.000000 0.000000 0.038602
#
#
# Mechanical properties :
#
#
# Convention : Reuss Voigt Hill
#
# Bulk Modulus (GPa) = 51.93519 61.23858 56.58688
# Shear Modulus (GPa) = 19.39273 23.38470 21.38872
#
# Velocity S-wave (km/s) = 3.27980 3.60158 3.44445
# Velocity P-wave (km/s) = 6.56894 7.15988 6.87077
#
# Compressibility (1/GPa) = 0.01925477
#
# Stress axis : x y z
#
# Youngs Moduli (GPa) = 85.60154 29.42329 35.42970
#
# Poissons Ratio (x) = 0.07795 0.25778
# Poissons Ratio (y) = 0.22679 0.61627
# Poissons Ratio (z) = 0.62281 0.51180
#
# Static dielectric constant tensor:
#      x y z
#    x 3.705750 0.000000 0.000000 
#    y 0.000000 3.273660 0.000000 
#    z 0.000000 0.000000 3.149160 
# 
# 
# High freq. dielectric constant tensor:
#      x y z
#    x 1.713940 0.000000 0.000000 
#    y 0.000000 1.695330 0.000000 
#    z 0.000000 0.000000 1.677470 
# 
# From -- ./inp_files/32158.got.cif
#   From: 2010.03.12/outbox.cif.g09.slc.cpg/sg59_17_cif.got.tgz:32158.got - 2010.04.16 16:29:54.
