data_PCOD8242079
_publ_section_title
;
Structure prediction by ZEFSAII (Michael W. Deem and Ramdas Pophale) SiO2 
 PCOD8242079
Probable space group: P M M N
;
_chemical_formula_sum "Si O2"
_cell_formula_units_Z 64
_cell_length_a 9.535944
_cell_length_b 26.653282
_cell_length_c 13.091808
_cell_angle_alpha 90.000000
_cell_angle_beta 90.000000
_cell_angle_gamma 90.000000
_cell_volume 3327.468967
_symmetry_space_group_name_H-M "P M M N"
_symmetry_group_IT_number 59
_space_group.IT_coordinate_system_code '2'
_symmetry_cell_setting 'orthorhombic'
loop_
_space_group_symop_operation_xyz
x,y,z
1/2-x,1/2-y,z
1/2+x,-y,-z
-x,1/2+y,-z
-x,-y,-z
1/2+x,1/2+y,-z
1/2-x,y,z
x,1/2-y,z
loop_
_atom_site_type_symbol
_atom_site_label
_atom_site_fract_x
_atom_site_fract_y
_atom_site_fract_z
Si Si1 0.416756 0.645604 0.906008
Si Si2 0.586880 0.691349 0.091984
Si Si3 0.099141 0.532710 0.933603
Si Si4 0.410220 0.033131 0.424163
Si Si5 0.908642 0.308384 0.306962
Si Si6 0.416355 0.130670 0.710453
Si Si7 0.596292 0.517573 0.276846
Si Si8 0.910080 0.647985 0.515098
O O1 0.250000 0.653916 0.918406
O O2 0.463166 0.587651 0.911904
O O3 0.467114 0.664267 0.794405
O O4 0.496747 0.675954 0.993836
O O5 0.750000 0.678113 0.071937
O O6 0.566974 0.750000 0.112638
O O7 0.528325 0.662720 0.192998
O O8 0.250000 0.539753 0.988594
O O9 0.124553 0.498909 0.836336
O O10 0.000000 0.500000 0.000000
O O11 0.250000 0.015056 0.419908
O O12 0.422355 0.090301 0.455012
O O13 0.500000 0.000000 0.500000
O O14 0.485285 0.023347 0.316670
O O15 0.750000 0.326263 0.329091
O O16 0.915422 0.250000 0.283192
O O17 0.998515 0.319544 0.407581
O O18 0.250000 0.129994 0.712661
O O19 0.470451 0.073338 0.718208
O O20 0.465451 0.154623 0.601869
O O21 0.750000 0.516965 0.334409
O O22 0.750000 0.666603 0.524055
#
# Coordination Sequence:
#
# PCOD8242079 Si02
#       8
#     8   8   8   8   8   8   8   8
#     4  10  21  39  60  83 113 149 187 230 286 344
#     4  10  21  37  60  86 107 138 188 238 283 334
#     4  10  21  35  56  84 115 151 188 227 277 335
#     4  11  21  34  54  82 112 145 186 229 270 324
#     4  10  22  40  61  84 111 147 191 239 291 341
#     4   9  18  35  56  80 113 148 183 226 278 333
#     4  10  19  35  56  78 110 151 188 226 275 330
#     4  10  21  37  57  84 116 150 188 230 279 336
#
# _framework density 19.233837999999999
#
# number of rings (size 3 to 8) (size 9 to 14) (size 15 to 20)
#    0.000    2.000    1.250    2.250    0.000    6.000 
#    0.000    2.500    0.000    0.000    0.000    0.000 
#    0.000    0.000    0.000    0.000    0.000    0.000 
#
# Total GULP energy -793317.225667 kJ/mol
# GULP energy per Si atom -12395.581651 kJ/mol
# Density = 1.919006 g / cm^3
# Si number density = 19.233838 Si / 1000 Ang^3
#
#
#
# Elastic Constant Matrix: (Units=GPa)
#
#
# Indices 1 2 3 4 5 6 
#
# 1 68.9249 26.2233 39.8492 0.0000 0.0000 0.0000
# 2 26.2233 73.0954 33.6231 0.0000 0.0000 0.0000
# 3 39.8492 33.6231 109.8630 0.0000 0.0000 0.0000
# 4 0.0000 0.0000 0.0000 37.1161 0.0000 0.0000
# 5 0.0000 0.0000 0.0000 0.0000 26.6575 0.0000
# 6 0.0000 0.0000 0.0000 0.0000 0.0000 26.2616
#
#
#
# Elastic Compliance Matrix: (Units=1/GPa)
#
#
# Indices 1 2 3 4 5 6 
#
# 1 0.019479 -0.004351 -0.005734 0.000000 0.000000 0.000000
# 2 -0.004351 0.016894 -0.003592 0.000000 0.000000 0.000000
# 3 -0.005734 -0.003592 0.012281 0.000000 0.000000 0.000000
# 4 0.000000 0.000000 0.000000 0.026943 0.000000 0.000000
# 5 0.000000 0.000000 0.000000 0.000000 0.037513 0.000000
# 6 0.000000 0.000000 0.000000 0.000000 0.000000 0.038078
#
#
# Mechanical properties :
#
#
# Convention : Reuss Voigt Hill
#
# Bulk Modulus (GPa) = 46.94672 50.14163 48.54417
# Shear Modulus (GPa) = 26.93361 28.15288 27.54325
#
# Velocity S-wave (km/s) = 3.74615 3.83000 3.78831
# Velocity P-wave (km/s) = 6.57061 6.75904 6.66549
#
# Compressibility (1/GPa) = 0.02130074
#
# Stress axis : x y z
#
# Youngs Moduli (GPa) = 51.33786 59.19271 81.42400
#
# Poissons Ratio (x) = 0.25753 0.46687
# Poissons Ratio (y) = 0.22335 0.29250
# Poissons Ratio (z) = 0.29436 0.21264
#
# Static dielectric constant tensor:
#      x y z
#    x 0.058770 0.000000 0.000000 
#    y 0.000000 3.443990 0.000000 
#    z 0.000000 0.000000 3.726460 
# 
# 
# High freq. dielectric constant tensor:
#      x y z
#    x 1.731390 0.000000 0.000000 
#    y 0.000000 1.752690 0.000000 
#    z 0.000000 0.000000 1.756310 
# 
# From -- ./inp_files/14995.got.cif
#   From: 2010.03.12/outbox.cif.g09.slc.cpg/sg59_8_cif.got.tgz:14995.got - 2010.04.16 16:29:54.
