data_PCOD8242117
_publ_section_title
;
Structure prediction by ZEFSAII (Michael W. Deem and Ramdas Pophale) SiO2 
 PCOD8242117
Probable space group: P M M N
;
_chemical_formula_sum "Si O2"
_cell_formula_units_Z 48
_cell_length_a 8.867007
_cell_length_b 18.110248
_cell_length_c 15.878110
_cell_angle_alpha 90.000000
_cell_angle_beta 90.000000
_cell_angle_gamma 90.000000
_cell_volume 2549.765586
_symmetry_space_group_name_H-M "P M M N"
_symmetry_group_IT_number 59
_space_group.IT_coordinate_system_code '2'
_symmetry_cell_setting 'orthorhombic'
loop_
_space_group_symop_operation_xyz
x,y,z
1/2-x,1/2-y,z
1/2+x,-y,-z
-x,1/2+y,-z
-x,-y,-z
1/2+x,1/2+y,-z
1/2-x,y,z
x,1/2-y,z
loop_
_atom_site_type_symbol
_atom_site_label
_atom_site_fract_x
_atom_site_fract_y
_atom_site_fract_z
Si Si1 0.573453 0.750000 0.218657
Si Si2 0.425753 0.976219 0.635891
Si Si3 0.081088 0.750000 0.391638
Si Si4 0.928613 0.666768 0.935611
Si Si5 0.429273 0.390100 0.883603
Si Si6 0.922033 0.403857 0.535865
Si Si7 0.928556 0.961340 0.812774
O O1 0.750000 0.750000 0.203551
O O2 0.536786 0.750000 0.316567
O O3 0.508773 0.824539 0.176428
O O4 0.250000 0.975501 0.658519
O O5 0.469938 0.921473 0.559740
O O6 0.518270 0.952098 0.717221
O O7 0.472667 0.057717 0.605481
O O8 0.250000 0.750000 0.352973
O O9 0.054793 0.817674 0.453553
O O10 0.750000 0.672648 0.937340
O O11 0.995572 0.750000 0.923864
O O12 0.983157 0.612721 0.860975
O O13 0.984078 0.630644 0.022846
O O14 0.250000 0.398727 0.877441
O O15 0.501825 0.466901 0.856316
O O16 0.750000 0.429692 0.551355
O O17 0.750000 0.969527 0.816006
#
# Coordination Sequence:
#
# PCOD8242117 Si02
#       7
#     4   8   4   8   8   8   8
#     4  10  20  32  52  81 108 138 176 221 266 318
#     4  10  20  36  56  78 106 142 181 219 262 317
#     4  10  20  34  52  77 106 136 168 211 270 324
#     4   9  18  36  58  78 106 146 185 224 268 316
#     4  10  19  35  58  80 106 141 183 225 270 319
#     4   9  19  36  57  78 105 140 176 219 271 321
#     4  11  22  34  54  83 111 141 181 225 269 319
#
# _framework density 18.82526
#
# number of rings (size 3 to 8) (size 9 to 14) (size 15 to 20)
#    0.000    2.167    0.833    2.500    0.000    4.667 
#    1.500    0.833    0.000    3.500    0.000    0.000 
#    0.000    0.000    0.000    0.000    0.000    0.000 
#
# Total GULP energy -595194.073152 kJ/mol
# GULP energy per Si atom -12399.876524 kJ/mol
# Density = 1.878241 g / cm^3
# Si number density = 18.825260 Si / 1000 Ang^3
#
#
#
# Elastic Constant Matrix: (Units=GPa)
#
#
# Indices 1 2 3 4 5 6 
#
# 1 41.4122 33.8560 28.9704 0.0000 0.0000 0.0000
# 2 33.8560 142.8944 81.2317 0.0000 0.0000 0.0000
# 3 28.9704 81.2317 135.1595 0.0000 0.0000 0.0000
# 4 0.0000 0.0000 0.0000 21.9024 0.0000 0.0000
# 5 0.0000 0.0000 0.0000 0.0000 20.3815 0.0000
# 6 0.0000 0.0000 0.0000 0.0000 0.0000 25.1277
#
#
#
# Elastic Compliance Matrix: (Units=1/GPa)
#
#
# Indices 1 2 3 4 5 6 
#
# 1 0.030933 -0.005407 -0.003380 0.000000 0.000000 0.000000
# 2 -0.005407 0.011575 -0.005798 0.000000 0.000000 0.000000
# 3 -0.003380 -0.005798 0.011608 0.000000 0.000000 0.000000
# 4 0.000000 0.000000 0.000000 0.045657 0.000000 0.000000
# 5 0.000000 0.000000 0.000000 0.000000 0.049064 0.000000
# 6 0.000000 0.000000 0.000000 0.000000 0.000000 0.039797
#
#
# Mechanical properties :
#
#
# Convention : Reuss Voigt Hill
#
# Bulk Modulus (GPa) = 40.08832 67.50914 53.79873
# Shear Modulus (GPa) = 22.11219 25.17619 23.64419
#
# Velocity S-wave (km/s) = 3.43097 3.66096 3.54783
# Velocity P-wave (km/s) = 6.08577 7.33546 6.73964
#
# Compressibility (1/GPa) = 0.02494492
#
# Stress axis : x y z
#
# Youngs Moduli (GPa) = 32.32802 86.39167 86.14954
#
# Poissons Ratio (x) = 0.46714 0.29122
# Poissons Ratio (y) = 0.17481 0.49947
# Poissons Ratio (z) = 0.10928 0.50088
#
# Static dielectric constant tensor:
#      x y z
#    x 3.293790 0.000000 0.000000 
#    y 0.000000 3.638430 0.000000 
#    z 0.000000 0.000000 3.505410 
# 
# 
# High freq. dielectric constant tensor:
#      x y z
#    x 1.711650 0.000000 0.000000 
#    y 0.000000 1.738880 0.000000 
#    z 0.000000 0.000000 1.737600 
# 
# From -- ./inp_files/20570.got.cif
#   From: 2010.03.12/outbox.cif.g09.slc.cpg/sg59_11_cif.got.tgz:20570.got - 2010.04.16 16:29:54.
