data_PCOD8242123
_publ_section_title
;
Structure prediction by ZEFSAII (Michael W. Deem and Ramdas Pophale) SiO2 
 PCOD8242123
Probable space group: P M M N
;
_chemical_formula_sum "Si O2"
_cell_formula_units_Z 56
_cell_length_a 15.993943
_cell_length_b 9.023042
_cell_length_c 19.494278
_cell_angle_alpha 90.000000
_cell_angle_beta 90.000000
_cell_angle_gamma 90.000000
_cell_volume 2813.297614
_symmetry_space_group_name_H-M "P M M N"
_symmetry_group_IT_number 59
_space_group.IT_coordinate_system_code '2'
_symmetry_cell_setting 'orthorhombic'
loop_
_space_group_symop_operation_xyz
x,y,z
1/2-x,1/2-y,z
1/2+x,-y,-z
-x,1/2+y,-z
-x,-y,-z
1/2+x,1/2+y,-z
1/2-x,y,z
x,1/2-y,z
loop_
_atom_site_type_symbol
_atom_site_label
_atom_site_fract_x
_atom_site_fract_y
_atom_site_fract_z
Si Si1 0.847147 0.421078 0.062463
Si Si2 0.341120 0.577461 0.656503
Si Si3 0.156917 0.079095 0.335817
Si Si4 0.593325 0.075225 0.791943
Si Si5 0.924765 0.078203 0.205688
Si Si6 0.849056 0.918036 0.927256
Si Si7 0.999361 0.573546 0.573444
O O1 0.750000 0.451059 0.074275
O O2 0.864564 0.250000 0.045965
O O3 0.893316 0.472494 0.131307
O O4 0.882150 0.517378 0.999376
O O5 0.250000 0.507639 0.636415
O O6 0.338533 0.750000 0.639976
O O7 0.353243 0.551553 0.737794
O O8 0.418888 0.510781 0.613558
O O9 0.250000 0.058197 0.368245
O O10 0.139997 0.250000 0.317331
O O11 0.085642 0.022090 0.388074
O O12 0.156023 0.988101 0.265034
O O13 0.601169 0.250000 0.793380
O O14 0.501102 0.023799 0.771193
O O15 0.613543 0.014207 0.866748
O O16 0.952762 0.250000 0.205542
O O17 0.750000 0.928208 0.924211
O O18 0.881226 0.750000 0.920319
O O19 0.001173 0.750000 0.566466
O O20 0.000000 0.500000 0.500000
#
# Coordination Sequence:
#
# PCOD8242123 Si02
#       7
#     8   8   8   8   8   8   8
#     4   9  18  33  55  83 111 142 187 244 297 344
#     4   9  17  33  60  89 115 149 194 238 282 337
#     4  10  21  40  64  87 115 156 200 238 286 348
#     4  12  24  36  55  83 115 148 191 247 298 341
#     4  10  19  35  58  82 112 149 191 237 289 350
#     4  10  21  37  56  77 107 150 194 237 291 355
#     4  10  21  38  60  89 123 156 191 233 280 339
#
# _framework density 19.905466000000001
#
# number of rings (size 3 to 8) (size 9 to 14) (size 15 to 20)
#    0.000    2.000    1.429    2.571    0.000    6.857 
#    0.000    0.000    0.000    2.143    0.000    0.000 
#    0.000    0.000    0.000    0.000    0.000    0.000 
#
# Total GULP energy -694359.510929 kJ/mol
# GULP energy per Si atom -12399.276981 kJ/mol
# Density = 1.986016 g / cm^3
# Si number density = 19.905466 Si / 1000 Ang^3
#
#
#
# Elastic Constant Matrix: (Units=GPa)
#
#
# Indices 1 2 3 4 5 6 
#
# 1 130.8523 34.4877 65.3171 0.0000 0.0000 0.0000
# 2 34.4877 73.0721 38.8353 0.0000 0.0000 0.0000
# 3 65.3171 38.8353 133.6452 0.0000 0.0000 0.0000
# 4 0.0000 0.0000 0.0000 34.5673 0.0000 0.0000
# 5 0.0000 0.0000 0.0000 0.0000 27.8539 0.0000
# 6 0.0000 0.0000 0.0000 0.0000 0.0000 14.0528
#
#
#
# Elastic Compliance Matrix: (Units=1/GPa)
#
#
# Indices 1 2 3 4 5 6 
#
# 1 0.010522 -0.002641 -0.004375 0.000000 0.000000 0.000000
# 2 -0.002641 0.016847 -0.003605 0.000000 0.000000 0.000000
# 3 -0.004375 -0.003605 0.010668 0.000000 0.000000 0.000000
# 4 0.000000 0.000000 0.000000 0.028929 0.000000 0.000000
# 5 0.000000 0.000000 0.000000 0.000000 0.035902 0.000000
# 6 0.000000 0.000000 0.000000 0.000000 0.000000 0.071160
#
#
# Mechanical properties :
#
#
# Convention : Reuss Voigt Hill
#
# Bulk Modulus (GPa) = 59.53796 68.31664 63.92730
# Shear Modulus (GPa) = 24.89178 28.55676 26.72427
#
# Velocity S-wave (km/s) = 3.54008 3.79175 3.66807
# Velocity P-wave (km/s) = 6.83263 7.31880 7.07989
#
# Compressibility (1/GPa) = 0.01679601
#
# Stress axis : x y z
#
# Youngs Moduli (GPa) = 95.03737 59.35625 93.73544
#
# Poissons Ratio (x) = 0.15675 0.41011
# Poissons Ratio (y) = 0.25098 0.33791
# Poissons Ratio (z) = 0.41580 0.21397
#
# Static dielectric constant tensor:
#      x y z
#    x 3.861560 0.000000 0.000000 
#    y 0.000000 3.425390 0.000000 
#    z 0.000000 0.000000 3.656040 
# 
# 
# High freq. dielectric constant tensor:
#      x y z
#    x 1.785680 0.000000 0.000000 
#    y 0.000000 1.747280 0.000000 
#    z 0.000000 0.000000 1.778240 
# 
# From -- ./inp_files/30297.got.cif
#   From: 2010.03.12/outbox.cif.g09.slc.cpg/sg59_16_cif.got.tgz:30297.got - 2010.04.16 16:29:54.
