data_PCOD8242749
_publ_section_title
;
Structure prediction by ZEFSAII (Michael W. Deem and Ramdas Pophale) SiO2 
 PCOD8242749
Probable space group: P M M N
;
_chemical_formula_sum "Si O2"
_cell_formula_units_Z 48
_cell_length_a 8.947014
_cell_length_b 17.978897
_cell_length_c 16.255506
_cell_angle_alpha 90.000000
_cell_angle_beta 90.000000
_cell_angle_gamma 90.000000
_cell_volume 2614.819132
_symmetry_space_group_name_H-M "P M M N"
_symmetry_group_IT_number 59
_space_group.IT_coordinate_system_code '2'
_symmetry_cell_setting 'orthorhombic'
loop_
_space_group_symop_operation_xyz
x,y,z
1/2-x,1/2-y,z
1/2+x,-y,-z
-x,1/2+y,-z
-x,-y,-z
1/2+x,1/2+y,-z
1/2-x,y,z
x,1/2-y,z
loop_
_atom_site_type_symbol
_atom_site_label
_atom_site_fract_x
_atom_site_fract_y
_atom_site_fract_z
Si Si1 0.077308 0.663085 0.017318
Si Si2 0.080653 0.549861 0.745255
Si Si3 0.925850 0.967341 0.419475
Si Si4 0.076760 0.664830 0.332183
Si Si5 0.922448 0.835399 0.849461
Si Si6 0.077751 0.394224 0.824919
O O1 0.250000 0.641136 0.023578
O O2 0.050581 0.750000 0.032392
O O3 0.018406 0.639345 0.928008
O O4 0.985376 0.618058 0.084569
O O5 0.250000 0.579404 0.748150
O O6 0.037548 0.524629 0.653617
O O7 0.059041 0.481091 0.806697
O O8 0.971133 0.616156 0.771130
O O9 0.750000 0.957581 0.432108
O O10 0.992545 0.886503 0.398361
O O11 0.000000 0.000000 0.500000
O O12 0.250000 0.642397 0.330469
O O13 0.054671 0.750000 0.359768
O O14 0.012125 0.654901 0.240712
O O15 0.750000 0.849193 0.869926
O O16 0.953899 0.750000 0.826821
O O17 0.250000 0.369637 0.820177
#
# Coordination Sequence:
#
# PCOD8242749 Si02
#       6
#     8   8   8   8   8   8
#     4  10  20  33  50  73 103 141 181 218 260 309
#     4   9  20  37  55  77 103 134 171 209 258 316
#     4  10  21  38  60  84 110 140 175 216 264 318
#     4  10  20  34  54  81 112 144 178 216 261 315
#     4  10  21  36  54  76 101 133 176 222 264 306
#     4  10  20  33  51  77 108 140 176 218 262 311
#
# _framework density 18.356909999999999
#
# number of rings (size 3 to 8) (size 9 to 14) (size 15 to 20)
#    0.000    2.167    0.000    4.000    0.000   10.000 
#    0.000    0.833    0.000    1.000    0.000    0.000 
#    0.000    0.000    0.000    0.000    0.000    0.000 
#
# Total GULP energy -595409.694191 kJ/mol
# GULP energy per Si atom -12404.368629 kJ/mol
# Density = 1.831513 g / cm^3
# Si number density = 18.356910 Si / 1000 Ang^3
#
#
#
# Elastic Constant Matrix: (Units=GPa)
#
#
# Indices 1 2 3 4 5 6 
#
# 1 123.9254 61.7758 62.3402 0.0000 0.0000 0.0000
# 2 61.7758 83.7053 63.7008 0.0000 0.0000 0.0000
# 3 62.3402 63.7008 109.8180 0.0000 0.0000 0.0000
# 4 0.0000 0.0000 0.0000 25.7093 0.0000 0.0000
# 5 0.0000 0.0000 0.0000 0.0000 36.6023 0.0000
# 6 0.0000 0.0000 0.0000 0.0000 0.0000 33.3582
#
#
#
# Elastic Compliance Matrix: (Units=1/GPa)
#
#
# Indices 1 2 3 4 5 6 
#
# 1 0.013422 -0.007353 -0.003354 0.000000 0.000000 0.000000
# 2 -0.007353 0.025417 -0.010569 0.000000 0.000000 0.000000
# 3 -0.003354 -0.010569 0.017140 0.000000 0.000000 0.000000
# 4 0.000000 0.000000 0.000000 0.038896 0.000000 0.000000
# 5 0.000000 0.000000 0.000000 0.000000 0.027321 0.000000
# 6 0.000000 0.000000 0.000000 0.000000 0.000000 0.029978
#
#
# Mechanical properties :
#
#
# Convention : Reuss Voigt Hill
#
# Bulk Modulus (GPa) = 74.47734 77.00914 75.74324
# Shear Modulus (GPa) = 25.10017 27.77607 26.43812
#
# Velocity S-wave (km/s) = 3.70177 3.89410 3.79915
# Velocity P-wave (km/s) = 7.67663 7.89055 7.78433
#
# Compressibility (1/GPa) = 0.01342690
#
# Stress axis : x y z
#
# Youngs Moduli (GPa) = 74.50369 39.34444 58.34167
#
# Poissons Ratio (x) = 0.28931 0.19568
# Poissons Ratio (y) = 0.54785 0.61660
# Poissons Ratio (z) = 0.24988 0.41582
#
# Static dielectric constant tensor:
#      x y z
#    x 3.506050 0.000000 0.000000 
#    y 0.000000 3.271690 0.000000 
#    z 0.000000 0.000000 3.243540 
# 
# 
# High freq. dielectric constant tensor:
#      x y z
#    x 1.728660 0.000000 0.000000 
#    y 0.000000 1.705720 0.000000 
#    z 0.000000 0.000000 1.701870 
# 
# From -- ./inp_files/20438.got.cif
#   From: 2010.03.12/outbox.cif.g09.slc.cpg/sg59_11_cif.got.tgz:20438.got - 2010.04.16 16:29:54.
