data_PCOD8242521
_publ_section_title
;
Structure prediction by ZEFSAII (Michael W. Deem and Ramdas Pophale) SiO2 
 PCOD8242521
Probable space group: P M M N
;
_chemical_formula_sum "Si O2"
_cell_formula_units_Z 64
_cell_length_a 19.836778
_cell_length_b 8.964726
_cell_length_c 19.278511
_cell_angle_alpha 90.000000
_cell_angle_beta 90.000000
_cell_angle_gamma 90.000000
_cell_volume 3428.322278
_symmetry_space_group_name_H-M "P M M N"
_symmetry_group_IT_number 59
_space_group.IT_coordinate_system_code '2'
_symmetry_cell_setting 'orthorhombic'
loop_
_space_group_symop_operation_xyz
x,y,z
1/2-x,1/2-y,z
1/2+x,-y,-z
-x,1/2+y,-z
-x,-y,-z
1/2+x,1/2+y,-z
1/2-x,y,z
x,1/2-y,z
loop_
_atom_site_type_symbol
_atom_site_label
_atom_site_fract_x
_atom_site_fract_y
_atom_site_fract_z
Si Si1 0.321933 0.582505 0.089717
Si Si2 0.529622 0.070316 0.931485
Si Si3 0.939942 0.577283 0.684428
Si Si4 0.041634 0.573488 0.799559
Si Si5 0.565035 0.927509 0.530493
Si Si6 0.326346 0.074847 0.579811
Si Si7 0.323928 0.913013 0.253093
Si Si8 0.173714 0.575344 0.723032
O O1 0.250000 0.507023 0.063665
O O2 0.322478 0.750000 0.060080
O O3 0.392984 0.507181 0.068495
O O4 0.319807 0.583785 0.171471
O O5 0.527597 0.250000 0.931828
O O6 0.485906 0.014076 0.866216
O O7 0.500000 0.000000 0.000000
O O8 0.951535 0.750000 0.675028
O O9 0.932694 0.505576 0.608304
O O10 0.870236 0.547124 0.722817
O O11 0.001034 0.515319 0.731595
O O12 0.030966 0.750000 0.812096
O O13 0.120628 0.535318 0.784614
O O14 0.560182 0.750000 0.529809
O O15 0.628873 0.981167 0.484900
O O16 0.500000 0.000000 0.500000
O O17 0.250000 0.027972 0.562371
O O18 0.333702 0.250000 0.590640
O O19 0.350024 0.000560 0.651623
O O20 0.250000 0.938546 0.285307
O O21 0.352048 0.750000 0.276455
O O22 0.250000 0.524442 0.744384
O O23 0.171653 0.750000 0.708689
#
# Coordination Sequence:
#
# PCOD8242521 Si02
#       8
#     8   8   8   8   8   8   8   8
#     4   8  15  31  55  79 103 135 174 210 245 293
#     4  11  22  37  59  84 111 143 176 215 264 315
#     4  10  20  32  49  74 105 138 174 218 269 318
#     4  10  20  35  54  78 108 137 172 219 266 318
#     4  10  21  35  50  72 102 139 178 220 269 320
#     4   9  18  33  52  74 103 140 181 223 268 320
#     4   9  17  31  51  75 102 131 170 215 252 298
#     4   9  18  34  57  81 104 136 179 224 268 314
#
# _framework density 18.668023999999999
#
# number of rings (size 3 to 8) (size 9 to 14) (size 15 to 20)
#    0.000    2.500    1.250    1.875    0.000    3.250 
#    0.000    1.875    0.000    6.750    0.000    0.000 
#    0.000    0.000    0.000    0.000    0.000    0.000 
#
# Total GULP energy -792873.707734 kJ/mol
# GULP energy per Si atom -12388.651683 kJ/mol
# Density = 1.862554 g / cm^3
# Si number density = 18.668024 Si / 1000 Ang^3
#
#
#
# Elastic Constant Matrix: (Units=GPa)
#
#
# Indices 1 2 3 4 5 6 
#
# 1 155.1912 31.0586 79.1433 0.0000 0.0000 0.0000
# 2 31.0586 23.8525 31.6169 0.0000 0.0000 0.0000
# 3 79.1433 31.6169 105.7186 0.0000 0.0000 0.0000
# 4 0.0000 0.0000 0.0000 26.1530 0.0000 0.0000
# 5 0.0000 0.0000 0.0000 0.0000 27.1406 0.0000
# 6 0.0000 0.0000 0.0000 0.0000 0.0000 26.2009
#
#
#
# Elastic Compliance Matrix: (Units=1/GPa)
#
#
# Indices 1 2 3 4 5 6 
#
# 1 0.010852 -0.005570 -0.006458 0.000000 0.000000 0.000000
# 2 -0.005570 0.072318 -0.017458 0.000000 0.000000 0.000000
# 3 -0.006458 -0.017458 0.019515 0.000000 0.000000 0.000000
# 4 0.000000 0.000000 0.000000 0.038237 0.000000 0.000000
# 5 0.000000 0.000000 0.000000 0.000000 0.036845 0.000000
# 6 0.000000 0.000000 0.000000 0.000000 0.000000 0.038167
#
#
# Mechanical properties :
#
#
# Convention : Reuss Voigt Hill
#
# Bulk Modulus (GPa) = 22.87682 63.15555 43.01619
# Shear Modulus (GPa) = 17.27255 25.42845 21.35050
#
# Velocity S-wave (km/s) = 3.04509 3.69472 3.38552
# Velocity P-wave (km/s) = 4.96433 7.21842 6.19476
#
# Compressibility (1/GPa) = 0.04371237
#
# Stress axis : x y z
#
# Youngs Moduli (GPa) = 92.15005 13.82780 51.24271
#
# Poissons Ratio (x) = 0.07702 0.33093
# Poissons Ratio (y) = 0.51327 0.89461
# Poissons Ratio (z) = 0.59512 0.24141
#
# Static dielectric constant tensor:
#      x y z
#    x 3.454500 0.000000 0.000000 
#    y 0.000000 3.248450 0.000000 
#    z 0.000000 0.000000 3.317390 
# 
# 
# High freq. dielectric constant tensor:
#      x y z
#    x 1.743430 0.000000 0.000000 
#    y 0.000000 1.698860 0.000000 
#    z 0.000000 0.000000 1.709050 
# 
# From -- ./inp_files/28269.got.cif
#   From: 2010.03.12/outbox.cif.g09.slc.cpg/sg59_15_cif.got.tgz:28269.got - 2010.04.16 16:29:54.
