data_PCOD8242629
_publ_section_title
;
Structure prediction by ZEFSAII (Michael W. Deem and Ramdas Pophale) SiO2 
 PCOD8242629
Probable space group: P M M N
;
_chemical_formula_sum "Si O2"
_cell_formula_units_Z 40
_cell_length_a 18.549214
_cell_length_b 9.426020
_cell_length_c 12.933161
_cell_angle_alpha 90.000000
_cell_angle_beta 90.000000
_cell_angle_gamma 90.000000
_cell_volume 2261.301925
_symmetry_space_group_name_H-M "P M M N"
_symmetry_group_IT_number 59
_space_group.IT_coordinate_system_code '2'
_symmetry_cell_setting 'orthorhombic'
loop_
_space_group_symop_operation_xyz
x,y,z
1/2-x,1/2-y,z
1/2+x,-y,-z
-x,1/2+y,-z
-x,-y,-z
1/2+x,1/2+y,-z
1/2-x,y,z
x,1/2-y,z
loop_
_atom_site_type_symbol
_atom_site_label
_atom_site_fract_x
_atom_site_fract_y
_atom_site_fract_z
Si Si1 0.833211 0.413425 0.808534
Si Si2 0.169841 0.918609 0.804305
Si Si3 0.926389 0.083188 0.008022
Si Si4 0.164134 0.591788 0.576463
Si Si5 0.164107 0.409683 0.387182
O O1 0.750000 0.447053 0.833005
O O2 0.843090 0.250000 0.776660
O O3 0.862922 0.507937 0.714328
O O4 0.878007 0.453280 0.909371
O O5 0.250000 0.981588 0.824494
O O6 0.174913 0.750000 0.809716
O O7 0.115291 0.975327 0.891030
O O8 0.141125 0.964020 0.690451
O O9 0.942110 0.250000 0.016336
O O10 0.000000 0.000000 0.000000
O O11 0.250000 0.597378 0.571506
O O12 0.133424 0.750000 0.556231
O O13 0.132780 0.486579 0.489376
O O14 0.250000 0.410848 0.390751
O O15 0.133709 0.250000 0.384068
#
# Coordination Sequence:
#
# PCOD8242629 Si02
#       5
#     8   8   8   8   8
#     4   9  17  30  49  70  91 120 159 195 223 261
#     4   8  14  27  49  73  93 118 156 195 226 264
#     4  10  20  33  49  69  94 123 154 191 234 277
#     4   8  13  23  42  67  92 117 147 184 224 267
#     4   9  16  25  40  66  98 124 145 179 230 278
#
# _framework density 17.688925000000001
#
# number of rings (size 3 to 8) (size 9 to 14) (size 15 to 20)
#    0.000    3.200    0.000    2.400    0.000    5.600 
#    0.000    1.000    0.000    4.200    0.000    0.000 
#    0.000    0.000    0.000    0.000    0.000    0.000 
#
# Total GULP energy -495842.938131 kJ/mol
# GULP energy per Si atom -12396.073453 kJ/mol
# Density = 1.764866 g / cm^3
# Si number density = 17.688925 Si / 1000 Ang^3
#
#
#
# Elastic Constant Matrix: (Units=GPa)
#
#
# Indices 1 2 3 4 5 6 
#
# 1 60.8055 35.4670 57.8468 0.0000 0.0000 0.0000
# 2 35.4670 83.5042 80.8364 0.0000 0.0000 0.0000
# 3 57.8468 80.8364 184.7984 0.0000 0.0000 0.0000
# 4 0.0000 0.0000 0.0000 16.8652 0.0000 0.0000
# 5 0.0000 0.0000 0.0000 0.0000 1.7466 0.0000
# 6 0.0000 0.0000 0.0000 0.0000 0.0000 20.2484
#
#
#
# Elastic Compliance Matrix: (Units=1/GPa)
#
#
# Indices 1 2 3 4 5 6 
#
# 1 0.024659 -0.005206 -0.005442 0.000000 0.000000 0.000000
# 2 -0.005206 0.021870 -0.007937 0.000000 0.000000 0.000000
# 3 -0.005442 -0.007937 0.010587 0.000000 0.000000 0.000000
# 4 0.000000 0.000000 0.000000 0.059294 0.000000 0.000000
# 5 0.000000 0.000000 0.000000 0.000000 0.572534 0.000000
# 6 0.000000 0.000000 0.000000 0.000000 0.000000 0.049387
#
#
# Mechanical properties :
#
#
# Convention : Reuss Voigt Hill
#
# Bulk Modulus (GPa) = 50.13337 75.26762 62.70050
# Shear Modulus (GPa) = 6.39265 18.10257 12.24761
#
# Velocity S-wave (km/s) = 1.90310 3.20251 2.63418
# Velocity P-wave (km/s) = 5.76474 7.50452 6.69141
#
# Compressibility (1/GPa) = 0.01994679
#
# Stress axis : x y z
#
# Youngs Moduli (GPa) = 40.55250 45.72489 94.45803
#
# Poissons Ratio (x) = 0.23802 0.51404
# Poissons Ratio (y) = 0.21110 0.74972
# Poissons Ratio (z) = 0.22069 0.36292
#
# Static dielectric constant tensor:
#      x y z
#    x 2.818670 0.000000 0.000000 
#    y 0.000000 3.184040 0.000000 
#    z 0.000000 0.000000 3.673530 
# 
# 
# High freq. dielectric constant tensor:
#      x y z
#    x 1.633540 0.000000 0.000000 
#    y 0.000000 1.660650 0.000000 
#    z 0.000000 0.000000 1.704220 
# 
# From -- ./inp_files/13866.got.cif
#   From: 2010.03.12/outbox.cif.g09.slc.cpg/sg59_7_cif.got.tgz:13866.got - 2010.04.16 16:29:54.
