data_PCOD8242734
_publ_section_title
;
Structure prediction by ZEFSAII (Michael W. Deem and Ramdas Pophale) SiO2 
 PCOD8242734
Probable space group: P M M N
;
_chemical_formula_sum "Si O2"
_cell_formula_units_Z 48
_cell_length_a 9.305278
_cell_length_b 8.953531
_cell_length_c 31.038770
_cell_angle_alpha 90.000000
_cell_angle_beta 90.000000
_cell_angle_gamma 90.000000
_cell_volume 2585.998072
_symmetry_space_group_name_H-M "P M M N"
_symmetry_group_IT_number 59
_space_group.IT_coordinate_system_code '2'
_symmetry_cell_setting 'orthorhombic'
loop_
_space_group_symop_operation_xyz
x,y,z
1/2-x,1/2-y,z
1/2+x,-y,-z
-x,1/2+y,-z
-x,-y,-z
1/2+x,1/2+y,-z
1/2-x,y,z
x,1/2-y,z
loop_
_atom_site_type_symbol
_atom_site_label
_atom_site_fract_x
_atom_site_fract_y
_atom_site_fract_z
Si Si1 0.084014 0.924770 0.626702
Si Si2 0.418489 0.076389 0.038832
Si Si3 0.079895 0.921366 0.296570
Si Si4 0.078948 0.081587 0.210237
Si Si5 0.082021 0.422912 0.538577
Si Si6 0.921032 0.081570 0.874482
O O1 0.250000 0.961945 0.635978
O O2 0.056842 0.750000 0.621555
O O3 0.031211 0.003593 0.583130
O O4 0.990309 0.985778 0.665464
O O5 0.250000 0.048107 0.032746
O O6 0.456505 0.250000 0.040002
O O7 0.474924 0.004121 0.083127
O O8 0.500000 0.000000 0.000000
O O9 0.250000 0.936550 0.300806
O O10 0.030165 0.750000 0.298925
O O11 0.024969 0.989517 0.251537
O O12 0.250000 0.083409 0.208599
O O13 0.018524 0.250000 0.212746
O O14 0.017003 0.002549 0.167463
O O15 0.250000 0.448798 0.531188
O O16 0.040664 0.250000 0.540109
O O17 0.000000 0.500000 0.500000
O O18 0.750000 0.082252 0.872711
O O19 0.981360 0.250000 0.875273
#
# Coordination Sequence:
#
# PCOD8242734 Si02
#       6
#     8   8   8   8   8   8
#     4  10  21  37  56  77 103 137 174 210 251 301
#     4  10  20  33  50  73 100 131 168 208 251 301
#     4  10  20  33  51  77 106 135 169 209 252 297
#     4   9  16  27  45  70 100 131 164 206 252 295
#     4  10  21  37  57  80 105 135 171 210 253 300
#     4   9  16  27  45  69  97 129 165 205 249 298
#
# _framework density 18.561499999999999
#
# number of rings (size 3 to 8) (size 9 to 14) (size 15 to 20)
#    0.000    2.333    0.000    3.000    0.000    8.667 
#    0.000    0.000    0.000    1.000    0.000    0.000 
#    0.000    0.000    0.000    0.000    0.000    0.000 
#
# Total GULP energy -595320.542926 kJ/mol
# GULP energy per Si atom -12402.511311 kJ/mol
# Density = 1.851925 g / cm^3
# Si number density = 18.561500 Si / 1000 Ang^3
#
#
#
# Elastic Constant Matrix: (Units=GPa)
#
#
# Indices 1 2 3 4 5 6 
#
# 1 21.4709 31.3083 38.1336 0.0000 0.0000 0.0000
# 2 31.3083 139.7548 80.5828 0.0000 0.0000 0.0000
# 3 38.1336 80.5828 181.8963 0.0000 0.0000 0.0000
# 4 0.0000 0.0000 0.0000 46.7240 0.0000 0.0000
# 5 0.0000 0.0000 0.0000 0.0000 25.3334 0.0000
# 6 0.0000 0.0000 0.0000 0.0000 0.0000 23.7567
#
#
#
# Elastic Compliance Matrix: (Units=1/GPa)
#
#
# Indices 1 2 3 4 5 6 
#
# 1 0.087111 -0.012067 -0.012916 0.000000 0.000000 0.000000
# 2 -0.012067 0.011282 -0.002468 0.000000 0.000000 0.000000
# 3 -0.012916 -0.002468 0.009299 0.000000 0.000000 0.000000
# 4 0.000000 0.000000 0.000000 0.021402 0.000000 0.000000
# 5 0.000000 0.000000 0.000000 0.000000 0.039474 0.000000
# 6 0.000000 0.000000 0.000000 0.000000 0.000000 0.042093
#
#
# Mechanical properties :
#
#
# Convention : Reuss Voigt Hill
#
# Bulk Modulus (GPa) = 18.94366 71.46351 45.20359
# Shear Modulus (GPa) = 17.65781 32.03599 24.84690
#
# Velocity S-wave (km/s) = 3.08768 4.15895 3.66269
# Velocity P-wave (km/s) = 4.78955 7.85156 6.50334
#
# Compressibility (1/GPa) = 0.05278810
#
# Stress axis : x y z
#
# Youngs Moduli (GPa) = 11.47961 88.63740 107.53904
#
# Poissons Ratio (x) = 1.06961 1.38902
# Poissons Ratio (y) = 0.13853 0.26543
# Poissons Ratio (z) = 0.14828 0.21878
#
# Static dielectric constant tensor:
#      x y z
#    x 3.268090 0.000000 0.000000 
#    y 0.000000 2.331520 0.000000 
#    z 0.000000 0.000000 3.598200 
# 
# 
# High freq. dielectric constant tensor:
#      x y z
#    x 1.671040 0.000000 0.000000 
#    y 0.000000 1.743130 0.000000 
#    z 0.000000 0.000000 1.739150 
# 
# From -- ./inp_files/31240.got.cif
#   From: 2010.03.12/outbox.cif.g09.slc.cpg/sg59_16_cif.got.tgz:31240.got - 2010.04.16 16:29:54.
