data_PCOD8242098
_publ_section_title
;
Structure prediction by ZEFSAII (Michael W. Deem and Ramdas Pophale) SiO2 
 PCOD8242098
Probable space group: P M M N
;
_chemical_formula_sum "Si O2"
_cell_formula_units_Z 64
_cell_length_a 9.264508
_cell_length_b 30.648655
_cell_length_c 11.942263
_cell_angle_alpha 90.000000
_cell_angle_beta 90.000000
_cell_angle_gamma 90.000000
_cell_volume 3390.942398
_symmetry_space_group_name_H-M "P M M N"
_symmetry_group_IT_number 59
_space_group.IT_coordinate_system_code '2'
_symmetry_cell_setting 'orthorhombic'
loop_
_space_group_symop_operation_xyz
x,y,z
1/2-x,1/2-y,z
1/2+x,-y,-z
-x,1/2+y,-z
-x,-y,-z
1/2+x,1/2+y,-z
1/2-x,y,z
x,1/2-y,z
loop_
_atom_site_type_symbol
_atom_site_label
_atom_site_fract_x
_atom_site_fract_y
_atom_site_fract_z
Si Si1 0.078760 0.870149 0.875392
Si Si2 0.916288 0.460673 0.742015
Si Si3 0.417243 0.300580 0.264990
Si Si4 0.079433 0.167636 0.509321
Si Si5 0.581985 0.453818 0.263941
Si Si6 0.578710 0.376060 0.871647
Si Si7 0.916368 0.298882 0.715179
Si Si8 0.584830 0.078898 0.506485
O O1 0.250000 0.864872 0.870104
O O2 0.026775 0.912207 0.805743
O O3 0.009865 0.826874 0.824622
O O4 0.020976 0.875265 0.001782
O O5 0.750000 0.467812 0.772949
O O6 0.980023 0.419192 0.809224
O O7 0.937372 0.453794 0.609556
O O8 0.000772 0.503575 0.780791
O O9 0.250000 0.311980 0.247618
O O10 0.448977 0.250000 0.244706
O O11 0.466565 0.313445 0.389484
O O12 0.250000 0.167967 0.526016
O O13 0.008365 0.198281 0.602263
O O14 0.021809 0.118932 0.522998
O O15 0.750000 0.461556 0.243785
O O16 0.544626 0.446688 0.393956
O O17 0.750000 0.376643 0.870528
O O18 0.523047 0.332989 0.806825
O O19 0.750000 0.309635 0.686386
O O20 0.932312 0.250000 0.764198
O O21 0.750000 0.096171 0.502009
#
# Coordination Sequence:
#
# PCOD8242098 Si02
#       8
#     8   8   8   8   8   8   8   8
#     4  10  21  38  60  83 109 145 190 237 275 315
#     4  10  20  35  57  80 110 149 183 222 277 337
#     4  10  22  39  57  81 115 149 180 223 279 334
#     4  11  21  34  57  85 115 146 179 225 279 334
#     4  10  21  35  54  83 116 142 179 233 277 323
#     4   9  19  37  58  82 111 144 189 236 274 318
#     4  10  20  36  59  83 111 148 185 224 274 331
#     4  10  19  35  57  81 111 146 183 227 278 332
#
# _framework density 18.873809000000001
#
# number of rings (size 3 to 8) (size 9 to 14) (size 15 to 20)
#    0.000    2.000    2.500    1.125    0.000    4.000 
#    0.000    2.500    0.000    0.000    0.000    0.000 
#    0.000    0.000    0.000    0.000    0.000    0.000 
#
# Total GULP energy -793808.213602 kJ/mol
# GULP energy per Si atom -12403.253338 kJ/mol
# Density = 1.883085 g / cm^3
# Si number density = 18.873809 Si / 1000 Ang^3
#
#
#
# Elastic Constant Matrix: (Units=GPa)
#
#
# Indices 1 2 3 4 5 6 
#
# 1 39.7895 34.1655 26.0901 0.0000 0.0000 0.0000
# 2 34.1655 126.5330 46.0092 0.0000 0.0000 0.0000
# 3 26.0901 46.0092 121.0909 0.0000 0.0000 0.0000
# 4 0.0000 0.0000 0.0000 15.9110 0.0000 0.0000
# 5 0.0000 0.0000 0.0000 0.0000 16.0085 0.0000
# 6 0.0000 0.0000 0.0000 0.0000 0.0000 32.1501
#
#
#
# Elastic Compliance Matrix: (Units=1/GPa)
#
#
# Indices 1 2 3 4 5 6 
#
# 1 0.034753 -0.007729 -0.004551 0.000000 0.000000 0.000000
# 2 -0.007729 0.010889 -0.002472 0.000000 0.000000 0.000000
# 3 -0.004551 -0.002472 0.010178 0.000000 0.000000 0.000000
# 4 0.000000 0.000000 0.000000 0.062850 0.000000 0.000000
# 5 0.000000 0.000000 0.000000 0.000000 0.062467 0.000000
# 6 0.000000 0.000000 0.000000 0.000000 0.000000 0.031104
#
#
# Mechanical properties :
#
#
# Convention : Reuss Voigt Hill
#
# Bulk Modulus (GPa) = 38.00011 55.54923 46.77467
# Shear Modulus (GPa) = 19.95878 24.89050 22.42464
#
# Velocity S-wave (km/s) = 3.25543 3.63545 3.45067
# Velocity P-wave (km/s) = 5.85729 6.86424 6.38066
#
# Compressibility (1/GPa) = 0.02631571
#
# Stress axis : x y z
#
# Youngs Moduli (GPa) = 28.77456 91.83729 98.25000
#
# Poissons Ratio (x) = 0.70979 0.44716
# Poissons Ratio (y) = 0.22239 0.24288
# Poissons Ratio (z) = 0.13096 0.22702
#
# Static dielectric constant tensor:
#      x y z
#    x 3.245880 0.000000 0.000000 
#    y 0.000000 3.458460 0.000000 
#    z 0.000000 0.000000 3.591500 
# 
# 
# High freq. dielectric constant tensor:
#      x y z
#    x 1.711280 0.000000 0.000000 
#    y 0.000000 1.742730 0.000000 
#    z 0.000000 0.000000 1.733610 
# 
# From -- ./inp_files/14969.got.cif
#   From: 2010.03.12/outbox.cif.g09.slc.cpg/sg59_8_cif.got.tgz:14969.got - 2010.04.16 16:29:54.
