data_PCOD8242389
_publ_section_title
;
Structure prediction by ZEFSAII (Michael W. Deem and Ramdas Pophale) SiO2 
 PCOD8242389
Probable space group: P M M N
;
_chemical_formula_sum "Si O2"
_cell_formula_units_Z 56
_cell_length_a 9.259707
_cell_length_b 19.104903
_cell_length_c 18.084124
_cell_angle_alpha 90.000000
_cell_angle_beta 90.000000
_cell_angle_gamma 90.000000
_cell_volume 3199.186497
_symmetry_space_group_name_H-M "P M M N"
_symmetry_group_IT_number 59
_space_group.IT_coordinate_system_code '2'
_symmetry_cell_setting 'orthorhombic'
loop_
_space_group_symop_operation_xyz
x,y,z
1/2-x,1/2-y,z
1/2+x,-y,-z
-x,1/2+y,-z
-x,-y,-z
1/2+x,1/2+y,-z
1/2-x,y,z
x,1/2-y,z
loop_
_atom_site_type_symbol
_atom_site_label
_atom_site_fract_x
_atom_site_fract_y
_atom_site_fract_z
Si Si1 0.413284 0.585073 0.152595
Si Si2 0.083428 0.571390 0.989426
Si Si3 0.912268 0.166618 0.584480
Si Si4 0.588998 0.666713 0.553709
Si Si5 0.918108 0.668468 0.271978
Si Si6 0.578177 0.827949 0.715909
Si Si7 0.418544 0.079092 0.149291
O O1 0.250000 0.598873 0.180702
O O2 0.526102 0.627927 0.200545
O O3 0.449748 0.502948 0.159108
O O4 0.428356 0.612158 0.067628
O O5 0.250000 0.556601 0.969788
O O6 0.006402 0.610914 0.920932
O O7 0.000000 0.500000 0.000000
O O8 0.750000 0.137124 0.589320
O O9 0.913046 0.250000 0.582154
O O10 0.985601 0.136158 0.510135
O O11 0.000268 0.139870 0.655569
O O12 0.750000 0.635981 0.541631
O O13 0.596383 0.750000 0.548869
O O14 0.526470 0.645707 0.634682
O O15 0.750000 0.653503 0.282966
O O16 0.949933 0.750000 0.259609
O O17 0.750000 0.825368 0.714435
O O18 0.517636 0.750000 0.732832
O O19 0.522404 0.881333 0.778123
O O20 0.250000 0.093720 0.135553
#
# Coordination Sequence:
#
# PCOD8242389 Si02
#       7
#     8   8   8   8   8   8   8
#     4   9  18  31  47  67  91 120 151 185 228 273
#     4   9  17  30  48  69  91 118 154 191 226 266
#     4   9  16  26  42  64  90 119 148 181 225 272
#     4   8  13  23  41  64  89 118 153 188 218 254
#     4  10  20  32  47  68  91 115 148 190 231 272
#     4   8  14  26  46  71  97 125 155 187 224 264
#     4   9  17  30  49  72  96 122 154 189 224 266
#
# _framework density 17.504449999999999
#
# number of rings (size 3 to 8) (size 9 to 14) (size 15 to 20)
#    0.000    3.143    0.000    3.000    0.000    5.429 
#    0.000    1.429    0.000    4.714    0.000    0.000 
#    0.000    0.000    0.000    0.000    0.000    0.000 
#
# Total GULP energy -694052.547136 kJ/mol
# GULP energy per Si atom -12393.795485 kJ/mol
# Density = 1.746461 g / cm^3
# Si number density = 17.504450 Si / 1000 Ang^3
#
#
#
# Elastic Constant Matrix: (Units=GPa)
#
#
# Indices 1 2 3 4 5 6 
#
# 1 101.4746 28.3052 77.8601 0.0000 0.0000 0.0000
# 2 28.3052 32.0002 41.5601 0.0000 0.0000 0.0000
# 3 77.8601 41.5601 165.5131 0.0000 0.0000 0.0000
# 4 0.0000 0.0000 0.0000 9.1738 0.0000 0.0000
# 5 0.0000 0.0000 0.0000 0.0000 33.2629 0.0000
# 6 0.0000 0.0000 0.0000 0.0000 0.0000 15.7985
#
#
#
# Elastic Compliance Matrix: (Units=1/GPa)
#
#
# Indices 1 2 3 4 5 6 
#
# 1 0.016315 -0.006623 -0.006012 0.000000 0.000000 0.000000
# 2 -0.006623 0.049062 -0.009204 0.000000 0.000000 0.000000
# 3 -0.006012 -0.009204 0.011181 0.000000 0.000000 0.000000
# 4 0.000000 0.000000 0.000000 0.109006 0.000000 0.000000
# 5 0.000000 0.000000 0.000000 0.000000 0.030063 0.000000
# 6 0.000000 0.000000 0.000000 0.000000 0.000000 0.063297
#
#
# Mechanical properties :
#
#
# Convention : Reuss Voigt Hill
#
# Bulk Modulus (GPa) = 30.41362 66.04874 48.23118
# Shear Modulus (GPa) = 14.98978 21.73121 18.36049
#
# Velocity S-wave (km/s) = 2.92950 3.52727 3.24219
# Velocity P-wave (km/s) = 5.37170 7.37586 6.45207
#
# Compressibility (1/GPa) = 0.03288001
#
# Stress axis : x y z
#
# Youngs Moduli (GPa) = 61.29373 20.38257 89.43912
#
# Poissons Ratio (x) = 0.13500 0.53768
# Poissons Ratio (y) = 0.40597 0.82315
# Poissons Ratio (z) = 0.36848 0.18759
#
# Static dielectric constant tensor:
#      x y z
#    x 3.298360 0.000000 0.000000 
#    y 0.000000 2.827040 0.000000 
#    z 0.000000 0.000000 3.850720 
# 
# 
# High freq. dielectric constant tensor:
#      x y z
#    x 1.668420 0.000000 0.000000 
#    y 0.000000 1.616770 0.000000 
#    z 0.000000 0.000000 1.696180 
# 
# From -- ./inp_files/26016.got.cif
#   From: 2010.03.12/outbox.cif.g09.slc.cpg/sg59_14_cif.got.tgz:26016.got - 2010.04.16 16:29:54.
