data_PCOD8242410
_publ_section_title
;
Structure prediction by ZEFSAII (Michael W. Deem and Ramdas Pophale) SiO2 
 PCOD8242410
Probable space group: P M M N
;
_chemical_formula_sum "Si O2"
_cell_formula_units_Z 64
_cell_length_a 9.269415
_cell_length_b 17.413668
_cell_length_c 23.013903
_cell_angle_alpha 90.000000
_cell_angle_beta 90.000000
_cell_angle_gamma 90.000000
_cell_volume 3714.777999
_symmetry_space_group_name_H-M "P M M N"
_symmetry_group_IT_number 59
_space_group.IT_coordinate_system_code '2'
_symmetry_cell_setting 'orthorhombic'
loop_
_space_group_symop_operation_xyz
x,y,z
1/2-x,1/2-y,z
1/2+x,-y,-z
-x,1/2+y,-z
-x,-y,-z
1/2+x,1/2+y,-z
1/2-x,y,z
x,1/2-y,z
loop_
_atom_site_type_symbol
_atom_site_label
_atom_site_fract_x
_atom_site_fract_y
_atom_site_fract_z
Si Si1 0.584594 0.161264 0.951995
Si Si2 0.081446 0.439359 0.460768
Si Si3 0.583877 0.115916 0.077625
Si Si4 0.081088 0.481749 0.631055
Si Si5 0.417971 0.971073 0.759220
Si Si6 0.417717 0.165606 0.561656
Si Si7 0.586872 0.951035 0.123981
Si Si8 0.083674 0.336986 0.189408
O O1 0.750000 0.136007 0.951577
O O2 0.562647 0.250000 0.938925
O O3 0.508427 0.117426 0.899870
O O4 0.519911 0.140595 0.015244
O O5 0.250000 0.459307 0.454984
O O6 0.059262 0.357891 0.493668
O O7 0.000000 0.500000 0.500000
O O8 0.005083 0.446208 0.397818
O O9 0.750000 0.142807 0.084814
O O10 0.490507 0.157275 0.126642
O O11 0.570799 0.024391 0.082305
O O12 0.250000 0.491488 0.616490
O O13 0.050224 0.484853 0.699450
O O14 0.021567 0.400153 0.605596
O O15 0.250000 0.949304 0.766131
O O16 0.507257 0.892055 0.763477
O O17 0.465923 0.027571 0.811131
O O18 0.250000 0.172796 0.575217
O O19 0.490201 0.250000 0.571866
O O20 0.750000 0.921326 0.125690
O O21 0.250000 0.361386 0.183143
O O22 0.069232 0.250000 0.212352
#
# Coordination Sequence:
#
# PCOD8242410 Si02
#       8
#     8   8   8   8   8   8   8   8
#     4  10  20  32  47  69  96 126 158 192 238 296
#     4   9  16  27  46  70  96 126 156 186 226 276
#     4   9  18  33  52  71  92 121 156 193 240 299
#     4   9  17  31  51  72  94 122 161 203 235 274
#     4   9  19  35  52  70  94 127 165 199 237 288
#     4   8  14  26  46  72  98 123 153 191 233 271
#     4   9  18  32  49  69  92 121 159 200 241 286
#     4  10  20  32  48  73  99 121 153 198 243 287
#
# _framework density 17.228486
#
# number of rings (size 3 to 8) (size 9 to 14) (size 15 to 20)
#    0.000    2.875    0.000    3.000    0.000    4.750 
#    0.000    1.250    0.000   13.875    0.000    0.000 
#    0.000    0.000    0.000    0.000    0.000    0.000 
#
# Total GULP energy -793264.818877 kJ/mol
# GULP energy per Si atom -12394.762795 kJ/mol
# Density = 1.718927 g / cm^3
# Si number density = 17.228486 Si / 1000 Ang^3
#
#
#
# Elastic Constant Matrix: (Units=GPa)
#
#
# Indices 1 2 3 4 5 6 
#
# 1 62.4290 39.5670 39.7360 0.0000 0.0000 0.0000
# 2 39.5670 91.0082 57.2459 0.0000 0.0000 0.0000
# 3 39.7360 57.2459 105.4063 0.0000 0.0000 0.0000
# 4 0.0000 0.0000 0.0000 18.5717 0.0000 0.0000
# 5 0.0000 0.0000 0.0000 0.0000 25.6224 0.0000
# 6 0.0000 0.0000 0.0000 0.0000 0.0000 24.7086
#
#
#
# Elastic Compliance Matrix: (Units=1/GPa)
#
#
# Indices 1 2 3 4 5 6 
#
# 1 0.023781 -0.007139 -0.005088 0.000000 0.000000 0.000000
# 2 -0.007139 0.018832 -0.007537 0.000000 0.000000 0.000000
# 3 -0.005088 -0.007537 0.015498 0.000000 0.000000 0.000000
# 4 0.000000 0.000000 0.000000 0.053845 0.000000 0.000000
# 5 0.000000 0.000000 0.000000 0.000000 0.039028 0.000000
# 6 0.000000 0.000000 0.000000 0.000000 0.000000 0.040472
#
#
# Mechanical properties :
#
#
# Convention : Reuss Voigt Hill
#
# Bulk Modulus (GPa) = 53.80654 59.10458 56.45556
# Shear Modulus (GPa) = 21.08112 21.93352 21.50732
#
# Velocity S-wave (km/s) = 3.50182 3.57192 3.53704
# Velocity P-wave (km/s) = 6.90285 7.16884 7.03710
#
# Compressibility (1/GPa) = 0.01858510
#
# Stress axis : x y z
#
# Youngs Moduli (GPa) = 42.05008 53.10006 64.52316
#
# Poissons Ratio (x) = 0.37907 0.32829
# Poissons Ratio (y) = 0.30018 0.48629
# Poissons Ratio (z) = 0.21395 0.40020
#
# Static dielectric constant tensor:
#      x y z
#    x 3.236400 0.000000 0.000000 
#    y 0.000000 3.278330 0.000000 
#    z 0.000000 0.000000 3.504440 
# 
# 
# High freq. dielectric constant tensor:
#      x y z
#    x 1.653210 0.000000 0.000000 
#    y 0.000000 1.653930 0.000000 
#    z 0.000000 0.000000 1.656720 
# 
# From -- ./inp_files/31761.got.cif
#   From: 2010.03.12/outbox.cif.g09.slc.cpg/sg59_16_cif.got.tgz:31761.got - 2010.04.16 16:29:54.
