data_PCOD8242030
_publ_section_title
;
Structure prediction by ZEFSAII (Michael W. Deem and Ramdas Pophale) SiO2 
 PCOD8242030
Probable space group: P M M N
;
_chemical_formula_sum "Si O2"
_cell_formula_units_Z 48
_cell_length_a 23.260603
_cell_length_b 8.723056
_cell_length_c 12.682471
_cell_angle_alpha 90.000000
_cell_angle_beta 90.000000
_cell_angle_gamma 90.000000
_cell_volume 2573.318294
_symmetry_space_group_name_H-M "P M M N"
_symmetry_group_IT_number 59
_space_group.IT_coordinate_system_code '2'
_symmetry_cell_setting 'orthorhombic'
loop_
_space_group_symop_operation_xyz
x,y,z
1/2-x,1/2-y,z
1/2+x,-y,-z
-x,1/2+y,-z
-x,-y,-z
1/2+x,1/2+y,-z
1/2-x,y,z
x,1/2-y,z
loop_
_atom_site_type_symbol
_atom_site_label
_atom_site_fract_x
_atom_site_fract_y
_atom_site_fract_z
Si Si1 0.813630 0.931418 0.116926
Si Si2 0.817058 0.927441 0.879304
Si Si3 0.184129 0.426768 0.495628
Si Si4 0.391638 0.431150 0.695380
Si Si5 0.120453 0.572000 0.309822
Si Si6 0.995707 0.930125 0.615541
O O1 0.750000 0.000092 0.139588
O O2 0.809556 0.750000 0.128993
O O3 0.859234 0.996267 0.201129
O O4 0.833398 0.973867 0.998847
O O5 0.750000 0.958317 0.858242
O O6 0.831467 0.750000 0.857216
O O7 0.855182 0.034062 0.805156
O O8 0.250000 0.454750 0.527116
O O9 0.173026 0.250000 0.465667
O O10 0.145472 0.477346 0.593768
O O11 0.168607 0.530041 0.395714
O O12 0.400786 0.250000 0.701838
O O13 0.453110 0.511657 0.689866
O O14 0.105203 0.750000 0.317066
O O15 0.063491 0.474654 0.329504
O O16 0.999220 0.750000 0.603017
O O17 0.000000 0.000000 0.500000
#
# Coordination Sequence:
#
# PCOD8242030 Si02
#       6
#     8   8   8   8   8   8
#     4   8  15  31  58  89 117 148 186 226 272 331
#     4   9  18  35  59  85 115 151 189 229 276 330
#     4  10  20  33  53  82 115 148 180 221 278 340
#     4  10  19  34  58  86 115 146 185 229 275 333
#     4  12  24  37  55  80 111 148 191 236 281 330
#     4  12  24  40  59  80 109 148 190 232 282 338
#
# _framework density 18.652958999999999
#
# number of rings (size 3 to 8) (size 9 to 14) (size 15 to 20)
#    0.000    1.833    1.667    5.000    0.000    4.667 
#    0.000    1.667    0.000    2.500    0.000    0.000 
#    0.000    0.000    0.000    0.000    0.000    0.000 
#
# Total GULP energy -595332.974195 kJ/mol
# GULP energy per Si atom -12402.770296 kJ/mol
# Density = 1.861050 g / cm^3
# Si number density = 18.652959 Si / 1000 Ang^3
#
#
#
# Elastic Constant Matrix: (Units=GPa)
#
#
# Indices 1 2 3 4 5 6 
#
# 1 93.8885 21.6138 48.1106 0.0000 0.0000 0.0000
# 2 21.6138 61.6002 31.8386 0.0000 0.0000 0.0000
# 3 48.1106 31.8386 120.3475 0.0000 0.0000 0.0000
# 4 0.0000 0.0000 0.0000 18.0009 0.0000 0.0000
# 5 0.0000 0.0000 0.0000 0.0000 28.4826 0.0000
# 6 0.0000 0.0000 0.0000 0.0000 0.0000 28.4022
#
#
#
# Elastic Compliance Matrix: (Units=1/GPa)
#
#
# Indices 1 2 3 4 5 6 
#
# 1 0.013667 -0.002284 -0.004859 0.000000 0.000000 0.000000
# 2 -0.002284 0.019187 -0.004163 0.000000 0.000000 0.000000
# 3 -0.004859 -0.004163 0.011353 0.000000 0.000000 0.000000
# 4 0.000000 0.000000 0.000000 0.055553 0.000000 0.000000
# 5 0.000000 0.000000 0.000000 0.000000 0.035109 0.000000
# 6 0.000000 0.000000 0.000000 0.000000 0.000000 0.035209
#
#
# Mechanical properties :
#
#
# Convention : Reuss Voigt Hill
#
# Bulk Modulus (GPa) = 46.30792 53.21802 49.76297
# Shear Modulus (GPa) = 25.01409 26.59533 25.80471
#
# Velocity S-wave (km/s) = 3.66597 3.78007 3.72346
# Velocity P-wave (km/s) = 6.54210 6.90250 6.72471
#
# Compressibility (1/GPa) = 0.02159458
#
# Stress axis : x y z
#
# Youngs Moduli (GPa) = 73.17075 52.11947 88.08108
#
# Poissons Ratio (x) = 0.11903 0.42801
# Poissons Ratio (y) = 0.16710 0.36668
# Poissons Ratio (z) = 0.35556 0.21697
#
# Static dielectric constant tensor:
#      x y z
#    x 3.652750 0.000000 0.000000 
#    y 0.000000 3.211750 0.000000 
#    z 0.000000 0.000000 3.564000 
# 
# 
# High freq. dielectric constant tensor:
#      x y z
#    x 1.727820 0.000000 0.000000 
#    y 0.000000 1.702290 0.000000 
#    z 0.000000 0.000000 1.726780 
# 
# From -- ./inp_files/14361.got.cif
#   From: 2010.03.12/outbox.cif.g09.slc.cpg/sg59_8_cif.got.tgz:14361.got - 2010.04.16 16:29:54.
