data_PCOD8242908
_publ_section_title
;
Structure prediction by ZEFSAII (Michael W. Deem and Ramdas Pophale) SiO2 
 PCOD8242908
Probable space group: P M M N
;
_chemical_formula_sum "Si O2"
_cell_formula_units_Z 64
_cell_length_a 9.134778
_cell_length_b 19.065953
_cell_length_c 20.313695
_cell_angle_alpha 90.000000
_cell_angle_beta 90.000000
_cell_angle_gamma 90.000000
_cell_volume 3537.899100
_symmetry_space_group_name_H-M "P M M N"
_symmetry_group_IT_number 59
_space_group.IT_coordinate_system_code '2'
_symmetry_cell_setting 'orthorhombic'
loop_
_space_group_symop_operation_xyz
x,y,z
1/2-x,1/2-y,z
1/2+x,-y,-z
-x,1/2+y,-z
-x,-y,-z
1/2+x,1/2+y,-z
1/2-x,y,z
x,1/2-y,z
loop_
_atom_site_type_symbol
_atom_site_label
_atom_site_fract_x
_atom_site_fract_y
_atom_site_fract_z
Si Si1 0.924704 0.074906 0.996437
Si Si2 0.423675 0.827939 0.886362
Si Si3 0.419404 0.169333 0.892796
Si Si4 0.084650 0.421212 0.362465
Si Si5 0.919311 0.927139 0.492628
Si Si6 0.077092 0.671621 0.740220
Si Si7 0.916537 0.831006 0.259786
Si Si8 0.079730 0.914963 0.367950
O O1 0.750000 0.066522 0.994795
O O2 0.975889 0.117310 0.932412
O O3 0.982184 0.116946 0.060430
O O4 0.000000 0.000000 0.000000
O O5 0.250000 0.825668 0.888605
O O6 0.484374 0.750000 0.902947
O O7 0.476487 0.850785 0.813376
O O8 0.250000 0.153999 0.909631
O O9 0.457915 0.250000 0.909917
O O10 0.450346 0.154430 0.816379
O O11 0.250000 0.410016 0.338299
O O12 0.065019 0.389132 0.436304
O O13 0.044295 0.503054 0.360847
O O14 0.979343 0.382184 0.313094
O O15 0.750000 0.940043 0.475560
O O16 0.994904 0.884623 0.432602
O O17 0.000000 0.000000 0.500000
O O18 0.250000 0.670215 0.737545
O O19 0.019651 0.750000 0.724486
O O20 0.750000 0.852449 0.276184
O O21 0.942478 0.750000 0.276682
O O22 0.026739 0.876657 0.302569
O O23 0.250000 0.900433 0.378384
#
# Coordination Sequence:
#
# PCOD8242908 Si02
#       8
#     8   8   8   8   8   8   8   8
#     4  11  22  35  53  78 108 139 172 214 261 307
#     4   8  16  33  54  73  95 128 170 209 246 296
#     4   9  19  37  58  78 103 136 174 215 259 312
#     4   9  19  33  49  73 103 132 164 204 252 305
#     4   9  17  31  50  72 100 135 173 212 255 306
#     4   9  18  33  53  75  97 125 166 211 249 292
#     4   9  19  36  56  77 103 137 174 211 257 314
#     4  10  20  33  51  77 105 133 171 217 258 302
#
# _framework density 18.089832999999999
#
# number of rings (size 3 to 8) (size 9 to 14) (size 15 to 20)
#    0.000    2.750    0.000    3.750    0.000    5.750 
#    0.000    6.875    0.000    2.250    0.000    0.000 
#    0.000    0.000    0.000    0.000    0.000    0.000 
#
# Total GULP energy -793348.791902 kJ/mol
# GULP energy per Si atom -12396.074873 kJ/mol
# Density = 1.804866 g / cm^3
# Si number density = 18.089833 Si / 1000 Ang^3
#
#
#
# Elastic Constant Matrix: (Units=GPa)
#
#
# Indices 1 2 3 4 5 6 
#
# 1 82.0691 46.0129 58.2279 0.0000 0.0000 0.0000
# 2 46.0129 83.5909 65.6522 0.0000 0.0000 0.0000
# 3 58.2279 65.6522 126.2105 0.0000 0.0000 0.0000
# 4 0.0000 0.0000 0.0000 1.0247 0.0000 0.0000
# 5 0.0000 0.0000 0.0000 0.0000 33.7812 0.0000
# 6 0.0000 0.0000 0.0000 0.0000 0.0000 29.4566
#
#
#
# Elastic Compliance Matrix: (Units=1/GPa)
#
#
# Indices 1 2 3 4 5 6 
#
# 1 0.019919 -0.006335 -0.005894 0.000000 0.000000 0.000000
# 2 -0.006335 0.022241 -0.008647 0.000000 0.000000 0.000000
# 3 -0.005894 -0.008647 0.015141 0.000000 0.000000 0.000000
# 4 0.000000 0.000000 0.000000 0.975910 0.000000 0.000000
# 5 0.000000 0.000000 0.000000 0.000000 0.029602 0.000000
# 6 0.000000 0.000000 0.000000 0.000000 0.000000 0.033948
#
#
# Mechanical properties :
#
#
# Convention : Reuss Voigt Hill
#
# Bulk Modulus (GPa) = 64.31525 70.18404 67.24965
# Shear Modulus (GPa) = 4.37179 20.98433 12.67806
#
# Velocity S-wave (km/s) = 1.55626 3.40958 2.65021
# Velocity P-wave (km/s) = 6.23376 7.37442 6.82795
#
# Compressibility (1/GPa) = 0.01554841
#
# Stress axis : x y z
#
# Youngs Moduli (GPa) = 50.20449 44.96143 66.04793
#
# Poissons Ratio (x) = 0.28483 0.38930
# Poissons Ratio (y) = 0.31804 0.57111
# Poissons Ratio (z) = 0.29592 0.38877
#
# Static dielectric constant tensor:
#      x y z
#    x 3.244870 0.000000 0.000000 
#    y 0.000000 2.646030 0.000000 
#    z 0.000000 0.000000 3.762310 
# 
# 
# High freq. dielectric constant tensor:
#      x y z
#    x 1.693040 0.000000 0.000000 
#    y 0.000000 1.680430 0.000000 
#    z 0.000000 0.000000 1.715280 
# 
# From -- ./inp_files/29411.got.cif
#   From: 2010.03.12/outbox.cif.g09.slc.cpg/sg59_15_cif.got.tgz:29411.got - 2010.04.16 16:29:54.
