data_PCOD8242486
_publ_section_title
;
Structure prediction by ZEFSAII (Michael W. Deem and Ramdas Pophale) SiO2 
 PCOD8242486
Probable space group: P M M N
;
_chemical_formula_sum "Si O2"
_cell_formula_units_Z 40
_cell_length_a 17.946352
_cell_length_b 9.066944
_cell_length_c 13.680470
_cell_angle_alpha 90.000000
_cell_angle_beta 90.000000
_cell_angle_gamma 90.000000
_cell_volume 2226.066496
_symmetry_space_group_name_H-M "P M M N"
_symmetry_group_IT_number 59
_space_group.IT_coordinate_system_code '2'
_symmetry_cell_setting 'orthorhombic'
loop_
_space_group_symop_operation_xyz
x,y,z
1/2-x,1/2-y,z
1/2+x,-y,-z
-x,1/2+y,-z
-x,-y,-z
1/2+x,1/2+y,-z
1/2-x,y,z
x,1/2-y,z
loop_
_atom_site_type_symbol
_atom_site_label
_atom_site_fract_x
_atom_site_fract_y
_atom_site_fract_z
Si Si1 0.166037 0.924200 0.090138
Si Si2 0.611105 0.077276 0.120216
Si Si3 0.165086 0.080129 0.693255
Si Si4 0.045127 0.418429 0.206115
Si Si5 0.466267 0.576690 0.593809
O O1 0.250000 0.982833 0.103898
O O2 0.163379 0.750000 0.094064
O O3 0.115920 0.984096 0.178079
O O4 0.134640 0.979988 0.986266
O O5 0.628738 0.250000 0.135729
O O6 0.523569 0.045513 0.134145
O O7 0.658752 0.987153 0.198595
O O8 0.250000 0.065911 0.657374
O O9 0.139308 0.250000 0.696088
O O10 0.114480 0.991553 0.616459
O O11 0.069490 0.250000 0.195741
O O12 0.021842 0.455636 0.316592
O O13 0.500000 0.500000 0.500000
O O14 0.456368 0.750000 0.575894
#
# Coordination Sequence:
#
# PCOD8242486 Si02
#       5
#     8   8   8   8   8
#     4  10  20  32  48  73 105 141 177 210 248 298
#     4   9  18  33  52  74 103 138 174 212 255 303
#     4  10  20  33  52  81 111 136 168 212 259 307
#     4   9  19  34  52  75 100 130 169 210 255 306
#     4  10  21  38  59  80 102 132 171 214 264 317
#
# _framework density 17.968914999999999
#
# number of rings (size 3 to 8) (size 9 to 14) (size 15 to 20)
#    0.000    2.400    0.000    3.600    0.000    7.600 
#    0.000    1.000    0.000    1.200    0.000    0.000 
#    0.000    0.000    0.000    0.000    0.000    0.000 
#
# Total GULP energy -496096.730343 kJ/mol
# GULP energy per Si atom -12402.418259 kJ/mol
# Density = 1.792802 g / cm^3
# Si number density = 17.968915 Si / 1000 Ang^3
#
#
#
# Elastic Constant Matrix: (Units=GPa)
#
#
# Indices 1 2 3 4 5 6 
#
# 1 125.7344 56.6950 69.2131 0.0000 0.0000 0.0000
# 2 56.6950 83.7170 51.4288 0.0000 0.0000 0.0000
# 3 69.2131 51.4288 96.3502 0.0000 0.0000 0.0000
# 4 0.0000 0.0000 0.0000 33.5343 0.0000 0.0000
# 5 0.0000 0.0000 0.0000 0.0000 20.6722 0.0000
# 6 0.0000 0.0000 0.0000 0.0000 0.0000 33.0638
#
#
#
# Elastic Compliance Matrix: (Units=1/GPa)
#
#
# Indices 1 2 3 4 5 6 
#
# 1 0.014476 -0.005081 -0.007686 0.000000 0.000000 0.000000
# 2 -0.005081 0.019557 -0.006788 0.000000 0.000000 0.000000
# 3 -0.007686 -0.006788 0.019524 0.000000 0.000000 0.000000
# 4 0.000000 0.000000 0.000000 0.029820 0.000000 0.000000
# 5 0.000000 0.000000 0.000000 0.000000 0.048374 0.000000
# 6 0.000000 0.000000 0.000000 0.000000 0.000000 0.030245
#
#
# Mechanical properties :
#
#
# Convention : Reuss Voigt Hill
#
# Bulk Modulus (GPa) = 69.23477 73.38614 71.31045
# Shear Modulus (GPa) = 24.28110 26.01835 25.14973
#
# Velocity S-wave (km/s) = 3.67997 3.80934 3.74521
# Velocity P-wave (km/s) = 7.52796 7.76385 7.64681
#
# Compressibility (1/GPa) = 0.01444361
#
# Stress axis : x y z
#
# Youngs Moduli (GPa) = 69.08191 51.13389 51.21984
#
# Poissons Ratio (x) = 0.25983 0.39369
# Poissons Ratio (y) = 0.35103 0.34770
# Poissons Ratio (z) = 0.53098 0.34712
#
# Static dielectric constant tensor:
#      x y z
#    x 3.327130 0.000000 0.000000 
#    y 0.000000 3.321890 0.000000 
#    z 0.000000 0.000000 3.224050 
# 
# 
# High freq. dielectric constant tensor:
#      x y z
#    x 1.696870 0.000000 0.000000 
#    y 0.000000 1.698840 0.000000 
#    z 0.000000 0.000000 1.682600 
# 
# From -- ./inp_files/13876.got.cif
#   From: 2010.03.12/outbox.cif.g09.slc.cpg/sg59_7_cif.got.tgz:13876.got - 2010.04.16 16:29:54.
