data_PCOD8242174
_publ_section_title
;
Structure prediction by ZEFSAII (Michael W. Deem and Ramdas Pophale) SiO2 
 PCOD8242174
Probable space group: P M M N
;
_chemical_formula_sum "Si O2"
_cell_formula_units_Z 64
_cell_length_a 8.908985
_cell_length_b 30.310009
_cell_length_c 11.939010
_cell_angle_alpha 90.000000
_cell_angle_beta 90.000000
_cell_angle_gamma 90.000000
_cell_volume 3223.907770
_symmetry_space_group_name_H-M "P M M N"
_symmetry_group_IT_number 59
_space_group.IT_coordinate_system_code '2'
_symmetry_cell_setting 'orthorhombic'
loop_
_space_group_symop_operation_xyz
x,y,z
1/2-x,1/2-y,z
1/2+x,-y,-z
-x,1/2+y,-z
-x,-y,-z
1/2+x,1/2+y,-z
1/2-x,y,z
x,1/2-y,z
loop_
_atom_site_type_symbol
_atom_site_label
_atom_site_fract_x
_atom_site_fract_y
_atom_site_fract_z
Si Si1 0.573469 0.874490 0.855844
Si Si2 0.074501 0.447223 0.734545
Si Si3 0.578597 0.299576 0.286399
Si Si4 0.079214 0.172730 0.501820
Si Si5 0.575276 0.454220 0.269731
Si Si6 0.072240 0.368359 0.886786
Si Si7 0.926442 0.301197 0.729628
Si Si8 0.421272 0.070634 0.489040
O O1 0.750000 0.873300 0.838921
O O2 0.507757 0.831653 0.796539
O O3 0.515286 0.919877 0.804361
O O4 0.525392 0.873332 0.984721
O O5 0.250000 0.438374 0.722923
O O6 0.041560 0.496721 0.777725
O O7 0.009663 0.411848 0.822644
O O8 0.006693 0.439286 0.610717
O O9 0.750000 0.315431 0.295572
O O10 0.567536 0.250000 0.237999
O O11 0.508543 0.298871 0.410259
O O12 0.250000 0.189516 0.509862
O O13 0.072781 0.122358 0.462558
O O14 0.003400 0.177794 0.621669
O O15 0.750000 0.442497 0.263777
O O16 0.523586 0.453997 0.398626
O O17 0.250000 0.362768 0.872535
O O18 0.990929 0.325167 0.839180
O O19 0.750000 0.308888 0.721016
O O20 0.967669 0.250000 0.739588
O O21 0.250000 0.053345 0.480088
#
# Coordination Sequence:
#
# PCOD8242174 Si02
#       8
#     8   8   8   8   8   8   8   8
#     4  11  24  41  62  86 116 156 201 250 297 348
#     4   9  19  38  61  87 118 154 193 241 296 349
#     4  11  24  41  62  88 120 156 194 243 300 355
#     4  11  21  36  63  92 121 158 196 239 291 350
#     4  11  22  36  60  89 121 157 193 239 297 356
#     4  10  22  43  65  84 113 156 206 252 293 345
#     4  11  24  40  60  90 126 158 192 241 299 355
#     4  10  19  35  60  87 120 155 192 239 292 350
#
# _framework density 19.851683999999999
#
# number of rings (size 3 to 8) (size 9 to 14) (size 15 to 20)
#    0.000    1.500    2.500    2.625    0.000    6.000 
#    0.000    4.375    0.000    0.000    0.000    0.000 
#    0.000    0.000    0.000    0.000    0.000    0.000 
#
# Total GULP energy -793852.255161 kJ/mol
# GULP energy per Si atom -12403.941487 kJ/mol
# Density = 1.980650 g / cm^3
# Si number density = 19.851684 Si / 1000 Ang^3
#
#
#
# Elastic Constant Matrix: (Units=GPa)
#
#
# Indices 1 2 3 4 5 6 
#
# 1 73.0193 23.4016 39.5851 0.0000 0.0000 0.0000
# 2 23.4016 78.0636 28.8897 0.0000 0.0000 0.0000
# 3 39.5851 28.8897 114.5812 0.0000 0.0000 0.0000
# 4 0.0000 0.0000 0.0000 14.8193 0.0000 0.0000
# 5 0.0000 0.0000 0.0000 0.0000 21.3895 0.0000
# 6 0.0000 0.0000 0.0000 0.0000 0.0000 24.3137
#
#
#
# Elastic Compliance Matrix: (Units=1/GPa)
#
#
# Indices 1 2 3 4 5 6 
#
# 1 0.017606 -0.003338 -0.005241 0.000000 0.000000 0.000000
# 2 -0.003338 0.014761 -0.002569 0.000000 0.000000 0.000000
# 3 -0.005241 -0.002569 0.011186 0.000000 0.000000 0.000000
# 4 0.000000 0.000000 0.000000 0.067480 0.000000 0.000000
# 5 0.000000 0.000000 0.000000 0.000000 0.046752 0.000000
# 6 0.000000 0.000000 0.000000 0.000000 0.000000 0.041129
#
#
# Mechanical properties :
#
#
# Convention : Reuss Voigt Hill
#
# Bulk Modulus (GPa) = 47.04169 49.93523 48.48846
# Shear Modulus (GPa) = 21.90150 23.69033 22.79591
#
# Velocity S-wave (km/s) = 3.32513 3.45826 3.39235
# Velocity P-wave (km/s) = 6.20403 6.41520 6.31050
#
# Compressibility (1/GPa) = 0.02125774
#
# Stress axis : x y z
#
# Youngs Moduli (GPa) = 56.79875 67.74432 89.40070
#
# Poissons Ratio (x) = 0.22616 0.46853
# Poissons Ratio (y) = 0.18962 0.22963
# Poissons Ratio (z) = 0.29767 0.17400
#
# Static dielectric constant tensor:
#      x y z
#    x 3.569380 0.000000 0.000000 
#    y 0.000000 3.703270 0.000000 
#    z 0.000000 0.000000 3.646910 
# 
# 
# High freq. dielectric constant tensor:
#      x y z
#    x 1.768400 0.000000 0.000000 
#    y 0.000000 1.787080 0.000000 
#    z 0.000000 0.000000 1.772280 
# 
# From -- ./inp_files/14966.got.cif
#   From: 2010.03.12/outbox.cif.g09.slc.cpg/sg59_8_cif.got.tgz:14966.got - 2010.04.16 16:29:54.
