data_PCOD8242215
_publ_section_title
;
Structure prediction by ZEFSAII (Michael W. Deem and Ramdas Pophale) SiO2 
 PCOD8242215
Probable space group: P M M N
;
_chemical_formula_sum "Si O2"
_cell_formula_units_Z 48
_cell_length_a 9.547022
_cell_length_b 9.229310
_cell_length_c 29.130360
_cell_angle_alpha 90.000000
_cell_angle_beta 90.000000
_cell_angle_gamma 90.000000
_cell_volume 2566.746679
_symmetry_space_group_name_H-M "P M M N"
_symmetry_group_IT_number 59
_space_group.IT_coordinate_system_code '2'
_symmetry_cell_setting 'orthorhombic'
loop_
_space_group_symop_operation_xyz
x,y,z
1/2-x,1/2-y,z
1/2+x,-y,-z
-x,1/2+y,-z
-x,-y,-z
1/2+x,1/2+y,-z
1/2-x,y,z
x,1/2-y,z
loop_
_atom_site_type_symbol
_atom_site_label
_atom_site_fract_x
_atom_site_fract_y
_atom_site_fract_z
Si Si1 0.250000 0.580234 0.953560
Si Si2 0.911389 0.087130 0.204265
Si Si3 0.086660 0.081049 0.370423
Si Si4 0.011928 0.081392 0.104813
Si Si5 0.089137 0.078954 0.705267
Si Si6 0.750000 0.079308 0.944271
Si Si7 0.413170 0.580213 0.538933
O O1 0.250000 0.750000 0.960283
O O2 0.379070 0.529916 0.923559
O O3 0.250000 0.509178 0.004462
O O4 0.750000 0.073895 0.190174
O O5 0.944267 0.250000 0.221730
O O6 0.999047 0.050855 0.158959
O O7 0.951633 0.975039 0.244056
O O8 0.250000 0.038200 0.378531
O O9 0.074215 0.250000 0.358683
O O10 0.992628 0.041128 0.414253
O O11 0.021909 0.991066 0.328964
O O12 0.048741 0.250000 0.096328
O O13 0.122502 0.973095 0.085308
O O14 0.250000 0.033000 0.693436
O O15 0.071797 0.250000 0.703263
O O16 0.750000 0.250000 0.947643
O O17 0.500000 0.500000 0.500000
O O18 0.250000 0.528347 0.541005
O O19 0.419545 0.750000 0.528653
#
# Coordination Sequence:
#
# PCOD8242215 Si02
#       7
#     4   8   8   8   8   4   8
#     4   9  18  35  59  81 105 137 183 231 270 319
#     4   9  17  33  59  84 103 134 183 232 274 322
#     4  10  21  38  59  83 112 149 194 238 277 326
#     4  10  19  36  59  80 104 140 184 227 269 324
#     4  10  21  36  56  83 113 143 177 224 282 339
#     4  11  23  35  49  79 117 147 173 217 276 329
#     4  10  21  37  59  87 118 154 195 239 286 332
#
# _framework density 18.700717000000001
#
# number of rings (size 3 to 8) (size 9 to 14) (size 15 to 20)
#    0.000    2.167    0.833    2.250    0.000    4.333 
#    1.500    1.250    0.000    0.000    0.000    0.000 
#    0.000    0.000    0.000    0.000    0.000    0.000 
#
# Total GULP energy -595047.794851 kJ/mol
# GULP energy per Si atom -12396.829059 kJ/mol
# Density = 1.865815 g / cm^3
# Si number density = 18.700717 Si / 1000 Ang^3
#
#
#
# Elastic Constant Matrix: (Units=GPa)
#
#
# Indices 1 2 3 4 5 6 
#
# 1 140.0111 49.8294 73.1771 0.0000 0.0000 0.0000
# 2 49.8294 57.4002 53.3788 0.0000 0.0000 0.0000
# 3 73.1771 53.3788 129.5470 0.0000 0.0000 0.0000
# 4 0.0000 0.0000 0.0000 33.4495 0.0000 0.0000
# 5 0.0000 0.0000 0.0000 0.0000 24.8900 0.0000
# 6 0.0000 0.0000 0.0000 0.0000 0.0000 32.1549
#
#
#
# Elastic Compliance Matrix: (Units=1/GPa)
#
#
# Indices 1 2 3 4 5 6 
#
# 1 0.011397 -0.006334 -0.003828 0.000000 0.000000 0.000000
# 2 -0.006334 0.031764 -0.009510 0.000000 0.000000 0.000000
# 3 -0.003828 -0.009510 0.013800 0.000000 0.000000 0.000000
# 4 0.000000 0.000000 0.000000 0.029896 0.000000 0.000000
# 5 0.000000 0.000000 0.000000 0.000000 0.040177 0.000000
# 6 0.000000 0.000000 0.000000 0.000000 0.000000 0.031099
#
#
# Mechanical properties :
#
#
# Convention : Reuss Voigt Hill
#
# Bulk Modulus (GPa) = 56.76403 75.52545 66.14474
# Shear Modulus (GPa) = 24.58803 28.13707 26.36255
#
# Velocity S-wave (km/s) = 3.62997 3.88312 3.75868
# Velocity P-wave (km/s) = 6.92739 7.78325 7.36776
#
# Compressibility (1/GPa) = 0.01761679
#
# Stress axis : x y z
#
# Youngs Moduli (GPa) = 87.73959 31.48198 72.46305
#
# Poissons Ratio (x) = 0.19941 0.27739
# Poissons Ratio (y) = 0.55576 0.68914
# Poissons Ratio (z) = 0.33587 0.29940
#
# Static dielectric constant tensor:
#      x y z
#    x 3.439970 0.000000 0.000000 
#    y 0.000000 3.285320 0.000000 
#    z 0.000000 0.000000 3.565500 
# 
# 
# High freq. dielectric constant tensor:
#      x y z
#    x 1.728490 0.000000 0.000000 
#    y 0.000000 1.712180 0.000000 
#    z 0.000000 0.000000 1.738550 
# 
# From -- ./inp_files/32935.got.cif
#   From: 2010.03.12/outbox.cif.g09.slc.cpg/sg59_17_cif.got.tgz:32935.got - 2010.04.16 16:29:54.
