data_PCOD8242188
_publ_section_title
;
Structure prediction by ZEFSAII (Michael W. Deem and Ramdas Pophale) SiO2 
 PCOD8242188
Probable space group: P M M N
;
_chemical_formula_sum "Si O2"
_cell_formula_units_Z 64
_cell_length_a 8.740277
_cell_length_b 28.771356
_cell_length_c 12.617543
_cell_angle_alpha 90.000000
_cell_angle_beta 90.000000
_cell_angle_gamma 90.000000
_cell_volume 3172.928757
_symmetry_space_group_name_H-M "P M M N"
_symmetry_group_IT_number 59
_space_group.IT_coordinate_system_code '2'
_symmetry_cell_setting 'orthorhombic'
loop_
_space_group_symop_operation_xyz
x,y,z
1/2-x,1/2-y,z
1/2+x,-y,-z
-x,1/2+y,-z
-x,-y,-z
1/2+x,1/2+y,-z
1/2-x,y,z
x,1/2-y,z
loop_
_atom_site_type_symbol
_atom_site_label
_atom_site_fract_x
_atom_site_fract_y
_atom_site_fract_z
Si Si1 0.429489 0.479809 0.106230
Si Si2 0.930396 0.131073 0.390779
Si Si3 0.432407 0.376788 0.165986
Si Si4 0.072445 0.304336 0.561725
Si Si5 0.570459 0.652431 0.214443
Si Si6 0.571558 0.438780 0.737925
Si Si7 0.429558 0.049642 0.517147
Si Si8 0.430647 0.198885 0.999821
O O1 0.250000 0.478518 0.088101
O O2 0.491363 0.428340 0.133668
O O3 0.473323 0.513673 0.203248
O O4 0.500000 0.500000 0.000000
O O5 0.750000 0.125862 0.387669
O O6 0.994092 0.141022 0.274424
O O7 0.974822 0.173047 0.468256
O O8 0.003443 0.083091 0.428537
O O9 0.250000 0.376668 0.176873
O O10 0.494440 0.340639 0.078224
O O11 0.250000 0.315575 0.541268
O O12 0.039037 0.250000 0.561393
O O13 0.020653 0.324575 0.674822
O O14 0.750000 0.640750 0.211497
O O15 0.475046 0.605427 0.191287
O O16 0.524621 0.687521 0.121035
O O17 0.750000 0.438079 0.708773
O O18 0.470983 0.432145 0.632995
O O19 0.250000 0.047437 0.501463
O O20 0.500000 0.000000 0.500000
O O21 0.250000 0.200178 0.012185
O O22 0.498454 0.250000 0.027687
#
# Coordination Sequence:
#
# PCOD8242188 Si02
#       8
#     8   8   8   8   8   8   8   8
#     4  10  22  38  58  86 120 160 204 251 305 365
#     4  12  25  41  61  88 124 165 209 258 311 369
#     4  10  21  39  61  85 120 163 207 257 309 367
#     4  10  21  38  62  91 123 162 207 256 313 375
#     4  10  19  35  61  91 122 157 200 255 313 372
#     4  11  22  36  56  86 123 161 201 249 303 365
#     4  12  24  40  62  89 120 158 203 251 307 369
#     4   9  18  34  60  92 119 150 201 261 316 372
#
# _framework density 20.170639000000001
#
# number of rings (size 3 to 8) (size 9 to 14) (size 15 to 20)
#    0.000    1.500    1.250    4.500    0.000    5.750 
#    0.000    1.875    0.000    1.875    0.000    0.000 
#    0.000    0.000    0.000    0.000    0.000    0.000 
#
# Total GULP energy -793815.138454 kJ/mol
# GULP energy per Si atom -12403.361538 kJ/mol
# Density = 2.012473 g / cm^3
# Si number density = 20.170639 Si / 1000 Ang^3
#
#
#
# Elastic Constant Matrix: (Units=GPa)
#
#
# Indices 1 2 3 4 5 6 
#
# 1 68.2528 37.1795 40.9884 0.0000 0.0000 0.0000
# 2 37.1795 154.7058 60.4384 0.0000 0.0000 0.0000
# 3 40.9884 60.4384 138.9268 0.0000 0.0000 0.0000
# 4 0.0000 0.0000 0.0000 32.2914 0.0000 0.0000
# 5 0.0000 0.0000 0.0000 0.0000 25.8648 0.0000
# 6 0.0000 0.0000 0.0000 0.0000 0.0000 28.8871
#
#
#
# Elastic Compliance Matrix: (Units=1/GPa)
#
#
# Indices 1 2 3 4 5 6 
#
# 1 0.018781 -0.002830 -0.004310 0.000000 0.000000 0.000000
# 2 -0.002830 0.008214 -0.002738 0.000000 0.000000 0.000000
# 3 -0.004310 -0.002738 0.009661 0.000000 0.000000 0.000000
# 4 0.000000 0.000000 0.000000 0.030968 0.000000 0.000000
# 5 0.000000 0.000000 0.000000 0.000000 0.038663 0.000000
# 6 0.000000 0.000000 0.000000 0.000000 0.000000 0.034618
#
#
# Mechanical properties :
#
#
# Convention : Reuss Voigt Hill
#
# Bulk Modulus (GPa) = 59.17356 71.01088 65.09222
# Shear Modulus (GPa) = 30.06726 32.29392 31.18059
#
# Velocity S-wave (km/s) = 3.86508 4.00564 3.93598
# Velocity P-wave (km/s) = 7.02272 7.52828 7.27989
#
# Compressibility (1/GPa) = 0.01689944
#
# Stress axis : x y z
#
# Youngs Moduli (GPa) = 53.24461 121.74708 103.50917
#
# Poissons Ratio (x) = 0.34452 0.44613
# Poissons Ratio (y) = 0.15067 0.28345
# Poissons Ratio (z) = 0.22949 0.33339
#
# Static dielectric constant tensor:
#      x y z
#    x 3.306470 0.000000 0.000000 
#    y 0.000000 3.870700 0.000000 
#    z 0.000000 0.000000 5.107710 
# 
# 
# High freq. dielectric constant tensor:
#      x y z
#    x 1.765770 0.000000 0.000000 
#    y 0.000000 1.803950 0.000000 
#    z 0.000000 0.000000 1.796150 
# 
# From -- ./inp_files/15006.got.cif
#   From: 2010.03.12/outbox.cif.g09.slc.cpg/sg59_8_cif.got.tgz:15006.got - 2010.04.16 16:29:54.
