data_PCOD8242849
_publ_section_title
;
Structure prediction by ZEFSAII (Michael W. Deem and Ramdas Pophale) SiO2 
 PCOD8242849
Probable space group: P M M N
;
_chemical_formula_sum "Si O2"
_cell_formula_units_Z 64
_cell_length_a 9.195147
_cell_length_b 14.092248
_cell_length_c 25.633693
_cell_angle_alpha 90.000000
_cell_angle_beta 90.000000
_cell_angle_gamma 90.000000
_cell_volume 3321.621422
_symmetry_space_group_name_H-M "P M M N"
_symmetry_group_IT_number 59
_space_group.IT_coordinate_system_code '2'
_symmetry_cell_setting 'orthorhombic'
loop_
_space_group_symop_operation_xyz
x,y,z
1/2-x,1/2-y,z
1/2+x,-y,-z
-x,1/2+y,-z
-x,-y,-z
1/2+x,1/2+y,-z
1/2-x,y,z
x,1/2-y,z
loop_
_atom_site_type_symbol
_atom_site_label
_atom_site_fract_x
_atom_site_fract_y
_atom_site_fract_z
Si Si1 0.921274 0.903372 0.013642
Si Si2 0.414140 0.359901 0.867634
Si Si3 0.917924 0.046935 0.776274
Si Si4 0.421565 0.359126 0.680350
Si Si5 0.093161 0.853235 0.920665
Si Si6 0.919788 0.357203 0.479584
Si Si7 0.579733 0.548110 0.426712
Si Si8 0.916713 0.642430 0.824271
O O1 0.750000 0.904841 0.003656
O O2 0.997166 0.834718 0.972166
O O3 0.959385 0.873560 0.072188
O O4 0.000000 0.000000 0.000000
O O5 0.250000 0.398021 0.858309
O O6 0.421570 0.250000 0.853234
O O7 0.527896 0.413495 0.831430
O O8 0.750000 0.074185 0.769106
O O9 0.007541 0.092792 0.730039
O O10 0.939764 0.931919 0.776714
O O11 0.250000 0.364166 0.687917
O O12 0.472815 0.250000 0.674536
O O13 0.472670 0.419801 0.630324
O O14 0.250000 0.906788 0.930911
O O15 0.129810 0.750000 0.899025
O O16 0.005797 0.902058 0.873377
O O17 0.750000 0.361513 0.492196
O O18 0.963835 0.250000 0.461287
O O19 0.959763 0.436396 0.435613
O O20 0.002137 0.383327 0.532347
O O21 0.750000 0.565828 0.433637
O O22 0.750000 0.642380 0.842335
O O23 0.962417 0.750000 0.807390
#
# Coordination Sequence:
#
# PCOD8242849 Si02
#       8
#     8   8   8   8   8   8   8   8
#     4  11  22  35  52  74 101 133 169 209 257 314
#     4  10  22  39  56  74 101 139 176 209 254 315
#     4  11  23  37  56  81 104 130 171 223 271 312
#     4  10  21  37  56  77 105 143 182 219 262 313
#     4  10  20  33  51  76 102 127 160 203 249 304
#     4   9  17  30  51  81 116 149 180 221 271 313
#     4   9  18  33  53  78 109 147 189 225 259 310
#     4   9  19  37  58  77 101 135 171 209 261 324
#
# _framework density 19.267700000000001
#
# number of rings (size 3 to 8) (size 9 to 14) (size 15 to 20)
#    0.000    2.125    0.000    3.000    0.000    8.500 
#    0.000    0.625    0.000    0.750    0.000    0.000 
#    0.000    0.000    0.000    0.000    0.000    0.000 
#
# Total GULP energy -793071.442117 kJ/mol
# GULP energy per Si atom -12391.741283 kJ/mol
# Density = 1.922385 g / cm^3
# Si number density = 19.267700 Si / 1000 Ang^3
#
#
#
# Elastic Constant Matrix: (Units=GPa)
#
#
# Indices 1 2 3 4 5 6 
#
# 1 63.6020 37.2403 43.5739 0.0000 0.0000 0.0000
# 2 37.2403 122.1874 62.0807 0.0000 0.0000 0.0000
# 3 43.5739 62.0807 109.2786 0.0000 0.0000 0.0000
# 4 0.0000 0.0000 0.0000 28.3390 0.0000 0.0000
# 5 0.0000 0.0000 0.0000 0.0000 29.4318 0.0000
# 6 0.0000 0.0000 0.0000 0.0000 0.0000 23.5002
#
#
#
# Elastic Compliance Matrix: (Units=1/GPa)
#
#
# Indices 1 2 3 4 5 6 
#
# 1 0.022505 -0.003233 -0.007137 0.000000 0.000000 0.000000
# 2 -0.003233 0.011969 -0.005511 0.000000 0.000000 0.000000
# 3 -0.007137 -0.005511 0.015127 0.000000 0.000000 0.000000
# 4 0.000000 0.000000 0.000000 0.035287 0.000000 0.000000
# 5 0.000000 0.000000 0.000000 0.000000 0.033977 0.000000
# 6 0.000000 0.000000 0.000000 0.000000 0.000000 0.042553
#
#
# Mechanical properties :
#
#
# Convention : Reuss Voigt Hill
#
# Bulk Modulus (GPa) = 56.05198 64.53977 60.29587
# Shear Modulus (GPa) = 25.10957 26.39909 25.75433
#
# Velocity S-wave (km/s) = 3.61390 3.70553 3.66000
# Velocity P-wave (km/s) = 6.82407 7.20257 7.01587
#
# Compressibility (1/GPa) = 0.01784058
#
# Stress axis : x y z
#
# Youngs Moduli (GPa) = 44.43360 83.54707 66.10528
#
# Poissons Ratio (x) = 0.27010 0.47181
# Poissons Ratio (y) = 0.14365 0.36428
# Poissons Ratio (z) = 0.31713 0.46039
#
# Static dielectric constant tensor:
#      x y z
#    x 3.590460 0.000000 0.000000 
#    y 0.000000 3.771140 0.000000 
#    z 0.000000 0.000000 2.999660 
# 
# 
# High freq. dielectric constant tensor:
#      x y z
#    x 1.752140 0.000000 0.000000 
#    y 0.000000 1.766880 0.000000 
#    z 0.000000 0.000000 1.725490 
# 
# From -- ./inp_files/31657.got.cif
#   From: 2010.03.12/outbox.cif.g09.slc.cpg/sg59_16_cif.got.tgz:31657.got - 2010.04.16 16:29:54.
