data_PCOD8242879
_publ_section_title
;
Structure prediction by ZEFSAII (Michael W. Deem and Ramdas Pophale) SiO2 
 PCOD8242879
Probable space group: P M M N
;
_chemical_formula_sum "Si O2"
_cell_formula_units_Z 48
_cell_length_a 8.910224
_cell_length_b 9.278909
_cell_length_c 30.754634
_cell_angle_alpha 90.000000
_cell_angle_beta 90.000000
_cell_angle_gamma 90.000000
_cell_volume 2542.705724
_symmetry_space_group_name_H-M "P M M N"
_symmetry_group_IT_number 59
_space_group.IT_coordinate_system_code '2'
_symmetry_cell_setting 'orthorhombic'
loop_
_space_group_symop_operation_xyz
x,y,z
1/2-x,1/2-y,z
1/2+x,-y,-z
-x,1/2+y,-z
-x,-y,-z
1/2+x,1/2+y,-z
1/2-x,y,z
x,1/2-y,z
loop_
_atom_site_type_symbol
_atom_site_label
_atom_site_fract_x
_atom_site_fract_y
_atom_site_fract_z
Si Si1 0.923708 0.418250 0.039178
Si Si2 0.423265 0.080876 0.282014
Si Si3 0.427979 0.409125 0.379337
Si Si4 0.571965 0.414154 0.539152
Si Si5 0.426175 0.084686 0.128192
Si Si6 0.075941 0.081531 0.794267
O O1 0.750000 0.458383 0.040342
O O2 0.952204 0.250000 0.032217
O O3 0.995550 0.470538 0.084312
O O4 0.000000 0.500000 0.000000
O O5 0.250000 0.037766 0.274191
O O6 0.444858 0.250000 0.272865
O O7 0.475760 0.041778 0.331013
O O8 0.529441 0.989527 0.251038
O O9 0.250000 0.400594 0.380645
O O10 0.493757 0.250000 0.389644
O O11 0.488214 0.520393 0.415336
O O12 0.500000 0.500000 0.500000
O O13 0.750000 0.427114 0.535870
O O14 0.517479 0.250000 0.536908
O O15 0.250000 0.067391 0.122001
O O16 0.470648 0.250000 0.138258
O O17 0.479055 0.986097 0.167406
O O18 0.250000 0.050224 0.803120
O O19 0.041006 0.250000 0.791853
#
# Coordination Sequence:
#
# PCOD8242879 Si02
#       6
#     8   8   8   8   8   8
#     4  10  21  37  58  84 113 146 182 220 266 318
#     4   9  18  34  57  82 104 131 171 215 260 314
#     4   8  15  30  52  76 102 132 168 212 260 310
#     4  10  20  33  51  76 104 136 175 216 260 312
#     4  10  21  38  60  83 106 137 180 225 267 315
#     4  11  24  38  52  76 110 144 177 215 261 312
#
# _framework density 18.877528999999999
#
# number of rings (size 3 to 8) (size 9 to 14) (size 15 to 20)
#    0.000    2.333    0.000    3.500    0.000    8.000 
#    0.000    2.500    0.000    1.000    0.000    0.000 
#    0.000    0.000    0.000    0.000    0.000    0.000 
#
# Total GULP energy -595275.477373 kJ/mol
# GULP energy per Si atom -12401.572445 kJ/mol
# Density = 1.883456 g / cm^3
# Si number density = 18.877529 Si / 1000 Ang^3
#
#
#
# Elastic Constant Matrix: (Units=GPa)
#
#
# Indices 1 2 3 4 5 6 
#
# 1 59.0800 39.0218 44.8655 0.0000 0.0000 0.0000
# 2 39.0218 100.3819 77.4033 0.0000 0.0000 0.0000
# 3 44.8655 77.4033 161.3748 0.0000 0.0000 0.0000
# 4 0.0000 0.0000 0.0000 39.8218 0.0000 0.0000
# 5 0.0000 0.0000 0.0000 0.0000 35.0070 0.0000
# 6 0.0000 0.0000 0.0000 0.0000 0.0000 28.7859
#
#
#
# Elastic Compliance Matrix: (Units=1/GPa)
#
#
# Indices 1 2 3 4 5 6 
#
# 1 0.023944 -0.006625 -0.003479 0.000000 0.000000 0.000000
# 2 -0.006625 0.017642 -0.006620 0.000000 0.000000 0.000000
# 3 -0.003479 -0.006620 0.010339 0.000000 0.000000 0.000000
# 4 0.000000 0.000000 0.000000 0.025112 0.000000 0.000000
# 5 0.000000 0.000000 0.000000 0.000000 0.028566 0.000000
# 6 0.000000 0.000000 0.000000 0.000000 0.000000 0.034739
#
#
# Mechanical properties :
#
#
# Convention : Reuss Voigt Hill
#
# Bulk Modulus (GPa) = 54.12210 71.49086 62.80648
# Shear Modulus (GPa) = 27.78550 31.35935 29.57242
#
# Velocity S-wave (km/s) = 3.84067 4.08020 3.96225
# Velocity P-wave (km/s) = 6.95701 7.75568 7.36718
#
# Compressibility (1/GPa) = 0.01847674
#
# Stress axis : x y z
#
# Youngs Moduli (GPa) = 41.76382 56.68301 96.71779
#
# Poissons Ratio (x) = 0.37553 0.33651
# Poissons Ratio (y) = 0.27669 0.64028
# Poissons Ratio (z) = 0.14531 0.37524
#
# Static dielectric constant tensor:
#      x y z
#    x 3.221170 0.000000 0.000000 
#    y 0.000000 3.521300 0.000000 
#    z 0.000000 0.000000 3.731490 
# 
# 
# High freq. dielectric constant tensor:
#      x y z
#    x 1.719050 0.000000 0.000000 
#    y 0.000000 1.731170 0.000000 
#    z 0.000000 0.000000 1.750210 
# 
# From -- ./inp_files/32848.got.cif
#   From: 2010.03.12/outbox.cif.g09.slc.cpg/sg59_17_cif.got.tgz:32848.got - 2010.04.16 16:29:54.
