data_PCOD8242808
_publ_section_title
;
Structure prediction by ZEFSAII (Michael W. Deem and Ramdas Pophale) SiO2 
 PCOD8242808
Probable space group: P M M N
;
_chemical_formula_sum "Si O2"
_cell_formula_units_Z 56
_cell_length_a 21.015237
_cell_length_b 8.568167
_cell_length_c 15.408442
_cell_angle_alpha 90.000000
_cell_angle_beta 90.000000
_cell_angle_gamma 90.000000
_cell_volume 2774.475810
_symmetry_space_group_name_H-M "P M M N"
_symmetry_group_IT_number 59
_space_group.IT_coordinate_system_code '2'
_symmetry_cell_setting 'orthorhombic'
loop_
_space_group_symop_operation_xyz
x,y,z
1/2-x,1/2-y,z
1/2+x,-y,-z
-x,1/2+y,-z
-x,-y,-z
1/2+x,1/2+y,-z
1/2-x,y,z
x,1/2-y,z
loop_
_atom_site_type_symbol
_atom_site_label
_atom_site_fract_x
_atom_site_fract_y
_atom_site_fract_z
Si Si1 0.820543 0.422269 0.628805
Si Si2 0.875305 0.929324 0.789840
Si Si3 0.501862 0.931197 0.233659
Si Si4 0.322034 0.430008 0.548177
Si Si5 0.818917 0.935173 0.968386
Si Si6 0.541992 0.434385 0.418519
Si Si7 0.942806 0.569411 0.055920
O O1 0.750000 0.422418 0.667777
O O2 0.838349 0.250000 0.591551
O O3 0.866729 0.463568 0.706053
O O4 0.826356 0.551972 0.554978
O O5 0.864439 0.750000 0.765304
O O6 0.829834 0.980412 0.867950
O O7 0.947581 0.966996 0.813960
O O8 0.483445 0.750000 0.244086
O O9 0.556442 0.952348 0.160655
O O10 0.516763 0.998705 0.328146
O O11 0.250000 0.486972 0.578463
O O12 0.330778 0.250000 0.574064
O O13 0.382398 0.525622 0.583948
O O14 0.750000 0.003466 0.996810
O O15 0.818544 0.750000 0.977899
O O16 0.875433 0.007117 0.026588
O O17 0.500000 0.500000 0.500000
O O18 0.533323 0.250000 0.420509
O O19 0.943224 0.750000 0.030843
O O20 0.000000 0.500000 0.000000
#
# Coordination Sequence:
#
# PCOD8242808 Si02
#       7
#     8   8   8   8   8   8   8
#     4  10  20  33  50  76 113 153 192 236 293 360
#     4  11  20  32  53  80 113 151 194 243 297 360
#     4  11  23  38  58  86 118 155 201 250 303 364
#     4  10  21  39  62  86 115 154 201 251 306 367
#     4   9  18  33  55  84 116 151 194 244 296 349
#     4  12  25  42  64  90 124 161 204 260 312 369
#     4  10  20  37  61  86 116 154 198 245 293 351
#
# _framework density 20.183993000000001
#
# number of rings (size 3 to 8) (size 9 to 14) (size 15 to 20)
#    0.000    1.571    1.429    4.286    0.000    2.857 
#    0.000    0.714    0.000    3.857    0.000    0.000 
#    0.000    0.000    0.000    0.000    0.000    0.000 
#
# Total GULP energy -693778.382045 kJ/mol
# GULP energy per Si atom -12388.899679 kJ/mol
# Density = 2.013805 g / cm^3
# Si number density = 20.183993 Si / 1000 Ang^3
#
#
#
# Elastic Constant Matrix: (Units=GPa)
#
#
# Indices 1 2 3 4 5 6 
#
# 1 142.2103 19.1464 51.7677 0.0000 0.0000 0.0000
# 2 19.1464 57.8492 34.8958 0.0000 0.0000 0.0000
# 3 51.7677 34.8958 100.2933 0.0000 0.0000 0.0000
# 4 0.0000 0.0000 0.0000 22.2543 0.0000 0.0000
# 5 0.0000 0.0000 0.0000 0.0000 32.3956 0.0000
# 6 0.0000 0.0000 0.0000 0.0000 0.0000 28.6746
#
#
#
# Elastic Compliance Matrix: (Units=1/GPa)
#
#
# Indices 1 2 3 4 5 6 
#
# 1 0.008661 -0.000215 -0.004396 0.000000 0.000000 0.000000
# 2 -0.000215 0.021884 -0.007503 0.000000 0.000000 0.000000
# 3 -0.004396 -0.007503 0.014850 0.000000 0.000000 0.000000
# 4 0.000000 0.000000 0.000000 0.044935 0.000000 0.000000
# 5 0.000000 0.000000 0.000000 0.000000 0.030868 0.000000
# 6 0.000000 0.000000 0.000000 0.000000 0.000000 0.034874
#
#
# Mechanical properties :
#
#
# Convention : Reuss Voigt Hill
#
# Bulk Modulus (GPa) = 47.24301 56.88587 52.06444
# Shear Modulus (GPa) = 26.68724 29.63444 28.16084
#
# Velocity S-wave (km/s) = 3.64015 3.83589 3.73930
# Velocity P-wave (km/s) = 6.41284 6.91835 6.67039
#
# Compressibility (1/GPa) = 0.02116715
#
# Stress axis : x y z
#
# Youngs Moduli (GPa) = 115.46158 45.69651 67.33896
#
# Poissons Ratio (x) = 0.00982 0.29600
# Poissons Ratio (y) = 0.02482 0.50525
# Poissons Ratio (z) = 0.50753 0.34287
#
# Static dielectric constant tensor:
#      x y z
#    x 4.393490 0.000000 0.000000 
#    y 0.000000 3.579650 0.000000 
#    z 0.000000 0.000000 3.531820 
# 
# 
# High freq. dielectric constant tensor:
#      x y z
#    x 1.800060 0.000000 0.000000 
#    y 0.000000 1.777930 0.000000 
#    z 0.000000 0.000000 1.773920 
# 
# From -- ./inp_files/24190.got.cif
#   From: 2010.03.12/outbox.cif.g09.slc.cpg/sg59_13_cif.got.tgz:24190.got - 2010.04.16 16:29:54.
