data_PCOD8242829
_publ_section_title
;
Structure prediction by ZEFSAII (Michael W. Deem and Ramdas Pophale) SiO2 
 PCOD8242829
Probable space group: P M M N
;
_chemical_formula_sum "Si O2"
_cell_formula_units_Z 64
_cell_length_a 8.725371
_cell_length_b 29.177253
_cell_length_c 14.894160
_cell_angle_alpha 90.000000
_cell_angle_beta 90.000000
_cell_angle_gamma 90.000000
_cell_volume 3791.790361
_symmetry_space_group_name_H-M "P M M N"
_symmetry_group_IT_number 59
_space_group.IT_coordinate_system_code '2'
_symmetry_cell_setting 'orthorhombic'
loop_
_space_group_symop_operation_xyz
x,y,z
1/2-x,1/2-y,z
1/2+x,-y,-z
-x,1/2+y,-z
-x,-y,-z
1/2+x,1/2+y,-z
1/2-x,y,z
x,1/2-y,z
loop_
_atom_site_type_symbol
_atom_site_label
_atom_site_fract_x
_atom_site_fract_y
_atom_site_fract_z
Si Si1 0.572828 0.933743 0.052384
Si Si2 0.928507 0.611398 0.538804
Si Si3 0.069614 0.444249 0.636461
Si Si4 0.572305 0.465169 0.120957
Si Si5 0.427925 0.614532 0.208011
Si Si6 0.572715 0.301272 0.520938
Si Si7 0.070926 0.037875 0.312749
Si Si8 0.425770 0.302060 0.712090
O O1 0.750000 0.920392 0.056798
O O2 0.473849 0.896360 0.105831
O O3 0.538141 0.982104 0.099421
O O4 0.519901 0.933633 0.949076
O O5 0.750000 0.622490 0.531620
O O6 0.984504 0.584186 0.450337
O O7 0.966479 0.581562 0.625939
O O8 0.019316 0.659590 0.548783
O O9 0.250000 0.453699 0.635448
O O10 0.027593 0.416681 0.725699
O O11 0.984508 0.492805 0.635082
O O12 0.750000 0.453531 0.111359
O O13 0.517754 0.454081 0.220537
O O14 0.250000 0.604795 0.224396
O O15 0.466928 0.667607 0.224359
O O16 0.750000 0.307827 0.545759
O O17 0.544225 0.250000 0.481273
O O18 0.472529 0.308754 0.609345
O O19 0.250000 0.032955 0.292578
O O20 0.250000 0.317845 0.721313
O O21 0.448959 0.250000 0.743326
#
# Coordination Sequence:
#
# PCOD8242829 Si02
#       8
#     8   8   8   8   8   8   8   8
#     4  10  20  34  53  74 101 133 167 209 252 303
#     4  10  22  36  51  72 101 139 178 212 254 308
#     4  11  21  34  49  70 102 141 180 213 249 298
#     4  10  20  34  52  74 100 132 169 212 256 300
#     4  12  22  32  51  77 105 137 172 211 253 304
#     4  10  20  33  51  75 100 129 169 215 260 304
#     4  11  22  35  51  73 102 138 178 217 256 301
#     4  10  20  34  52  73 101 136 171 210 256 306
#
# _framework density 16.87857
#
# number of rings (size 3 to 8) (size 9 to 14) (size 15 to 20)
#    0.000    1.500    2.500    3.750    0.000    4.000 
#    0.000    0.000    0.000    0.000    0.000    0.875 
#    0.000    3.000    0.000    0.000    0.000    0.000 
#
# Total GULP energy -793864.649623 kJ/mol
# GULP energy per Si atom -12404.135150 kJ/mol
# Density = 1.684015 g / cm^3
# Si number density = 16.878570 Si / 1000 Ang^3
#
#
#
# Elastic Constant Matrix: (Units=GPa)
#
#
# Indices 1 2 3 4 5 6 
#
# 1 56.8356 33.3289 21.4532 0.0000 0.0000 0.0000
# 2 33.3289 95.8279 38.3900 0.0000 0.0000 0.0000
# 3 21.4532 38.3900 78.0089 0.0000 0.0000 0.0000
# 4 0.0000 0.0000 0.0000 22.1917 0.0000 0.0000
# 5 0.0000 0.0000 0.0000 0.0000 26.5777 0.0000
# 6 0.0000 0.0000 0.0000 0.0000 0.0000 28.8073
#
#
#
# Elastic Compliance Matrix: (Units=1/GPa)
#
#
# Indices 1 2 3 4 5 6 
#
# 1 0.022627 -0.006697 -0.002927 0.000000 0.000000 0.000000
# 2 -0.006697 0.014980 -0.005530 0.000000 0.000000 0.000000
# 3 -0.002927 -0.005530 0.016346 0.000000 0.000000 0.000000
# 4 0.000000 0.000000 0.000000 0.045062 0.000000 0.000000
# 5 0.000000 0.000000 0.000000 0.000000 0.037626 0.000000
# 6 0.000000 0.000000 0.000000 0.000000 0.000000 0.034713
#
#
# Mechanical properties :
#
#
# Convention : Reuss Voigt Hill
#
# Bulk Modulus (GPa) = 42.29399 46.33516 44.31457
# Shear Modulus (GPa) = 23.86150 24.68202 24.27176
#
# Velocity S-wave (km/s) = 3.76402 3.82819 3.79624
# Velocity P-wave (km/s) = 6.63345 6.85942 6.74738
#
# Compressibility (1/GPa) = 0.02364402
#
# Stress axis : x y z
#
# Youngs Moduli (GPa) = 44.19591 66.75519 61.17875
#
# Poissons Ratio (x) = 0.44706 0.17906
# Poissons Ratio (y) = 0.29598 0.33834
# Poissons Ratio (z) = 0.12935 0.36918
#
# Static dielectric constant tensor:
#      x y z
#    x 3.241770 0.000000 0.000000 
#    y 0.000000 3.238090 0.000000 
#    z 0.000000 0.000000 3.027150 
# 
# 
# High freq. dielectric constant tensor:
#      x y z
#    x 1.667620 0.000000 0.000000 
#    y 0.000000 1.637780 0.000000 
#    z 0.000000 0.000000 1.628600 
# 
# From -- ./inp_files/21844.got.cif
#   From: 2010.03.12/outbox.cif.g09.slc.cpg/sg59_11_cif.got.tgz:21844.got - 2010.04.16 16:29:54.
