data_PCOD8242828
_publ_section_title
;
Structure prediction by ZEFSAII (Michael W. Deem and Ramdas Pophale) SiO2 
 PCOD8242828
Probable space group: P M M N
;
_chemical_formula_sum "Si O2"
_cell_formula_units_Z 48
_cell_length_a 9.750159
_cell_length_b 9.662439
_cell_length_c 28.556950
_cell_angle_alpha 90.000000
_cell_angle_beta 90.000000
_cell_angle_gamma 90.000000
_cell_volume 2690.359300
_symmetry_space_group_name_H-M "P M M N"
_symmetry_group_IT_number 59
_space_group.IT_coordinate_system_code '2'
_symmetry_cell_setting 'orthorhombic'
loop_
_space_group_symop_operation_xyz
x,y,z
1/2-x,1/2-y,z
1/2+x,-y,-z
-x,1/2+y,-z
-x,-y,-z
1/2+x,1/2+y,-z
1/2-x,y,z
x,1/2-y,z
loop_
_atom_site_type_symbol
_atom_site_label
_atom_site_fract_x
_atom_site_fract_y
_atom_site_fract_z
Si Si1 0.097733 0.085586 0.139743
Si Si2 0.090544 0.409920 0.034240
Si Si3 0.465621 0.590692 0.393760
Si Si4 0.094546 0.585108 0.778597
Si Si5 0.750000 0.909116 0.436915
Si Si6 0.750000 0.091013 0.528759
Si Si7 0.595606 0.591573 0.694667
O O1 0.250000 0.028282 0.152301
O O2 0.102572 0.250000 0.142904
O O3 0.057233 0.041382 0.087186
O O4 0.984582 0.025936 0.175750
O O5 0.250000 0.433827 0.022923
O O6 0.050984 0.250000 0.027440
O O7 0.000000 0.500000 0.000000
O O8 0.441760 0.750000 0.379481
O O9 0.622563 0.555926 0.403925
O O10 0.383516 0.555186 0.440860
O O11 0.413093 0.497292 0.351929
O O12 0.250000 0.526416 0.777501
O O13 0.096249 0.750000 0.780207
O O14 0.012109 0.534189 0.732815
O O15 0.750000 0.750000 0.453260
O O16 0.750000 0.999116 0.483086
O O17 0.750000 0.250000 0.512668
O O18 0.750000 0.580333 0.715241
O O19 0.561020 0.750000 0.681885
#
# Coordination Sequence:
#
# PCOD8242828 Si02
#       7
#     8   8   8   8   4   4   8
#     4   8  14  27  46  67  96 133 169 206 252 305
#     4   9  18  31  48  73 103 137 177 218 261 310
#     4  10  21  37  54  75 103 134 165 198 241 293
#     4   9  17  28  45  72 102 127 158 206 256 298
#     4  10  22  36  54  78 104 132 162 200 245 288
#     4  10  20  36  56  76 100 132 168 202 237 284
#     4  10  20  33  51  75 100 129 165 203 244 290
#
# _framework density 17.841483
#
# number of rings (size 3 to 8) (size 9 to 14) (size 15 to 20)
#    0.000    2.667    0.833    2.000    1.167    4.333 
#    0.000    1.667    0.000    1.000    0.000    2.333 
#    0.000    0.000    0.000    0.000    0.000    0.000 
#
# Total GULP energy -595125.508506 kJ/mol
# GULP energy per Si atom -12398.448094 kJ/mol
# Density = 1.780087 g / cm^3
# Si number density = 17.841483 Si / 1000 Ang^3
#
#
#
# Elastic Constant Matrix: (Units=GPa)
#
#
# Indices 1 2 3 4 5 6 
#
# 1 122.5391 31.4322 53.8048 0.0000 0.0000 0.0000
# 2 31.4322 43.2972 42.3321 0.0000 0.0000 0.0000
# 3 53.8048 42.3321 105.5475 0.0000 0.0000 0.0000
# 4 0.0000 0.0000 0.0000 20.7921 0.0000 0.0000
# 5 0.0000 0.0000 0.0000 0.0000 27.3291 0.0000
# 6 0.0000 0.0000 0.0000 0.0000 0.0000 17.1212
#
#
#
# Elastic Compliance Matrix: (Units=1/GPa)
#
#
# Indices 1 2 3 4 5 6 
#
# 1 0.010938 -0.004095 -0.003934 0.000000 0.000000 0.000000
# 2 -0.004095 0.039528 -0.013766 0.000000 0.000000 0.000000
# 3 -0.003934 -0.013766 0.017001 0.000000 0.000000 0.000000
# 4 0.000000 0.000000 0.000000 0.048095 0.000000 0.000000
# 5 0.000000 0.000000 0.000000 0.000000 0.036591 0.000000
# 6 0.000000 0.000000 0.000000 0.000000 0.000000 0.058407
#
#
# Mechanical properties :
#
#
# Convention : Reuss Voigt Hill
#
# Bulk Modulus (GPa) = 41.87957 58.50243 50.19100
# Shear Modulus (GPa) = 19.07598 22.63611 20.85605
#
# Velocity S-wave (km/s) = 3.27340 3.56579 3.42272
# Velocity P-wave (km/s) = 6.14906 7.05794 6.61912
#
# Compressibility (1/GPa) = 0.02387799
#
# Stress axis : x y z
#
# Youngs Moduli (GPa) = 91.42280 25.29835 58.82031
#
# Poissons Ratio (x) = 0.10359 0.23138
# Poissons Ratio (y) = 0.37435 0.80974
# Poissons Ratio (z) = 0.35963 0.34826
#
# Static dielectric constant tensor:
#      x y z
#    x 3.579600 0.000000 0.000000 
#    y 0.000000 2.917010 0.000000 
#    z 0.000000 0.000000 3.284380 
# 
# 
# High freq. dielectric constant tensor:
#      x y z
#    x 1.706300 0.000000 0.000000 
#    y 0.000000 1.646540 0.000000 
#    z 0.000000 0.000000 1.692820 
# 
# From -- ./inp_files/33100.got.cif
#   From: 2010.03.12/outbox.cif.g09.slc.cpg/sg59_17_cif.got.tgz:33100.got - 2010.04.16 16:29:54.
