data_PCOD8242256
_publ_section_title
;
Structure prediction by ZEFSAII (Michael W. Deem and Ramdas Pophale) SiO2 
 PCOD8242256
Probable space group: P M M N
;
_chemical_formula_sum "Si O2"
_cell_formula_units_Z 40
_cell_length_a 9.544806
_cell_length_b 15.693196
_cell_length_c 13.666499
_cell_angle_alpha 90.000000
_cell_angle_beta 90.000000
_cell_angle_gamma 90.000000
_cell_volume 2047.084540
_symmetry_space_group_name_H-M "P M M N"
_symmetry_group_IT_number 59
_space_group.IT_coordinate_system_code '2'
_symmetry_cell_setting 'orthorhombic'
loop_
_space_group_symop_operation_xyz
x,y,z
1/2-x,1/2-y,z
1/2+x,-y,-z
-x,1/2+y,-z
-x,-y,-z
1/2+x,1/2+y,-z
1/2-x,y,z
x,1/2-y,z
loop_
_atom_site_type_symbol
_atom_site_label
_atom_site_fract_x
_atom_site_fract_y
_atom_site_fract_z
Si Si1 0.906551 0.885236 0.580068
Si Si2 0.589589 0.846415 0.361759
Si Si3 0.086727 0.250000 0.114303
Si Si4 0.594636 0.474636 0.732452
Si Si5 0.082337 0.750000 0.687810
Si Si6 0.411523 0.061725 0.068520
O O1 0.750000 0.844712 0.596063
O O2 0.935458 0.893443 0.464893
O O3 0.029522 0.831479 0.628817
O O4 0.911131 0.977589 0.628772
O O5 0.750000 0.848670 0.329869
O O6 0.534558 0.750000 0.370746
O O7 0.507054 0.893734 0.274934
O O8 0.250000 0.250000 0.149188
O O9 0.056249 0.336961 0.052551
O O10 0.983322 0.250000 0.205197
O O11 0.750000 0.439456 0.752924
O O12 0.550115 0.538595 0.819375
O O13 0.250000 0.750000 0.694791
O O14 0.250000 0.043490 0.045022
O O15 0.500000 0.000000 0.000000
#
# Coordination Sequence:
#
# PCOD8242256 Si02
#       6
#     8   8   4   8   4   8
#     4  10  19  37  59  79 115 159 196 234 285 348
#     4  10  21  36  56  81 115 161 201 237 282 339
#     4  10  20  42  68  85 114 159 196 231 298 374
#     4  10  21  37  60  85 113 152 191 240 298 345
#     4  12  22  30  54  93 120 145 190 251 292 322
#     4  10  22  41  66  91 117 152 193 242 298 355
#
# _framework density 19.539984
#
# number of rings (size 3 to 8) (size 9 to 14) (size 15 to 20)
#    0.000    1.800    3.000    1.500    0.000    3.600 
#    1.800    0.000    0.000    0.000    0.000    0.000 
#    0.000    0.000    0.000    0.000    0.000    0.000 
#
# Total GULP energy -495853.304970 kJ/mol
# GULP energy per Si atom -12396.332624 kJ/mol
# Density = 1.949551 g / cm^3
# Si number density = 19.539984 Si / 1000 Ang^3
#
#
#
# Elastic Constant Matrix: (Units=GPa)
#
#
# Indices 1 2 3 4 5 6 
#
# 1 103.5285 58.6804 39.2501 0.0000 0.0000 0.0000
# 2 58.6804 117.5409 57.7419 0.0000 0.0000 0.0000
# 3 39.2501 57.7419 55.9750 0.0000 0.0000 0.0000
# 4 0.0000 0.0000 0.0000 25.7508 0.0000 0.0000
# 5 0.0000 0.0000 0.0000 0.0000 32.5880 0.0000
# 6 0.0000 0.0000 0.0000 0.0000 0.0000 35.3238
#
#
#
# Elastic Compliance Matrix: (Units=1/GPa)
#
#
# Indices 1 2 3 4 5 6 
#
# 1 0.014225 -0.004463 -0.005370 0.000000 0.000000 0.000000
# 2 -0.004463 0.018649 -0.016108 0.000000 0.000000 0.000000
# 3 -0.005370 -0.016108 0.038247 0.000000 0.000000 0.000000
# 4 0.000000 0.000000 0.000000 0.038834 0.000000 0.000000
# 5 0.000000 0.000000 0.000000 0.000000 0.030686 0.000000
# 6 0.000000 0.000000 0.000000 0.000000 0.000000 0.028309
#
#
# Mechanical properties :
#
#
# Convention : Reuss Voigt Hill
#
# Bulk Modulus (GPa) = 51.98079 65.37655 58.67867
# Shear Modulus (GPa) = 22.00254 26.82399 24.41326
#
# Velocity S-wave (km/s) = 3.35927 3.70912 3.53852
# Velocity P-wave (km/s) = 6.45804 7.20235 6.84033
#
# Compressibility (1/GPa) = 0.01923788
#
# Stress axis : x y z
#
# Youngs Moduli (GPa) = 70.29815 53.62239 26.14575
#
# Poissons Ratio (x) = 0.23934 0.14041
# Poissons Ratio (y) = 0.31377 0.42115
# Poissons Ratio (z) = 0.37753 0.86374
#
# Static dielectric constant tensor:
#      x y z
#    x 3.521750 0.000000 0.000000 
#    y 0.000000 3.529720 0.000000 
#    z 0.000000 0.000000 3.315320 
# 
# 
# High freq. dielectric constant tensor:
#      x y z
#    x 1.754490 0.000000 0.000000 
#    y 0.000000 1.762730 0.000000 
#    z 0.000000 0.000000 1.739600 
# 
# From -- ./inp_files/19898.got.cif
#   From: 2010.03.12/outbox.cif.g09.slc.cpg/sg59_10_cif.got.tgz:19898.got - 2010.04.16 16:29:54.
