data_PCOD8242752
_publ_section_title
;
Structure prediction by ZEFSAII (Michael W. Deem and Ramdas Pophale) SiO2 
 PCOD8242752
Probable space group: P M M N
;
_chemical_formula_sum "Si O2"
_cell_formula_units_Z 56
_cell_length_a 17.991680
_cell_length_b 9.259684
_cell_length_c 18.240005
_cell_angle_alpha 90.000000
_cell_angle_beta 90.000000
_cell_angle_gamma 90.000000
_cell_volume 3038.735064
_symmetry_space_group_name_H-M "P M M N"
_symmetry_group_IT_number 59
_space_group.IT_coordinate_system_code '2'
_symmetry_cell_setting 'orthorhombic'
loop_
_space_group_symop_operation_xyz
x,y,z
1/2-x,1/2-y,z
1/2+x,-y,-z
-x,1/2+y,-z
-x,-y,-z
1/2+x,1/2+y,-z
1/2-x,y,z
x,1/2-y,z
loop_
_atom_site_type_symbol
_atom_site_label
_atom_site_fract_x
_atom_site_fract_y
_atom_site_fract_z
Si Si1 0.838513 0.910798 0.191579
Si Si2 0.578062 0.922610 0.492755
Si Si3 0.661646 0.912118 0.917580
Si Si4 0.338357 0.087745 0.244214
Si Si5 0.838834 0.411676 0.054469
Si Si6 0.667593 0.921335 0.351773
Si Si7 0.661637 0.413843 0.617580
O O1 0.750000 0.905384 0.188074
O O2 0.870833 0.750000 0.179950
O O3 0.861651 0.973852 0.271719
O O4 0.870772 0.010620 0.127021
O O5 0.570599 0.750000 0.499863
O O6 0.610800 0.971158 0.414268
O O7 0.500000 0.000000 0.500000
O O8 0.633126 0.981563 0.554281
O O9 0.750000 0.916255 0.920483
O O10 0.633500 0.750000 0.932490
O O11 0.634675 0.963537 0.836709
O O12 0.628709 0.013703 0.981146
O O13 0.250000 0.089828 0.246197
O O14 0.367770 0.250000 0.260613
O O15 0.368677 0.976326 0.305028
O O16 0.750000 0.416328 0.054460
O O17 0.869409 0.250000 0.055414
O O18 0.750000 0.985306 0.368298
O O19 0.673799 0.750000 0.349490
O O20 0.750000 0.415855 0.615058
O O21 0.631463 0.250000 0.608442
#
# Coordination Sequence:
#
# PCOD8242752 Si02
#       7
#     8   8   8   8   8   8   8
#     4   8  13  23  39  57  78 107 146 187 223 264
#     4  11  22  36  53  72  97 126 158 197 242 291
#     4   8  13  21  33  50  76 113 153 187 220 263
#     4   8  14  25  41  61  85 116 155 194 231 272
#     4   9  15  20  28  48  80 115 147 179 221 269
#     4   8  15  29  50  72  90 116 157 198 234 277
#     4  10  20  33  50  73  99 126 159 198 240 287
#
# _framework density 18.428720999999999
#
# number of rings (size 3 to 8) (size 9 to 14) (size 15 to 20)
#    0.000    3.143    0.000    3.429    0.000    3.714 
#    0.000    4.286    0.000    3.429    0.000    0.000 
#    0.000    1.143    0.000    3.429    0.000    7.429 
#
# Total GULP energy -693984.606099 kJ/mol
# GULP energy per Si atom -12392.582252 kJ/mol
# Density = 1.838678 g / cm^3
# Si number density = 18.428721 Si / 1000 Ang^3
#
#
#
# Elastic Constant Matrix: (Units=GPa)
#
#
# Indices 1 2 3 4 5 6 
#
# 1 16.8392 16.8179 18.4268 0.0000 0.0000 0.0000
# 2 16.8179 111.3954 79.9825 0.0000 0.0000 0.0000
# 3 18.4268 79.9825 173.9936 0.0000 0.0000 0.0000
# 4 0.0000 0.0000 0.0000 21.5955 0.0000 0.0000
# 5 0.0000 0.0000 0.0000 0.0000 0.0979 0.0000
# 6 0.0000 0.0000 0.0000 0.0000 0.0000 14.9173
#
#
#
# Elastic Compliance Matrix: (Units=1/GPa)
#
#
# Indices 1 2 3 4 5 6 
#
# 1 0.071664 -0.008016 -0.003905 0.000000 0.000000 0.000000
# 2 -0.008016 0.014296 -0.005723 0.000000 0.000000 0.000000
# 3 -0.003905 -0.005723 0.008792 0.000000 0.000000 0.000000
# 4 0.000000 0.000000 0.000000 0.046306 0.000000 0.000000
# 5 0.000000 0.000000 0.000000 0.000000 10.217436 0.000000
# 6 0.000000 0.000000 0.000000 0.000000 0.000000 0.067036
#
#
# Mechanical properties :
#
#
# Convention : Reuss Voigt Hill
#
# Bulk Modulus (GPa) = 16.81668 59.18697 38.00182
# Shear Modulus (GPa) = 0.47707 19.78887 10.13297
#
# Velocity S-wave (km/s) = 0.50935 3.28045 2.34742
# Velocity P-wave (km/s) = 3.08074 6.82165 5.29273
#
# Compressibility (1/GPa) = 0.05946478
#
# Stress axis : x y z
#
# Youngs Moduli (GPa) = 13.95404 69.94822 113.74471
#
# Poissons Ratio (x) = 0.56069 0.44415
# Poissons Ratio (y) = 0.11185 0.65095
# Poissons Ratio (z) = 0.05449 0.40031
#
# Static dielectric constant tensor:
#      x y z
#    x 2.685300 0.000000 0.000000 
#    y 0.000000 3.482620 0.000000 
#    z 0.000000 0.000000 3.964200 
# 
# 
# High freq. dielectric constant tensor:
#      x y z
#    x 1.640740 0.000000 0.000000 
#    y 0.000000 1.704090 0.000000 
#    z 0.000000 0.000000 1.737970 
# 
# From -- ./inp_files/30875.got.cif
#   From: 2010.03.12/outbox.cif.g09.slc.cpg/sg59_16_cif.got.tgz:30875.got - 2010.04.16 16:29:54.
