data_PCOD8242677
_publ_section_title
;
Structure prediction by ZEFSAII (Michael W. Deem and Ramdas Pophale) SiO2 
 PCOD8242677
Probable space group: P M M N
;
_chemical_formula_sum "Si O2"
_cell_formula_units_Z 56
_cell_length_a 23.344718
_cell_length_b 13.711277
_cell_length_c 9.502638
_cell_angle_alpha 90.000000
_cell_angle_beta 90.000000
_cell_angle_gamma 90.000000
_cell_volume 3041.660389
_symmetry_space_group_name_H-M "P M M N"
_symmetry_group_IT_number 59
_space_group.IT_coordinate_system_code '2'
_symmetry_cell_setting 'orthorhombic'
loop_
_space_group_symop_operation_xyz
x,y,z
1/2-x,1/2-y,z
1/2+x,-y,-z
-x,1/2+y,-z
-x,-y,-z
1/2+x,1/2+y,-z
1/2-x,y,z
x,1/2-y,z
loop_
_atom_site_type_symbol
_atom_site_label
_atom_site_fract_x
_atom_site_fract_y
_atom_site_fract_z
Si Si1 0.686073 0.019676 0.332437
Si Si2 0.513361 0.978297 0.161789
Si Si3 0.186069 0.527495 0.344868
Si Si4 0.424883 0.637270 0.666458
Si Si5 0.184484 0.140705 0.135845
Si Si6 0.627462 0.637432 0.155518
Si Si7 0.424254 0.638478 0.340008
O O1 0.750000 0.056621 0.291118
O O2 0.683353 0.992185 0.495424
O O3 0.640009 0.103822 0.297212
O O4 0.672348 0.920642 0.250609
O O5 0.529995 0.079092 0.238193
O O6 0.563487 0.899878 0.179928
O O7 0.458607 0.933363 0.238800
O O8 0.500000 0.000000 0.000000
O O9 0.250000 0.563165 0.303918
O O10 0.166794 0.433358 0.257306
O O11 0.143113 0.616822 0.316680
O O12 0.430026 0.750000 0.707118
O O13 0.440391 0.619363 0.502921
O O14 0.250000 0.125776 0.086875
O O15 0.175159 0.250000 0.193887
O O16 0.143053 0.119999 0.006088
O O17 0.631383 0.750000 0.199066
O O18 0.435934 0.750000 0.297618
#
# Coordination Sequence:
#
# PCOD8242677 Si02
#       7
#     8   8   8   8   8   8   8
#     4   9  18  32  52  78 105 134 169 210 256 304
#     4  11  22  36  55  77 104 136 174 220 263 308
#     4   9  18  33  52  76 104 132 168 212 256 306
#     4   9  20  37  56  78 105 137 172 211 256 308
#     4   9  17  30  48  69  97 134 171 208 253 304
#     4  10  20  33  49  72 102 136 174 212 256 309
#     4  10  20  36  56  77 104 137 171 210 259 311
#
# _framework density 18.410996000000001
#
# number of rings (size 3 to 8) (size 9 to 14) (size 15 to 20)
#    0.000    2.429    0.000    2.143    0.000    3.143 
#    0.000    5.000    0.000    0.000    0.000    4.000 
#    0.000    0.000    0.000    0.000    0.000    0.000 
#
# Total GULP energy -694428.111551 kJ/mol
# GULP energy per Si atom -12400.501992 kJ/mol
# Density = 1.836909 g / cm^3
# Si number density = 18.410996 Si / 1000 Ang^3
#
#
#
# Elastic Constant Matrix: (Units=GPa)
#
#
# Indices 1 2 3 4 5 6 
#
# 1 91.5373 52.5218 45.6860 0.0000 0.0000 0.0000
# 2 52.5218 126.4914 62.4279 0.0000 0.0000 0.0000
# 3 45.6860 62.4279 82.1370 0.0000 0.0000 0.0000
# 4 0.0000 0.0000 0.0000 28.1653 0.0000 0.0000
# 5 0.0000 0.0000 0.0000 0.0000 28.2764 0.0000
# 6 0.0000 0.0000 0.0000 0.0000 0.0000 22.8405
#
#
#
# Elastic Compliance Matrix: (Units=1/GPa)
#
#
# Indices 1 2 3 4 5 6 
#
# 1 0.016098 -0.003625 -0.006199 0.000000 0.000000 0.000000
# 2 -0.003625 0.013468 -0.008220 0.000000 0.000000 0.000000
# 3 -0.006199 -0.008220 0.021870 0.000000 0.000000 0.000000
# 4 0.000000 0.000000 0.000000 0.035505 0.000000 0.000000
# 5 0.000000 0.000000 0.000000 0.000000 0.035365 0.000000
# 6 0.000000 0.000000 0.000000 0.000000 0.000000 0.043782
#
#
# Mechanical properties :
#
#
# Convention : Reuss Voigt Hill
#
# Bulk Modulus (GPa) = 65.15226 69.04856 67.10041
# Shear Modulus (GPa) = 24.12064 25.15844 24.63954
#
# Velocity S-wave (km/s) = 3.62349 3.70062 3.66226
# Velocity P-wave (km/s) = 7.27810 7.47294 7.37616
#
# Compressibility (1/GPa) = 0.01534866
#
# Stress axis : x y z
#
# Youngs Moduli (GPa) = 62.11828 74.25268 45.72436
#
# Poissons Ratio (x) = 0.26916 0.28345
# Poissons Ratio (y) = 0.22517 0.37584
# Poissons Ratio (z) = 0.38508 0.61034
#
# Static dielectric constant tensor:
#      x y z
#    x 3.521400 0.000000 0.000000 
#    y 0.000000 3.320270 0.000000 
#    z 0.000000 0.000000 3.337700 
# 
# 
# High freq. dielectric constant tensor:
#      x y z
#    x 1.721420 0.000000 0.000000 
#    y 0.000000 1.709490 0.000000 
#    z 0.000000 0.000000 1.710590 
# 
# From -- ./inp_files/9358.got.cif
#   From: 2010.03.12/outbox.cif.g09.slc.cpg/sg59_5_cif.got.tgz:9358.got - 2010.04.16 16:29:54.
