data_PCOD8242026
_publ_section_title
;
Structure prediction by ZEFSAII (Michael W. Deem and Ramdas Pophale) SiO2 
 PCOD8242026
Probable space group: P M M N
;
_chemical_formula_sum "Si O2"
_cell_formula_units_Z 48
_cell_length_a 8.892125
_cell_length_b 16.026691
_cell_length_c 17.073553
_cell_angle_alpha 90.000000
_cell_angle_beta 90.000000
_cell_angle_gamma 90.000000
_cell_volume 2433.174912
_symmetry_space_group_name_H-M "P M M N"
_symmetry_group_IT_number 59
_space_group.IT_coordinate_system_code '2'
_symmetry_cell_setting 'orthorhombic'
loop_
_space_group_symop_operation_xyz
x,y,z
1/2-x,1/2-y,z
1/2+x,-y,-z
-x,1/2+y,-z
-x,-y,-z
1/2+x,1/2+y,-z
1/2-x,y,z
x,1/2-y,z
loop_
_atom_site_type_symbol
_atom_site_label
_atom_site_fract_x
_atom_site_fract_y
_atom_site_fract_z
Si Si1 0.927183 0.093323 0.823757
Si Si2 0.419544 0.346304 0.348128
Si Si3 0.428095 0.250000 0.909196
Si Si4 0.928046 0.089095 0.499100
Si Si5 0.571378 0.907849 0.816378
Si Si6 0.928898 0.750000 0.912180
Si Si7 0.427326 0.658933 0.339150
O O1 0.750000 0.108095 0.835587
O O2 0.972219 0.098317 0.731968
O O3 0.011818 0.164727 0.871469
O O4 0.976532 0.999434 0.849495
O O5 0.250000 0.376549 0.368209
O O6 0.419572 0.250000 0.324060
O O7 0.523996 0.359452 0.423013
O O8 0.484967 0.396348 0.273189
O O9 0.250000 0.250000 0.901783
O O10 0.483443 0.250000 0.998617
O O11 0.750000 0.082575 0.500567
O O12 0.994363 0.131629 0.577494
O O13 0.000000 0.000000 0.500000
O O14 0.750000 0.901262 0.814972
O O15 0.505653 0.834037 0.871201
O O16 0.750000 0.750000 0.906605
O O17 0.250000 0.662293 0.348193
O O18 0.491940 0.750000 0.318054
#
# Coordination Sequence:
#
# PCOD8242026 Si02
#       7
#     8   8   4   8   8   4   8
#     4  10  19  35  61  84 106 142 193 236 269 321
#     4  10  19  34  58  85 112 143 186 234 280 334
#     4  11  23  37  55  82 117 148 178 227 293 345
#     4  11  22  35  52  77 111 149 191 234 280 329
#     4   9  17  33  59  87 111 147 193 229 267 333
#     4   9  18  35  57  84 117 148 180 225 279 341
#     4   9  17  32  54  76 100 137 184 227 265 319
#
# _framework density 19.727312999999999
#
# number of rings (size 3 to 8) (size 9 to 14) (size 15 to 20)
#    0.000    2.167    1.667    2.250    0.000    4.333 
#    0.000    4.167    0.000    3.000    0.000    0.000 
#    0.000    0.000    0.000    0.000    0.000    0.000 
#
# Total GULP energy -594974.368942 kJ/mol
# GULP energy per Si atom -12395.299353 kJ/mol
# Density = 1.968241 g / cm^3
# Si number density = 19.727313 Si / 1000 Ang^3
#
#
#
# Elastic Constant Matrix: (Units=GPa)
#
#
# Indices 1 2 3 4 5 6 
#
# 1 43.0332 26.4748 30.4083 0.0000 0.0000 0.0000
# 2 26.4748 158.6006 73.0569 0.0000 0.0000 0.0000
# 3 30.4083 73.0569 146.0802 0.0000 0.0000 0.0000
# 4 0.0000 0.0000 0.0000 24.9010 0.0000 0.0000
# 5 0.0000 0.0000 0.0000 0.0000 22.0143 0.0000
# 6 0.0000 0.0000 0.0000 0.0000 0.0000 20.6774
#
#
#
# Elastic Compliance Matrix: (Units=1/GPa)
#
#
# Indices 1 2 3 4 5 6 
#
# 1 0.028040 -0.002588 -0.004542 0.000000 0.000000 0.000000
# 2 -0.002588 0.008431 -0.003678 0.000000 0.000000 0.000000
# 3 -0.004542 -0.003678 0.009630 0.000000 0.000000 0.000000
# 4 0.000000 0.000000 0.000000 0.040159 0.000000 0.000000
# 5 0.000000 0.000000 0.000000 0.000000 0.045425 0.000000
# 6 0.000000 0.000000 0.000000 0.000000 0.000000 0.048362
#
#
# Mechanical properties :
#
#
# Convention : Reuss Voigt Hill
#
# Bulk Modulus (GPa) = 40.84180 67.51044 54.17612
# Shear Modulus (GPa) = 23.82920 28.03680 25.93300
#
# Velocity S-wave (km/s) = 3.47930 3.77399 3.62964
# Velocity P-wave (km/s) = 6.07362 7.29978 6.71475
#
# Compressibility (1/GPa) = 0.02448472
#
# Stress axis : x y z
#
# Youngs Moduli (GPa) = 35.66335 118.60498 103.83709
#
# Poissons Ratio (x) = 0.30698 0.47167
# Poissons Ratio (y) = 0.09231 0.38190
# Poissons Ratio (z) = 0.16200 0.43621
#
# Static dielectric constant tensor:
#      x y z
#    x 1.320390 0.000000 0.000000 
#    y 0.000000 3.879920 0.000000 
#    z 0.000000 0.000000 4.625130 
# 
# 
# High freq. dielectric constant tensor:
#      x y z
#    x 1.716210 0.000000 0.000000 
#    y 0.000000 1.788090 0.000000 
#    z 0.000000 0.000000 1.774330 
# 
# From -- ./inp_files/25531.got.cif
#   From: 2010.03.12/outbox.cif.g09.slc.cpg/sg59_13_cif.got.tgz:25531.got - 2010.04.16 16:29:54.
