data_PCOD8242232
_publ_section_title
;
Structure prediction by ZEFSAII (Michael W. Deem and Ramdas Pophale) SiO2 
 PCOD8242232
Probable space group: P M M N
;
_chemical_formula_sum "Si O2"
_cell_formula_units_Z 40
_cell_length_a 16.384813
_cell_length_b 8.590554
_cell_length_c 13.798129
_cell_angle_alpha 90.000000
_cell_angle_beta 90.000000
_cell_angle_gamma 90.000000
_cell_volume 1942.150416
_symmetry_space_group_name_H-M "P M M N"
_symmetry_group_IT_number 59
_space_group.IT_coordinate_system_code '2'
_symmetry_cell_setting 'orthorhombic'
loop_
_space_group_symop_operation_xyz
x,y,z
1/2-x,1/2-y,z
1/2+x,-y,-z
-x,1/2+y,-z
-x,-y,-z
1/2+x,1/2+y,-z
1/2-x,y,z
x,1/2-y,z
loop_
_atom_site_type_symbol
_atom_site_label
_atom_site_fract_x
_atom_site_fract_y
_atom_site_fract_z
Si Si1 0.750000 0.430451 0.968368
Si Si2 0.938210 0.569151 0.260752
Si Si3 0.920293 0.432541 0.052696
Si Si4 0.250000 0.423042 0.232751
Si Si5 0.159790 0.065111 0.554529
Si Si6 0.089575 0.428874 0.355886
O O1 0.750000 0.250000 0.994063
O O2 0.750000 0.453710 0.853516
O O3 0.834339 0.503260 0.011972
O O4 0.926434 0.750000 0.235223
O O5 0.923376 0.467558 0.166111
O O6 0.875649 0.509992 0.342739
O O7 0.028110 0.542811 0.301950
O O8 0.922797 0.250000 0.034117
O O9 0.000000 0.500000 0.000000
O O10 0.250000 0.250000 0.186776
O O11 0.173709 0.447865 0.300931
O O12 0.250000 0.992608 0.543823
O O13 0.164843 0.250000 0.549836
O O14 0.102145 0.009985 0.466062
O O15 0.058570 0.250000 0.353409
#
# Coordination Sequence:
#
# PCOD8242232 Si02
#       6
#     4   8   8   4   8   8
#     4  10  24  42  61  84 118 156 193 248 311 358
#     4  11  23  36  58  89 121 157 197 243 296 353
#     4  11  24  44  65  89 121 159 202 252 306 363
#     4  10  20  34  59  88 110 146 199 244 291 350
#     4   9  18  35  58  85 119 157 200 243 285 344
#     4  10  19  36  60  85 116 156 200 246 291 346
#
# _framework density 20.595728000000001
#
# number of rings (size 3 to 8) (size 9 to 14) (size 15 to 20)
#    0.000    1.800    1.000    3.000    1.400    5.600 
#    0.000    1.000    0.000    2.400    0.000    0.000 
#    0.000    0.000    0.000    0.000    0.000    0.000 
#
# Total GULP energy -495992.784088 kJ/mol
# GULP energy per Si atom -12399.819602 kJ/mol
# Density = 2.054885 g / cm^3
# Si number density = 20.595728 Si / 1000 Ang^3
#
#
#
# Elastic Constant Matrix: (Units=GPa)
#
#
# Indices 1 2 3 4 5 6 
#
# 1 125.8352 23.0110 45.5767 0.0000 0.0000 0.0000
# 2 23.0110 32.1673 16.5493 0.0000 0.0000 0.0000
# 3 45.5767 16.5493 140.6359 0.0000 0.0000 0.0000
# 4 0.0000 0.0000 0.0000 29.2299 0.0000 0.0000
# 5 0.0000 0.0000 0.0000 0.0000 22.3798 0.0000
# 6 0.0000 0.0000 0.0000 0.0000 0.0000 15.9902
#
#
#
# Elastic Compliance Matrix: (Units=1/GPa)
#
#
# Indices 1 2 3 4 5 6 
#
# 1 0.009925 -0.005796 -0.002534 0.000000 0.000000 0.000000
# 2 -0.005796 0.036475 -0.002414 0.000000 0.000000 0.000000
# 3 -0.002534 -0.002414 0.008216 0.000000 0.000000 0.000000
# 4 0.000000 0.000000 0.000000 0.034212 0.000000 0.000000
# 5 0.000000 0.000000 0.000000 0.000000 0.044683 0.000000
# 6 0.000000 0.000000 0.000000 0.000000 0.000000 0.062538
#
#
# Mechanical properties :
#
#
# Convention : Reuss Voigt Hill
#
# Bulk Modulus (GPa) = 30.18603 52.10135 41.14369
# Shear Modulus (GPa) = 21.87420 27.75341 24.81380
#
# Velocity S-wave (km/s) = 3.26248 3.67486 3.47479
# Velocity P-wave (km/s) = 5.37401 6.58469 6.00992
#
# Compressibility (1/GPa) = 0.03312791
#
# Stress axis : x y z
#
# Youngs Moduli (GPa) = 100.75901 27.41569 121.71464
#
# Poissons Ratio (x) = 0.15890 0.30846
# Poissons Ratio (y) = 0.58398 0.29381
# Poissons Ratio (z) = 0.25536 0.06618
#
# Static dielectric constant tensor:
#      x y z
#    x 4.096970 0.000000 0.000000 
#    y 0.000000 3.487810 0.000000 
#    z 0.000000 0.000000 3.852600 
# 
# 
# High freq. dielectric constant tensor:
#      x y z
#    x 1.821170 0.000000 0.000000 
#    y 0.000000 1.775330 0.000000 
#    z 0.000000 0.000000 1.819910 
# 
# From -- ./inp_files/19987.got.cif
#   From: 2010.03.12/outbox.cif.g09.slc.cpg/sg59_10_cif.got.tgz:19987.got - 2010.04.16 16:29:54.
