data_PCOD8242329
_publ_section_title
;
Structure prediction by ZEFSAII (Michael W. Deem and Ramdas Pophale) SiO2 
 PCOD8242329
Probable space group: P M M N
;
_chemical_formula_sum "Si O2"
_cell_formula_units_Z 64
_cell_length_a 18.512335
_cell_length_b 8.764450
_cell_length_c 21.332909
_cell_angle_alpha 90.000000
_cell_angle_beta 90.000000
_cell_angle_gamma 90.000000
_cell_volume 3461.273754
_symmetry_space_group_name_H-M "P M M N"
_symmetry_group_IT_number 59
_space_group.IT_coordinate_system_code '2'
_symmetry_cell_setting 'orthorhombic'
loop_
_space_group_symop_operation_xyz
x,y,z
1/2-x,1/2-y,z
1/2+x,-y,-z
-x,1/2+y,-z
-x,-y,-z
1/2+x,1/2+y,-z
1/2-x,y,z
x,1/2-y,z
loop_
_atom_site_type_symbol
_atom_site_label
_atom_site_fract_x
_atom_site_fract_y
_atom_site_fract_z
Si Si1 0.578437 0.068484 0.497199
Si Si2 0.967031 0.570127 0.061985
Si Si3 0.666182 0.072422 0.751999
Si Si4 0.332250 0.931963 0.622586
Si Si5 0.396357 0.571628 0.751066
Si Si6 0.168082 0.930209 0.880168
Si Si7 0.170592 0.568925 0.388037
Si Si8 0.962141 0.572198 0.819230
O O1 0.574376 0.250000 0.496736
O O2 0.621888 0.007808 0.436602
O O3 0.617089 0.004439 0.559572
O O4 0.500000 0.000000 0.500000
O O5 0.965785 0.750000 0.055767
O O6 0.885062 0.510932 0.070717
O O7 0.017426 0.522241 0.119577
O O8 0.000000 0.500000 0.000000
O O9 0.750000 0.038736 0.766247
O O10 0.648845 0.250000 0.761888
O O11 0.645819 0.020064 0.681490
O O12 0.618089 0.973354 0.798834
O O13 0.250000 0.991732 0.617444
O O14 0.332963 0.750000 0.623273
O O15 0.368842 0.001615 0.685775
O O16 0.383274 0.750000 0.745205
O O17 0.349248 0.510579 0.809752
O O18 0.480753 0.533781 0.763538
O O19 0.250000 0.973679 0.897591
O O20 0.154416 0.750000 0.884102
O O21 0.250000 0.501783 0.401913
O O22 0.174523 0.750000 0.391325
O O23 0.965221 0.750000 0.836359
#
# Coordination Sequence:
#
# PCOD8242329 Si02
#       8
#     8   8   8   8   8   8   8   8
#     4  10  20  31  46  69  97 130 170 217 264 312
#     4  11  22  38  59  82 112 147 184 221 258 307
#     4   9  18  33  53  75 100 134 178 224 271 322
#     4   9  16  27  46  71  97 128 170 214 253 300
#     4   8  15  27  46  75 106 135 166 208 258 307
#     4   9  17  32  55  82 113 146 180 218 263 314
#     4   8  15  30  50  69  92 129 176 220 261 313
#     4  10  20  34  54  80 110 139 170 212 264 320
#
# _framework density 18.490303999999998
#
# number of rings (size 3 to 8) (size 9 to 14) (size 15 to 20)
#    0.000    2.750    0.000    3.750    1.750    3.500 
#    0.000    0.625    0.000    6.000    0.000    0.000 
#    0.000    0.000    0.000    0.000    0.000    0.000 
#
# Total GULP energy -793409.472610 kJ/mol
# GULP energy per Si atom -12397.023010 kJ/mol
# Density = 1.844822 g / cm^3
# Si number density = 18.490304 Si / 1000 Ang^3
#
#
#
# Elastic Constant Matrix: (Units=GPa)
#
#
# Indices 1 2 3 4 5 6 
#
# 1 142.9012 39.6784 79.2685 0.0000 0.0000 0.0000
# 2 39.6784 50.6704 31.9929 0.0000 0.0000 0.0000
# 3 79.2685 31.9929 112.2897 0.0000 0.0000 0.0000
# 4 0.0000 0.0000 0.0000 16.8105 0.0000 0.0000
# 5 0.0000 0.0000 0.0000 0.0000 31.6730 0.0000
# 6 0.0000 0.0000 0.0000 0.0000 0.0000 29.0308
#
#
#
# Elastic Compliance Matrix: (Units=1/GPa)
#
#
# Indices 1 2 3 4 5 6 
#
# 1 0.012514 -0.005148 -0.007367 0.000000 0.000000 0.000000
# 2 -0.005148 0.026182 -0.003826 0.000000 0.000000 0.000000
# 3 -0.007367 -0.003826 0.015196 0.000000 0.000000 0.000000
# 4 0.000000 0.000000 0.000000 0.059487 0.000000 0.000000
# 5 0.000000 0.000000 0.000000 0.000000 0.031573 0.000000
# 6 0.000000 0.000000 0.000000 0.000000 0.000000 0.034446
#
#
# Mechanical properties :
#
#
# Convention : Reuss Voigt Hill
#
# Bulk Modulus (GPa) = 47.14579 67.52677 57.33628
# Shear Modulus (GPa) = 22.81557 25.83098 24.32328
#
# Velocity S-wave (km/s) = 3.51653 3.74170 3.63086
# Velocity P-wave (km/s) = 6.48390 7.43414 6.97522
#
# Compressibility (1/GPa) = 0.02121080
#
# Stress axis : x y z
#
# Youngs Moduli (GPa) = 79.91187 38.19448 65.80550
#
# Poissons Ratio (x) = 0.19661 0.48480
# Poissons Ratio (y) = 0.41135 0.25176
# Poissons Ratio (z) = 0.58873 0.14612
#
# Static dielectric constant tensor:
#      x y z
#    x 3.510900 0.000000 0.000000 
#    y 0.000000 2.993130 0.000000 
#    z 0.000000 0.000000 3.601650 
# 
# 
# High freq. dielectric constant tensor:
#      x y z
#    x 1.725490 0.000000 0.000000 
#    y 0.000000 1.676770 0.000000 
#    z 0.000000 0.000000 1.716730 
# 
# From -- ./inp_files/30774.got.cif
#   From: 2010.03.12/outbox.cif.g09.slc.cpg/sg59_16_cif.got.tgz:30774.got - 2010.04.16 16:29:54.
