data_PCOD8242602
_publ_section_title
;
Structure prediction by ZEFSAII (Michael W. Deem and Ramdas Pophale) SiO2 
 PCOD8242602
Probable space group: P M M N
;
_chemical_formula_sum "Si O2"
_cell_formula_units_Z 64
_cell_length_a 13.653940
_cell_length_b 9.446613
_cell_length_c 30.527062
_cell_angle_alpha 90.000000
_cell_angle_beta 90.000000
_cell_angle_gamma 90.000000
_cell_volume 3937.486908
_symmetry_space_group_name_H-M "P M M N"
_symmetry_group_IT_number 59
_space_group.IT_coordinate_system_code '2'
_symmetry_cell_setting 'orthorhombic'
loop_
_space_group_symop_operation_xyz
x,y,z
1/2-x,1/2-y,z
1/2+x,-y,-z
-x,1/2+y,-z
-x,-y,-z
1/2+x,1/2+y,-z
1/2-x,y,z
x,1/2-y,z
loop_
_atom_site_type_symbol
_atom_site_label
_atom_site_fract_x
_atom_site_fract_y
_atom_site_fract_z
Si Si1 0.974185 0.086493 0.956945
Si Si2 0.637392 0.584858 0.885499
Si Si3 0.475766 0.084968 0.564795
Si Si4 0.641807 0.905645 0.110220
Si Si5 0.638099 0.915008 0.522304
Si Si6 0.362791 0.915456 0.736264
Si Si7 0.535401 0.085037 0.176648
Si Si8 0.637512 0.585680 0.349001
O O1 0.942514 0.250000 0.966631
O O2 0.075127 0.080092 0.931700
O O3 0.890929 0.009023 0.927794
O O4 0.000000 0.000000 0.000000
O O5 0.750000 0.554175 0.873210
O O6 0.621033 0.750000 0.897314
O O7 0.572017 0.542122 0.842580
O O8 0.501147 0.250000 0.565210
O O9 0.399596 0.048210 0.526269
O O10 0.427628 0.035791 0.610172
O O11 0.576358 0.999863 0.558459
O O12 0.750000 0.933147 0.092387
O O13 0.630259 0.750000 0.131526
O O14 0.619060 0.018761 0.147021
O O15 0.750000 0.964554 0.525677
O O16 0.626679 0.750000 0.532476
O O17 0.250000 0.953559 0.749284
O O18 0.371825 0.750000 0.726352
O O19 0.440940 0.963167 0.773693
O O20 0.396287 0.998342 0.693190
O O21 0.551106 0.250000 0.173232
O O22 0.750000 0.553928 0.360881
O O23 0.621533 0.750000 0.338601
#
# Coordination Sequence:
#
# PCOD8242602 Si02
#       8
#     8   8   8   8   8   8   8   8
#     4  10  20  33  48  68  94 122 152 185 222 265
#     4   9  18  33  52  71  91 119 155 193 231 268
#     4   9  17  29  45  65  89 118 152 190 229 269
#     4   9  18  31  46  65  89 116 144 176 216 260
#     4   9  17  29  45  65  89 117 150 189 232 275
#     4   9  17  28  43  66  94 120 146 181 227 274
#     4   9  17  30  48  69  92 117 146 182 222 265
#     4   9  17  29  45  65  90 121 154 184 218 266
#
# _framework density 16.254021999999999
#
# number of rings (size 3 to 8) (size 9 to 14) (size 15 to 20)
#    0.000    2.875    0.000    1.125    0.000    4.750 
#    0.000    2.500    0.000    3.000    0.000    1.750 
#    0.000    0.000    0.000    0.000    0.000    0.000 
#
# Total GULP energy -793328.747939 kJ/mol
# GULP energy per Si atom -12395.761687 kJ/mol
# Density = 1.621703 g / cm^3
# Si number density = 16.254022 Si / 1000 Ang^3
#
#
#
# Elastic Constant Matrix: (Units=GPa)
#
#
# Indices 1 2 3 4 5 6 
#
# 1 112.1277 43.8990 62.1210 0.0000 0.0000 0.0000
# 2 43.8990 49.2670 52.9392 0.0000 0.0000 0.0000
# 3 62.1210 52.9392 122.1589 0.0000 0.0000 0.0000
# 4 0.0000 0.0000 0.0000 29.8385 0.0000 0.0000
# 5 0.0000 0.0000 0.0000 0.0000 19.0972 0.0000
# 6 0.0000 0.0000 0.0000 0.0000 0.0000 23.7096
#
#
#
# Elastic Compliance Matrix: (Units=1/GPa)
#
#
# Indices 1 2 3 4 5 6 
#
# 1 0.014370 -0.009268 -0.003291 0.000000 0.000000 0.000000
# 2 -0.009268 0.043964 -0.014339 0.000000 0.000000 0.000000
# 3 -0.003291 -0.014339 0.016074 0.000000 0.000000 0.000000
# 4 0.000000 0.000000 0.000000 0.033514 0.000000 0.000000
# 5 0.000000 0.000000 0.000000 0.000000 0.052364 0.000000
# 6 0.000000 0.000000 0.000000 0.000000 0.000000 0.042177
#
#
# Mechanical properties :
#
#
# Convention : Reuss Voigt Hill
#
# Bulk Modulus (GPa) = 48.51798 66.83020 57.67409
# Shear Modulus (GPa) = 19.00204 22.83536 20.91870
#
# Velocity S-wave (km/s) = 3.42287 3.75227 3.59135
# Velocity P-wave (km/s) = 6.74804 7.74455 7.26341
#
# Compressibility (1/GPa) = 0.02061092
#
# Stress axis : x y z
#
# Youngs Moduli (GPa) = 69.58784 22.74603 62.21270
#
# Poissons Ratio (x) = 0.21081 0.20476
# Poissons Ratio (y) = 0.64493 0.89208
# Poissons Ratio (z) = 0.22904 0.32616
#
# Static dielectric constant tensor:
#      x y z
#    x 3.195430 0.000000 0.000000 
#    y 0.000000 3.177610 0.000000 
#    z 0.000000 0.000000 3.062780 
# 
# 
# High freq. dielectric constant tensor:
#      x y z
#    x 1.616420 0.000000 0.000000 
#    y 0.000000 1.628290 0.000000 
#    z 0.000000 0.000000 1.614510 
# 
# From -- ./inp_files/33337.got.cif
#   From: 2010.03.12/outbox.cif.g09.slc.cpg/sg59_17_cif.got.tgz:33337.got - 2010.04.16 16:29:54.
