data_PCOD8242434
_publ_section_title
;
Structure prediction by ZEFSAII (Michael W. Deem and Ramdas Pophale) SiO2 
 PCOD8242434
Probable space group: P M M N
;
_chemical_formula_sum "Si O2"
_cell_formula_units_Z 48
_cell_length_a 9.304795
_cell_length_b 30.793373
_cell_length_c 9.680988
_cell_angle_alpha 90.000000
_cell_angle_beta 90.000000
_cell_angle_gamma 90.000000
_cell_volume 2773.854992
_symmetry_space_group_name_H-M "P M M N"
_symmetry_group_IT_number 59
_space_group.IT_coordinate_system_code '2'
_symmetry_cell_setting 'orthorhombic'
loop_
_space_group_symop_operation_xyz
x,y,z
1/2-x,1/2-y,z
1/2+x,-y,-z
-x,1/2+y,-z
-x,-y,-z
1/2+x,1/2+y,-z
1/2-x,y,z
x,1/2-y,z
loop_
_atom_site_type_symbol
_atom_site_label
_atom_site_fract_x
_atom_site_fract_y
_atom_site_fract_z
Si Si1 0.585402 0.800667 0.339195
Si Si2 0.586483 0.042509 0.127133
Si Si3 0.414689 0.050765 0.853793
Si Si4 0.919532 0.798423 0.651633
Si Si5 0.088777 0.636151 0.836511
Si Si6 0.583604 0.132451 0.837776
O O1 0.750000 0.814891 0.315726
O O2 0.566864 0.750000 0.307541
O O3 0.536899 0.811088 0.495779
O O4 0.483406 0.826085 0.235661
O O5 0.750000 0.043537 0.063087
O O6 0.567935 0.086386 0.218330
O O7 0.568066 0.997628 0.215453
O O8 0.465125 0.044072 0.010618
O O9 0.250000 0.066302 0.850588
O O10 0.509587 0.088051 0.780845
O O11 0.750000 0.799121 0.666502
O O12 0.976938 0.750000 0.686253
O O13 0.981757 0.832450 0.758759
O O14 0.250000 0.652475 0.807403
O O15 0.055445 0.637148 0.999467
O O16 0.750000 0.130000 0.800347
#
# Coordination Sequence:
#
# PCOD8242434 Si02
#       6
#     8   8   8   8   8   8
#     4   9  19  36  54  70  91 122 160 199 239 285
#     4   8  15  27  42  65  97 127 156 194 236 278
#     4   9  15  25  44  67  93 127 161 192 232 280
#     4   9  19  35  52  70  93 122 158 198 237 281
#     4   9  18  31  47  71 101 127 153 190 235 279
#     4  10  20  32  47  72 103 128 156 197 239 279
#
# _framework density 17.304438000000001
#
# number of rings (size 3 to 8) (size 9 to 14) (size 15 to 20)
#    0.000    3.000    0.000    3.000    0.000    6.000 
#    0.000    5.000    0.000    1.000    0.000    0.000 
#    0.000    0.000    0.000    0.000    0.000    0.000 
#
# Total GULP energy -594751.124903 kJ/mol
# GULP energy per Si atom -12390.648435 kJ/mol
# Density = 1.726505 g / cm^3
# Si number density = 17.304438 Si / 1000 Ang^3
#
#
#
# Elastic Constant Matrix: (Units=GPa)
#
#
# Indices 1 2 3 4 5 6 
#
# 1 80.3004 56.9082 30.8031 0.0000 0.0000 0.0000
# 2 56.9082 122.0050 44.7612 0.0000 0.0000 0.0000
# 3 30.8031 44.7612 40.2259 0.0000 0.0000 0.0000
# 4 0.0000 0.0000 0.0000 -2.4913 0.0000 0.0000
# 5 0.0000 0.0000 0.0000 0.0000 20.9313 0.0000
# 6 0.0000 0.0000 0.0000 0.0000 0.0000 33.4189
#
#
#
# Elastic Compliance Matrix: (Units=1/GPa)
#
#
# Indices 1 2 3 4 5 6 
#
# 1 0.020154 -0.006318 -0.008403 0.000000 0.000000 0.000000
# 2 -0.006318 0.015831 -0.012778 0.000000 0.000000 0.000000
# 3 -0.008403 -0.012778 0.045513 0.000000 0.000000 0.000000
# 4 0.000000 0.000000 0.000000 -0.401402 0.000000 0.000000
# 5 0.000000 0.000000 0.000000 0.000000 0.047775 0.000000
# 6 0.000000 0.000000 0.000000 0.000000 0.000000 0.029923
#
#
# Mechanical properties :
#
#
# Convention : Reuss Voigt Hill
#
# Bulk Modulus (GPa) = 37.73521 56.38625 47.06073
# Shear Modulus (GPa) = -28.03109 17.70905 -5.16102
#
# Velocity S-wave (km/s) = -4.02914 3.20250 -1.72886
# Velocity P-wave (km/s) = 0.45688 6.80664 4.82385
#
# Compressibility (1/GPa) = 0.02650045
#
# Stress axis : x y z
#
# Youngs Moduli (GPa) = 49.61825 63.16547 21.97162
#
# Poissons Ratio (x) = 0.39907 0.18462
# Poissons Ratio (y) = 0.31348 0.28076
# Poissons Ratio (z) = 0.41693 0.80716
#
# Static dielectric constant tensor:
#      x y z
#    x 3.235240 0.000000 0.000000 
#    y 0.000000 3.640220 0.000000 
#    z 0.000000 0.000000 2.777720 
# 
# 
# High freq. dielectric constant tensor:
#      x y z
#    x 1.675470 0.000000 0.000000 
#    y 0.000000 1.691290 0.000000 
#    z 0.000000 0.000000 1.609550 
# 
# From -- ./inp_files/14521.got.cif
#   From: 2010.03.12/outbox.cif.g09.slc.cpg/sg59_8_cif.got.tgz:14521.got - 2010.04.16 16:29:54.
