data_PCOD8242496
_publ_section_title
;
Structure prediction by ZEFSAII (Michael W. Deem and Ramdas Pophale) SiO2 
 PCOD8242496
Probable space group: P M M N
;
_chemical_formula_sum "Si O2"
_cell_formula_units_Z 56
_cell_length_a 9.452029
_cell_length_b 21.223883
_cell_length_c 14.073457
_cell_angle_alpha 90.000000
_cell_angle_beta 90.000000
_cell_angle_gamma 90.000000
_cell_volume 2823.258724
_symmetry_space_group_name_H-M "P M M N"
_symmetry_group_IT_number 59
_space_group.IT_coordinate_system_code '2'
_symmetry_cell_setting 'orthorhombic'
loop_
_space_group_symop_operation_xyz
x,y,z
1/2-x,1/2-y,z
1/2+x,-y,-z
-x,1/2+y,-z
-x,-y,-z
1/2+x,1/2+y,-z
1/2-x,y,z
x,1/2-y,z
loop_
_atom_site_type_symbol
_atom_site_label
_atom_site_fract_x
_atom_site_fract_y
_atom_site_fract_z
Si Si1 0.583464 0.322133 0.093608
Si Si2 0.917462 0.438528 0.966077
Si Si3 0.589010 0.358473 0.304442
Si Si4 0.097710 0.320427 0.461752
Si Si5 0.093062 0.820485 0.376214
Si Si6 0.585224 0.006456 0.401246
Si Si7 0.908811 0.431016 0.748190
O O1 0.750000 0.316391 0.083971
O O2 0.520918 0.250000 0.081228
O O3 0.541358 0.353019 0.194904
O O4 0.528354 0.373458 0.016182
O O5 0.750000 0.447431 0.984242
O O6 0.957150 0.434759 0.856009
O O7 0.000000 0.500000 0.000000
O O8 0.750000 0.334869 0.314053
O O9 0.484564 0.314045 0.362773
O O10 0.567476 0.426122 0.351998
O O11 0.250000 0.355045 0.450166
O O12 0.122857 0.250000 0.497669
O O13 0.006224 0.354394 0.544345
O O14 0.250000 0.822008 0.421451
O O15 0.045249 0.750000 0.352035
O O16 0.090146 0.857192 0.277327
O O17 0.750000 0.990718 0.419942
O O18 0.500000 0.000000 0.500000
O O19 0.521326 0.961649 0.321482
O O20 0.750000 0.459364 0.733783
#
# Coordination Sequence:
#
# PCOD8242496 Si02
#       7
#     8   8   8   8   8   8   8
#     4   9  18  34  58  86 112 142 188 244 296 347
#     4  10  21  38  60  85 113 146 186 233 286 345
#     4  10  20  34  53  76 104 142 186 229 276 331
#     4  10  20  32  48  74 106 138 173 214 262 317
#     4   9  18  33  52  74 102 136 173 213 259 315
#     4  11  23  37  55  81 114 150 189 232 278 333
#     4  10  21  36  55  80 108 139 177 220 269 325
#
# _framework density 19.835235000000001
#
# number of rings (size 3 to 8) (size 9 to 14) (size 15 to 20)
#    0.000    2.143    0.000    3.000    0.000    8.857 
#    0.000    3.571    0.000    1.286    0.000    2.000 
#    0.000    0.000    0.000    0.000    0.000    0.000 
#
# Total GULP energy -693813.245127 kJ/mol
# GULP energy per Si atom -12389.522234 kJ/mol
# Density = 1.979009 g / cm^3
# Si number density = 19.835235 Si / 1000 Ang^3
#
#
#
# Elastic Constant Matrix: (Units=GPa)
#
#
# Indices 1 2 3 4 5 6 
#
# 1 96.1852 45.6202 65.8796 0.0000 0.0000 0.0000
# 2 45.6202 105.2252 67.4332 0.0000 0.0000 0.0000
# 3 65.8796 67.4332 164.6230 0.0000 0.0000 0.0000
# 4 0.0000 0.0000 0.0000 32.2297 0.0000 0.0000
# 5 0.0000 0.0000 0.0000 0.0000 24.0078 0.0000
# 6 0.0000 0.0000 0.0000 0.0000 0.0000 23.7463
#
#
#
# Elastic Compliance Matrix: (Units=1/GPa)
#
#
# Indices 1 2 3 4 5 6 
#
# 1 0.015303 -0.003675 -0.004619 0.000000 0.000000 0.000000
# 2 -0.003675 0.013768 -0.004169 0.000000 0.000000 0.000000
# 3 -0.004619 -0.004169 0.009631 0.000000 0.000000 0.000000
# 4 0.000000 0.000000 0.000000 0.031027 0.000000 0.000000
# 5 0.000000 0.000000 0.000000 0.000000 0.041653 0.000000
# 6 0.000000 0.000000 0.000000 0.000000 0.000000 0.042112
#
#
# Mechanical properties :
#
#
# Convention : Reuss Voigt Hill
#
# Bulk Modulus (GPa) = 72.58678 80.43327 76.51002
# Shear Modulus (GPa) = 27.32060 28.47014 27.89537
#
# Velocity S-wave (km/s) = 3.71533 3.79269 3.75421
# Velocity P-wave (km/s) = 7.42154 7.73421 7.57949
#
# Compressibility (1/GPa) = 0.01377661
#
# Stress axis : x y z
#
# Youngs Moduli (GPa) = 65.34657 72.62976 103.83439
#
# Poissons Ratio (x) = 0.26689 0.47959
# Poissons Ratio (y) = 0.24012 0.43292
# Poissons Ratio (z) = 0.30182 0.30282
#
# Static dielectric constant tensor:
#      x y z
#    x 3.717420 0.000000 0.000000 
#    y 0.000000 3.846250 0.000000 
#    z 0.000000 0.000000 3.702150 
# 
# 
# High freq. dielectric constant tensor:
#      x y z
#    x 1.757170 0.000000 0.000000 
#    y 0.000000 1.779380 0.000000 
#    z 0.000000 0.000000 1.772930 
# 
# From -- ./inp_files/21033.got.cif
#   From: 2010.03.12/outbox.cif.g09.slc.cpg/sg59_11_cif.got.tgz:21033.got - 2010.04.16 16:29:54.
