data_PCOD8242563
_publ_section_title
;
Structure prediction by ZEFSAII (Michael W. Deem and Ramdas Pophale) SiO2 
 PCOD8242563
Probable space group: P M M N
;
_chemical_formula_sum "Si O2"
_cell_formula_units_Z 64
_cell_length_a 28.848386
_cell_length_b 9.281153
_cell_length_c 12.518864
_cell_angle_alpha 90.000000
_cell_angle_beta 90.000000
_cell_angle_gamma 90.000000
_cell_volume 3351.879319
_symmetry_space_group_name_H-M "P M M N"
_symmetry_group_IT_number 59
_space_group.IT_coordinate_system_code '2'
_symmetry_cell_setting 'orthorhombic'
loop_
_space_group_symop_operation_xyz
x,y,z
1/2-x,1/2-y,z
1/2+x,-y,-z
-x,1/2+y,-z
-x,-y,-z
1/2+x,1/2+y,-z
1/2-x,y,z
x,1/2-y,z
loop_
_atom_site_type_symbol
_atom_site_label
_atom_site_fract_x
_atom_site_fract_y
_atom_site_fract_z
Si Si1 0.960740 0.917050 0.712568
Si Si2 0.820087 0.411649 0.843694
Si Si3 0.424158 0.589025 0.102228
Si Si4 0.612550 0.081494 0.120760
Si Si5 0.610918 0.578974 0.532581
Si Si6 0.301679 0.083817 0.949621
Si Si7 0.301747 0.916558 0.394292
Si Si8 0.064006 0.916297 0.657737
O O1 0.955472 0.750000 0.737421
O O2 0.920402 0.970829 0.632906
O O3 0.009559 0.951077 0.656752
O O4 0.959052 0.993549 0.827875
O O5 0.802848 0.250000 0.871501
O O6 0.875329 0.415430 0.837573
O O7 0.800923 0.461645 0.729680
O O8 0.800832 0.520866 0.931091
O O9 0.444643 0.750000 0.098494
O O10 0.417677 0.528655 0.981512
O O11 0.623805 0.250000 0.105851
O O12 0.583921 0.047415 0.225927
O O13 0.661750 0.999531 0.125161
O O14 0.613851 0.750000 0.525021
O O15 0.662443 0.515151 0.541294
O O16 0.588346 0.520480 0.425090
O O17 0.250000 0.067242 0.900436
O O18 0.316525 0.250000 0.955955
O O19 0.250000 0.941453 0.440952
O O20 0.316847 0.750000 0.406389
O O21 0.073519 0.750000 0.627543
#
# Coordination Sequence:
#
# PCOD8242563 Si02
#       8
#     8   8   8   8   8   8   8   8
#     4  10  21  36  57  86 115 145 181 228 284 337
#     4   9  17  31  52  79 112 148 184 223 265 320
#     4   9  17  31  54  83 114 144 176 220 273 326
#     4   9  20  38  57  79 108 145 189 233 274 323
#     4  11  23  38  57  84 117 147 183 232 285 335
#     4  10  20  32  50  79 112 145 181 224 277 333
#     4  10  20  35  57  83 111 148 190 226 270 330
#     4  10  22  41  61  79 106 147 195 239 277 328
#
# _framework density 19.093768000000001
#
# number of rings (size 3 to 8) (size 9 to 14) (size 15 to 20)
#    0.000    2.250    1.250    2.250    0.000    6.250 
#    0.000    0.625    0.000    0.750    0.000    0.000 
#    0.000    0.000    0.000    0.000    0.000    0.000 
#
# Total GULP energy -793626.389988 kJ/mol
# GULP energy per Si atom -12400.412344 kJ/mol
# Density = 1.905031 g / cm^3
# Si number density = 19.093768 Si / 1000 Ang^3
#
#
#
# Elastic Constant Matrix: (Units=GPa)
#
#
# Indices 1 2 3 4 5 6 
#
# 1 92.8094 45.6721 41.9981 0.0000 0.0000 0.0000
# 2 45.6721 76.3449 45.6602 0.0000 0.0000 0.0000
# 3 41.9981 45.6602 84.9290 0.0000 0.0000 0.0000
# 4 0.0000 0.0000 0.0000 25.6544 0.0000 0.0000
# 5 0.0000 0.0000 0.0000 0.0000 11.3899 0.0000
# 6 0.0000 0.0000 0.0000 0.0000 0.0000 23.1915
#
#
#
# Elastic Compliance Matrix: (Units=1/GPa)
#
#
# Indices 1 2 3 4 5 6 
#
# 1 0.016196 -0.007221 -0.004127 0.000000 0.000000 0.000000
# 2 -0.007221 0.022525 -0.008540 0.000000 0.000000 0.000000
# 3 -0.004127 -0.008540 0.018406 0.000000 0.000000 0.000000
# 4 0.000000 0.000000 0.000000 0.038980 0.000000 0.000000
# 5 0.000000 0.000000 0.000000 0.000000 0.087797 0.000000
# 6 0.000000 0.000000 0.000000 0.000000 0.000000 0.043119
#
#
# Mechanical properties :
#
#
# Convention : Reuss Voigt Hill
#
# Bulk Modulus (GPa) = 57.62600 57.86045 57.74323
# Shear Modulus (GPa) = 18.34310 20.09735 19.22023
#
# Velocity S-wave (km/s) = 3.10285 3.24784 3.17617
# Velocity P-wave (km/s) = 6.56376 6.66586 6.61501
#
# Compressibility (1/GPa) = 0.01735328
#
# Stress axis : x y z
#
# Youngs Moduli (GPa) = 61.74546 44.39433 54.32866
#
# Poissons Ratio (x) = 0.32055 0.22421
# Poissons Ratio (y) = 0.44583 0.46395
# Poissons Ratio (z) = 0.25482 0.37911
#
# Static dielectric constant tensor:
#      x y z
#    x 3.566990 0.000000 0.000000 
#    y 0.000000 3.432540 0.000000 
#    z 0.000000 0.000000 3.330040 
# 
# 
# High freq. dielectric constant tensor:
#      x y z
#    x 1.745080 0.000000 0.000000 
#    y 0.000000 1.736320 0.000000 
#    z 0.000000 0.000000 1.726400 
# 
# From -- ./inp_files/19384.got.cif
#   From: 2010.03.12/outbox.cif.g09.slc.cpg/sg59_10_cif.got.tgz:19384.got - 2010.04.16 16:29:54.
