data_PCOD8242560
_publ_section_title
;
Structure prediction by ZEFSAII (Michael W. Deem and Ramdas Pophale) SiO2 
 PCOD8242560
Probable space group: P M M N
;
_chemical_formula_sum "Si O2"
_cell_formula_units_Z 48
_cell_length_a 31.586908
_cell_length_b 8.875016
_cell_length_c 9.183712
_cell_angle_alpha 90.000000
_cell_angle_beta 90.000000
_cell_angle_gamma 90.000000
_cell_volume 2574.509602
_symmetry_space_group_name_H-M "P M M N"
_symmetry_group_IT_number 59
_space_group.IT_coordinate_system_code '2'
_symmetry_cell_setting 'orthorhombic'
loop_
_space_group_symop_operation_xyz
x,y,z
1/2-x,1/2-y,z
1/2+x,-y,-z
-x,1/2+y,-z
-x,-y,-z
1/2+x,1/2+y,-z
1/2-x,y,z
x,1/2-y,z
loop_
_atom_site_type_symbol
_atom_site_label
_atom_site_fract_x
_atom_site_fract_y
_atom_site_fract_z
Si Si1 0.037010 0.926795 0.906923
Si Si2 0.380725 0.924782 0.092425
Si Si3 0.294394 0.418782 0.418575
Si Si4 0.115897 0.070935 0.400724
Si Si5 0.203682 0.418834 0.072632
Si Si6 0.462979 0.428543 0.592379
O O1 0.028102 0.750000 0.891558
O O2 0.036894 0.003345 0.751177
O O3 0.082345 0.959829 0.978362
O O4 0.000000 0.000000 0.000000
O O5 0.376248 0.750000 0.126343
O O6 0.393860 0.004361 0.242490
O O7 0.336231 0.980829 0.021921
O O8 0.250000 0.501694 0.467744
O O9 0.292189 0.250000 0.480920
O O10 0.339082 0.493356 0.466580
O O11 0.296196 0.415112 0.245435
O O12 0.118995 0.250000 0.380837
O O13 0.080438 0.023405 0.514511
O O14 0.250000 0.480859 0.018449
O O15 0.197244 0.250000 0.011326
O O16 0.500000 0.500000 0.500000
O O17 0.468811 0.250000 0.600099
#
# Coordination Sequence:
#
# PCOD8242560 Si02
#       6
#     8   8   8   8   8   8
#     4  11  24  40  57  78 105 138 177 220 268 321
#     4  10  20  32  50  78 108 138 173 215 263 311
#     4   7  10  20  41  68  96 125 159 200 243 287
#     4   9  18  32  51  76 104 135 171 211 257 308
#     4   8  14  26  46  72 102 137 175 213 253 300
#     4  11  23  38  57  79 104 136 174 217 265 316
#
# _framework density 18.644328000000002
#
# number of rings (size 3 to 8) (size 9 to 14) (size 15 to 20)
#    0.000    2.667    0.000    4.500    0.000    7.000 
#    0.000    0.000    0.000    1.000    0.000    2.333 
#    0.000    0.000    0.000    0.000    0.000    0.000 
#
# Total GULP energy -594639.047952 kJ/mol
# GULP energy per Si atom -12388.313499 kJ/mol
# Density = 1.860189 g / cm^3
# Si number density = 18.644328 Si / 1000 Ang^3
#
#
#
# Elastic Constant Matrix: (Units=GPa)
#
#
# Indices 1 2 3 4 5 6 
#
# 1 202.5702 65.5539 74.3044 0.0000 0.0000 0.0000
# 2 65.5539 67.6096 40.9588 0.0000 0.0000 0.0000
# 3 74.3044 40.9588 95.9095 0.0000 0.0000 0.0000
# 4 0.0000 0.0000 0.0000 25.2518 0.0000 0.0000
# 5 0.0000 0.0000 0.0000 0.0000 20.0999 0.0000
# 6 0.0000 0.0000 0.0000 0.0000 0.0000 29.7224
#
#
#
# Elastic Compliance Matrix: (Units=1/GPa)
#
#
# Indices 1 2 3 4 5 6 
#
# 1 0.008185 -0.005523 -0.003982 0.000000 0.000000 0.000000
# 2 -0.005523 0.023680 -0.005834 0.000000 0.000000 0.000000
# 3 -0.003982 -0.005834 0.016003 0.000000 0.000000 0.000000
# 4 0.000000 0.000000 0.000000 0.039601 0.000000 0.000000
# 5 0.000000 0.000000 0.000000 0.000000 0.049751 0.000000
# 6 0.000000 0.000000 0.000000 0.000000 0.000000 0.033645
#
#
# Mechanical properties :
#
#
# Convention : Reuss Voigt Hill
#
# Bulk Modulus (GPa) = 58.17508 80.85819 69.51664
# Shear Modulus (GPa) = 24.12271 27.36630 25.74451
#
# Velocity S-wave (km/s) = 3.60090 3.83536 3.71997
# Velocity P-wave (km/s) = 6.96842 7.94205 7.47111
#
# Compressibility (1/GPa) = 0.01718949
#
# Stress axis : x y z
#
# Youngs Moduli (GPa) = 122.17961 42.22907 62.48856
#
# Poissons Ratio (x) = 0.23325 0.24884
# Poissons Ratio (y) = 0.67484 0.36454
# Poissons Ratio (z) = 0.48654 0.24635
#
# Static dielectric constant tensor:
#      x y z
#    x 4.471640 0.000000 0.000000 
#    y 0.000000 3.326830 0.000000 
#    z 0.000000 0.000000 3.038190 
# 
# 
# High freq. dielectric constant tensor:
#      x y z
#    x 1.759970 0.000000 0.000000 
#    y 0.000000 1.704580 0.000000 
#    z 0.000000 0.000000 1.680470 
# 
# From -- ./inp_files/12974.got.cif
#   From: 2010.03.12/outbox.cif.g09.slc.cpg/sg59_7_cif.got.tgz:12974.got - 2010.04.16 16:29:54.
