data_PCOD8242893
_publ_section_title
;
Structure prediction by ZEFSAII (Michael W. Deem and Ramdas Pophale) SiO2 
 PCOD8242893
Probable space group: P M M N
;
_chemical_formula_sum "Si O2"
_cell_formula_units_Z 48
_cell_length_a 8.654294
_cell_length_b 20.575698
_cell_length_c 15.131067
_cell_angle_alpha 90.000000
_cell_angle_beta 90.000000
_cell_angle_gamma 90.000000
_cell_volume 2694.360953
_symmetry_space_group_name_H-M "P M M N"
_symmetry_group_IT_number 59
_space_group.IT_coordinate_system_code '2'
_symmetry_cell_setting 'orthorhombic'
loop_
_space_group_symop_operation_xyz
x,y,z
1/2-x,1/2-y,z
1/2+x,-y,-z
-x,1/2+y,-z
-x,-y,-z
1/2+x,1/2+y,-z
1/2-x,y,z
x,1/2-y,z
loop_
_atom_site_type_symbol
_atom_site_label
_atom_site_fract_x
_atom_site_fract_y
_atom_site_fract_z
Si Si1 0.429800 0.319242 0.382046
Si Si2 0.066534 0.039156 0.418752
Si Si3 0.570423 0.009179 0.234116
Si Si4 0.569596 0.449178 0.930222
Si Si5 0.573405 0.821994 0.000946
Si Si6 0.075031 0.138668 0.191471
O O1 0.250000 0.319084 0.404033
O O2 0.500889 0.250000 0.418264
O O3 0.499321 0.386056 0.422985
O O4 0.459187 0.317855 0.276944
O O5 0.250000 0.039093 0.422438
O O6 0.014401 0.004677 0.328457
O O7 0.000000 0.000000 0.500000
O O8 0.750000 0.996617 0.249589
O O9 0.542489 0.078534 0.188091
O O10 0.504096 0.955659 0.167015
O O11 0.750000 0.463134 0.925293
O O12 0.539874 0.375012 0.958066
O O13 0.500000 0.500000 0.000000
O O14 0.750000 0.840470 0.024510
O O15 0.532411 0.750000 0.037503
O O16 0.551595 0.818571 0.895309
O O17 0.250000 0.110456 0.197198
#
# Coordination Sequence:
#
# PCOD8242893 Si02
#       6
#     8   8   8   8   8   8
#     4   8  14  26  47  75 104 135 170 207 252 311
#     4  10  20  35  56  81 109 139 175 220 269 325
#     4  11  21  34  54  79 106 139 179 225 271 322
#     4  12  23  36  54  77 107 144 187 230 270 319
#     4  10  20  33  51  76 108 146 185 225 272 327
#     4   9  16  28  48  74 106 140 174 211 257 318
#
# _framework density 17.814985
#
# number of rings (size 3 to 8) (size 9 to 14) (size 15 to 20)
#    0.000    2.000    1.667    5.000    0.000    2.333 
#    0.000    0.000    0.000   17.500    0.000    2.333 
#    0.000    0.000    0.000    0.000    0.000    0.000 
#
# Total GULP energy -594890.744649 kJ/mol
# GULP energy per Si atom -12393.557180 kJ/mol
# Density = 1.777444 g / cm^3
# Si number density = 17.814985 Si / 1000 Ang^3
#
#
#
# Elastic Constant Matrix: (Units=GPa)
#
#
# Indices 1 2 3 4 5 6 
#
# 1 80.6741 31.0865 30.1225 0.0000 0.0000 0.0000
# 2 31.0865 120.1660 60.0887 0.0000 0.0000 0.0000
# 3 30.1225 60.0887 92.9026 0.0000 0.0000 0.0000
# 4 0.0000 0.0000 0.0000 16.1522 0.0000 0.0000
# 5 0.0000 0.0000 0.0000 0.0000 26.9456 0.0000
# 6 0.0000 0.0000 0.0000 0.0000 0.0000 22.4441
#
#
#
# Elastic Compliance Matrix: (Units=1/GPa)
#
#
# Indices 1 2 3 4 5 6 
#
# 1 0.014440 -0.002061 -0.003349 0.000000 0.000000 0.000000
# 2 -0.002061 0.012594 -0.007478 0.000000 0.000000 0.000000
# 3 -0.003349 -0.007478 0.016686 0.000000 0.000000 0.000000
# 4 0.000000 0.000000 0.000000 0.061911 0.000000 0.000000
# 5 0.000000 0.000000 0.000000 0.000000 0.037112 0.000000
# 6 0.000000 0.000000 0.000000 0.000000 0.000000 0.044555
#
#
# Mechanical properties :
#
#
# Convention : Reuss Voigt Hill
#
# Bulk Modulus (GPa) = 55.72427 59.59313 57.65870
# Shear Modulus (GPa) = 22.82526 24.60470 23.71498
#
# Velocity S-wave (km/s) = 3.58332 3.72038 3.65249
# Velocity P-wave (km/s) = 6.96187 7.20963 7.08683
#
# Compressibility (1/GPa) = 0.01794550
#
# Stress axis : x y z
#
# Youngs Moduli (GPa) = 69.25111 79.40228 59.92952
#
# Poissons Ratio (x) = 0.16364 0.20071
# Poissons Ratio (y) = 0.14272 0.44812
# Poissons Ratio (z) = 0.23193 0.59373
#
# Static dielectric constant tensor:
#      x y z
#    x 3.181820 0.000000 0.000000 
#    y 0.000000 3.416210 0.000000 
#    z 0.000000 0.000000 3.177230 
# 
# 
# High freq. dielectric constant tensor:
#      x y z
#    x 1.675670 0.000000 0.000000 
#    y 0.000000 1.687560 0.000000 
#    z 0.000000 0.000000 1.663890 
# 
# From -- ./inp_files/20699.got.cif
#   From: 2010.03.12/outbox.cif.g09.slc.cpg/sg59_11_cif.got.tgz:20699.got - 2010.04.16 16:29:54.
