data_PCOD8242106
_publ_section_title
;
Structure prediction by ZEFSAII (Michael W. Deem and Ramdas Pophale) SiO2 
 PCOD8242106
Probable space group: P M M N
;
_chemical_formula_sum "Si O2"
_cell_formula_units_Z 56
_cell_length_a 9.197444
_cell_length_b 14.451230
_cell_length_c 22.319874
_cell_angle_alpha 90.000000
_cell_angle_beta 90.000000
_cell_angle_gamma 90.000000
_cell_volume 2966.632184
_symmetry_space_group_name_H-M "P M M N"
_symmetry_group_IT_number 59
_space_group.IT_coordinate_system_code '2'
_symmetry_cell_setting 'orthorhombic'
loop_
_space_group_symop_operation_xyz
x,y,z
1/2-x,1/2-y,z
1/2+x,-y,-z
-x,1/2+y,-z
-x,-y,-z
1/2+x,1/2+y,-z
1/2-x,y,z
x,1/2-y,z
loop_
_atom_site_type_symbol
_atom_site_label
_atom_site_fract_x
_atom_site_fract_y
_atom_site_fract_z
Si Si1 0.076619 0.750000 0.879270
Si Si2 0.918818 0.570458 0.836535
Si Si3 0.417145 0.859220 0.608838
Si Si4 0.583279 0.976013 0.702314
Si Si5 0.420547 0.552772 0.052445
Si Si6 0.421546 0.750000 0.015433
Si Si7 0.586140 0.639908 0.493106
Si Si8 0.582547 0.145487 0.622988
O O1 0.250000 0.750000 0.875512
O O2 0.016698 0.660301 0.845610
O O3 0.017354 0.750000 0.947500
O O4 0.750000 0.598606 0.842735
O O5 0.954221 0.526895 0.772217
O O6 0.962172 0.491527 0.884099
O O7 0.250000 0.887482 0.602464
O O8 0.437346 0.750000 0.614597
O O9 0.482259 0.903305 0.668536
O O10 0.500500 0.899117 0.550642
O O11 0.750000 0.947590 0.690247
O O12 0.553073 0.080583 0.680114
O O13 0.250000 0.546462 0.039603
O O14 0.474892 0.659365 0.051383
O O15 0.500000 0.500000 0.000000
O O16 0.250000 0.750000 0.010670
O O17 0.750000 0.601698 0.495087
O O18 0.581855 0.750000 0.494420
O O19 0.510052 0.605324 0.432373
O O20 0.750000 0.143532 0.602922
O O21 0.535302 0.250000 0.640312
#
# Coordination Sequence:
#
# PCOD8242106 Si02
#       8
#     4   8   8   8   8   4   8   8
#     4  11  21  35  59  85 113 147 184 221 270 329
#     4  10  22  38  56  82 114 148 185 226 271 324
#     4  10  21  36  54  79 109 141 180 224 271 324
#     4  10  22  38  54  77 108 145 184 222 270 324
#     4  10  19  35  57  82 114 146 183 228 274 322
#     4   9  18  33  55  85 113 143 178 223 276 323
#     4   9  17  31  54  82 108 137 175 221 276 328
#     4   9  18  35  57  78 104 138 179 227 274 323
#
# _framework density 18.876625000000001
#
# number of rings (size 3 to 8) (size 9 to 14) (size 15 to 20)
#    0.000    2.286    1.429    1.071    1.000    4.286 
#    1.286    0.357    0.000    0.000    0.000    0.000 
#    0.000    0.000    0.000    0.000    0.000    0.000 
#
# Total GULP energy -694507.945128 kJ/mol
# GULP energy per Si atom -12401.927592 kJ/mol
# Density = 1.883366 g / cm^3
# Si number density = 18.876625 Si / 1000 Ang^3
#
#
#
# Elastic Constant Matrix: (Units=GPa)
#
#
# Indices 1 2 3 4 5 6 
#
# 1 89.8414 53.2781 67.3215 0.0000 0.0000 0.0000
# 2 53.2781 111.7033 74.1799 0.0000 0.0000 0.0000
# 3 67.3215 74.1799 164.0717 0.0000 0.0000 0.0000
# 4 0.0000 0.0000 0.0000 32.7708 0.0000 0.0000
# 5 0.0000 0.0000 0.0000 0.0000 28.3975 0.0000
# 6 0.0000 0.0000 0.0000 0.0000 0.0000 19.3547
#
#
#
# Elastic Compliance Matrix: (Units=1/GPa)
#
#
# Indices 1 2 3 4 5 6 
#
# 1 0.018004 -0.005261 -0.005009 0.000000 0.000000 0.000000
# 2 -0.005261 0.014331 -0.004321 0.000000 0.000000 0.000000
# 3 -0.005009 -0.004321 0.010103 0.000000 0.000000 0.000000
# 4 0.000000 0.000000 0.000000 0.030515 0.000000 0.000000
# 5 0.000000 0.000000 0.000000 0.000000 0.035214 0.000000
# 6 0.000000 0.000000 0.000000 0.000000 0.000000 0.051667
#
#
# Mechanical properties :
#
#
# Convention : Reuss Voigt Hill
#
# Bulk Modulus (GPa) = 75.42829 83.90840 79.66835
# Shear Modulus (GPa) = 25.84862 27.49373 26.67117
#
# Velocity S-wave (km/s) = 3.70448 3.82055 3.76296
# Velocity P-wave (km/s) = 7.63825 8.00060 7.82152
#
# Compressibility (1/GPa) = 0.01325763
#
# Stress axis : x y z
#
# Youngs Moduli (GPa) = 55.54386 69.78015 98.97598
#
# Poissons Ratio (x) = 0.36711 0.49574
# Poissons Ratio (y) = 0.29221 0.42763
# Poissons Ratio (z) = 0.27820 0.30149
#
# Static dielectric constant tensor:
#      x y z
#    x 3.451050 0.000000 0.000000 
#    y 0.000000 2.832780 0.000000 
#    z 0.000000 0.000000 3.498270 
# 
# 
# High freq. dielectric constant tensor:
#      x y z
#    x 1.726330 0.000000 0.000000 
#    y 0.000000 1.737700 0.000000 
#    z 0.000000 0.000000 1.728110 
# 
# From -- ./inp_files/29201.got.cif
#   From: 2010.03.12/outbox.cif.g09.slc.cpg/sg59_15_cif.got.tgz:29201.got - 2010.04.16 16:29:54.
