data_PCOD8242803
_publ_section_title
;
Structure prediction by ZEFSAII (Michael W. Deem and Ramdas Pophale) SiO2 
 PCOD8242803
Probable space group: P M M N
;
_chemical_formula_sum "Si O2"
_cell_formula_units_Z 40
_cell_length_a 9.023402
_cell_length_b 14.608155
_cell_length_c 16.833826
_cell_angle_alpha 90.000000
_cell_angle_beta 90.000000
_cell_angle_gamma 90.000000
_cell_volume 2218.955068
_symmetry_space_group_name_H-M "P M M N"
_symmetry_group_IT_number 59
_space_group.IT_coordinate_system_code '2'
_symmetry_cell_setting 'orthorhombic'
loop_
_space_group_symop_operation_xyz
x,y,z
1/2-x,1/2-y,z
1/2+x,-y,-z
-x,1/2+y,-z
-x,-y,-z
1/2+x,1/2+y,-z
1/2-x,y,z
x,1/2-y,z
loop_
_atom_site_type_symbol
_atom_site_label
_atom_site_fract_x
_atom_site_fract_y
_atom_site_fract_z
Si Si1 0.085464 0.750000 0.754688
Si Si2 0.577808 0.356024 0.500378
Si Si3 0.423158 0.483125 0.619727
Si Si4 0.414172 0.750000 0.941647
Si Si5 0.076099 0.069187 0.058146
Si Si6 0.424205 0.433421 0.241410
O O1 0.250000 0.750000 0.714486
O O2 0.103956 0.750000 0.848110
O O3 0.995981 0.661004 0.728028
O O4 0.750000 0.363240 0.523080
O O5 0.534139 0.250000 0.481583
O O6 0.483430 0.393786 0.574349
O O7 0.541391 0.421699 0.425970
O O8 0.250000 0.469954 0.634035
O O9 0.505636 0.486606 0.704827
O O10 0.250000 0.750000 0.980958
O O11 0.508891 0.835434 0.969780
O O12 0.250000 0.070469 0.044140
O O13 0.037381 0.046173 0.149625
O O14 0.000000 0.000000 0.000000
O O15 0.250000 0.426891 0.254989
#
# Coordination Sequence:
#
# PCOD8242803 Si02
#       6
#     4   8   8   4   8   8
#     4   9  17  29  47  73 103 134 167 210 259 307
#     4   9  19  36  55  75 104 141 175 213 262 312
#     4  10  20  33  53  80 107 137 175 219 259 309
#     4   9  17  31  51  75 103 134 169 210 261 315
#     4  10  20  34  54  78 107 141 178 219 266 316
#     4  10  20  33  50  76 108 140 174 214 263 316
#
# _framework density 18.026501
#
# number of rings (size 3 to 8) (size 9 to 14) (size 15 to 20)
#    0.000    2.400    0.000    2.400    1.400    6.000 
#    0.000    0.000    2.200    0.000    0.000    0.000 
#    0.000    0.000    0.000    0.000    0.000    0.000 
#
# Total GULP energy -495928.696531 kJ/mol
# GULP energy per Si atom -12398.217413 kJ/mol
# Density = 1.798547 g / cm^3
# Si number density = 18.026501 Si / 1000 Ang^3
#
#
#
# Elastic Constant Matrix: (Units=GPa)
#
#
# Indices 1 2 3 4 5 6 
#
# 1 110.3259 42.1450 54.1972 0.0000 0.0000 0.0000
# 2 42.1450 94.8624 40.0914 0.0000 0.0000 0.0000
# 3 54.1972 40.0914 73.6148 0.0000 0.0000 0.0000
# 4 0.0000 0.0000 0.0000 27.1160 0.0000 0.0000
# 5 0.0000 0.0000 0.0000 0.0000 29.8258 0.0000
# 6 0.0000 0.0000 0.0000 0.0000 0.0000 34.3994
#
#
#
# Elastic Compliance Matrix: (Units=1/GPa)
#
#
# Indices 1 2 3 4 5 6 
#
# 1 0.014654 -0.002534 -0.009409 0.000000 0.000000 0.000000
# 2 -0.002534 0.014132 -0.005831 0.000000 0.000000 0.000000
# 3 -0.009409 -0.005831 0.023686 0.000000 0.000000 0.000000
# 4 0.000000 0.000000 0.000000 0.036879 0.000000 0.000000
# 5 0.000000 0.000000 0.000000 0.000000 0.033528 0.000000
# 6 0.000000 0.000000 0.000000 0.000000 0.000000 0.029070
#
#
# Mechanical properties :
#
#
# Convention : Reuss Voigt Hill
#
# Bulk Modulus (GPa) = 59.08207 61.29670 60.18939
# Shear Modulus (GPa) = 25.88832 27.75954 26.82393
#
# Velocity S-wave (km/s) = 3.79374 3.92845 3.86168
# Velocity P-wave (km/s) = 7.21361 7.39286 7.30379
#
# Compressibility (1/GPa) = 0.01692561
#
# Stress axis : x y z
#
# Youngs Moduli (GPa) = 68.24063 70.76361 42.21819
#
# Poissons Ratio (x) = 0.17932 0.39721
# Poissons Ratio (y) = 0.17293 0.24615
# Poissons Ratio (z) = 0.64205 0.41259
#
# Static dielectric constant tensor:
#      x y z
#    x 3.492090 0.000000 0.000000 
#    y 0.000000 3.557810 0.000000 
#    z 0.000000 0.000000 3.182490 
# 
# 
# High freq. dielectric constant tensor:
#      x y z
#    x 1.714190 0.000000 0.000000 
#    y 0.000000 1.683670 0.000000 
#    z 0.000000 0.000000 1.681520 
# 
# From -- ./inp_files/20000.got.cif
#   From: 2010.03.12/outbox.cif.g09.slc.cpg/sg59_10_cif.got.tgz:20000.got - 2010.04.16 16:29:54.
