data_PCOD8242130
_publ_section_title
;
Structure prediction by ZEFSAII (Michael W. Deem and Ramdas Pophale) SiO2 
 PCOD8242130
Probable space group: P M M N
;
_chemical_formula_sum "Si O2"
_cell_formula_units_Z 64
_cell_length_a 17.933303
_cell_length_b 8.906440
_cell_length_c 21.623916
_cell_angle_alpha 90.000000
_cell_angle_beta 90.000000
_cell_angle_gamma 90.000000
_cell_volume 3453.812672
_symmetry_space_group_name_H-M "P M M N"
_symmetry_group_IT_number 59
_space_group.IT_coordinate_system_code '2'
_symmetry_cell_setting 'orthorhombic'
loop_
_space_group_symop_operation_xyz
x,y,z
1/2-x,1/2-y,z
1/2+x,-y,-z
-x,1/2+y,-z
-x,-y,-z
1/2+x,1/2+y,-z
1/2-x,y,z
x,1/2-y,z
loop_
_atom_site_type_symbol
_atom_site_label
_atom_site_fract_x
_atom_site_fract_y
_atom_site_fract_z
Si Si1 0.566508 0.071716 0.619842
Si Si2 0.837385 0.079319 0.264257
Si Si3 0.332692 0.426710 0.133086
Si Si4 0.336180 0.923071 0.494478
Si Si5 0.902402 0.421498 0.754268
Si Si6 0.554437 0.577810 0.175689
Si Si7 0.897634 0.572133 0.385792
Si Si8 0.521400 0.572104 0.935641
O O1 0.565925 0.250000 0.622948
O O2 0.617010 0.013910 0.563573
O O3 0.600626 0.011878 0.684693
O O4 0.482490 0.012810 0.610251
O O5 0.750000 0.074299 0.253561
O O6 0.867179 0.250000 0.264804
O O7 0.872632 0.989223 0.207372
O O8 0.856234 0.002942 0.328854
O O9 0.250000 0.477882 0.110851
O O10 0.337863 0.250000 0.137886
O O11 0.347041 0.487577 0.201829
O O12 0.395618 0.484344 0.084909
O O13 0.250000 0.939312 0.477092
O O14 0.356707 0.750000 0.509092
O O15 0.354557 0.025402 0.552706
O O16 0.875682 0.250000 0.756346
O O17 0.987555 0.436692 0.775768
O O18 0.568586 0.750000 0.156791
O O19 0.538364 0.482843 0.114304
O O20 0.894058 0.750000 0.377321
O O21 0.517966 0.750000 0.941392
O O22 0.500000 0.500000 0.000000
#
# Coordination Sequence:
#
# PCOD8242130 Si02
#       8
#     8   8   8   8   8   8   8   8
#     4   9  18  34  54  77 103 135 177 223 270 327
#     4  11  23  37  55  81 111 142 180 226 277 334
#     4   9  19  35  54  80 114 147 181 223 271 321
#     4  10  21  36  52  72 102 139 178 223 276 332
#     4   9  17  32  54  80 107 136 176 221 266 321
#     4  10  19  35  58  83 112 143 179 225 271 325
#     4  11  21  36  56  76 102 137 180 229 276 328
#     4  10  20  36  59  85 114 153 194 232 273 321
#
# _framework density 18.530245000000001
#
# number of rings (size 3 to 8) (size 9 to 14) (size 15 to 20)
#    0.000    2.125    1.250    2.250    0.000    4.500 
#    0.000    3.125    0.000    2.250    0.000    0.000 
#    0.000    0.000    0.000    0.000    0.000    0.000 
#
# Total GULP energy -793693.798310 kJ/mol
# GULP energy per Si atom -12401.465599 kJ/mol
# Density = 1.848807 g / cm^3
# Si number density = 18.530245 Si / 1000 Ang^3
#
#
#
# Elastic Constant Matrix: (Units=GPa)
#
#
# Indices 1 2 3 4 5 6 
#
# 1 95.0173 33.4402 50.3515 0.0000 0.0000 0.0000
# 2 33.4402 57.2155 33.4861 0.0000 0.0000 0.0000
# 3 50.3515 33.4861 131.0907 0.0000 0.0000 0.0000
# 4 0.0000 0.0000 0.0000 25.6717 0.0000 0.0000
# 5 0.0000 0.0000 0.0000 0.0000 22.4671 0.0000
# 6 0.0000 0.0000 0.0000 0.0000 0.0000 24.4477
#
#
#
# Elastic Compliance Matrix: (Units=1/GPa)
#
#
# Indices 1 2 3 4 5 6 
#
# 1 0.014931 -0.006314 -0.004122 0.000000 0.000000 0.000000
# 2 -0.006314 0.023220 -0.003506 0.000000 0.000000 0.000000
# 3 -0.004122 -0.003506 0.010107 0.000000 0.000000 0.000000
# 4 0.000000 0.000000 0.000000 0.038953 0.000000 0.000000
# 5 0.000000 0.000000 0.000000 0.000000 0.044509 0.000000
# 6 0.000000 0.000000 0.000000 0.000000 0.000000 0.040904
#
#
# Mechanical properties :
#
#
# Convention : Reuss Voigt Hill
#
# Bulk Modulus (GPa) = 49.08296 57.54213 53.31255
# Shear Modulus (GPa) = 24.11955 25.58700 24.85328
#
# Velocity S-wave (km/s) = 3.61173 3.71997 3.66625
# Velocity P-wave (km/s) = 6.62860 7.04070 6.83775
#
# Compressibility (1/GPa) = 0.02037367
#
# Stress axis : x y z
#
# Youngs Moduli (GPa) = 66.97521 43.06604 98.93936
#
# Poissons Ratio (x) = 0.27192 0.40783
# Poissons Ratio (y) = 0.42289 0.34690
# Poissons Ratio (z) = 0.27607 0.15100
#
# Static dielectric constant tensor:
#      x y z
#    x 3.556320 0.000000 0.000000 
#    y 0.000000 3.376440 0.000000 
#    z 0.000000 0.000000 3.659760 
# 
# 
# High freq. dielectric constant tensor:
#      x y z
#    x 1.718360 0.000000 0.000000 
#    y 0.000000 1.711380 0.000000 
#    z 0.000000 0.000000 1.719290 
# 
# From -- ./inp_files/30677.got.cif
#   From: 2010.03.12/outbox.cif.g09.slc.cpg/sg59_16_cif.got.tgz:30677.got - 2010.04.16 16:29:54.
