data_PCOD8242917
_publ_section_title
;
Structure prediction by ZEFSAII (Michael W. Deem and Ramdas Pophale) SiO2 
 PCOD8242917
Probable space group: P M M N
;
_chemical_formula_sum "Si O2"
_cell_formula_units_Z 64
_cell_length_a 13.678373
_cell_length_b 9.327086
_cell_length_c 26.182715
_cell_angle_alpha 90.000000
_cell_angle_beta 90.000000
_cell_angle_gamma 90.000000
_cell_volume 3340.374057
_symmetry_space_group_name_H-M "P M M N"
_symmetry_group_IT_number 59
_space_group.IT_coordinate_system_code '2'
_symmetry_cell_setting 'orthorhombic'
loop_
_space_group_symop_operation_xyz
x,y,z
1/2-x,1/2-y,z
1/2+x,-y,-z
-x,1/2+y,-z
-x,-y,-z
1/2+x,1/2+y,-z
1/2-x,y,z
x,1/2-y,z
loop_
_atom_site_type_symbol
_atom_site_label
_atom_site_fract_x
_atom_site_fract_y
_atom_site_fract_z
Si Si1 0.551331 0.914961 0.170468
Si Si2 0.634694 0.410690 0.078668
Si Si3 0.953679 0.084214 0.371009
Si Si4 0.866472 0.587606 0.983207
Si Si5 0.641273 0.915333 0.573568
Si Si6 0.137626 0.418593 0.722287
Si Si7 0.639933 0.413834 0.884655
Si Si8 0.365609 0.911784 0.523287
O O1 0.582847 0.750000 0.162089
O O2 0.580363 0.966497 0.226825
O O3 0.434305 0.934494 0.162713
O O4 0.610992 0.010016 0.130990
O O5 0.750000 0.403645 0.072328
O O6 0.590647 0.250000 0.079155
O O7 0.588781 0.497380 0.030605
O O8 0.927330 0.250000 0.360973
O O9 0.903166 0.027668 0.422790
O O10 0.070580 0.061026 0.377775
O O11 0.916094 0.992666 0.324308
O O12 0.750000 0.585917 0.986618
O O13 0.906489 0.750000 0.985524
O O14 0.898861 0.514989 0.930084
O O15 0.750000 0.971874 0.587926
O O16 0.644623 0.750000 0.558088
O O17 0.595748 0.995186 0.524326
O O18 0.250000 0.469324 0.725952
O O19 0.130944 0.250000 0.713822
O O20 0.750000 0.455749 0.867016
O O21 0.638161 0.250000 0.904497
O O22 0.250000 0.919543 0.524153
O O23 0.404185 0.750000 0.515931
#
# Coordination Sequence:
#
# PCOD8242917 Si02
#       8
#     8   8   8   8   8   8   8   8
#     4  10  21  37  56  76 100 133 170 210 259 308
#     4  10  20  33  51  77 107 137 171 211 254 304
#     4  10  20  34  53  76 104 140 178 215 257 305
#     4   9  17  30  50  76 106 139 171 205 249 301
#     4   9  18  32  50  75 108 143 177 213 254 301
#     4  10  22  39  57  78 104 132 166 212 261 308
#     4   9  18  34  55  77 102 132 167 208 252 300
#     4   9  17  29  47  74 106 138 174 216 260 305
#
# _framework density 19.159531000000001
#
# number of rings (size 3 to 8) (size 9 to 14) (size 15 to 20)
#    0.000    2.500    0.000    1.875    0.000    6.000 
#    0.000    1.875    0.000    0.750    0.000    0.000 
#    0.000    0.000    0.000    0.000    0.000    0.000 
#
# Total GULP energy -793599.668767 kJ/mol
# GULP energy per Si atom -12399.994824 kJ/mol
# Density = 1.911592 g / cm^3
# Si number density = 19.159531 Si / 1000 Ang^3
#
#
#
# Elastic Constant Matrix: (Units=GPa)
#
#
# Indices 1 2 3 4 5 6 
#
# 1 68.0748 35.4597 66.6279 0.0000 0.0000 0.0000
# 2 35.4597 82.3752 65.5029 0.0000 0.0000 0.0000
# 3 66.6279 65.5029 148.1927 0.0000 0.0000 0.0000
# 4 0.0000 0.0000 0.0000 34.8134 0.0000 0.0000
# 5 0.0000 0.0000 0.0000 0.0000 31.8004 0.0000
# 6 0.0000 0.0000 0.0000 0.0000 0.0000 20.5809
#
#
#
# Elastic Compliance Matrix: (Units=1/GPa)
#
#
# Indices 1 2 3 4 5 6 
#
# 1 0.026707 -0.003004 -0.010680 0.000000 0.000000 0.000000
# 2 -0.003004 0.019057 -0.007073 0.000000 0.000000 0.000000
# 3 -0.010680 -0.007073 0.014676 0.000000 0.000000 0.000000
# 4 0.000000 0.000000 0.000000 0.028725 0.000000 0.000000
# 5 0.000000 0.000000 0.000000 0.000000 0.031446 0.000000
# 6 0.000000 0.000000 0.000000 0.000000 0.000000 0.048589
#
#
# Mechanical properties :
#
#
# Convention : Reuss Voigt Hill
#
# Bulk Modulus (GPa) = 52.83548 70.42484 61.63016
# Shear Modulus (GPa) = 23.03916 26.17576 24.60746
#
# Velocity S-wave (km/s) = 3.47146 3.70022 3.58766
# Velocity P-wave (km/s) = 6.61094 7.42243 7.02840
#
# Compressibility (1/GPa) = 0.01892668
#
# Stress axis : x y z
#
# Youngs Moduli (GPa) = 37.44272 52.47476 68.13926
#
# Poissons Ratio (x) = 0.15765 0.72772
# Poissons Ratio (y) = 0.11249 0.48192
# Poissons Ratio (z) = 0.39988 0.37113
#
# Static dielectric constant tensor:
#      x y z
#    x 3.695680 0.000000 0.000000 
#    y 0.000000 3.603810 0.000000 
#    z 0.000000 0.000000 3.313120 
# 
# 
# High freq. dielectric constant tensor:
#      x y z
#    x 1.760120 0.000000 0.000000 
#    y 0.000000 1.741990 0.000000 
#    z 0.000000 0.000000 1.722330 
# 
# From -- ./inp_files/31573.got.cif
#   From: 2010.03.12/outbox.cif.g09.slc.cpg/sg59_16_cif.got.tgz:31573.got - 2010.04.16 16:29:54.
