data_PCOD8242074
_publ_section_title
;
Structure prediction by ZEFSAII (Michael W. Deem and Ramdas Pophale) SiO2 
 PCOD8242074
Probable space group: P M M N
;
_chemical_formula_sum "Si O2"
_cell_formula_units_Z 64
_cell_length_a 9.330703
_cell_length_b 18.476245
_cell_length_c 19.900678
_cell_angle_alpha 90.000000
_cell_angle_beta 90.000000
_cell_angle_gamma 90.000000
_cell_volume 3430.804342
_symmetry_space_group_name_H-M "P M M N"
_symmetry_group_IT_number 59
_space_group.IT_coordinate_system_code '2'
_symmetry_cell_setting 'orthorhombic'
loop_
_space_group_symop_operation_xyz
x,y,z
1/2-x,1/2-y,z
1/2+x,-y,-z
-x,1/2+y,-z
-x,-y,-z
1/2+x,1/2+y,-z
1/2-x,y,z
x,1/2-y,z
loop_
_atom_site_type_symbol
_atom_site_label
_atom_site_fract_x
_atom_site_fract_y
_atom_site_fract_z
Si Si1 0.082909 0.666335 0.033863
Si Si2 0.915534 0.087183 0.100896
Si Si3 0.915008 0.166925 0.472684
Si Si4 0.084347 0.074178 0.864217
Si Si5 0.915400 0.832737 0.784667
Si Si6 0.081580 0.167144 0.603606
Si Si7 0.081460 0.898394 0.668136
Si Si8 0.080119 0.444397 0.713679
O O1 0.250000 0.654347 0.046693
O O2 0.044614 0.750000 0.022820
O O3 0.000226 0.637470 0.098627
O O4 0.031625 0.622505 0.968357
O O5 0.750000 0.106959 0.116026
O O6 0.011224 0.116514 0.160798
O O7 0.936761 0.001118 0.096310
O O8 0.750000 0.157695 0.492649
O O9 0.950592 0.250000 0.454735
O O10 0.955232 0.117627 0.409183
O O11 0.008129 0.139703 0.535394
O O12 0.250000 0.096766 0.862283
O O13 0.020876 0.067599 0.788840
O O14 0.750000 0.855161 0.777442
O O15 0.931216 0.750000 0.807834
O O16 0.994089 0.842316 0.713614
O O17 0.250000 0.157005 0.593898
O O18 0.040127 0.250000 0.619176
O O19 0.023345 0.119401 0.665495
O O20 0.250000 0.887975 0.682590
O O21 0.026953 0.978987 0.684930
O O22 0.250000 0.444619 0.716198
#
# Coordination Sequence:
#
# PCOD8242074 Si02
#       8
#     8   8   8   8   8   8   8   8
#     4  10  22  38  56  82 114 146 183 226 273 329
#     4  10  20  38  61  82 107 146 187 222 268 329
#     4   9  18  32  51  76 104 137 179 223 268 321
#     4  10  20  36  59  84 109 142 185 231 275 322
#     4  11  23  35  51  81 116 145 178 223 270 318
#     4   9  18  33  53  75 103 141 178 219 274 324
#     4  10  19  35  56  76 105 144 183 223 266 322
#     4   9  18  34  55  80 106 135 181 228 265 321
#
# _framework density 18.654516999999998
#
# number of rings (size 3 to 8) (size 9 to 14) (size 15 to 20)
#    0.000    2.250    1.250    1.500    0.000    4.750 
#    0.000    3.750    0.000    1.500    0.000    0.000 
#    0.000    0.000    0.000    0.000    0.000    0.000 
#
# Total GULP energy -793805.228474 kJ/mol
# GULP energy per Si atom -12403.206695 kJ/mol
# Density = 1.861206 g / cm^3
# Si number density = 18.654517 Si / 1000 Ang^3
#
#
#
# Elastic Constant Matrix: (Units=GPa)
#
#
# Indices 1 2 3 4 5 6 
#
# 1 49.9063 31.3627 40.3408 0.0000 0.0000 0.0000
# 2 31.3627 75.3154 60.4492 0.0000 0.0000 0.0000
# 3 40.3408 60.4492 140.1173 0.0000 0.0000 0.0000
# 4 0.0000 0.0000 0.0000 39.8081 0.0000 0.0000
# 5 0.0000 0.0000 0.0000 0.0000 32.8624 0.0000
# 6 0.0000 0.0000 0.0000 0.0000 0.0000 24.3829
#
#
#
# Elastic Compliance Matrix: (Units=1/GPa)
#
#
# Indices 1 2 3 4 5 6 
#
# 1 0.029125 -0.008257 -0.004823 0.000000 0.000000 0.000000
# 2 -0.008257 0.022651 -0.007395 0.000000 0.000000 0.000000
# 3 -0.004823 -0.007395 0.011716 0.000000 0.000000 0.000000
# 4 0.000000 0.000000 0.000000 0.025121 0.000000 0.000000
# 5 0.000000 0.000000 0.000000 0.000000 0.030430 0.000000
# 6 0.000000 0.000000 0.000000 0.000000 0.000000 0.041012
#
#
# Mechanical properties :
#
#
# Convention : Reuss Voigt Hill
#
# Bulk Modulus (GPa) = 44.36177 58.84940 51.60559
# Shear Modulus (GPa) = 23.97860 28.28975 26.13417
#
# Velocity S-wave (km/s) = 3.58914 3.89846 3.74700
# Velocity P-wave (km/s) = 6.40377 7.20274 6.81498
#
# Compressibility (1/GPa) = 0.02254193
#
# Stress axis : x y z
#
# Youngs Moduli (GPa) = 34.33440 44.14787 85.35532
#
# Poissons Ratio (x) = 0.36454 0.41167
# Poissons Ratio (y) = 0.28351 0.63119
# Poissons Ratio (z) = 0.16560 0.32646
#
# Static dielectric constant tensor:
#      x y z
#    x 3.243480 0.000000 0.000000 
#    y 0.000000 3.466970 0.000000 
#    z 0.000000 0.000000 3.548270 
# 
# 
# High freq. dielectric constant tensor:
#      x y z
#    x 1.703670 0.000000 0.000000 
#    y 0.000000 1.725940 0.000000 
#    z 0.000000 0.000000 1.731000 
# 
# From -- ./inp_files/29439.got.cif
#   From: 2010.03.12/outbox.cif.g09.slc.cpg/sg59_15_cif.got.tgz:29439.got - 2010.04.16 16:29:54.
