data_PCOD8242299
_publ_section_title
;
Structure prediction by ZEFSAII (Michael W. Deem and Ramdas Pophale) SiO2 
 PCOD8242299
Probable space group: P M M N
;
_chemical_formula_sum "Si O2"
_cell_formula_units_Z 64
_cell_length_a 9.457237
_cell_length_b 19.255163
_cell_length_c 20.602432
_cell_angle_alpha 90.000000
_cell_angle_beta 90.000000
_cell_angle_gamma 90.000000
_cell_volume 3751.716052
_symmetry_space_group_name_H-M "P M M N"
_symmetry_group_IT_number 59
_space_group.IT_coordinate_system_code '2'
_symmetry_cell_setting 'orthorhombic'
loop_
_space_group_symop_operation_xyz
x,y,z
1/2-x,1/2-y,z
1/2+x,-y,-z
-x,1/2+y,-z
-x,-y,-z
1/2+x,1/2+y,-z
1/2-x,y,z
x,1/2-y,z
loop_
_atom_site_type_symbol
_atom_site_label
_atom_site_fract_x
_atom_site_fract_y
_atom_site_fract_z
Si Si1 0.582653 0.082107 0.756146
Si Si2 0.585360 0.330801 0.875674
Si Si3 0.592545 0.667229 0.004062
Si Si4 0.918728 0.672696 0.861895
Si Si5 0.417178 0.910199 0.389931
Si Si6 0.083674 0.169434 0.503954
Si Si7 0.917396 0.931866 0.608393
Si Si8 0.081302 0.427782 0.247855
O O1 0.750000 0.082638 0.759394
O O2 0.521298 0.132648 0.811545
O O3 0.537944 0.106452 0.684212
O O4 0.526772 0.004600 0.769986
O O5 0.750000 0.346595 0.884396
O O6 0.553938 0.250000 0.867108
O O7 0.509225 0.361369 0.939555
O O8 0.750000 0.638122 0.016963
O O9 0.595429 0.750000 0.003884
O O10 0.536358 0.643290 0.932946
O O11 0.750000 0.674406 0.858992
O O12 0.979416 0.750000 0.850834
O O13 0.983363 0.624751 0.805113
O O14 0.250000 0.900431 0.400750
O O15 0.501448 0.854710 0.432315
O O16 0.464492 0.989091 0.407988
O O17 0.250000 0.157588 0.514760
O O18 0.050237 0.250000 0.489543
O O19 0.024921 0.122896 0.444246
O O20 0.750000 0.929988 0.609842
O O21 0.973244 0.908885 0.679637
O O22 0.250000 0.425058 0.246241
#
# Coordination Sequence:
#
# PCOD8242299 Si02
#       8
#     8   8   8   8   8   8   8   8
#     4   8  15  27  42  61  82 103 134 178 216 240
#     4   9  16  26  41  59  78 104 139 174 206 243
#     4   8  14  25  39  57  83 110 135 166 204 245
#     4   8  13  21  36  59  84 109 137 168 202 243
#     4   9  17  31  50  66  82 112 151 181 207 250
#     4  10  20  31  43  65  96 119 136 171 220 258
#     4   8  15  28  45  64  86 114 146 176 209 253
#     4   8  13  23  40  61  84 108 135 169 208 247
#
# _framework density 17.058859999999999
#
# number of rings (size 3 to 8) (size 9 to 14) (size 15 to 20)
#    0.000    3.500    0.000    2.625    0.000    1.250 
#    0.000    5.000    0.000    1.500    0.000    4.375 
#    0.000    2.000    0.000    0.000    0.000    0.000 
#
# Total GULP energy -793088.300051 kJ/mol
# GULP energy per Si atom -12392.004688 kJ/mol
# Density = 1.702003 g / cm^3
# Si number density = 17.058860 Si / 1000 Ang^3
#
#
#
# Elastic Constant Matrix: (Units=GPa)
#
#
# Indices 1 2 3 4 5 6 
#
# 1 23.2433 23.0412 31.5594 0.0000 0.0000 0.0000
# 2 23.0412 71.0176 63.2166 0.0000 0.0000 0.0000
# 3 31.5594 63.2166 142.6754 0.0000 0.0000 0.0000
# 4 0.0000 0.0000 0.0000 34.4499 0.0000 0.0000
# 5 0.0000 0.0000 0.0000 0.0000 21.3798 0.0000
# 6 0.0000 0.0000 0.0000 0.0000 0.0000 13.2851
#
#
#
# Elastic Compliance Matrix: (Units=1/GPa)
#
#
# Indices 1 2 3 4 5 6 
#
# 1 0.069663 -0.014672 -0.008909 0.000000 0.000000 0.000000
# 2 -0.014672 0.026342 -0.008426 0.000000 0.000000 0.000000
# 3 -0.008909 -0.008426 0.012713 0.000000 0.000000 0.000000
# 4 0.000000 0.000000 0.000000 0.029028 0.000000 0.000000
# 5 0.000000 0.000000 0.000000 0.000000 0.046773 0.000000
# 6 0.000000 0.000000 0.000000 0.000000 0.000000 0.075272
#
#
# Mechanical properties :
#
#
# Convention : Reuss Voigt Hill
#
# Bulk Modulus (GPa) = 22.36891 52.50788 37.43839
# Shear Modulus (GPa) = 14.76208 21.76424 18.26316
#
# Velocity S-wave (km/s) = 2.94489 3.57575 3.27555
# Velocity P-wave (km/s) = 4.97036 6.92064 6.02494
#
# Compressibility (1/GPa) = 0.04470491
#
# Stress axis : x y z
#
# Youngs Moduli (GPa) = 14.35476 37.96246 78.66018
#
# Poissons Ratio (x) = 0.55698 0.70075
# Poissons Ratio (y) = 0.21061 0.66280
# Poissons Ratio (z) = 0.12788 0.31988
#
# Static dielectric constant tensor:
#      x y z
#    x 2.708180 0.000000 0.000000 
#    y 0.000000 3.250110 0.000000 
#    z 0.000000 0.000000 3.676000 
# 
# 
# High freq. dielectric constant tensor:
#      x y z
#    x 1.598850 0.000000 0.000000 
#    y 0.000000 1.644040 0.000000 
#    z 0.000000 0.000000 1.674580 
# 
# From -- ./inp_files/30169.got.cif
#   From: 2010.03.12/outbox.cif.g09.slc.cpg/sg59_16_cif.got.tgz:30169.got - 2010.04.16 16:29:54.
