data_PCOD8242387
_publ_section_title
;
Structure prediction by ZEFSAII (Michael W. Deem and Ramdas Pophale) SiO2 
 PCOD8242387
Probable space group: P M M N
;
_chemical_formula_sum "Si O2"
_cell_formula_units_Z 56
_cell_length_a 9.507728
_cell_length_b 12.328346
_cell_length_c 27.202463
_cell_angle_alpha 90.000000
_cell_angle_beta 90.000000
_cell_angle_gamma 90.000000
_cell_volume 3188.524744
_symmetry_space_group_name_H-M "P M M N"
_symmetry_group_IT_number 59
_space_group.IT_coordinate_system_code '2'
_symmetry_cell_setting 'orthorhombic'
loop_
_space_group_symop_operation_xyz
x,y,z
1/2-x,1/2-y,z
1/2+x,-y,-z
-x,1/2+y,-z
-x,-y,-z
1/2+x,1/2+y,-z
1/2-x,y,z
x,1/2-y,z
loop_
_atom_site_type_symbol
_atom_site_label
_atom_site_fract_x
_atom_site_fract_y
_atom_site_fract_z
Si Si1 0.082158 0.513532 0.268935
Si Si2 0.914931 0.572579 0.928196
Si Si3 0.416259 0.750000 0.405750
Si Si4 0.083414 0.373308 0.360843
Si Si5 0.094234 0.866298 0.015704
Si Si6 0.582467 0.250000 0.704217
Si Si7 0.916550 0.023588 0.549035
Si Si8 0.082934 0.128147 0.179425
O O1 0.250000 0.511879 0.270188
O O2 0.024198 0.444616 0.315392
O O3 0.028514 0.638893 0.269693
O O4 0.023276 0.456019 0.219665
O O5 0.750000 0.599452 0.929837
O O6 0.976713 0.597306 0.874318
O O7 0.991297 0.643804 0.969263
O O8 0.953004 0.448771 0.941913
O O9 0.250000 0.750000 0.401500
O O10 0.478912 0.750000 0.350898
O O11 0.467215 0.857840 0.433412
O O12 0.250000 0.368096 0.356686
O O13 0.022167 0.250000 0.359835
O O14 0.039254 0.432980 0.411103
O O15 0.250000 0.898562 0.996409
O O16 0.095683 0.750000 0.042035
O O17 0.750000 0.250000 0.703533
O O18 0.750000 0.020857 0.539150
O O19 0.000000 0.000000 0.500000
O O20 0.250000 0.120598 0.178493
O O21 0.034778 0.250000 0.193249
#
# Coordination Sequence:
#
# PCOD8242387 Si02
#       8
#     8   8   4   8   8   4   8   8
#     4   9  15  24  38  59  85 114 144 176 217 264
#     4   9  17  29  44  64  89 118 150 181 220 268
#     4   9  16  30  47  63  89 123 153 181 218 265
#     4   9  16  26  41  61  86 115 146 180 217 258
#     4   9  17  29  44  62  87 118 151 186 221 259
#     4   9  14  24  40  57  83 119 151 173 206 267
#     4  10  20  32  47  67  92 120 150 184 222 262
#     4   9  16  25  38  59  86 112 141 180 223 263
#
# _framework density 17.562981000000001
#
# number of rings (size 3 to 8) (size 9 to 14) (size 15 to 20)
#    0.000    2.857    1.429    0.857    1.000    2.571 
#    1.286    0.000    0.000    0.000    0.000    1.000 
#    0.000    2.286    0.000    0.000    0.000    0.000 
#
# Total GULP energy -693956.272009 kJ/mol
# GULP energy per Si atom -12392.076286 kJ/mol
# Density = 1.752301 g / cm^3
# Si number density = 17.562981 Si / 1000 Ang^3
#
#
#
# Elastic Constant Matrix: (Units=GPa)
#
#
# Indices 1 2 3 4 5 6 
#
# 1 13.4962 12.9851 14.2731 0.0000 0.0000 0.0000
# 2 12.9851 173.7895 75.7355 0.0000 0.0000 0.0000
# 3 14.2731 75.7355 119.7617 0.0000 0.0000 0.0000
# 4 0.0000 0.0000 0.0000 13.7009 0.0000 0.0000
# 5 0.0000 0.0000 0.0000 0.0000 17.1019 0.0000
# 6 0.0000 0.0000 0.0000 0.0000 0.0000 7.5850
#
#
#
# Elastic Compliance Matrix: (Units=1/GPa)
#
#
# Indices 1 2 3 4 5 6 
#
# 1 0.085685 -0.002695 -0.008508 0.000000 0.000000 0.000000
# 2 -0.002695 0.008028 -0.004756 0.000000 0.000000 0.000000
# 3 -0.008508 -0.004756 0.012371 0.000000 0.000000 0.000000
# 4 0.000000 0.000000 0.000000 0.072988 0.000000 0.000000
# 5 0.000000 0.000000 0.000000 0.000000 0.058473 0.000000
# 6 0.000000 0.000000 0.000000 0.000000 0.000000 0.131840
#
#
# Mechanical properties :
#
#
# Convention : Reuss Voigt Hill
#
# Bulk Modulus (GPa) = 13.48291 57.00388 35.24340
# Shear Modulus (GPa) = 11.73645 21.28113 16.50879
#
# Velocity S-wave (km/s) = 2.58786 3.48473 3.06923
# Velocity P-wave (km/s) = 4.07712 6.97986 5.71583
#
# Compressibility (1/GPa) = 0.07416794
#
# Stress axis : x y z
#
# Youngs Moduli (GPa) = 11.67069 124.56671 80.83283
#
# Poissons Ratio (x) = 0.33565 0.68772
# Poissons Ratio (y) = 0.03145 0.38440
# Poissons Ratio (z) = 0.09929 0.59238
#
# Static dielectric constant tensor:
#      x y z
#    x 2.679430 0.000000 0.000000 
#    y 0.000000 3.685480 0.000000 
#    z 0.000000 0.000000 3.334960 
# 
# 
# High freq. dielectric constant tensor:
#      x y z
#    x 1.604050 0.000000 0.000000 
#    y 0.000000 1.702270 0.000000 
#    z 0.000000 0.000000 1.676570 
# 
# From -- ./inp_files/31931.got.cif
#   From: 2010.03.12/outbox.cif.g09.slc.cpg/sg59_16_cif.got.tgz:31931.got - 2010.04.16 16:29:54.
