data_PCOD8242483
_publ_section_title
;
Structure prediction by ZEFSAII (Michael W. Deem and Ramdas Pophale) SiO2 
 PCOD8242483
Probable space group: P M M N
;
_chemical_formula_sum "Si O2"
_cell_formula_units_Z 64
_cell_length_a 22.556227
_cell_length_b 9.146813
_cell_length_c 16.286127
_cell_angle_alpha 90.000000
_cell_angle_beta 90.000000
_cell_angle_gamma 90.000000
_cell_volume 3360.114479
_symmetry_space_group_name_H-M "P M M N"
_symmetry_group_IT_number 59
_space_group.IT_coordinate_system_code '2'
_symmetry_cell_setting 'orthorhombic'
loop_
_space_group_symop_operation_xyz
x,y,z
1/2-x,1/2-y,z
1/2+x,-y,-z
-x,1/2+y,-z
-x,-y,-z
1/2+x,1/2+y,-z
1/2-x,y,z
x,1/2-y,z
loop_
_atom_site_type_symbol
_atom_site_label
_atom_site_fract_x
_atom_site_fract_y
_atom_site_fract_z
Si Si1 0.039539 0.582546 0.612353
Si Si2 0.183997 0.083871 0.858211
Si Si3 0.632257 0.920021 0.841828
Si Si4 0.318561 0.590620 0.012129
Si Si5 0.003215 0.422555 0.087990
Si Si6 0.682432 0.923591 0.668963
Si Si7 0.088700 0.417791 0.463657
Si Si8 0.568524 0.581448 0.223657
O O1 0.057432 0.750000 0.627906
O O2 0.083796 0.517730 0.544081
O O3 0.045623 0.491280 0.694375
O O4 0.971216 0.568257 0.588213
O O5 0.250000 0.030422 0.832224
O O6 0.186472 0.250000 0.889381
O O7 0.140307 0.069159 0.780269
O O8 0.155284 0.994526 0.933946
O O9 0.647156 0.750000 0.848417
O O10 0.564805 0.953433 0.865378
O O11 0.648829 0.978891 0.751005
O O12 0.674248 0.003478 0.904256
O O13 0.250000 0.609975 0.995204
O O14 0.349572 0.750000 0.018267
O O15 0.992062 0.250000 0.077167
O O16 0.954179 0.494903 0.144799
O O17 0.000000 0.500000 0.000000
O O18 0.750000 0.985214 0.663961
O O19 0.683631 0.750000 0.669289
O O20 0.643900 0.976476 0.590622
O O21 0.098551 0.250000 0.490938
O O22 0.547606 0.750000 0.220906
#
# Coordination Sequence:
#
# PCOD8242483 Si02
#       8
#     8   8   8   8   8   8   8   8
#     4  10  20  35  57  82 108 139 172 212 262 314
#     4   9  19  36  55  73  96 130 172 215 257 305
#     4  10  20  34  52  74 103 142 185 222 260 316
#     4  10  20  32  48  73 103 135 174 220 266 308
#     4  11  23  37  53  77 111 148 185 229 277 323
#     4   9  17  31  54  81 106 136 176 221 267 316
#     4   9  18  35  57  81 107 134 171 215 258 312
#     4  11  22  36  56  81 106 135 174 218 265 317
#
# _framework density 19.046969000000001
#
# number of rings (size 3 to 8) (size 9 to 14) (size 15 to 20)
#    0.000    2.125    0.000    3.375    0.000    8.750 
#    0.000    1.250    0.000    4.875    0.000    0.000 
#    0.000    0.000    0.000    0.000    0.000    0.000 
#
# Total GULP energy -793460.400856 kJ/mol
# GULP energy per Si atom -12397.818763 kJ/mol
# Density = 1.900362 g / cm^3
# Si number density = 19.046969 Si / 1000 Ang^3
#
#
#
# Elastic Constant Matrix: (Units=GPa)
#
#
# Indices 1 2 3 4 5 6 
#
# 1 82.7437 38.8887 47.2729 0.0000 0.0000 0.0000
# 2 38.8887 86.5823 43.0101 0.0000 0.0000 0.0000
# 3 47.2729 43.0101 102.1377 0.0000 0.0000 0.0000
# 4 0.0000 0.0000 0.0000 31.7085 0.0000 0.0000
# 5 0.0000 0.0000 0.0000 0.0000 31.5560 0.0000
# 6 0.0000 0.0000 0.0000 0.0000 0.0000 20.9970
#
#
#
# Elastic Compliance Matrix: (Units=1/GPa)
#
#
# Indices 1 2 3 4 5 6 
#
# 1 0.017985 -0.004986 -0.006225 0.000000 0.000000 0.000000
# 2 -0.004986 0.015987 -0.004424 0.000000 0.000000 0.000000
# 3 -0.006225 -0.004424 0.014535 0.000000 0.000000 0.000000
# 4 0.000000 0.000000 0.000000 0.031537 0.000000 0.000000
# 5 0.000000 0.000000 0.000000 0.000000 0.031690 0.000000
# 6 0.000000 0.000000 0.000000 0.000000 0.000000 0.047626
#
#
# Mechanical properties :
#
#
# Convention : Reuss Voigt Hill
#
# Bulk Modulus (GPa) = 58.01485 58.86743 58.44114
# Shear Modulus (GPa) = 25.46148 26.33844 25.89996
#
# Velocity S-wave (km/s) = 3.66016 3.72266 3.69154
# Velocity P-wave (km/s) = 6.95610 7.03215 6.99423
#
# Compressibility (1/GPa) = 0.01723697
#
# Stress axis : x y z
#
# Youngs Moduli (GPa) = 55.60175 62.55074 68.80059
#
# Poissons Ratio (x) = 0.31188 0.42825
# Poissons Ratio (y) = 0.27723 0.30440
# Poissons Ratio (z) = 0.34609 0.27675
#
# Static dielectric constant tensor:
#      x y z
#    x 3.627410 0.000000 0.000000 
#    y 0.000000 3.616980 0.000000 
#    z 0.000000 0.000000 3.514260 
# 
# 
# High freq. dielectric constant tensor:
#      x y z
#    x 1.742160 0.000000 0.000000 
#    y 0.000000 1.733810 0.000000 
#    z 0.000000 0.000000 1.734620 
# 
# From -- ./inp_files/21604.got.cif
#   From: 2010.03.12/outbox.cif.g09.slc.cpg/sg59_11_cif.got.tgz:21604.got - 2010.04.16 16:29:54.
