data_PCOD8242643
_publ_section_title
;
Structure prediction by ZEFSAII (Michael W. Deem and Ramdas Pophale) SiO2 
 PCOD8242643
Probable space group: P M M N
;
_chemical_formula_sum "Si O2"
_cell_formula_units_Z 64
_cell_length_a 8.934197
_cell_length_b 19.027439
_cell_length_c 21.834129
_cell_angle_alpha 90.000000
_cell_angle_beta 90.000000
_cell_angle_gamma 90.000000
_cell_volume 3711.690323
_symmetry_space_group_name_H-M "P M M N"
_symmetry_group_IT_number 59
_space_group.IT_coordinate_system_code '2'
_symmetry_cell_setting 'orthorhombic'
loop_
_space_group_symop_operation_xyz
x,y,z
1/2-x,1/2-y,z
1/2+x,-y,-z
-x,1/2+y,-z
-x,-y,-z
1/2+x,1/2+y,-z
1/2-x,y,z
x,1/2-y,z
loop_
_atom_site_type_symbol
_atom_site_label
_atom_site_fract_x
_atom_site_fract_y
_atom_site_fract_z
Si Si1 0.415631 0.106590 0.983687
Si Si2 0.074422 0.670401 0.518874
Si Si3 0.925976 0.051927 0.676117
Si Si4 0.928446 0.955000 0.198420
Si Si5 0.579176 0.830443 0.390501
Si Si6 0.075807 0.830989 0.127245
Si Si7 0.574379 0.961750 0.557519
Si Si8 0.584887 0.040173 0.084867
O O1 0.250000 0.139764 0.988285
O O2 0.517837 0.156646 0.941927
O O3 0.406991 0.029802 0.955168
O O4 0.481713 0.098866 0.052499
O O5 0.250000 0.655465 0.519491
O O6 0.036876 0.750000 0.539232
O O7 0.016416 0.654997 0.450961
O O8 0.991024 0.617100 0.564482
O O9 0.750000 0.062512 0.684259
O O10 0.997355 0.021664 0.737935
O O11 0.004347 0.126690 0.664381
O O12 0.965945 0.000304 0.620438
O O13 0.750000 0.949113 0.203862
O O14 0.988834 0.879450 0.175844
O O15 0.976215 0.017105 0.151539
O O16 0.750000 0.854328 0.402230
O O17 0.571763 0.750000 0.370373
O O18 0.250000 0.850763 0.129372
O O19 0.048487 0.750000 0.145340
O O20 0.750000 0.958946 0.545960
O O21 0.500000 0.000000 0.500000
O O22 0.750000 0.073177 0.090875
#
# Coordination Sequence:
#
# PCOD8242643 Si02
#       8
#     8   8   8   8   8   8   8   8
#     4   9  16  26  45  71  95 123 158 198 241 281
#     4  10  20  34  53  77 103 130 162 204 257 315
#     4  11  23  36  51  73 101 135 174 216 264 316
#     4  10  21  35  51  70  95 131 171 210 250 297
#     4  10  20  33  50  71  96 130 170 210 253 305
#     4  10  20  33  49  70 100 138 174 208 246 288
#     4  11  22  35  54  78 104 135 170 215 269 319
#     4   8  15  28  45  67  93 120 154 196 243 288
#
# _framework density 17.242818
#
# number of rings (size 3 to 8) (size 9 to 14) (size 15 to 20)
#    0.000    2.125    1.250    3.375    0.000    8.000 
#    0.000    0.000    0.000    0.000    0.000    0.875 
#    0.000    5.000    0.000    0.000    0.000    0.000 
#
# Total GULP energy -793553.163698 kJ/mol
# GULP energy per Si atom -12399.268183 kJ/mol
# Density = 1.720357 g / cm^3
# Si number density = 17.242818 Si / 1000 Ang^3
#
#
#
# Elastic Constant Matrix: (Units=GPa)
#
#
# Indices 1 2 3 4 5 6 
#
# 1 100.6095 38.3012 56.8368 0.0000 0.0000 0.0000
# 2 38.3012 55.7512 43.9054 0.0000 0.0000 0.0000
# 3 56.8368 43.9054 118.7155 0.0000 0.0000 0.0000
# 4 0.0000 0.0000 0.0000 19.3349 0.0000 0.0000
# 5 0.0000 0.0000 0.0000 0.0000 30.8331 0.0000
# 6 0.0000 0.0000 0.0000 0.0000 0.0000 26.5595
#
#
#
# Elastic Compliance Matrix: (Units=1/GPa)
#
#
# Indices 1 2 3 4 5 6 
#
# 1 0.015188 -0.006642 -0.004815 0.000000 0.000000 0.000000
# 2 -0.006642 0.028213 -0.007254 0.000000 0.000000 0.000000
# 3 -0.004815 -0.007254 0.013412 0.000000 0.000000 0.000000
# 4 0.000000 0.000000 0.000000 0.051720 0.000000 0.000000
# 5 0.000000 0.000000 0.000000 0.000000 0.032433 0.000000
# 6 0.000000 0.000000 0.000000 0.000000 0.000000 0.037651
#
#
# Mechanical properties :
#
#
# Convention : Reuss Voigt Hill
#
# Bulk Modulus (GPa) = 51.57343 61.46258 56.51800
# Shear Modulus (GPa) = 22.47162 24.41435 23.44298
#
# Velocity S-wave (km/s) = 3.61397 3.76695 3.69125
# Velocity P-wave (km/s) = 6.88399 7.39206 7.14254
#
# Compressibility (1/GPa) = 0.01938983
#
# Stress axis : x y z
#
# Youngs Moduli (GPa) = 65.84040 35.44469 74.56260
#
# Poissons Ratio (x) = 0.23544 0.35902
# Poissons Ratio (y) = 0.43734 0.54088
# Poissons Ratio (z) = 0.31702 0.25712
#
# Static dielectric constant tensor:
#      x y z
#    x 3.442300 0.000000 0.000000 
#    y 0.000000 3.176320 0.000000 
#    z 0.000000 0.000000 3.190280 
# 
# 
# High freq. dielectric constant tensor:
#      x y z
#    x 1.685310 0.000000 0.000000 
#    y 0.000000 1.638990 0.000000 
#    z 0.000000 0.000000 1.647180 
# 
# From -- ./inp_files/29677.got.cif
#   From: 2010.03.12/outbox.cif.g09.slc.cpg/sg59_15_cif.got.tgz:29677.got - 2010.04.16 16:29:54.
