data_PCOD8242386
_publ_section_title
;
Structure prediction by ZEFSAII (Michael W. Deem and Ramdas Pophale) SiO2 
 PCOD8242386
Probable space group: P M M N
;
_chemical_formula_sum "Si O2"
_cell_formula_units_Z 48
_cell_length_a 9.218554
_cell_length_b 8.676552
_cell_length_c 31.296244
_cell_angle_alpha 90.000000
_cell_angle_beta 90.000000
_cell_angle_gamma 90.000000
_cell_volume 2503.238312
_symmetry_space_group_name_H-M "P M M N"
_symmetry_group_IT_number 59
_space_group.IT_coordinate_system_code '2'
_symmetry_cell_setting 'orthorhombic'
loop_
_space_group_symop_operation_xyz
x,y,z
1/2-x,1/2-y,z
1/2+x,-y,-z
-x,1/2+y,-z
-x,-y,-z
1/2+x,1/2+y,-z
1/2-x,y,z
x,1/2-y,z
loop_
_atom_site_type_symbol
_atom_site_label
_atom_site_fract_x
_atom_site_fract_y
_atom_site_fract_z
Si Si1 0.584165 0.067099 0.960069
Si Si2 0.912703 0.566798 0.379747
Si Si3 0.413317 0.565986 0.205086
Si Si4 0.585754 0.066961 0.539523
Si Si5 0.414130 0.433505 0.876984
Si Si6 0.586905 0.933318 0.285528
O O1 0.750000 0.007738 0.959917
O O2 0.579026 0.250000 0.962214
O O3 0.504555 0.005804 0.917549
O O4 0.500000 0.000000 0.000000
O O5 0.750000 0.506006 0.388614
O O6 0.913257 0.750000 0.380826
O O7 0.965140 0.510880 0.332667
O O8 0.017937 0.501295 0.416402
O O9 0.250000 0.502891 0.200724
O O10 0.413828 0.750000 0.205179
O O11 0.508232 0.503164 0.165617
O O12 0.480870 0.500093 0.249142
O O13 0.750000 0.007914 0.537110
O O14 0.576317 0.250000 0.538177
O O15 0.500000 0.000000 0.500000
O O16 0.250000 0.498163 0.879094
O O17 0.412017 0.250000 0.876468
O O18 0.750000 0.992803 0.276709
O O19 0.585719 0.750000 0.283787
#
# Coordination Sequence:
#
# PCOD8242386 Si02
#       6
#     8   8   8   8   8   8
#     4  10  20  33  49  69  93 121 154 191 230 273
#     4   8  14  25  40  57  80 111 144 179 220 264
#     4   9  15  21  31  50  77 108 141 177 216 259
#     4  10  20  32  47  67  90 118 152 188 227 271
#     4   9  16  26  40  57  80 112 147 182 222 267
#     4   8  13  21  33  50  74 106 141 173 210 259
#
# _framework density 19.175163000000001
#
# number of rings (size 3 to 8) (size 9 to 14) (size 15 to 20)
#    0.000    3.000    0.000    3.000    0.000    6.667 
#    0.000    3.333    0.000    0.000    0.000    0.000 
#    0.000    1.333    0.000   11.667    0.000   16.500 
#
# Total GULP energy -594985.581450 kJ/mol
# GULP energy per Si atom -12395.532947 kJ/mol
# Density = 1.913152 g / cm^3
# Si number density = 19.175163 Si / 1000 Ang^3
#
#
#
# Elastic Constant Matrix: (Units=GPa)
#
#
# Indices 1 2 3 4 5 6 
#
# 1 190.8226 10.5405 123.8493 0.0000 0.0000 0.0000
# 2 10.5405 3.0724 9.7536 0.0000 0.0000 0.0000
# 3 123.8493 9.7536 210.6171 0.0000 0.0000 0.0000
# 4 0.0000 0.0000 0.0000 17.4882 0.0000 0.0000
# 5 0.0000 0.0000 0.0000 0.0000 47.1000 0.0000
# 6 0.0000 0.0000 0.0000 0.0000 0.0000 12.5529
#
#
#
# Elastic Compliance Matrix: (Units=1/GPa)
#
#
# Indices 1 2 3 4 5 6 
#
# 1 0.009159 -0.016793 -0.004608 0.000000 0.000000 0.000000
# 2 -0.016793 0.412368 -0.009222 0.000000 0.000000 0.000000
# 3 -0.004608 -0.009222 0.007885 0.000000 0.000000 0.000000
# 4 0.000000 0.000000 0.000000 0.057181 0.000000 0.000000
# 5 0.000000 0.000000 0.000000 0.000000 0.021231 0.000000
# 6 0.000000 0.000000 0.000000 0.000000 0.000000 0.079663
#
#
# Mechanical properties :
#
#
# Convention : Reuss Voigt Hill
#
# Bulk Modulus (GPa) = 2.71617 76.97766 39.84691
# Shear Modulus (GPa) = 6.48126 32.78612 19.63369
#
# Velocity S-wave (km/s) = 1.84048 4.13949 3.20334
# Velocity P-wave (km/s) = 2.43640 7.94221 5.87430
#
# Compressibility (1/GPa) = 0.36816597
#
# Stress axis : x y z
#
# Youngs Moduli (GPa) = 109.18533 2.42502 126.82880
#
# Poissons Ratio (x) = 0.04072 0.58442
# Poissons Ratio (y) = 1.83351 1.16962
# Poissons Ratio (z) = 0.50312 0.02236
#
# Static dielectric constant tensor:
#      x y z
#    x 3.802610 0.000000 0.000000 
#    y 0.000000 2.742560 0.000000 
#    z 0.000000 0.000000 3.961710 
# 
# 
# High freq. dielectric constant tensor:
#      x y z
#    x 1.755890 0.000000 0.000000 
#    y 0.000000 1.661660 0.000000 
#    z 0.000000 0.000000 1.767810 
# 
# From -- ./inp_files/32587.got.cif
#   From: 2010.03.12/outbox.cif.g09.slc.cpg/sg59_17_cif.got.tgz:32587.got - 2010.04.16 16:29:54.
