data_PCOD8242666
_publ_section_title
;
Structure prediction by ZEFSAII (Michael W. Deem and Ramdas Pophale) SiO2 
 PCOD8242666
Probable space group: P M M N
;
_chemical_formula_sum "Si O2"
_cell_formula_units_Z 48
_cell_length_a 9.404043
_cell_length_b 9.023579
_cell_length_c 31.551312
_cell_angle_alpha 90.000000
_cell_angle_beta 90.000000
_cell_angle_gamma 90.000000
_cell_volume 2677.385175
_symmetry_space_group_name_H-M "P M M N"
_symmetry_group_IT_number 59
_space_group.IT_coordinate_system_code '2'
_symmetry_cell_setting 'orthorhombic'
loop_
_space_group_symop_operation_xyz
x,y,z
1/2-x,1/2-y,z
1/2+x,-y,-z
-x,1/2+y,-z
-x,-y,-z
1/2+x,1/2+y,-z
1/2-x,y,z
x,1/2-y,z
loop_
_atom_site_type_symbol
_atom_site_label
_atom_site_fract_x
_atom_site_fract_y
_atom_site_fract_z
Si Si1 0.414164 0.425395 0.037084
Si Si2 0.918900 0.082988 0.377941
Si Si3 0.418697 0.077513 0.219919
Si Si4 0.415218 0.422239 0.128182
Si Si5 0.583159 0.577169 0.462443
Si Si6 0.585275 0.923332 0.293735
O O1 0.250000 0.470696 0.032257
O O2 0.432074 0.250000 0.034083
O O3 0.476449 0.483116 0.083138
O O4 0.500000 0.500000 0.000000
O O5 0.750000 0.082511 0.377505
O O6 0.979197 0.250000 0.379945
O O7 0.973501 0.992632 0.418612
O O8 0.975390 0.004838 0.335414
O O9 0.250000 0.057196 0.224315
O O10 0.459374 0.250000 0.226286
O O11 0.472324 0.016292 0.173413
O O12 0.496931 0.977233 0.253775
O O13 0.250000 0.454872 0.126245
O O14 0.445770 0.250000 0.129785
O O15 0.500000 0.500000 0.500000
O O16 0.750000 0.547545 0.468614
O O17 0.547374 0.750000 0.461911
O O18 0.750000 0.962548 0.286151
O O19 0.562500 0.750000 0.300458
#
# Coordination Sequence:
#
# PCOD8242666 Si02
#       6
#     8   8   8   8   8   8
#     4   9  17  30  48  69  93 122 156 194 236 282
#     4   9  17  31  52  74  96 127 166 203 239 283
#     4   9  17  31  52  74  93 118 157 202 242 281
#     4   7  12  26  47  67  88 118 156 194 232 278
#     4  10  20  34  53  77 104 133 165 202 244 289
#     4  10  20  33  49  71 100 131 160 192 234 285
#
# _framework density 17.927938999999999
#
# number of rings (size 3 to 8) (size 9 to 14) (size 15 to 20)
#    0.000    3.000    0.000    3.500    0.000    4.667 
#    0.000    2.500    0.000   13.000    0.000    0.000 
#    0.000    0.000    0.000    0.000    0.000    0.000 
#
# Total GULP energy -594686.570608 kJ/mol
# GULP energy per Si atom -12389.303554 kJ/mol
# Density = 1.788713 g / cm^3
# Si number density = 17.927939 Si / 1000 Ang^3
#
#
#
# Elastic Constant Matrix: (Units=GPa)
#
#
# Indices 1 2 3 4 5 6 
#
# 1 35.9759 30.8844 49.0922 0.0000 0.0000 0.0000
# 2 30.8844 85.9400 69.6408 0.0000 0.0000 0.0000
# 3 49.0922 69.6408 206.3947 0.0000 0.0000 0.0000
# 4 0.0000 0.0000 0.0000 35.0437 0.0000 0.0000
# 5 0.0000 0.0000 0.0000 0.0000 31.2992 0.0000
# 6 0.0000 0.0000 0.0000 0.0000 0.0000 25.0191
#
#
#
# Elastic Compliance Matrix: (Units=1/GPa)
#
#
# Indices 1 2 3 4 5 6 
#
# 1 0.047585 -0.010913 -0.007636 0.000000 0.000000 0.000000
# 2 -0.010913 0.018517 -0.003652 0.000000 0.000000 0.000000
# 3 -0.007636 -0.003652 0.007894 0.000000 0.000000 0.000000
# 4 0.000000 0.000000 0.000000 0.028536 0.000000 0.000000
# 5 0.000000 0.000000 0.000000 0.000000 0.031950 0.000000
# 6 0.000000 0.000000 0.000000 0.000000 0.000000 0.039969
#
#
# Mechanical properties :
#
#
# Convention : Reuss Voigt Hill
#
# Bulk Modulus (GPa) = 33.79126 69.72728 51.75927
# Shear Modulus (GPa) = 21.86092 30.18527 26.02310
#
# Velocity S-wave (km/s) = 3.49575 4.10774 3.81404
# Velocity P-wave (km/s) = 5.93152 7.84064 6.95193
#
# Compressibility (1/GPa) = 0.02959345
#
# Stress axis : x y z
#
# Youngs Moduli (GPa) = 21.01502 54.00305 126.68171
#
# Poissons Ratio (x) = 0.58932 0.96737
# Poissons Ratio (y) = 0.22933 0.46270
# Poissons Ratio (z) = 0.16048 0.19724
#
# Static dielectric constant tensor:
#      x y z
#    x 2.934770 0.000000 0.000000 
#    y 0.000000 3.042040 0.000000 
#    z 0.000000 0.000000 3.746190 
# 
# 
# High freq. dielectric constant tensor:
#      x y z
#    x 1.648410 0.000000 0.000000 
#    y 0.000000 1.680810 0.000000 
#    z 0.000000 0.000000 1.723800 
# 
# From -- ./inp_files/32598.got.cif
#   From: 2010.03.12/outbox.cif.g09.slc.cpg/sg59_17_cif.got.tgz:32598.got - 2010.04.16 16:29:54.
