data_PCOD8242859
_publ_section_title
;
Structure prediction by ZEFSAII (Michael W. Deem and Ramdas Pophale) SiO2 
 PCOD8242859
Probable space group: P M M N
;
_chemical_formula_sum "Si O2"
_cell_formula_units_Z 48
_cell_length_a 27.892124
_cell_length_b 9.599367
_cell_length_c 10.190560
_cell_angle_alpha 90.000000
_cell_angle_beta 90.000000
_cell_angle_gamma 90.000000
_cell_volume 2728.489165
_symmetry_space_group_name_H-M "P M M N"
_symmetry_group_IT_number 59
_space_group.IT_coordinate_system_code '2'
_symmetry_cell_setting 'orthorhombic'
loop_
_space_group_symop_operation_xyz
x,y,z
1/2-x,1/2-y,z
1/2+x,-y,-z
-x,1/2+y,-z
-x,-y,-z
1/2+x,1/2+y,-z
1/2-x,y,z
x,1/2-y,z
loop_
_atom_site_type_symbol
_atom_site_label
_atom_site_fract_x
_atom_site_fract_y
_atom_site_fract_z
Si Si1 0.049881 0.909724 0.136319
Si Si2 0.556504 0.909812 0.115206
Si Si3 0.643332 0.410719 0.728875
Si Si4 0.805355 0.407786 0.995197
Si Si5 0.655545 0.911566 0.228219
Si Si6 0.694404 0.913727 0.508449
O O1 0.053819 0.750000 0.090559
O O2 0.085839 0.935910 0.258273
O O3 0.995318 0.947265 0.178843
O O4 0.066630 0.999577 0.012792
O O5 0.557572 0.750000 0.069358
O O6 0.598228 0.939136 0.221107
O O7 0.655406 0.250000 0.696353
O O8 0.666045 0.456397 0.867008
O O9 0.663630 0.507116 0.616028
O O10 0.750000 0.420686 0.959046
O O11 0.819404 0.250000 0.033420
O O12 0.816888 0.505926 0.116453
O O13 0.667981 0.750000 0.207784
O O14 0.674729 0.963419 0.367951
O O15 0.750000 0.955092 0.520885
O O16 0.686709 0.750000 0.528617
#
# Coordination Sequence:
#
# PCOD8242859 Si02
#       6
#     8   8   8   8   8   8
#     4   9  17  31  52  78 107 135 165 207 257 307
#     4   9  17  30  52  80 106 134 167 206 256 309
#     4  10  20  35  54  76 104 137 173 214 258 307
#     4  10  20  33  51  76 103 131 170 218 262 306
#     4  10  20  35  54  77 105 136 172 214 259 308
#     4  10  22  38  53  71 101 141 179 215 258 307
#
# _framework density 17.592154000000001
#
# number of rings (size 3 to 8) (size 9 to 14) (size 15 to 20)
#    0.000    2.333    1.667    1.000    0.000    4.000 
#    0.000    0.833    0.000    0.000    0.000    0.000 
#    0.000    0.000    0.000    0.000    0.000    0.000 
#
# Total GULP energy -595163.958885 kJ/mol
# GULP energy per Si atom -12399.249143 kJ/mol
# Density = 1.755211 g / cm^3
# Si number density = 17.592154 Si / 1000 Ang^3
#
#
#
# Elastic Constant Matrix: (Units=GPa)
#
#
# Indices 1 2 3 4 5 6 
#
# 1 67.7757 15.6763 17.9831 0.0000 0.0000 0.0000
# 2 15.6763 41.8571 31.5203 0.0000 0.0000 0.0000
# 3 17.9831 31.5203 76.8855 0.0000 0.0000 0.0000
# 4 0.0000 0.0000 0.0000 29.4186 0.0000 0.0000
# 5 0.0000 0.0000 0.0000 0.0000 29.7344 0.0000
# 6 0.0000 0.0000 0.0000 0.0000 0.0000 26.3863
#
#
#
# Elastic Compliance Matrix: (Units=1/GPa)
#
#
# Indices 1 2 3 4 5 6 
#
# 1 0.016343 -0.004690 -0.001900 0.000000 0.000000 0.000000
# 2 -0.004690 0.035906 -0.013623 0.000000 0.000000 0.000000
# 3 -0.001900 -0.013623 0.019036 0.000000 0.000000 0.000000
# 4 0.000000 0.000000 0.000000 0.033992 0.000000 0.000000
# 5 0.000000 0.000000 0.000000 0.000000 0.033631 0.000000
# 6 0.000000 0.000000 0.000000 0.000000 0.000000 0.037898
#
#
# Mechanical properties :
#
#
# Convention : Reuss Voigt Hill
#
# Bulk Modulus (GPa) = 32.40560 35.20860 33.80710
# Shear Modulus (GPa) = 21.97606 25.19711 23.58658
#
# Velocity S-wave (km/s) = 3.53823 3.78867 3.66559
# Velocity P-wave (km/s) = 5.92896 6.26067 6.09707
#
# Compressibility (1/GPa) = 0.03085886
#
# Stress axis : x y z
#
# Youngs Moduli (GPa) = 61.18646 27.85018 52.53270
#
# Poissons Ratio (x) = 0.13063 0.09980
# Poissons Ratio (y) = 0.28698 0.71567
# Poissons Ratio (z) = 0.11624 0.37941
#
# Static dielectric constant tensor:
#      x y z
#    x 3.653830 0.000000 0.000000 
#    y 0.000000 3.267460 0.000000 
#    z 0.000000 0.000000 3.077910 
# 
# 
# High freq. dielectric constant tensor:
#      x y z
#    x 1.702910 0.000000 0.000000 
#    y 0.000000 1.679070 0.000000 
#    z 0.000000 0.000000 1.652170 
# 
# From -- ./inp_files/6263.got.cif
#   From: 2010.03.12/outbox.cif.g09.slc.cpg/sg59_4_cif.got.tgz:6263.got - 2010.04.16 16:29:54.
