data_PCOD8242275
_publ_section_title
;
Structure prediction by ZEFSAII (Michael W. Deem and Ramdas Pophale) SiO2 
 PCOD8242275
Probable space group: P M M N
;
_chemical_formula_sum "Si O2"
_cell_formula_units_Z 64
_cell_length_a 9.470059
_cell_length_b 24.398122
_cell_length_c 18.716991
_cell_angle_alpha 90.000000
_cell_angle_beta 90.000000
_cell_angle_gamma 90.000000
_cell_volume 4324.591744
_symmetry_space_group_name_H-M "P M M N"
_symmetry_group_IT_number 59
_space_group.IT_coordinate_system_code '2'
_symmetry_cell_setting 'orthorhombic'
loop_
_space_group_symop_operation_xyz
x,y,z
1/2-x,1/2-y,z
1/2+x,-y,-z
-x,1/2+y,-z
-x,-y,-z
1/2+x,1/2+y,-z
1/2-x,y,z
x,1/2-y,z
loop_
_atom_site_type_symbol
_atom_site_label
_atom_site_fract_x
_atom_site_fract_y
_atom_site_fract_z
Si Si1 0.409176 0.314079 0.279825
Si Si2 0.415076 0.014832 0.606071
Si Si3 0.587881 0.031173 0.894204
Si Si4 0.407246 0.618569 0.820935
Si Si5 0.411948 0.004589 0.767858
Si Si6 0.412886 0.918501 0.500256
Si Si7 0.913189 0.312208 0.417690
Si Si8 0.590187 0.435662 0.041509
O O1 0.250000 0.335695 0.289325
O O2 0.412779 0.250000 0.266686
O O3 0.477391 0.340841 0.210216
O O4 0.495764 0.330320 0.349959
O O5 0.250000 0.027365 0.602396
O O6 0.494519 0.065003 0.567861
O O7 0.468873 0.011862 0.687437
O O8 0.450991 0.957200 0.567716
O O9 0.750000 0.022828 0.871747
O O10 0.500193 0.043722 0.821998
O O11 0.530403 0.977034 0.932948
O O12 0.571879 0.078057 0.956524
O O13 0.250000 0.638600 0.799533
O O14 0.433763 0.558067 0.790014
O O15 0.424068 0.617779 0.907550
O O16 0.250000 0.022702 0.773158
O O17 0.250000 0.925701 0.479217
O O18 0.447397 0.855180 0.519303
O O19 0.750000 0.316974 0.394940
O O20 0.949620 0.250000 0.442853
O O21 0.750000 0.460224 0.053499
#
# Coordination Sequence:
#
# PCOD8242275 Si02
#       8
#     8   8   8   8   8   8   8   8
#     4  10  20  30  39  56  81 103 127 165 204 232
#     4   9  17  28  41  57  80 110 136 160 197 241
#     4   9  15  23  37  56  77 101 129 159 189 222
#     4   9  16  27  42  56  74 104 137 164 192 230
#     4   9  17  28  40  56  80 107 134 163 194 231
#     4   9  17  29  43  59  79 102 133 170 200 232
#     4   9  17  30  47  62  77 103 136 166 200 242
#     4   8  15  26  37  52  76 103 129 158 190 222
#
# _framework density 14.799085
#
# number of rings (size 3 to 8) (size 9 to 14) (size 15 to 20)
#    0.000    3.000    0.000    2.250    0.000    6.250 
#    0.000    2.500    0.000    0.000    0.000    0.000 
#    0.000    1.000    0.000    4.500    0.000    4.125 
#
# Total GULP energy -793094.952600 kJ/mol
# GULP energy per Si atom -12392.108634 kJ/mol
# Density = 1.476540 g / cm^3
# Si number density = 14.799085 Si / 1000 Ang^3
#
#
#
# Elastic Constant Matrix: (Units=GPa)
#
#
# Indices 1 2 3 4 5 6 
#
# 1 67.1930 24.1190 44.5466 0.0000 0.0000 0.0000
# 2 24.1190 40.2563 28.0281 0.0000 0.0000 0.0000
# 3 44.5466 28.0281 114.1650 0.0000 0.0000 0.0000
# 4 0.0000 0.0000 0.0000 19.7743 0.0000 0.0000
# 5 0.0000 0.0000 0.0000 0.0000 26.7611 0.0000
# 6 0.0000 0.0000 0.0000 0.0000 0.0000 18.3835
#
#
#
# Elastic Compliance Matrix: (Units=1/GPa)
#
#
# Indices 1 2 3 4 5 6 
#
# 1 0.022419 -0.008855 -0.006574 0.000000 0.000000 0.000000
# 2 -0.008855 0.033460 -0.004759 0.000000 0.000000 0.000000
# 3 -0.006574 -0.004759 0.012493 0.000000 0.000000 0.000000
# 4 0.000000 0.000000 0.000000 0.050571 0.000000 0.000000
# 5 0.000000 0.000000 0.000000 0.000000 0.037368 0.000000
# 6 0.000000 0.000000 0.000000 0.000000 0.000000 0.054397
#
#
# Mechanical properties :
#
#
# Convention : Reuss Voigt Hill
#
# Bulk Modulus (GPa) = 35.72042 46.11130 40.91586
# Shear Modulus (GPa) = 19.20005 21.31182 20.25593
#
# Velocity S-wave (km/s) = 3.60583 3.79895 3.70365
# Velocity P-wave (km/s) = 6.44401 7.10412 6.78210
#
# Compressibility (1/GPa) = 0.02799519
#
# Stress axis : x y z
#
# Youngs Moduli (GPa) = 44.60423 29.88643 80.04609
#
# Poissons Ratio (x) = 0.26465 0.52622
# Poissons Ratio (y) = 0.39498 0.38096
# Poissons Ratio (z) = 0.29323 0.14224
#
# Static dielectric constant tensor:
#      x y z
#    x 2.993210 0.000000 0.000000 
#    y 0.000000 2.597400 0.000000 
#    z 0.000000 0.000000 3.094880 
# 
# 
# High freq. dielectric constant tensor:
#      x y z
#    x 1.575640 0.000000 0.000000 
#    y 0.000000 1.514780 0.000000 
#    z 0.000000 0.000000 1.565840 
# 
# From -- ./inp_files/26607.got.cif
#   From: 2010.03.12/outbox.cif.g09.slc.cpg/sg59_14_cif.got.tgz:26607.got - 2010.04.16 16:29:54.
