data_PCOD8242233
_publ_section_title
;
Structure prediction by ZEFSAII (Michael W. Deem and Ramdas Pophale) SiO2 
 PCOD8242233
Probable space group: P M M N
;
_chemical_formula_sum "Si O2"
_cell_formula_units_Z 64
_cell_length_a 30.811478
_cell_length_b 8.980582
_cell_length_c 11.886027
_cell_angle_alpha 90.000000
_cell_angle_beta 90.000000
_cell_angle_gamma 90.000000
_cell_volume 3288.923157
_symmetry_space_group_name_H-M "P M M N"
_symmetry_group_IT_number 59
_space_group.IT_coordinate_system_code '2'
_symmetry_cell_setting 'orthorhombic'
loop_
_space_group_symop_operation_xyz
x,y,z
1/2-x,1/2-y,z
1/2+x,-y,-z
-x,1/2+y,-z
-x,-y,-z
1/2+x,1/2+y,-z
1/2-x,y,z
x,1/2-y,z
loop_
_atom_site_type_symbol
_atom_site_label
_atom_site_fract_x
_atom_site_fract_y
_atom_site_fract_z
Si Si1 0.454975 0.577796 0.975078
Si Si2 0.298060 0.074727 0.511084
Si Si3 0.421578 0.917114 0.729971
Si Si4 0.298743 0.578516 0.984620
Si Si5 0.876642 0.926882 0.637298
Si Si6 0.821288 0.080116 0.262188
Si Si7 0.545661 0.924506 0.482079
Si Si8 0.376571 0.073264 0.106499
O O1 0.456513 0.750000 0.011086
O O2 0.448611 0.559911 0.842599
O O3 0.500000 0.500000 0.000000
O O4 0.416388 0.499868 0.042040
O O5 0.250000 0.030356 0.466944
O O6 0.303744 0.250000 0.515375
O O7 0.334346 0.006362 0.427217
O O8 0.303659 0.019278 0.637618
O O9 0.428758 0.750000 0.682152
O O10 0.371871 0.946068 0.758394
O O11 0.437111 0.038274 0.641250
O O12 0.250000 0.557171 0.032000
O O13 0.314282 0.750000 0.995965
O O14 0.298300 0.532451 0.853532
O O15 0.330682 0.474043 0.054516
O O16 0.874553 0.750000 0.634002
O O17 0.919936 0.984056 0.574343
O O18 0.877470 0.984198 0.764898
O O19 0.810519 0.250000 0.293031
O O20 0.539413 0.750000 0.493781
O O21 0.500000 0.000000 0.500000
O O22 0.381276 0.250000 0.098971
#
# Coordination Sequence:
#
# PCOD8242233 Si02
#       8
#     8   8   8   8   8   8   8   8
#     4  11  24  43  64  90 123 157 198 245 300 357
#     4  10  20  36  59  86 116 151 193 240 289 343
#     4  10  21  39  63  88 119 156 194 240 294 350
#     4  10  21  39  61  86 120 160 198 243 302 356
#     4   9  21  40  58  81 116 157 192 236 292 346
#     4  10  19  36  60  86 118 154 190 234 293 353
#     4  11  23  40  62  88 120 154 197 243 294 351
#     4  11  23  40  62  87 118 158 203 246 295 352
#
# _framework density 19.459256
#
# number of rings (size 3 to 8) (size 9 to 14) (size 15 to 20)
#    0.000    1.750    2.500    1.500    1.750    3.000 
#    0.000    4.375    0.000    0.000    0.000    0.000 
#    0.000    0.000    0.000    0.000    0.000    0.000 
#
# Total GULP energy -793725.542641 kJ/mol
# GULP energy per Si atom -12401.961604 kJ/mol
# Density = 1.941497 g / cm^3
# Si number density = 19.459256 Si / 1000 Ang^3
#
#
#
# Elastic Constant Matrix: (Units=GPa)
#
#
# Indices 1 2 3 4 5 6 
#
# 1 129.0237 39.5554 48.5949 0.0000 0.0000 0.0000
# 2 39.5554 57.9001 34.5949 0.0000 0.0000 0.0000
# 3 48.5949 34.5949 102.4248 0.0000 0.0000 0.0000
# 4 0.0000 0.0000 0.0000 29.8508 0.0000 0.0000
# 5 0.0000 0.0000 0.0000 0.0000 18.4101 0.0000
# 6 0.0000 0.0000 0.0000 0.0000 0.0000 29.7820
#
#
#
# Elastic Compliance Matrix: (Units=1/GPa)
#
#
# Indices 1 2 3 4 5 6 
#
# 1 0.010595 -0.005306 -0.003235 0.000000 0.000000 0.000000
# 2 -0.005306 0.024295 -0.005688 0.000000 0.000000 0.000000
# 3 -0.003235 -0.005688 0.013219 0.000000 0.000000 0.000000
# 4 0.000000 0.000000 0.000000 0.033500 0.000000 0.000000
# 5 0.000000 0.000000 0.000000 0.000000 0.054318 0.000000
# 6 0.000000 0.000000 0.000000 0.000000 0.000000 0.033577
#
#
# Mechanical properties :
#
#
# Convention : Reuss Voigt Hill
#
# Bulk Modulus (GPa) = 50.88709 59.42656 55.15683
# Shear Modulus (GPa) = 24.44828 26.71548 25.58188
#
# Velocity S-wave (km/s) = 3.54839 3.70928 3.62973
# Velocity P-wave (km/s) = 6.55709 6.99645 6.78033
#
# Compressibility (1/GPa) = 0.01965135
#
# Stress axis : x y z
#
# Youngs Moduli (GPa) = 94.37983 41.16141 75.64644
#
# Poissons Ratio (x) = 0.21839 0.24471
# Poissons Ratio (y) = 0.50074 0.43031
# Poissons Ratio (z) = 0.30531 0.23415
#
# Static dielectric constant tensor:
#      x y z
#    x 3.076790 0.000000 0.000000 
#    y 0.000000 3.401950 0.000000 
#    z 0.000000 0.000000 3.338710 
# 
# 
# High freq. dielectric constant tensor:
#      x y z
#    x 1.776890 0.000000 0.000000 
#    y 0.000000 1.743740 0.000000 
#    z 0.000000 0.000000 1.759090 
# 
# From -- ./inp_files/19388.got.cif
#   From: 2010.03.12/outbox.cif.g09.slc.cpg/sg59_10_cif.got.tgz:19388.got - 2010.04.16 16:29:54.
