data_PCOD8242899
_publ_section_title
;
Structure prediction by ZEFSAII (Michael W. Deem and Ramdas Pophale) SiO2 
 PCOD8242899
Probable space group: P M M N
;
_chemical_formula_sum "Si O2"
_cell_formula_units_Z 64
_cell_length_a 15.065783
_cell_length_b 9.226598
_cell_length_c 23.646842
_cell_angle_alpha 90.000000
_cell_angle_beta 90.000000
_cell_angle_gamma 90.000000
_cell_volume 3287.051105
_symmetry_space_group_name_H-M "P M M N"
_symmetry_group_IT_number 59
_space_group.IT_coordinate_system_code '2'
_symmetry_cell_setting 'orthorhombic'
loop_
_space_group_symop_operation_xyz
x,y,z
1/2-x,1/2-y,z
1/2+x,-y,-z
-x,1/2+y,-z
-x,-y,-z
1/2+x,1/2+y,-z
1/2-x,y,z
x,1/2-y,z
loop_
_atom_site_type_symbol
_atom_site_label
_atom_site_fract_x
_atom_site_fract_y
_atom_site_fract_z
Si Si1 0.974498 0.417453 0.262352
Si Si2 0.007550 0.921003 0.865040
Si Si3 0.147833 0.581323 0.080272
Si Si4 0.848104 0.407089 0.570852
Si Si5 0.352135 0.420511 0.649224
Si Si6 0.348147 0.577759 0.952862
Si Si7 0.851177 0.916982 0.675699
Si Si8 0.086931 0.421605 0.524208
O O1 0.952162 0.250000 0.273088
O O2 0.907634 0.507498 0.300848
O O3 0.958662 0.461786 0.197456
O O4 0.079069 0.448272 0.274270
O O5 0.995388 0.750000 0.871530
O O6 0.080126 0.984599 0.908868
O O7 0.912700 0.992899 0.876524
O O8 0.250000 0.549876 0.095570
O O9 0.126007 0.750000 0.086713
O O10 0.127205 0.528192 0.016323
O O11 0.750000 0.372230 0.591088
O O12 0.897948 0.250000 0.561703
O O13 0.891970 0.494604 0.622496
O O14 0.838582 0.504485 0.514621
O O15 0.250000 0.474639 0.650772
O O16 0.355931 0.250000 0.658223
O O17 0.395545 0.462819 0.589075
O O18 0.250000 0.518691 0.936734
O O19 0.346373 0.750000 0.950277
O O20 0.750000 0.961646 0.693405
O O21 0.851988 0.750000 0.657525
O O22 0.085739 0.250000 0.514729
O O23 0.000000 0.500000 0.500000
#
# Coordination Sequence:
#
# PCOD8242899 Si02
#       8
#     8   8   8   8   8   8   8   8
#     4  10  22  37  54  80 109 140 183 230 273 318
#     4  10  20  33  53  81 109 139 178 225 274 320
#     4   9  18  33  53  78 109 145 181 216 262 323
#     4  10  20  33  51  77 104 128 162 209 258 312
#     4  10  23  42  60  78 106 148 191 227 268 319
#     4   8  15  30  52  77 107 142 178 218 267 323
#     4   9  18  34  54  74 103 144 182 219 271 333
#     4  11  22  36  56  81 108 136 170 215 269 328
#
# _framework density 19.470338000000002
#
# number of rings (size 3 to 8) (size 9 to 14) (size 15 to 20)
#    0.000    2.375    0.000    3.000    0.000    6.750 
#    0.000    2.500    0.000    2.625    0.000    0.000 
#    0.000    0.000    0.000    0.000    0.000    0.000 
#
# Total GULP energy -793198.088950 kJ/mol
# GULP energy per Si atom -12393.720140 kJ/mol
# Density = 1.942602 g / cm^3
# Si number density = 19.470338 Si / 1000 Ang^3
#
#
#
# Elastic Constant Matrix: (Units=GPa)
#
#
# Indices 1 2 3 4 5 6 
#
# 1 112.0057 37.6175 55.6212 0.0000 0.0000 0.0000
# 2 37.6175 58.8082 40.2145 0.0000 0.0000 0.0000
# 3 55.6212 40.2145 105.8553 0.0000 0.0000 0.0000
# 4 0.0000 0.0000 0.0000 24.2809 0.0000 0.0000
# 5 0.0000 0.0000 0.0000 0.0000 27.3287 0.0000
# 6 0.0000 0.0000 0.0000 0.0000 0.0000 27.9846
#
#
#
# Elastic Compliance Matrix: (Units=1/GPa)
#
#
# Indices 1 2 3 4 5 6 
#
# 1 0.013066 -0.004949 -0.004985 0.000000 0.000000 0.000000
# 2 -0.004949 0.024847 -0.006839 0.000000 0.000000 0.000000
# 3 -0.004985 -0.006839 0.014665 0.000000 0.000000 0.000000
# 4 0.000000 0.000000 0.000000 0.041185 0.000000 0.000000
# 5 0.000000 0.000000 0.000000 0.000000 0.036592 0.000000
# 6 0.000000 0.000000 0.000000 0.000000 0.000000 0.035734
#
#
# Mechanical properties :
#
#
# Convention : Reuss Voigt Hill
#
# Bulk Modulus (GPa) = 52.54604 60.39729 56.47166
# Shear Modulus (GPa) = 24.27457 25.46657 24.87057
#
# Velocity S-wave (km/s) = 3.53476 3.62051 3.57789
# Velocity P-wave (km/s) = 6.61103 6.96885 6.79230
#
# Compressibility (1/GPa) = 0.01903093
#
# Stress axis : x y z
#
# Youngs Moduli (GPa) = 76.53541 40.24701 68.19149
#
# Poissons Ratio (x) = 0.19917 0.33996
# Poissons Ratio (y) = 0.37874 0.46636
# Poissons Ratio (z) = 0.38156 0.27525
#
# Static dielectric constant tensor:
#      x y z
#    x 2.919910 0.000000 0.000000 
#    y 0.000000 3.710940 0.000000 
#    z 0.000000 0.000000 3.708870 
# 
# 
# High freq. dielectric constant tensor:
#      x y z
#    x 1.767020 0.000000 0.000000 
#    y 0.000000 1.742470 0.000000 
#    z 0.000000 0.000000 1.752400 
# 
# From -- ./inp_files/32229.got.cif
#   From: 2010.03.12/outbox.cif.g09.slc.cpg/sg59_17_cif.got.tgz:32229.got - 2010.04.16 16:29:54.
