data_PCOD8242759
_publ_section_title
;
Structure prediction by ZEFSAII (Michael W. Deem and Ramdas Pophale) SiO2 
 PCOD8242759
Probable space group: P M M N
;
_chemical_formula_sum "Si O2"
_cell_formula_units_Z 56
_cell_length_a 9.138792
_cell_length_b 18.731451
_cell_length_c 17.895542
_cell_angle_alpha 90.000000
_cell_angle_beta 90.000000
_cell_angle_gamma 90.000000
_cell_volume 3063.409605
_symmetry_space_group_name_H-M "P M M N"
_symmetry_group_IT_number 59
_space_group.IT_coordinate_system_code '2'
_symmetry_cell_setting 'orthorhombic'
loop_
_space_group_symop_operation_xyz
x,y,z
1/2-x,1/2-y,z
1/2+x,-y,-z
-x,1/2+y,-z
-x,-y,-z
1/2+x,1/2+y,-z
1/2-x,y,z
x,1/2-y,z
loop_
_atom_site_type_symbol
_atom_site_label
_atom_site_fract_x
_atom_site_fract_y
_atom_site_fract_z
Si Si1 0.579502 0.425805 0.284728
Si Si2 0.922437 0.092900 0.863876
Si Si3 0.920114 0.909461 0.286657
Si Si4 0.080327 0.332829 0.997152
Si Si5 0.921187 0.570951 0.864672
Si Si6 0.576091 0.170808 0.417844
Si Si7 0.085265 0.834589 0.416510
O O1 0.750000 0.410548 0.273958
O O2 0.546853 0.507940 0.301764
O O3 0.501002 0.400719 0.209199
O O4 0.513468 0.381672 0.354372
O O5 0.750000 0.103571 0.859123
O O6 0.991521 0.117259 0.785512
O O7 0.965205 0.010939 0.882387
O O8 0.985459 0.144760 0.926460
O O9 0.750000 0.894645 0.272443
O O10 0.971524 0.866736 0.358642
O O11 0.250000 0.348130 0.979593
O O12 0.052813 0.250000 0.015460
O O13 0.026683 0.379556 0.067328
O O14 0.750000 0.578032 0.850262
O O15 0.750000 0.173530 0.414443
O O16 0.512144 0.250000 0.403290
O O17 0.531279 0.143086 0.500341
O O18 0.250000 0.863194 0.401026
O O19 0.083979 0.750000 0.409610
#
# Coordination Sequence:
#
# PCOD8242759 Si02
#       7
#     8   8   8   8   8   8   8
#     4   9  18  32  51  76 102 129 165 205 243 288
#     4  10  20  35  55  75  97 129 169 207 240 285
#     4  10  20  33  50  74 103 131 161 202 251 297
#     4  10  21  36  53  75 104 133 160 197 248 298
#     4   9  19  35  53  74 101 133 165 198 243 294
#     4   8  15  30  51  73  99 132 167 203 245 290
#     4   9  18  33  52  72  96 130 170 207 244 291
#
# _framework density 18.280284000000002
#
# number of rings (size 3 to 8) (size 9 to 14) (size 15 to 20)
#    0.000    2.714    0.000    2.143    0.000    4.000 
#    0.000    0.714    0.000    0.857    0.000    0.000 
#    0.000    0.000    0.000    0.000    0.000    0.000 
#
# Total GULP energy -694457.834368 kJ/mol
# GULP energy per Si atom -12401.032757 kJ/mol
# Density = 1.823868 g / cm^3
# Si number density = 18.280284 Si / 1000 Ang^3
#
#
#
# Elastic Constant Matrix: (Units=GPa)
#
#
# Indices 1 2 3 4 5 6 
#
# 1 53.5722 26.3887 45.5411 0.0000 0.0000 0.0000
# 2 26.3887 51.6140 49.7742 0.0000 0.0000 0.0000
# 3 45.5411 49.7742 138.8615 0.0000 0.0000 0.0000
# 4 0.0000 0.0000 0.0000 22.0098 0.0000 0.0000
# 5 0.0000 0.0000 0.0000 0.0000 32.2084 0.0000
# 6 0.0000 0.0000 0.0000 0.0000 0.0000 20.5108
#
#
#
# Elastic Compliance Matrix: (Units=1/GPa)
#
#
# Indices 1 2 3 4 5 6 
#
# 1 0.028061 -0.008362 -0.006205 0.000000 0.000000 0.000000
# 2 -0.008362 0.032102 -0.008764 0.000000 0.000000 0.000000
# 3 -0.006205 -0.008764 0.012378 0.000000 0.000000 0.000000
# 4 0.000000 0.000000 0.000000 0.045434 0.000000 0.000000
# 5 0.000000 0.000000 0.000000 0.000000 0.031048 0.000000
# 6 0.000000 0.000000 0.000000 0.000000 0.000000 0.048755
#
#
# Mechanical properties :
#
#
# Convention : Reuss Voigt Hill
#
# Bulk Modulus (GPa) = 38.64496 54.16172 46.40334
# Shear Modulus (GPa) = 19.75762 23.10204 21.42983
#
# Velocity S-wave (km/s) = 3.29114 3.55881 3.42759
# Velocity P-wave (km/s) = 5.96894 6.82493 6.41124
#
# Compressibility (1/GPa) = 0.02587659
#
# Stress axis : x y z
#
# Youngs Moduli (GPa) = 35.63708 31.15086 80.78855
#
# Poissons Ratio (x) = 0.26050 0.50132
# Poissons Ratio (y) = 0.29801 0.70805
# Poissons Ratio (z) = 0.22114 0.27301
#
# Static dielectric constant tensor:
#      x y z
#    x 3.208960 0.000000 0.000000 
#    y 0.000000 3.385720 0.000000 
#    z 0.000000 0.000000 3.585600 
# 
# 
# High freq. dielectric constant tensor:
#      x y z
#    x 1.692980 0.000000 0.000000 
#    y 0.000000 1.701360 0.000000 
#    z 0.000000 0.000000 1.719450 
# 
# From -- ./inp_files/26112.got.cif
#   From: 2010.03.12/outbox.cif.g09.slc.cpg/sg59_14_cif.got.tgz:26112.got - 2010.04.16 16:29:54.
