data_PCOD8242912
_publ_section_title
;
Structure prediction by ZEFSAII (Michael W. Deem and Ramdas Pophale) SiO2 
 PCOD8242912
Probable space group: P M M N
;
_chemical_formula_sum "Si O2"
_cell_formula_units_Z 64
_cell_length_a 18.423527
_cell_length_b 8.999730
_cell_length_c 20.628857
_cell_angle_alpha 90.000000
_cell_angle_beta 90.000000
_cell_angle_gamma 90.000000
_cell_volume 3420.404120
_symmetry_space_group_name_H-M "P M M N"
_symmetry_group_IT_number 59
_space_group.IT_coordinate_system_code '2'
_symmetry_cell_setting 'orthorhombic'
loop_
_space_group_symop_operation_xyz
x,y,z
1/2-x,1/2-y,z
1/2+x,-y,-z
-x,1/2+y,-z
-x,-y,-z
1/2+x,1/2+y,-z
1/2-x,y,z
x,1/2-y,z
loop_
_atom_site_type_symbol
_atom_site_label
_atom_site_fract_x
_atom_site_fract_y
_atom_site_fract_z
Si Si1 0.836441 0.417426 0.939331
Si Si2 0.169922 0.073957 0.567280
Si Si3 0.912066 0.422060 0.692174
Si Si4 0.333518 0.575227 0.804242
Si Si5 0.082004 0.077251 0.689860
Si Si6 0.836361 0.582765 0.065701
Si Si7 0.335387 0.079473 0.422850
Si Si8 0.333858 0.424307 0.190317
O O1 0.750000 0.419476 0.941622
O O2 0.866513 0.250000 0.938950
O O3 0.864031 0.499303 0.874762
O O4 0.868218 0.500843 0.002320
O O5 0.250000 0.008944 0.583482
O O6 0.174849 0.250000 0.566397
O O7 0.113335 0.018520 0.621233
O O8 0.145228 0.023514 0.495490
O O9 0.894010 0.250000 0.704394
O O10 0.878272 0.471315 0.624417
O O11 0.879458 0.519061 0.749470
O O12 0.997141 0.452151 0.689497
O O13 0.250000 0.530257 0.791397
O O14 0.342438 0.750000 0.811570
O O15 0.381927 0.517741 0.745969
O O16 0.363067 0.501834 0.870226
O O17 0.101101 0.250000 0.700706
O O18 0.750000 0.582223 0.062522
O O19 0.866878 0.750000 0.067240
O O20 0.250000 0.064748 0.409703
O O21 0.359784 0.250000 0.411617
O O22 0.250000 0.465491 0.202325
O O23 0.344749 0.250000 0.182418
#
# Coordination Sequence:
#
# PCOD8242912 Si02
#       8
#     8   8   8   8   8   8   8   8
#     4   9  16  27  46  74 106 134 163 209 264 307
#     4   8  15  31  56  80 100 128 169 212 251 299
#     4  11  23  35  49  74 106 137 171 213 259 305
#     4  10  20  33  51  77 106 135 171 216 262 304
#     4  10  21  36  53  74 102 138 177 212 251 306
#     4   9  16  27  46  73 104 137 172 209 251 303
#     4   9  18  34  56  79 101 130 170 211 253 307
#     4  10  20  34  53  75  99 133 177 217 255 308
#
# _framework density 18.711238000000002
#
# number of rings (size 3 to 8) (size 9 to 14) (size 15 to 20)
#    0.000    2.500    0.000    3.375    0.000    8.250 
#    0.000    0.625    0.000    1.500    0.000    0.000 
#    0.000    0.000    0.000    0.000    0.000    0.000 
#
# Total GULP energy -793636.351859 kJ/mol
# GULP energy per Si atom -12400.567998 kJ/mol
# Density = 1.866865 g / cm^3
# Si number density = 18.711238 Si / 1000 Ang^3
#
#
#
# Elastic Constant Matrix: (Units=GPa)
#
#
# Indices 1 2 3 4 5 6 
#
# 1 54.2271 36.0519 50.1130 0.0000 0.0000 0.0000
# 2 36.0519 90.3463 59.2096 0.0000 0.0000 0.0000
# 3 50.1130 59.2096 163.1144 0.0000 0.0000 0.0000
# 4 0.0000 0.0000 0.0000 28.4573 0.0000 0.0000
# 5 0.0000 0.0000 0.0000 0.0000 -5.4073 0.0000
# 6 0.0000 0.0000 0.0000 0.0000 0.0000 19.2460
#
#
#
# Elastic Compliance Matrix: (Units=1/GPa)
#
#
# Indices 1 2 3 4 5 6 
#
# 1 0.029242 -0.007586 -0.006230 0.000000 0.000000 0.000000
# 2 -0.007586 0.016491 -0.003656 0.000000 0.000000 0.000000
# 3 -0.006230 -0.003656 0.009372 0.000000 0.000000 0.000000
# 4 0.000000 0.000000 0.000000 0.035140 0.000000 0.000000
# 5 0.000000 0.000000 0.000000 0.000000 -0.184935 0.000000
# 6 0.000000 0.000000 0.000000 0.000000 0.000000 0.051959
#
#
# Mechanical properties :
#
#
# Convention : Reuss Voigt Hill
#
# Bulk Modulus (GPa) = 49.59931 66.49299 58.04615
# Shear Modulus (GPa) = -4682.99245 19.28009 -2331.85618
#
# Velocity S-wave (km/s) = -50.08197 3.21347 -35.34032
# Velocity P-wave (km/s) = 57.59953 7.02724 40.42477
#
# Compressibility (1/GPa) = 0.02016157
#
# Stress axis : x y z
#
# Youngs Moduli (GPa) = 34.19775 60.63790 106.70298
#
# Poissons Ratio (x) = 0.45997 0.66479
# Poissons Ratio (y) = 0.25941 0.39008
# Poissons Ratio (z) = 0.21306 0.22168
#
# Static dielectric constant tensor:
#      x y z
#    x 3.061260 0.000000 0.000000 
#    y 0.000000 3.409890 0.000000 
#    z 0.000000 0.000000 3.701590 
# 
# 
# High freq. dielectric constant tensor:
#      x y z
#    x 1.689360 0.000000 0.000000 
#    y 0.000000 1.722830 0.000000 
#    z 0.000000 0.000000 1.745660 
# 
# From -- ./inp_files/30681.got.cif
#   From: 2010.03.12/outbox.cif.g09.slc.cpg/sg59_16_cif.got.tgz:30681.got - 2010.04.16 16:29:54.
