data_PCOD8242038
_publ_section_title
;
Structure prediction by ZEFSAII (Michael W. Deem and Ramdas Pophale) SiO2 
 PCOD8242038
Probable space group: P M M N
;
_chemical_formula_sum "Si O2"
_cell_formula_units_Z 64
_cell_length_a 8.525614
_cell_length_b 29.298635
_cell_length_c 12.609690
_cell_angle_alpha 90.000000
_cell_angle_beta 90.000000
_cell_angle_gamma 90.000000
_cell_volume 3149.759998
_symmetry_space_group_name_H-M "P M M N"
_symmetry_group_IT_number 59
_space_group.IT_coordinate_system_code '2'
_symmetry_cell_setting 'orthorhombic'
loop_
_space_group_symop_operation_xyz
x,y,z
1/2-x,1/2-y,z
1/2+x,-y,-z
-x,1/2+y,-z
-x,-y,-z
1/2+x,1/2+y,-z
1/2-x,y,z
x,1/2-y,z
loop_
_atom_site_type_symbol
_atom_site_label
_atom_site_fract_x
_atom_site_fract_y
_atom_site_fract_z
Si Si1 0.928782 0.821310 0.848036
Si Si2 0.933299 0.445279 0.668070
Si Si3 0.564349 0.700114 0.616893
Si Si4 0.567863 0.041165 0.301620
Si Si5 0.072306 0.425240 0.097344
Si Si6 0.933249 0.201196 0.936702
Si Si7 0.065912 0.106249 0.472740
Si Si8 0.563983 0.396777 0.881731
O O1 0.750000 0.804691 0.863810
O O2 0.000918 0.805310 0.736163
O O3 0.938712 0.875576 0.852197
O O4 0.034861 0.799019 0.938089
O O5 0.750000 0.457029 0.675214
O O6 0.993057 0.419718 0.773548
O O7 0.030895 0.491337 0.651912
O O8 0.964267 0.412873 0.568806
O O9 0.750000 0.696303 0.625293
O O10 0.512365 0.750000 0.571571
O O11 0.506812 0.658680 0.542511
O O12 0.750000 0.052022 0.317158
O O13 0.521786 0.041663 0.177151
O O14 0.466738 0.078225 0.365590
O O15 0.250000 0.442967 0.089566
O O16 0.999258 0.426507 0.979899
O O17 0.750000 0.200162 0.916331
O O18 0.999594 0.250000 0.890853
O O19 0.006774 0.155300 0.884155
O O20 0.250000 0.103550 0.499189
O O21 0.750000 0.395065 0.890679
#
# Coordination Sequence:
#
# PCOD8242038 Si02
#       8
#     8   8   8   8   8   8   8   8
#     4   9  16  29  50  78 113 148 182 221 271 331
#     4  11  24  42  61  82 111 151 199 243 289 343
#     4   9  17  31  54  83 115 150 185 224 277 337
#     4  12  24  39  62  89 116 148 188 235 293 349
#     4  10  19  34  58  88 119 150 184 228 281 336
#     4   9  17  30  50  78 110 145 186 230 278 330
#     4  11  22  40  62  86 118 150 191 240 287 336
#     4   9  20  38  57  80 114 153 191 234 283 339
#
# _framework density 20.319006999999999
#
# number of rings (size 3 to 8) (size 9 to 14) (size 15 to 20)
#    0.000    2.000    1.250    3.000    0.000    2.750 
#    0.000    0.625    0.000    3.000    0.000    0.000 
#    0.000    0.000    0.000    0.000    0.000    0.000 
#
# Total GULP energy -793448.867652 kJ/mol
# GULP energy per Si atom -12397.638557 kJ/mol
# Density = 2.027276 g / cm^3
# Si number density = 20.319007 Si / 1000 Ang^3
#
#
#
# Elastic Constant Matrix: (Units=GPa)
#
#
# Indices 1 2 3 4 5 6 
#
# 1 38.9272 13.8694 10.2442 0.0000 0.0000 0.0000
# 2 13.8694 109.0779 35.8554 0.0000 0.0000 0.0000
# 3 10.2442 35.8554 90.6276 0.0000 0.0000 0.0000
# 4 0.0000 0.0000 0.0000 14.9209 0.0000 0.0000
# 5 0.0000 0.0000 0.0000 0.0000 26.9650 0.0000
# 6 0.0000 0.0000 0.0000 0.0000 0.0000 12.6092
#
#
#
# Elastic Compliance Matrix: (Units=1/GPa)
#
#
# Indices 1 2 3 4 5 6 
#
# 1 0.027208 -0.002815 -0.001962 0.000000 0.000000 0.000000
# 2 -0.002815 0.010829 -0.003966 0.000000 0.000000 0.000000
# 3 -0.001962 -0.003966 0.012825 0.000000 0.000000 0.000000
# 4 0.000000 0.000000 0.000000 0.067020 0.000000 0.000000
# 5 0.000000 0.000000 0.000000 0.000000 0.037085 0.000000
# 6 0.000000 0.000000 0.000000 0.000000 0.000000 0.079307
#
#
# Mechanical properties :
#
#
# Convention : Reuss Voigt Hill
#
# Bulk Modulus (GPa) = 29.96086 39.84119 34.90102
# Shear Modulus (GPa) = 19.01962 22.80994 20.91478
#
# Velocity S-wave (km/s) = 3.06281 3.35414 3.21178
# Velocity P-wave (km/s) = 5.22351 5.88649 5.56488
#
# Compressibility (1/GPa) = 0.03337688
#
# Stress axis : x y z
#
# Youngs Moduli (GPa) = 36.75373 92.34095 77.97179
#
# Poissons Ratio (x) = 0.25991 0.15298
# Poissons Ratio (y) = 0.10345 0.30926
# Poissons Ratio (z) = 0.07211 0.36626
#
# Static dielectric constant tensor:
#      x y z
#    x 3.425950 0.000000 0.000000 
#    y 0.000000 4.081340 0.000000 
#    z 0.000000 0.000000 3.540300 
# 
# 
# High freq. dielectric constant tensor:
#      x y z
#    x 1.772920 0.000000 0.000000 
#    y 0.000000 1.806480 0.000000 
#    z 0.000000 0.000000 1.775400 
# 
# From -- ./inp_files/15052.got.cif
#   From: 2010.03.12/outbox.cif.g09.slc.cpg/sg59_8_cif.got.tgz:15052.got - 2010.04.16 16:29:54.
