data_PCOD8242635
_publ_section_title
;
Structure prediction by ZEFSAII (Michael W. Deem and Ramdas Pophale) SiO2 
 PCOD8242635
Probable space group: P M M N
;
_chemical_formula_sum "Si O2"
_cell_formula_units_Z 48
_cell_length_a 19.040287
_cell_length_b 9.142188
_cell_length_c 15.490496
_cell_angle_alpha 90.000000
_cell_angle_beta 90.000000
_cell_angle_gamma 90.000000
_cell_volume 2696.428831
_symmetry_space_group_name_H-M "P M M N"
_symmetry_group_IT_number 59
_space_group.IT_coordinate_system_code '2'
_symmetry_cell_setting 'orthorhombic'
loop_
_space_group_symop_operation_xyz
x,y,z
1/2-x,1/2-y,z
1/2+x,-y,-z
-x,1/2+y,-z
-x,-y,-z
1/2+x,1/2+y,-z
1/2-x,y,z
x,1/2-y,z
loop_
_atom_site_type_symbol
_atom_site_label
_atom_site_fract_x
_atom_site_fract_y
_atom_site_fract_z
Si Si1 0.171725 0.424104 0.746773
Si Si2 0.833293 0.582932 0.731880
Si Si3 0.166475 0.412940 0.936085
Si Si4 0.413657 0.579612 0.416931
Si Si5 0.924237 0.920429 0.408368
Si Si6 0.166320 0.914130 0.099620
O O1 0.250000 0.484617 0.726421
O O2 0.173874 0.250000 0.748668
O O3 0.145721 0.477171 0.841653
O O4 0.118085 0.480751 0.674323
O O5 0.750000 0.573141 0.725828
O O6 0.859267 0.750000 0.730985
O O7 0.864089 0.498015 0.651098
O O8 0.861023 0.508435 0.819649
O O9 0.250000 0.404737 0.941899
O O10 0.135351 0.250000 0.949537
O O11 0.136070 0.516814 0.011150
O O12 0.395210 0.750000 0.419786
O O13 0.494042 0.551556 0.390244
O O14 0.397497 0.511404 0.510042
O O15 0.908920 0.750000 0.426082
O O16 0.250000 0.913645 0.097497
O O17 0.136745 0.750000 0.108568
#
# Coordination Sequence:
#
# PCOD8242635 Si02
#       6
#     8   8   8   8   8   8
#     4   8  14  26  47  73  96 120 155 196 230 264
#     4  10  20  33  50  71  93 120 157 199 239 281
#     4   8  13  23  41  65  92 121 152 185 222 266
#     4  10  20  33  49  69  95 126 158 196 240 284
#     4   9  18  33  51  70  94 127 164 195 229 280
#     4   9  16  26  42  66  96 125 150 182 228 279
#
# _framework density 17.801321999999999
#
# number of rings (size 3 to 8) (size 9 to 14) (size 15 to 20)
#    0.000    3.000    0.000    2.500    0.000    4.333 
#    0.000    2.500    0.000    2.000    0.000    0.000 
#    0.000    0.000    0.000    0.000    0.000    0.000 
#
# Total GULP energy -595073.372065 kJ/mol
# GULP energy per Si atom -12397.361918 kJ/mol
# Density = 1.776081 g / cm^3
# Si number density = 17.801322 Si / 1000 Ang^3
#
#
#
# Elastic Constant Matrix: (Units=GPa)
#
#
# Indices 1 2 3 4 5 6 
#
# 1 20.3535 21.2296 31.9631 0.0000 0.0000 0.0000
# 2 21.2296 101.2150 71.4445 0.0000 0.0000 0.0000
# 3 31.9631 71.4445 151.4666 0.0000 0.0000 0.0000
# 4 0.0000 0.0000 0.0000 22.6155 0.0000 0.0000
# 5 0.0000 0.0000 0.0000 0.0000 1.9533 0.0000
# 6 0.0000 0.0000 0.0000 0.0000 0.0000 16.2019
#
#
#
# Elastic Compliance Matrix: (Units=1/GPa)
#
#
# Indices 1 2 3 4 5 6 
#
# 1 0.076641 -0.006985 -0.012879 0.000000 0.000000 0.000000
# 2 -0.006985 0.015448 -0.005813 0.000000 0.000000 0.000000
# 3 -0.012879 -0.005813 0.012062 0.000000 0.000000 0.000000
# 4 0.000000 0.000000 0.000000 0.044217 0.000000 0.000000
# 5 0.000000 0.000000 0.000000 0.000000 0.511943 0.000000
# 6 0.000000 0.000000 0.000000 0.000000 0.000000 0.061721
#
#
# Mechanical properties :
#
#
# Convention : Reuss Voigt Hill
#
# Bulk Modulus (GPa) = 18.93977 58.03439 38.48708
# Shear Modulus (GPa) = 6.32124 18.04736 12.18430
#
# Velocity S-wave (km/s) = 1.88645 3.18751 2.61906
# Velocity P-wave (km/s) = 3.92525 6.79845 5.55097
#
# Compressibility (1/GPa) = 0.05279894
#
# Stress axis : x y z
#
# Youngs Moduli (GPa) = 13.04780 64.73362 82.90840
#
# Poissons Ratio (x) = 0.45215 1.06774
# Poissons Ratio (y) = 0.09114 0.48191
# Poissons Ratio (z) = 0.16804 0.37627
#
# Static dielectric constant tensor:
#      x y z
#    x 2.960760 0.000000 0.000000 
#    y 0.000000 3.325640 0.000000 
#    z 0.000000 0.000000 3.608820 
# 
# 
# High freq. dielectric constant tensor:
#      x y z
#    x 1.642010 0.000000 0.000000 
#    y 0.000000 1.679580 0.000000 
#    z 0.000000 0.000000 1.705560 
# 
# From -- ./inp_files/14367.got.cif
#   From: 2010.03.12/outbox.cif.g09.slc.cpg/sg59_8_cif.got.tgz:14367.got - 2010.04.16 16:29:54.
