data_PCOD8242507
_publ_section_title
;
Structure prediction by ZEFSAII (Michael W. Deem and Ramdas Pophale) SiO2 
 PCOD8242507
Probable space group: P M M N
;
_chemical_formula_sum "Si O2"
_cell_formula_units_Z 56
_cell_length_a 8.871479
_cell_length_b 20.717873
_cell_length_c 15.284436
_cell_angle_alpha 90.000000
_cell_angle_beta 90.000000
_cell_angle_gamma 90.000000
_cell_volume 2809.251446
_symmetry_space_group_name_H-M "P M M N"
_symmetry_group_IT_number 59
_space_group.IT_coordinate_system_code '2'
_symmetry_cell_setting 'orthorhombic'
loop_
_space_group_symop_operation_xyz
x,y,z
1/2-x,1/2-y,z
1/2+x,-y,-z
-x,1/2+y,-z
-x,-y,-z
1/2+x,1/2+y,-z
1/2-x,y,z
x,1/2-y,z
loop_
_atom_site_type_symbol
_atom_site_label
_atom_site_fract_x
_atom_site_fract_y
_atom_site_fract_z
Si Si1 0.584955 0.822593 0.350286
Si Si2 0.073939 0.511392 0.776750
Si Si3 0.577793 0.322857 0.976372
Si Si4 0.572698 0.556887 0.941855
Si Si5 0.080749 0.884982 0.201512
Si Si6 0.921355 0.321017 0.472151
Si Si7 0.425173 0.538102 0.581557
O O1 0.750000 0.856225 0.339137
O O2 0.597688 0.750000 0.317093
O O3 0.455185 0.856681 0.296007
O O4 0.539578 0.825871 0.450392
O O5 0.250000 0.527096 0.780415
O O6 0.014108 0.513926 0.676082
O O7 0.987778 0.559818 0.841877
O O8 0.037776 0.441581 0.817722
O O9 0.750000 0.336726 0.005686
O O10 0.530194 0.250000 0.001081
O O11 0.563323 0.330283 0.871711
O O12 0.465709 0.372718 0.021378
O O13 0.750000 0.545243 0.942635
O O14 0.500000 0.500000 0.000000
O O15 0.250000 0.913430 0.202837
O O16 0.750000 0.324617 0.507543
O O17 0.944376 0.250000 0.425018
O O18 0.954836 0.384309 0.414020
O O19 0.500000 0.500000 0.500000
O O20 0.250000 0.522646 0.572274
#
# Coordination Sequence:
#
# PCOD8242507 Si02
#       7
#     8   8   8   8   8   8   8
#     4  10  20  32  48  75 112 151 191 238 297 362
#     4  11  23  39  60  88 120 157 202 251 305 365
#     4  10  22  40  62  89 122 159 201 252 308 363
#     4  12  24  41  65  91 121 161 206 251 300 360
#     4  11  21  34  55  83 115 153 196 242 298 364
#     4   9  18  35  57  78 105 147 198 248 298 353
#     4  10  22  38  58  87 121 156 199 251 304 359
#
# _framework density 19.934135999999999
#
# number of rings (size 3 to 8) (size 9 to 14) (size 15 to 20)
#    0.000    1.571    1.429    3.857    0.000    6.286 
#    0.000    0.714    0.000    2.571    0.000    0.000 
#    0.000    0.000    0.000    0.000    0.000    0.000 
#
# Total GULP energy -694023.230722 kJ/mol
# GULP energy per Si atom -12393.271977 kJ/mol
# Density = 1.988877 g / cm^3
# Si number density = 19.934136 Si / 1000 Ang^3
#
#
#
# Elastic Constant Matrix: (Units=GPa)
#
#
# Indices 1 2 3 4 5 6 
#
# 1 99.4478 38.8655 48.6596 0.0000 0.0000 0.0000
# 2 38.8655 115.1777 39.9446 0.0000 0.0000 0.0000
# 3 48.6596 39.9446 98.6198 0.0000 0.0000 0.0000
# 4 0.0000 0.0000 0.0000 30.9051 0.0000 0.0000
# 5 0.0000 0.0000 0.0000 0.0000 27.0693 0.0000
# 6 0.0000 0.0000 0.0000 0.0000 0.0000 29.6223
#
#
#
# Elastic Compliance Matrix: (Units=1/GPa)
#
#
# Indices 1 2 3 4 5 6 
#
# 1 0.013941 -0.002698 -0.005786 0.000000 0.000000 0.000000
# 2 -0.002698 0.010623 -0.002972 0.000000 0.000000 0.000000
# 3 -0.005786 -0.002972 0.014198 0.000000 0.000000 0.000000
# 4 0.000000 0.000000 0.000000 0.032357 0.000000 0.000000
# 5 0.000000 0.000000 0.000000 0.000000 0.036942 0.000000
# 6 0.000000 0.000000 0.000000 0.000000 0.000000 0.033758
#
#
# Mechanical properties :
#
#
# Convention : Reuss Voigt Hill
#
# Bulk Modulus (GPa) = 63.08376 63.13164 63.10770
# Shear Modulus (GPa) = 29.40929 29.90438 29.65683
#
# Velocity S-wave (km/s) = 3.84516 3.87739 3.86131
# Velocity P-wave (km/s) = 7.17136 7.19614 7.18376
#
# Compressibility (1/GPa) = 0.01585194
#
# Stress axis : x y z
#
# Youngs Moduli (GPa) = 71.73199 94.13422 70.43050
#
# Poissons Ratio (x) = 0.25394 0.40750
# Poissons Ratio (y) = 0.19350 0.20930
# Poissons Ratio (z) = 0.41503 0.27974
#
# Static dielectric constant tensor:
#      x y z
#    x 3.648800 0.000000 0.000000 
#    y 0.000000 3.926110 0.000000 
#    z 0.000000 0.000000 3.608260 
# 
# 
# High freq. dielectric constant tensor:
#      x y z
#    x 1.778430 0.000000 0.000000 
#    y 0.000000 1.781150 0.000000 
#    z 0.000000 0.000000 1.759390 
# 
# From -- ./inp_files/20966.got.cif
#   From: 2010.03.12/outbox.cif.g09.slc.cpg/sg59_11_cif.got.tgz:20966.got - 2010.04.16 16:29:54.
