data_PCOD8242958
_publ_section_title
;
Structure prediction by ZEFSAII (Michael W. Deem and Ramdas Pophale) SiO2 
 PCOD8242958
Probable space group: P M M N
;
_chemical_formula_sum "Si O2"
_cell_formula_units_Z 56
_cell_length_a 9.179828
_cell_length_b 13.649814
_cell_length_c 23.719012
_cell_angle_alpha 90.000000
_cell_angle_beta 90.000000
_cell_angle_gamma 90.000000
_cell_volume 2972.062050
_symmetry_space_group_name_H-M "P M M N"
_symmetry_group_IT_number 59
_space_group.IT_coordinate_system_code '2'
_symmetry_cell_setting 'orthorhombic'
loop_
_space_group_symop_operation_xyz
x,y,z
1/2-x,1/2-y,z
1/2+x,-y,-z
-x,1/2+y,-z
-x,-y,-z
1/2+x,1/2+y,-z
1/2-x,y,z
x,1/2-y,z
loop_
_atom_site_type_symbol
_atom_site_label
_atom_site_fract_x
_atom_site_fract_y
_atom_site_fract_z
Si Si1 0.076741 0.860212 0.195651
Si Si2 0.581637 0.137199 0.583768
Si Si3 0.579325 0.138582 0.031792
Si Si4 0.584583 0.866655 0.524374
Si Si5 0.079103 0.965624 0.083301
Si Si6 0.921063 0.021575 0.695620
Si Si7 0.919500 0.364242 0.363839
O O1 0.250000 0.854583 0.195260
O O2 0.012717 0.750000 0.198571
O O3 0.019291 0.913156 0.139334
O O4 0.022115 0.921939 0.249239
O O5 0.750000 0.123181 0.568912
O O6 0.540490 0.250000 0.591339
O O7 0.492167 0.089925 0.531663
O O8 0.538606 0.087413 0.642070
O O9 0.750000 0.128812 0.042594
O O10 0.526224 0.250000 0.039680
O O11 0.497777 0.070860 0.077128
O O12 0.538780 0.104795 0.968707
O O13 0.750000 0.905098 0.527863
O O14 0.577255 0.750000 0.521543
O O15 0.501015 0.902759 0.580076
O O16 0.250000 0.985044 0.087183
O O17 0.750000 0.998447 0.699591
O O18 0.010224 0.920289 0.689583
O O19 0.750000 0.388875 0.369817
O O20 0.946344 0.250000 0.353579
#
# Coordination Sequence:
#
# PCOD8242958 Si02
#       7
#     8   8   8   8   8   8   8
#     4   9  17  32  55  80 104 131 166 207 248 293
#     4   9  17  30  48  72 102 130 155 189 239 299
#     4   9  17  30  49  75 108 143 175 210 255 302
#     4   9  17  30  50  74  97 123 158 200 245 294
#     4   9  17  30  51  78 105 136 176 216 252 294
#     4  10  20  33  52  76  98 125 163 204 245 290
#     4  10  21  37  54  70  92 125 163 204 251 300
#
# _framework density 18.842137000000001
#
# number of rings (size 3 to 8) (size 9 to 14) (size 15 to 20)
#    0.000    2.714    0.000    1.714    0.000    7.429 
#    0.000    1.429    0.000    7.714    0.000    0.000 
#    0.000    0.000    0.000    0.000    0.000    0.000 
#
# Total GULP energy -694476.155313 kJ/mol
# GULP energy per Si atom -12401.359916 kJ/mol
# Density = 1.879925 g / cm^3
# Si number density = 18.842137 Si / 1000 Ang^3
#
#
#
# Elastic Constant Matrix: (Units=GPa)
#
#
# Indices 1 2 3 4 5 6 
#
# 1 64.7501 45.8999 47.6867 0.0000 0.0000 0.0000
# 2 45.8999 112.8808 74.1726 0.0000 0.0000 0.0000
# 3 47.6867 74.1726 137.5924 0.0000 0.0000 0.0000
# 4 0.0000 0.0000 0.0000 33.2690 0.0000 0.0000
# 5 0.0000 0.0000 0.0000 0.0000 24.0155 0.0000
# 6 0.0000 0.0000 0.0000 0.0000 0.0000 26.8365
#
#
#
# Elastic Compliance Matrix: (Units=1/GPa)
#
#
# Indices 1 2 3 4 5 6 
#
# 1 0.023458 -0.006498 -0.004627 0.000000 0.000000 0.000000
# 2 -0.006498 0.015518 -0.006113 0.000000 0.000000 0.000000
# 3 -0.004627 -0.006113 0.012167 0.000000 0.000000 0.000000
# 4 0.000000 0.000000 0.000000 0.030058 0.000000 0.000000
# 5 0.000000 0.000000 0.000000 0.000000 0.041640 0.000000
# 6 0.000000 0.000000 0.000000 0.000000 0.000000 0.037263
#
#
# Mechanical properties :
#
#
# Convention : Reuss Voigt Hill
#
# Bulk Modulus (GPa) = 60.00190 72.30464 66.15327
# Shear Modulus (GPa) = 24.98296 26.65516 25.81906
#
# Velocity S-wave (km/s) = 3.64525 3.76527 3.70575
# Velocity P-wave (km/s) = 7.04492 7.57366 7.31406
#
# Compressibility (1/GPa) = 0.01666614
#
# Stress axis : x y z
#
# Youngs Moduli (GPa) = 42.62907 64.44037 82.18930
#
# Poissons Ratio (x) = 0.41875 0.38030
# Poissons Ratio (y) = 0.27701 0.50245
# Poissons Ratio (z) = 0.19725 0.39395
#
# Static dielectric constant tensor:
#      x y z
#    x 3.256640 0.000000 0.000000 
#    y 0.000000 3.602470 0.000000 
#    z 0.000000 0.000000 3.461070 
# 
# 
# High freq. dielectric constant tensor:
#      x y z
#    x 1.709580 0.000000 0.000000 
#    y 0.000000 1.743490 0.000000 
#    z 0.000000 0.000000 1.719620 
# 
# From -- ./inp_files/28984.got.cif
#   From: 2010.03.12/outbox.cif.g09.slc.cpg/sg59_15_cif.got.tgz:28984.got - 2010.04.16 16:29:54.
