data_PCOD8242242
_publ_section_title
;
Structure prediction by ZEFSAII (Michael W. Deem and Ramdas Pophale) SiO2 
 PCOD8242242
Probable space group: P M M N
;
_chemical_formula_sum "Si O2"
_cell_formula_units_Z 56
_cell_length_a 21.759826
_cell_length_b 9.206420
_cell_length_c 14.495481
_cell_angle_alpha 90.000000
_cell_angle_beta 90.000000
_cell_angle_gamma 90.000000
_cell_volume 2903.881119
_symmetry_space_group_name_H-M "P M M N"
_symmetry_group_IT_number 59
_space_group.IT_coordinate_system_code '2'
_symmetry_cell_setting 'orthorhombic'
loop_
_space_group_symop_operation_xyz
x,y,z
1/2-x,1/2-y,z
1/2+x,-y,-z
-x,1/2+y,-z
-x,-y,-z
1/2+x,1/2+y,-z
1/2-x,y,z
x,1/2-y,z
loop_
_atom_site_type_symbol
_atom_site_label
_atom_site_fract_x
_atom_site_fract_y
_atom_site_fract_z
Si Si1 0.250000 0.591607 0.654806
Si Si2 0.412863 0.923693 0.272536
Si Si3 0.863211 0.581710 0.055277
Si Si4 0.178085 0.418567 0.145114
Si Si5 0.956989 0.579391 0.204925
Si Si6 0.055466 0.413437 0.456059
Si Si7 0.250000 0.591118 0.870197
Si Si8 0.631744 0.588898 0.363786
O O1 0.250000 0.750000 0.607606
O O2 0.250000 0.609584 0.762784
O O3 0.190399 0.508767 0.622174
O O4 0.409067 0.750000 0.281469
O O5 0.472949 0.976962 0.214077
O O6 0.351042 0.982173 0.224330
O O7 0.416212 0.994860 0.372666
O O8 0.849148 0.750000 0.072726
O O9 0.927796 0.536986 0.104847
O O10 0.810390 0.493823 0.103886
O O11 0.861801 0.547446 0.946719
O O12 0.250000 0.459347 0.129818
O O13 0.172197 0.250000 0.172799
O O14 0.959514 0.750000 0.218107
O O15 0.915597 0.517364 0.289444
O O16 0.035970 0.250000 0.424126
O O17 0.105456 0.399520 0.534720
O O18 0.000000 0.500000 0.500000
O O19 0.250000 0.750000 0.918199
O O20 0.650397 0.750000 0.328273
#
# Coordination Sequence:
#
# PCOD8242242 Si02
#       8
#     4   8   8   8   8   8   4   8
#     4  11  23  35  51  86 127 156 191 245 302 352
#     4  11  23  41  62  89 121 155 196 247 302 356
#     4  10  19  36  62  85 112 157 202 236 282 351
#     4  10  22  41  63  88 115 154 207 251 290 346
#     4   9  18  34  59  90 120 151 194 238 284 356
#     4  11  22  39  64  91 117 154 200 247 299 359
#     4  11  21  31  49  84 123 152 189 239 290 340
#     4  10  20  37  60  84 116 158 200 239 292 357
#
# _framework density 19.284535000000002
#
# number of rings (size 3 to 8) (size 9 to 14) (size 15 to 20)
#    0.000    1.714    3.571    1.286    0.000    3.143 
#    1.286    1.429    0.000    0.000    0.000    0.000 
#    0.000    0.000    0.000    0.000    0.000    0.000 
#
# Total GULP energy -694188.766193 kJ/mol
# GULP energy per Si atom -12396.227968 kJ/mol
# Density = 1.924064 g / cm^3
# Si number density = 19.284535 Si / 1000 Ang^3
#
#
#
# Elastic Constant Matrix: (Units=GPa)
#
#
# Indices 1 2 3 4 5 6 
#
# 1 90.2856 41.3753 37.9867 0.0000 0.0000 0.0000
# 2 41.3753 91.7688 42.1055 0.0000 0.0000 0.0000
# 3 37.9867 42.1055 107.9004 0.0000 0.0000 0.0000
# 4 0.0000 0.0000 0.0000 27.4350 0.0000 0.0000
# 5 0.0000 0.0000 0.0000 0.0000 31.3622 0.0000
# 6 0.0000 0.0000 0.0000 0.0000 0.0000 25.1085
#
#
#
# Elastic Compliance Matrix: (Units=1/GPa)
#
#
# Indices 1 2 3 4 5 6 
#
# 1 0.014803 -0.005217 -0.003176 0.000000 0.000000 0.000000
# 2 -0.005217 0.015112 -0.004060 0.000000 0.000000 0.000000
# 3 -0.003176 -0.004060 0.011970 0.000000 0.000000 0.000000
# 4 0.000000 0.000000 0.000000 0.036450 0.000000 0.000000
# 5 0.000000 0.000000 0.000000 0.000000 0.031886 0.000000
# 6 0.000000 0.000000 0.000000 0.000000 0.000000 0.039827
#
#
# Mechanical properties :
#
#
# Convention : Reuss Voigt Hill
#
# Bulk Modulus (GPa) = 58.89589 59.20995 59.05292
# Shear Modulus (GPa) = 27.68338 28.01362 27.84850
#
# Velocity S-wave (km/s) = 3.79294 3.81550 3.80423
# Velocity P-wave (km/s) = 7.05611 7.08383 7.06998
#
# Compressibility (1/GPa) = 0.01697911
#
# Stress axis : x y z
#
# Youngs Moduli (GPa) = 67.55436 66.17181 83.54025
#
# Poissons Ratio (x) = 0.34522 0.26529
# Poissons Ratio (y) = 0.35244 0.33921
# Poissons Ratio (z) = 0.21452 0.26869
#
# Static dielectric constant tensor:
#      x y z
#    x 3.165850 0.000000 0.000000 
#    y 0.000000 3.673990 0.000000 
#    z 0.000000 0.000000 3.853770 
# 
# 
# High freq. dielectric constant tensor:
#      x y z
#    x 1.746910 0.000000 0.000000 
#    y 0.000000 1.744160 0.000000 
#    z 0.000000 0.000000 1.747950 
# 
# From -- ./inp_files/24358.got.cif
#   From: 2010.03.12/outbox.cif.g09.slc.cpg/sg59_13_cif.got.tgz:24358.got - 2010.04.16 16:29:54.
