data_PCOD8242516
_publ_section_title
;
Structure prediction by ZEFSAII (Michael W. Deem and Ramdas Pophale) SiO2 
 PCOD8242516
Probable space group: P M M N
;
_chemical_formula_sum "Si O2"
_cell_formula_units_Z 64
_cell_length_a 27.280346
_cell_length_b 9.127250
_cell_length_c 14.418075
_cell_angle_alpha 90.000000
_cell_angle_beta 90.000000
_cell_angle_gamma 90.000000
_cell_volume 3590.021924
_symmetry_space_group_name_H-M "P M M N"
_symmetry_group_IT_number 59
_space_group.IT_coordinate_system_code '2'
_symmetry_cell_setting 'orthorhombic'
loop_
_space_group_symop_operation_xyz
x,y,z
1/2-x,1/2-y,z
1/2+x,-y,-z
-x,1/2+y,-z
-x,-y,-z
1/2+x,1/2+y,-z
1/2-x,y,z
x,1/2-y,z
loop_
_atom_site_type_symbol
_atom_site_label
_atom_site_fract_x
_atom_site_fract_y
_atom_site_fract_z
Si Si1 0.072911 0.080861 0.837142
Si Si2 0.118152 0.080516 0.028873
Si Si3 0.973369 0.916832 0.852498
Si Si4 0.193024 0.079521 0.336930
Si Si5 0.577670 0.418807 0.345275
Si Si6 0.806897 0.420248 0.851042
Si Si7 0.967043 0.583647 0.640124
Si Si8 0.617581 0.420126 0.540365
O O1 0.063437 0.250000 0.817228
O O2 0.095166 0.009350 0.744140
O O3 0.112251 0.057348 0.918884
O O4 0.021421 0.012863 0.868251
O O5 0.127994 0.250000 0.053634
O O6 0.069124 0.024655 0.080222
O O7 0.163998 0.984372 0.061613
O O8 0.987298 0.750000 0.876853
O O9 0.953480 0.929386 0.748075
O O10 0.250000 0.051990 0.357073
O O11 0.180259 0.250000 0.328122
O O12 0.176202 0.002224 0.242276
O O13 0.163508 0.011586 0.422552
O O14 0.575501 0.250000 0.314528
O O15 0.523047 0.466776 0.376226
O O16 0.615122 0.445234 0.429533
O O17 0.750000 0.448735 0.870990
O O18 0.818761 0.250000 0.838422
O O19 0.958468 0.750000 0.605014
O O20 0.933126 0.472894 0.584442
O O21 0.624840 0.250000 0.564266
#
# Coordination Sequence:
#
# PCOD8242516 Si02
#       8
#     8   8   8   8   8   8   8   8
#     4  10  20  32  49  74 101 132 173 214 248 288
#     4  10  20  33  51  76 103 133 169 206 249 300
#     4   9  18  32  48  69 102 138 168 201 245 298
#     4  10  21  37  56  77 103 134 162 194 246 305
#     4   9  20  36  50  68  99 138 173 207 251 295
#     4  10  21  36  55  80 105 129 162 203 245 293
#     4   9  17  30  48  71 101 136 170 202 242 297
#     4  11  21  32  51  77 101 129 169 212 251 294
#
# _framework density 17.827188
#
# number of rings (size 3 to 8) (size 9 to 14) (size 15 to 20)
#    0.000    2.250    0.000    3.750    0.000    7.000 
#    0.000    0.000    0.000    0.750    0.000    0.000 
#    0.000    0.000    0.000    0.000    0.000    0.000 
#
# Total GULP energy -793813.727809 kJ/mol
# GULP energy per Si atom -12403.339497 kJ/mol
# Density = 1.778661 g / cm^3
# Si number density = 17.827188 Si / 1000 Ang^3
#
#
#
# Elastic Constant Matrix: (Units=GPa)
#
#
# Indices 1 2 3 4 5 6 
#
# 1 68.4269 52.5692 52.8112 0.0000 0.0000 0.0000
# 2 52.5692 105.9482 58.5044 0.0000 0.0000 0.0000
# 3 52.8112 58.5044 95.9302 0.0000 0.0000 0.0000
# 4 0.0000 0.0000 0.0000 31.0357 0.0000 0.0000
# 5 0.0000 0.0000 0.0000 0.0000 27.9557 0.0000
# 6 0.0000 0.0000 0.0000 0.0000 0.0000 30.7472
#
#
#
# Elastic Compliance Matrix: (Units=1/GPa)
#
#
# Indices 1 2 3 4 5 6 
#
# 1 0.029892 -0.008662 -0.011174 0.000000 0.000000 0.000000
# 2 -0.008662 0.016741 -0.005441 0.000000 0.000000 0.000000
# 3 -0.011174 -0.005441 0.019894 0.000000 0.000000 0.000000
# 4 0.000000 0.000000 0.000000 0.032221 0.000000 0.000000
# 5 0.000000 0.000000 0.000000 0.000000 0.035771 0.000000
# 6 0.000000 0.000000 0.000000 0.000000 0.000000 0.032523
#
#
# Mechanical properties :
#
#
# Convention : Reuss Voigt Hill
#
# Bulk Modulus (GPa) = 62.60265 66.45278 64.52771
# Shear Modulus (GPa) = 22.42949 25.04243 23.73596
#
# Velocity S-wave (km/s) = 3.55091 3.75204 3.65286
# Velocity P-wave (km/s) = 7.21142 7.49182 7.35296
#
# Compressibility (1/GPa) = 0.01597376
#
# Stress axis : x y z
#
# Youngs Moduli (GPa) = 33.45334 59.73340 50.26633
#
# Poissons Ratio (x) = 0.51740 0.56166
# Poissons Ratio (y) = 0.28977 0.27351
# Poissons Ratio (z) = 0.37380 0.32503
#
# Static dielectric constant tensor:
#      x y z
#    x 3.096310 0.000000 0.000000 
#    y 0.000000 3.339200 0.000000 
#    z 0.000000 0.000000 3.310490 
# 
# 
# High freq. dielectric constant tensor:
#      x y z
#    x 1.666150 0.000000 0.000000 
#    y 0.000000 1.697680 0.000000 
#    z 0.000000 0.000000 1.688250 
# 
# From -- ./inp_files/24699.got.cif
#   From: 2010.03.12/outbox.cif.g09.slc.cpg/sg59_13_cif.got.tgz:24699.got - 2010.04.16 16:29:54.
