data_PCOD8242295
_publ_section_title
;
Structure prediction by ZEFSAII (Michael W. Deem and Ramdas Pophale) SiO2 
 PCOD8242295
Probable space group: P M M N
;
_chemical_formula_sum "Si O2"
_cell_formula_units_Z 64
_cell_length_a 24.761367
_cell_length_b 9.048430
_cell_length_c 17.654103
_cell_angle_alpha 90.000000
_cell_angle_beta 90.000000
_cell_angle_gamma 90.000000
_cell_volume 3955.428188
_symmetry_space_group_name_H-M "P M M N"
_symmetry_group_IT_number 59
_space_group.IT_coordinate_system_code '2'
_symmetry_cell_setting 'orthorhombic'
loop_
_space_group_symop_operation_xyz
x,y,z
1/2-x,1/2-y,z
1/2+x,-y,-z
-x,1/2+y,-z
-x,-y,-z
1/2+x,1/2+y,-z
1/2-x,y,z
x,1/2-y,z
loop_
_atom_site_type_symbol
_atom_site_label
_atom_site_fract_x
_atom_site_fract_y
_atom_site_fract_z
Si Si1 0.813705 0.579277 0.203536
Si Si2 0.814444 0.582987 0.502461
Si Si3 0.994859 0.578909 0.079354
Si Si4 0.314277 0.916632 0.349709
Si Si5 0.614187 0.082743 0.914515
Si Si6 0.185742 0.583158 0.645724
Si Si7 0.108993 0.577581 0.907342
Si Si8 0.187741 0.077716 0.199353
O O1 0.750000 0.559834 0.194661
O O2 0.830771 0.750000 0.203826
O O3 0.834790 0.506520 0.281328
O O4 0.840083 0.495599 0.133166
O O5 0.750000 0.582035 0.502520
O O6 0.836425 0.750000 0.500305
O O7 0.837194 0.503900 0.577693
O O8 0.836951 0.496295 0.429375
O O9 0.980020 0.750000 0.067272
O O10 0.053431 0.563208 0.119405
O O11 0.946260 0.498275 0.124384
O O12 0.000000 0.500000 0.000000
O O13 0.250000 0.918980 0.351919
O O14 0.336594 0.750000 0.351913
O O15 0.334923 0.993920 0.273168
O O16 0.634227 0.250000 0.900321
O O17 0.654135 0.970290 0.873752
O O18 0.615341 0.047042 0.003576
O O19 0.250000 0.584144 0.643457
O O20 0.163137 0.750000 0.649040
O O21 0.106608 0.750000 0.888432
O O22 0.250000 0.037283 0.184129
O O23 0.180144 0.250000 0.213932
#
# Coordination Sequence:
#
# PCOD8242295 Si02
#       8
#     8   8   8   8   8   8   8   8
#     4  10  20  32  45  63  90 123 155 187 225 267
#     4   9  15  23  37  57  81 109 143 181 218 258
#     4   9  17  31  50  70  89 109 140 184 231 273
#     4   9  16  26  40  57  80 112 147 181 218 260
#     4   9  19  33  48  66  87 114 147 183 224 268
#     4   9  16  26  40  58  82 113 148 183 219 261
#     4  10  20  33  49  68  89 116 150 187 228 271
#     4  10  20  31  43  62  89 120 152 185 221 262
#
# _framework density 16.180295000000001
#
# number of rings (size 3 to 8) (size 9 to 14) (size 15 to 20)
#    0.000    2.625    0.000    3.375    0.000    9.500 
#    0.000    2.500    0.000    0.000    0.000    0.000 
#    0.000    1.000    0.000    3.750    0.000    6.125 
#
# Total GULP energy -793466.091037 kJ/mol
# GULP energy per Si atom -12397.907672 kJ/mol
# Density = 1.614347 g / cm^3
# Si number density = 16.180295 Si / 1000 Ang^3
#
#
#
# Elastic Constant Matrix: (Units=GPa)
#
#
# Indices 1 2 3 4 5 6 
#
# 1 41.7765 40.0330 34.3284 0.0000 0.0000 0.0000
# 2 40.0330 142.4862 59.6653 0.0000 0.0000 0.0000
# 3 34.3284 59.6653 89.1852 0.0000 0.0000 0.0000
# 4 0.0000 0.0000 0.0000 34.4479 0.0000 0.0000
# 5 0.0000 0.0000 0.0000 0.0000 1.3764 0.0000
# 6 0.0000 0.0000 0.0000 0.0000 0.0000 22.7649
#
#
#
# Elastic Compliance Matrix: (Units=1/GPa)
#
#
# Indices 1 2 3 4 5 6 
#
# 1 0.038875 -0.006469 -0.010636 0.000000 0.000000 0.000000
# 2 -0.006469 0.010826 -0.004753 0.000000 0.000000 0.000000
# 3 -0.010636 -0.004753 0.018486 0.000000 0.000000 0.000000
# 4 0.000000 0.000000 0.000000 0.029029 0.000000 0.000000
# 5 0.000000 0.000000 0.000000 0.000000 0.726550 0.000000
# 6 0.000000 0.000000 0.000000 0.000000 0.000000 0.043927
#
#
# Mechanical properties :
#
#
# Convention : Reuss Voigt Hill
#
# Bulk Modulus (GPa) = 40.86199 60.16682 50.51440
# Shear Modulus (GPa) = 5.43735 21.01259 13.22497
#
# Velocity S-wave (km/s) = 1.83515 3.60759 2.86204
# Velocity P-wave (km/s) = 5.45888 7.39046 6.49686
#
# Compressibility (1/GPa) = 0.02447262
#
# Stress axis : x y z
#
# Youngs Moduli (GPa) = 25.72320 92.37181 54.09469
#
# Poissons Ratio (x) = 0.59752 0.57535
# Poissons Ratio (y) = 0.16639 0.25709
# Poissons Ratio (z) = 0.27359 0.43901
#
# Static dielectric constant tensor:
#      x y z
#    x 2.790260 0.000000 0.000000 
#    y 0.000000 3.318030 0.000000 
#    z 0.000000 0.000000 3.021600 
# 
# 
# High freq. dielectric constant tensor:
#      x y z
#    x 1.569070 0.000000 0.000000 
#    y 0.000000 1.644900 0.000000 
#    z 0.000000 0.000000 1.613530 
# 
# From -- ./inp_files/26446.got.cif
#   From: 2010.03.12/outbox.cif.g09.slc.cpg/sg59_14_cif.got.tgz:26446.got - 2010.04.16 16:29:54.
