data_PCOD8242630
_publ_section_title
;
Structure prediction by ZEFSAII (Michael W. Deem and Ramdas Pophale) SiO2 
 PCOD8242630
Probable space group: P M M N
;
_chemical_formula_sum "Si O2"
_cell_formula_units_Z 64
_cell_length_a 9.248449
_cell_length_b 19.319713
_cell_length_c 20.667723
_cell_angle_alpha 90.000000
_cell_angle_beta 90.000000
_cell_angle_gamma 90.000000
_cell_volume 3692.854604
_symmetry_space_group_name_H-M "P M M N"
_symmetry_group_IT_number 59
_space_group.IT_coordinate_system_code '2'
_symmetry_cell_setting 'orthorhombic'
loop_
_space_group_symop_operation_xyz
x,y,z
1/2-x,1/2-y,z
1/2+x,-y,-z
-x,1/2+y,-z
-x,-y,-z
1/2+x,1/2+y,-z
1/2-x,y,z
x,1/2-y,z
loop_
_atom_site_type_symbol
_atom_site_label
_atom_site_fract_x
_atom_site_fract_y
_atom_site_fract_z
Si Si1 0.912944 0.332438 0.706393
Si Si2 0.081847 0.575365 0.072073
Si Si3 0.580472 0.328279 0.183668
Si Si4 0.083899 0.331938 0.831728
Si Si5 0.417004 0.937330 0.922871
Si Si6 0.412847 0.332924 0.584321
Si Si7 0.087801 0.167259 0.307260
Si Si8 0.578103 0.825970 0.554517
O O1 0.750000 0.360988 0.712787
O O2 0.914227 0.250000 0.705201
O O3 0.007319 0.359476 0.766566
O O4 0.981914 0.361705 0.640058
O O5 0.250000 0.577337 0.090801
O O6 0.998192 0.637196 0.106806
O O7 0.016128 0.502448 0.094770
O O8 0.057260 0.587054 0.996032
O O9 0.750000 0.329523 0.194149
O O10 0.525350 0.250000 0.170682
O O11 0.533873 0.374314 0.122676
O O12 0.511551 0.359848 0.248983
O O13 0.250000 0.356412 0.830708
O O14 0.071993 0.250000 0.837306
O O15 0.250000 0.957948 0.911615
O O16 0.250000 0.357696 0.600264
O O17 0.416274 0.250000 0.581506
O O18 0.465075 0.363019 0.513711
O O19 0.250000 0.141475 0.292942
O O20 0.082814 0.250000 0.311768
O O21 0.032213 0.137002 0.377459
O O22 0.750000 0.818310 0.555503
O O23 0.506338 0.750000 0.553780
#
# Coordination Sequence:
#
# PCOD8242630 Si02
#       8
#     8   8   8   8   8   8   8   8
#     4   9  16  25  37  56  84 115 147 185 226 265
#     4  10  20  34  53  73  92 117 151 192 233 272
#     4   9  17  29  45  66  92 122 154 186 223 269
#     4  10  20  33  49  69  94 124 155 187 227 277
#     4   9  19  35  52  69  93 124 153 184 227 279
#     4   8  12  19  32  49  72 107 148 183 217 262
#     4   8  13  22  36  55  81 113 148 186 226 264
#     4   7  10  17  30  48  72 106 146 182 217 261
#
# _framework density 17.330765
#
# number of rings (size 3 to 8) (size 9 to 14) (size 15 to 20)
#    0.000    3.250    0.000    2.625    0.000    3.750 
#    0.000    1.875    0.000    5.250    0.000    0.000 
#    0.000    1.000    0.000    3.000    0.000    7.375 
#
# Total GULP energy -793022.996223 kJ/mol
# GULP energy per Si atom -12390.984316 kJ/mol
# Density = 1.729132 g / cm^3
# Si number density = 17.330765 Si / 1000 Ang^3
#
#
#
# Elastic Constant Matrix: (Units=GPa)
#
#
# Indices 1 2 3 4 5 6 
#
# 1 90.7251 26.6376 61.9780 0.0000 0.0000 0.0000
# 2 26.6376 26.1695 36.0332 0.0000 0.0000 0.0000
# 3 61.9780 36.0332 134.6618 0.0000 0.0000 0.0000
# 4 0.0000 0.0000 0.0000 2.4176 0.0000 0.0000
# 5 0.0000 0.0000 0.0000 0.0000 30.9026 0.0000
# 6 0.0000 0.0000 0.0000 0.0000 0.0000 17.5994
#
#
#
# Elastic Compliance Matrix: (Units=1/GPa)
#
#
# Indices 1 2 3 4 5 6 
#
# 1 0.017830 -0.010846 -0.005304 0.000000 0.000000 0.000000
# 2 -0.010846 0.067102 -0.012964 0.000000 0.000000 0.000000
# 3 -0.005304 -0.012964 0.013336 0.000000 0.000000 0.000000
# 4 0.000000 0.000000 0.000000 0.413629 0.000000 0.000000
# 5 0.000000 0.000000 0.000000 0.000000 0.032360 0.000000
# 6 0.000000 0.000000 0.000000 0.000000 0.000000 0.056820
#
#
# Mechanical properties :
#
#
# Convention : Reuss Voigt Hill
#
# Bulk Modulus (GPa) = 24.97428 55.65042 40.31235
# Shear Modulus (GPa) = 7.43328 18.64442 13.03885
#
# Velocity S-wave (km/s) = 2.07325 3.28350 2.74588
# Velocity P-wave (km/s) = 4.49142 6.82317 5.77618
#
# Compressibility (1/GPa) = 0.04004119
#
# Stress axis : x y z
#
# Youngs Moduli (GPa) = 56.08460 14.90274 74.98438
#
# Poissons Ratio (x) = 0.16163 0.39773
# Poissons Ratio (y) = 0.60827 0.97207
# Poissons Ratio (z) = 0.29749 0.19319
#
# Static dielectric constant tensor:
#      x y z
#    x 3.217840 0.000000 0.000000 
#    y 0.000000 2.680050 0.000000 
#    z 0.000000 0.000000 3.662660 
# 
# 
# High freq. dielectric constant tensor:
#      x y z
#    x 1.661240 0.000000 0.000000 
#    y 0.000000 1.599390 0.000000 
#    z 0.000000 0.000000 1.691250 
# 
# From -- ./inp_files/29753.got.cif
#   From: 2010.03.12/outbox.cif.g09.slc.cpg/sg59_15_cif.got.tgz:29753.got - 2010.04.16 16:29:54.
