data_PCOD8242581
_publ_section_title
;
Structure prediction by ZEFSAII (Michael W. Deem and Ramdas Pophale) SiO2 
 PCOD8242581
Probable space group: P M M N
;
_chemical_formula_sum "Si O2"
_cell_formula_units_Z 48
_cell_length_a 9.189219
_cell_length_b 16.279302
_cell_length_c 16.033953
_cell_angle_alpha 90.000000
_cell_angle_beta 90.000000
_cell_angle_gamma 90.000000
_cell_volume 2398.584307
_symmetry_space_group_name_H-M "P M M N"
_symmetry_group_IT_number 59
_space_group.IT_coordinate_system_code '2'
_symmetry_cell_setting 'orthorhombic'
loop_
_space_group_symop_operation_xyz
x,y,z
1/2-x,1/2-y,z
1/2+x,-y,-z
-x,1/2+y,-z
-x,-y,-z
1/2+x,1/2+y,-z
1/2-x,y,z
x,1/2-y,z
loop_
_atom_site_type_symbol
_atom_site_label
_atom_site_fract_x
_atom_site_fract_y
_atom_site_fract_z
Si Si1 0.580833 0.905622 0.368976
Si Si2 0.078661 0.750000 0.085345
Si Si3 0.585530 0.659545 0.690213
Si Si4 0.084625 0.250000 0.742976
Si Si5 0.081349 0.654891 0.524451
Si Si6 0.577864 0.433049 0.942430
Si Si7 0.415323 0.997122 0.235449
O O1 0.750000 0.921158 0.385216
O O2 0.548581 0.826240 0.314410
O O3 0.502210 0.900675 0.457660
O O4 0.513632 0.978599 0.315356
O O5 0.250000 0.750000 0.095208
O O6 0.032622 0.663331 0.039552
O O7 0.018108 0.750000 0.177876
O O8 0.750000 0.658560 0.654379
O O9 0.544713 0.750000 0.724636
O O10 0.479005 0.634131 0.615520
O O11 0.573118 0.596669 0.768343
O O12 0.250000 0.250000 0.775204
O O13 0.250000 0.631219 0.522378
O O14 0.054641 0.750000 0.502616
O O15 0.750000 0.445218 0.953278
O O16 0.526303 0.455298 0.848780
O O17 0.500000 0.500000 0.000000
O O18 0.250000 0.967823 0.251138
#
# Coordination Sequence:
#
# PCOD8242581 Si02
#       7
#     8   4   8   4   8   8   8
#     4  11  21  33  53  83 116 149 187 233 285 335
#     4  10  20  38  64  88 117 156 191 230 287 348
#     4   9  19  37  58  77 105 146 192 241 288 334
#     4  10  20  32  52  84 115 146 187 230 279 336
#     4  10  20  33  52  78 110 150 195 238 281 334
#     4  10  22  40  62  90 122 154 190 234 286 347
#     4  10  21  38  59  84 111 145 188 234 286 342
#
# _framework density 20.011804000000001
#
# number of rings (size 3 to 8) (size 9 to 14) (size 15 to 20)
#    0.000    2.000    2.500    1.000    0.000    4.000 
#    1.500    0.000    0.000    0.000    0.000    0.000 
#    0.000    0.000    0.000    0.000    0.000    0.000 
#
# Total GULP energy -594925.088930 kJ/mol
# GULP energy per Si atom -12394.272686 kJ/mol
# Density = 1.996626 g / cm^3
# Si number density = 20.011804 Si / 1000 Ang^3
#
#
#
# Elastic Constant Matrix: (Units=GPa)
#
#
# Indices 1 2 3 4 5 6 
#
# 1 72.1361 37.2813 29.2472 0.0000 0.0000 0.0000
# 2 37.2813 137.9086 52.6592 0.0000 0.0000 0.0000
# 3 29.2472 52.6592 51.5128 0.0000 0.0000 0.0000
# 4 0.0000 0.0000 0.0000 487.5572 0.0000 0.0000
# 5 0.0000 0.0000 0.0000 0.0000 28.7870 0.0000
# 6 0.0000 0.0000 0.0000 0.0000 0.0000 24.1959
#
#
#
# Elastic Compliance Matrix: (Units=1/GPa)
#
#
# Indices 1 2 3 4 5 6 
#
# 1 0.018221 -0.001600 -0.008710 0.000000 0.000000 0.000000
# 2 -0.001600 0.012034 -0.011394 0.000000 0.000000 0.000000
# 3 -0.008710 -0.011394 0.036005 0.000000 0.000000 0.000000
# 4 0.000000 0.000000 0.000000 0.002051 0.000000 0.000000
# 5 0.000000 0.000000 0.000000 0.000000 0.034738 0.000000
# 6 0.000000 0.000000 0.000000 0.000000 0.000000 0.041329
#
#
# Mechanical properties :
#
#
# Convention : Reuss Voigt Hill
#
# Bulk Modulus (GPa) = 43.75695 55.54814 49.65254
# Shear Modulus (GPa) = 25.58821 117.59935 71.59378
#
# Velocity S-wave (km/s) = 3.57971 7.67415 5.98777
# Velocity P-wave (km/s) = 6.24490 10.31219 8.52467
#
# Compressibility (1/GPa) = 0.02285351
#
# Stress axis : x y z
#
# Youngs Moduli (GPa) = 54.88217 83.09582 27.77404
#
# Poissons Ratio (x) = 0.13296 0.24190
# Poissons Ratio (y) = 0.08781 0.31645
# Poissons Ratio (z) = 0.47800 0.94677
#
# Static dielectric constant tensor:
#      x y z
#    x 3.578340 0.000000 0.000000 
#    y 0.000000 3.811930 0.000000 
#    z 0.000000 0.000000 3.310670 
# 
# 
# High freq. dielectric constant tensor:
#      x y z
#    x 1.777100 0.000000 0.000000 
#    y 0.000000 1.800200 0.000000 
#    z 0.000000 0.000000 1.750850 
# 
# From -- ./inp_files/25537.got.cif
#   From: 2010.03.12/outbox.cif.g09.slc.cpg/sg59_13_cif.got.tgz:25537.got - 2010.04.16 16:29:54.
