data_PCOD8242153
_publ_section_title
;
Structure prediction by ZEFSAII (Michael W. Deem and Ramdas Pophale) SiO2 
 PCOD8242153
Probable space group: P M M N
;
_chemical_formula_sum "Si O2"
_cell_formula_units_Z 48
_cell_length_a 16.023744
_cell_length_b 8.734444
_cell_length_c 17.004983
_cell_angle_alpha 90.000000
_cell_angle_beta 90.000000
_cell_angle_gamma 90.000000
_cell_volume 2379.991822
_symmetry_space_group_name_H-M "P M M N"
_symmetry_group_IT_number 59
_space_group.IT_coordinate_system_code '2'
_symmetry_cell_setting 'orthorhombic'
loop_
_space_group_symop_operation_xyz
x,y,z
1/2-x,1/2-y,z
1/2+x,-y,-z
-x,1/2+y,-z
-x,-y,-z
1/2+x,1/2+y,-z
1/2-x,y,z
x,1/2-y,z
loop_
_atom_site_type_symbol
_atom_site_label
_atom_site_fract_x
_atom_site_fract_y
_atom_site_fract_z
Si Si1 0.750000 0.426251 0.764433
Si Si2 0.653411 0.070863 0.181156
Si Si3 0.750000 0.428705 0.948856
Si Si4 0.845479 0.422151 0.498154
Si Si5 0.587115 0.568730 0.029421
Si Si6 0.574597 0.068524 0.341053
Si Si7 0.887312 0.929626 0.659972
O O1 0.750000 0.250000 0.742096
O O2 0.750000 0.456810 0.856423
O O3 0.667216 0.497239 0.728107
O O4 0.750000 0.038228 0.163615
O O5 0.632114 0.250000 0.172030
O O6 0.631445 0.011832 0.268680
O O7 0.597373 0.975455 0.120644
O O8 0.750000 0.250000 0.971553
O O9 0.665905 0.502885 0.982106
O O10 0.750000 0.417366 0.472383
O O11 0.877379 0.250000 0.517239
O O12 0.894456 0.498100 0.424647
O O13 0.856280 0.526985 0.573768
O O14 0.584584 0.750000 0.019057
O O15 0.500000 0.500000 0.000000
O O16 0.580650 0.250000 0.347620
O O17 0.480942 0.011453 0.326449
O O18 0.880132 0.750000 0.669138
#
# Coordination Sequence:
#
# PCOD8242153 Si02
#       7
#     4   8   4   8   8   8   8
#     4  11  25  43  63  86 117 156 203 251 308 371
#     4  10  20  39  66  93 126 164 208 259 312 374
#     4  11  25  47  71  98 129 166 215 267 324 389
#     4  10  19  35  59  84 118 162 205 244 297 362
#     4  12  26  44  68  98 133 172 214 263 321 386
#     4   9  20  36  58  90 120 159 206 249 301 365
#     4  11  22  37  58  86 122 157 201 253 305 362
#
# _framework density 20.168137000000002
#
# number of rings (size 3 to 8) (size 9 to 14) (size 15 to 20)
#    0.000    1.500    1.667    3.500    2.333    3.333 
#    0.000    2.500    0.000    2.000    0.000    0.000 
#    0.000    0.000    0.000    0.000    0.000    0.000 
#
# Total GULP energy -595316.592120 kJ/mol
# GULP energy per Si atom -12402.429003 kJ/mol
# Density = 2.012223 g / cm^3
# Si number density = 20.168137 Si / 1000 Ang^3
#
#
#
# Elastic Constant Matrix: (Units=GPa)
#
#
# Indices 1 2 3 4 5 6 
#
# 1 123.5890 49.1939 37.3005 0.0000 0.0000 0.0000
# 2 49.1939 89.8617 44.4476 0.0000 0.0000 0.0000
# 3 37.3005 44.4476 84.0944 0.0000 0.0000 0.0000
# 4 0.0000 0.0000 0.0000 17.6447 0.0000 0.0000
# 5 0.0000 0.0000 0.0000 0.0000 37.0301 0.0000
# 6 0.0000 0.0000 0.0000 0.0000 0.0000 24.4549
#
#
#
# Elastic Compliance Matrix: (Units=1/GPa)
#
#
# Indices 1 2 3 4 5 6 
#
# 1 0.010644 -0.004728 -0.002222 0.000000 0.000000 0.000000
# 2 -0.004728 0.017167 -0.006977 0.000000 0.000000 0.000000
# 3 -0.002222 -0.006977 0.016565 0.000000 0.000000 0.000000
# 4 0.000000 0.000000 0.000000 0.056674 0.000000 0.000000
# 5 0.000000 0.000000 0.000000 0.000000 0.027005 0.000000
# 6 0.000000 0.000000 0.000000 0.000000 0.000000 0.040892
#
#
# Mechanical properties :
#
#
# Convention : Reuss Voigt Hill
#
# Bulk Modulus (GPa) = 60.52420 62.15879 61.34150
# Shear Modulus (GPa) = 24.71487 26.93281 25.82384
#
# Velocity S-wave (km/s) = 3.50443 3.65830 3.58219
# Velocity P-wave (km/s) = 6.81540 6.98079 6.89859
#
# Compressibility (1/GPa) = 0.01652232
#
# Stress axis : x y z
#
# Youngs Moduli (GPa) = 93.95075 58.25099 60.36979
#
# Poissons Ratio (x) = 0.27539 0.13416
# Poissons Ratio (y) = 0.44417 0.42118
# Poissons Ratio (z) = 0.20879 0.40639
#
# Static dielectric constant tensor:
#      x y z
#    x 3.839280 0.000000 0.000000 
#    y 0.000000 3.584440 0.000000 
#    z 0.000000 0.000000 3.805940 
# 
# 
# High freq. dielectric constant tensor:
#      x y z
#    x 1.801270 0.000000 0.000000 
#    y 0.000000 1.769890 0.000000 
#    z 0.000000 0.000000 1.802620 
# 
# From -- ./inp_files/25530.got.cif
#   From: 2010.03.12/outbox.cif.g09.slc.cpg/sg59_13_cif.got.tgz:25530.got - 2010.04.16 16:29:54.
