data_PCOD8242797
_publ_section_title
;
Structure prediction by ZEFSAII (Michael W. Deem and Ramdas Pophale) SiO2 
 PCOD8242797
Probable space group: P M M N
;
_chemical_formula_sum "Si O2"
_cell_formula_units_Z 64
_cell_length_a 23.134026
_cell_length_b 8.828102
_cell_length_c 17.952296
_cell_angle_alpha 90.000000
_cell_angle_beta 90.000000
_cell_angle_gamma 90.000000
_cell_volume 3666.389176
_symmetry_space_group_name_H-M "P M M N"
_symmetry_group_IT_number 59
_space_group.IT_coordinate_system_code '2'
_symmetry_cell_setting 'orthorhombic'
loop_
_space_group_symop_operation_xyz
x,y,z
1/2-x,1/2-y,z
1/2+x,-y,-z
-x,1/2+y,-z
-x,-y,-z
1/2+x,1/2+y,-z
1/2-x,y,z
x,1/2-y,z
loop_
_atom_site_type_symbol
_atom_site_label
_atom_site_fract_x
_atom_site_fract_y
_atom_site_fract_z
Si Si1 0.314468 0.930551 0.228834
Si Si2 0.891718 0.428639 0.635662
Si Si3 0.681378 0.581585 0.079007
Si Si4 0.880962 0.575557 0.363379
Si Si5 0.817623 0.074540 0.228855
Si Si6 0.495488 0.571379 0.581277
Si Si7 0.683573 0.923759 0.512866
Si Si8 0.818797 0.418395 0.934283
O O1 0.250000 0.993916 0.246204
O O2 0.312004 0.750000 0.228858
O O3 0.358289 0.990354 0.291485
O O4 0.336001 0.985801 0.147041
O O5 0.902220 0.250000 0.638980
O O6 0.854494 0.465611 0.562798
O O7 0.952746 0.512838 0.633135
O O8 0.750000 0.584293 0.073566
O O9 0.656978 0.750000 0.092851
O O10 0.661891 0.473057 0.146289
O O11 0.655603 0.520765 0.000773
O O12 0.900454 0.750000 0.358549
O O13 0.852875 0.526432 0.286272
O O14 0.936274 0.472851 0.379228
O O15 0.833472 0.551065 0.427331
O O16 0.750000 0.040681 0.239651
O O17 0.831962 0.250000 0.241161
O O18 0.500000 0.500000 0.500000
O O19 0.499762 0.750000 0.572143
O O20 0.750000 0.969868 0.522494
O O21 0.672471 0.750000 0.536801
O O22 0.750000 0.410637 0.938643
O O23 0.844520 0.250000 0.944235
#
# Coordination Sequence:
#
# PCOD8242797 Si02
#       8
#     8   8   8   8   8   8   8   8
#     4   8  15  28  47  74 106 137 170 208 250 299
#     4  11  21  34  54  77 101 134 173 214 257 303
#     4   9  16  26  42  67 100 136 172 208 248 295
#     4  11  22  37  56  76 100 133 170 213 261 304
#     4  10  20  33  50  75 107 140 173 208 250 304
#     4  12  24  40  58  76  97 128 171 219 263 306
#     4  10  21  35  51  73 103 136 167 203 252 307
#     4   8  13  24  43  66  96 134 171 205 243 291
#
# _framework density 17.455866
#
# number of rings (size 3 to 8) (size 9 to 14) (size 15 to 20)
#    0.000    2.125    1.250    4.125    0.000    4.000 
#    0.000    1.250    0.000    3.000    0.000    0.875 
#    0.000    0.000    0.000    0.000    0.000    0.000 
#
# Total GULP energy -793592.889137 kJ/mol
# GULP energy per Si atom -12399.888893 kJ/mol
# Density = 1.741614 g / cm^3
# Si number density = 17.455866 Si / 1000 Ang^3
#
#
#
# Elastic Constant Matrix: (Units=GPa)
#
#
# Indices 1 2 3 4 5 6 
#
# 1 60.7700 26.3476 26.7248 0.0000 0.0000 0.0000
# 2 26.3476 82.4929 33.8547 0.0000 0.0000 0.0000
# 3 26.7248 33.8547 117.4600 0.0000 0.0000 0.0000
# 4 0.0000 0.0000 0.0000 23.5144 0.0000 0.0000
# 5 0.0000 0.0000 0.0000 0.0000 7.4095 0.0000
# 6 0.0000 0.0000 0.0000 0.0000 0.0000 23.7148
#
#
#
# Elastic Compliance Matrix: (Units=1/GPa)
#
#
# Indices 1 2 3 4 5 6 
#
# 1 0.020036 -0.005136 -0.003078 0.000000 0.000000 0.000000
# 2 -0.005136 0.015065 -0.003174 0.000000 0.000000 0.000000
# 3 -0.003078 -0.003174 0.010129 0.000000 0.000000 0.000000
# 4 0.000000 0.000000 0.000000 0.042527 0.000000 0.000000
# 5 0.000000 0.000000 0.000000 0.000000 0.134962 0.000000
# 6 0.000000 0.000000 0.000000 0.000000 0.000000 0.042168
#
#
# Mechanical properties :
#
#
# Convention : Reuss Voigt Hill
#
# Bulk Modulus (GPa) = 44.53566 48.28635 46.41101
# Shear Modulus (GPa) = 16.94069 22.51413 19.72741
#
# Velocity S-wave (km/s) = 3.11864 3.59524 3.36539
# Velocity P-wave (km/s) = 6.20779 6.70495 6.46115
#
# Compressibility (1/GPa) = 0.02245392
#
# Stress axis : x y z
#
# Youngs Moduli (GPa) = 49.91010 66.37876 98.73025
#
# Poissons Ratio (x) = 0.34092 0.30392
# Poissons Ratio (y) = 0.25634 0.31332
# Poissons Ratio (z) = 0.15364 0.21066
#
# Static dielectric constant tensor:
#      x y z
#    x 3.186480 0.000000 0.000000 
#    y 0.000000 3.277930 0.000000 
#    z 0.000000 0.000000 3.472760 
# 
# 
# High freq. dielectric constant tensor:
#      x y z
#    x 1.635060 0.000000 0.000000 
#    y 0.000000 1.673910 0.000000 
#    z 0.000000 0.000000 1.683100 
# 
# From -- ./inp_files/28445.got.cif
#   From: 2010.03.12/outbox.cif.g09.slc.cpg/sg59_15_cif.got.tgz:28445.got - 2010.04.16 16:29:54.
