data_PCOD8242368
_publ_section_title
;
Structure prediction by ZEFSAII (Michael W. Deem and Ramdas Pophale) SiO2 
 PCOD8242368
Probable space group: P M M N
;
_chemical_formula_sum "Si O2"
_cell_formula_units_Z 48
_cell_length_a 14.276606
_cell_length_b 9.122016
_cell_length_c 18.174067
_cell_angle_alpha 90.000000
_cell_angle_beta 90.000000
_cell_angle_gamma 90.000000
_cell_volume 2366.834704
_symmetry_space_group_name_H-M "P M M N"
_symmetry_group_IT_number 59
_space_group.IT_coordinate_system_code '2'
_symmetry_cell_setting 'orthorhombic'
loop_
_space_group_symop_operation_xyz
x,y,z
1/2-x,1/2-y,z
1/2+x,-y,-z
-x,1/2+y,-z
-x,-y,-z
1/2+x,1/2+y,-z
1/2-x,y,z
x,1/2-y,z
loop_
_atom_site_type_symbol
_atom_site_label
_atom_site_fract_x
_atom_site_fract_y
_atom_site_fract_z
Si Si1 0.352720 0.084419 0.185015
Si Si2 0.906607 0.589484 0.089334
Si Si3 0.023398 0.076446 0.755099
Si Si4 0.618227 0.411018 0.956875
Si Si5 0.142342 0.419322 0.479702
Si Si6 0.540217 0.079088 0.392029
O O1 0.250000 0.084749 0.222045
O O2 0.393008 0.250000 0.180932
O O3 0.418857 0.985011 0.234997
O O4 0.341267 0.021453 0.103165
O O5 0.857768 0.750000 0.088071
O O6 0.913595 0.533351 0.173833
O O7 0.008283 0.605514 0.053808
O O8 0.852758 0.473801 0.037663
O O9 0.017029 0.250000 0.746323
O O10 0.067040 0.004954 0.682643
O O11 0.664424 0.250000 0.949279
O O12 0.250000 0.455339 0.455977
O O13 0.133494 0.250000 0.504107
O O14 0.068900 0.450950 0.413510
O O15 0.112570 0.521125 0.547334
O O16 0.558490 0.250000 0.380484
#
# Coordination Sequence:
#
# PCOD8242368 Si02
#       6
#     8   8   8   8   8   8
#     4  10  20  32  46  66  96 135 175 216 265 317
#     4   8  15  27  43  64  89 119 157 199 244 295
#     4  10  20  33  50  73 102 136 172 212 259 312
#     4   9  16  26  43  65  88 118 158 203 248 297
#     4   9  19  37  59  81 108 144 182 218 261 317
#     4  10  20  34  55  84 114 142 177 222 269 320
#
# _framework density 20.280249999999999
#
# number of rings (size 3 to 8) (size 9 to 14) (size 15 to 20)
#    0.000    2.667    0.000    3.000    0.000    7.667 
#    0.000    1.667    0.000    1.000    0.000    7.000 
#    0.000    0.000    0.000    0.000    0.000    0.000 
#
# Total GULP energy -594877.037545 kJ/mol
# GULP energy per Si atom -12393.271616 kJ/mol
# Density = 2.023409 g / cm^3
# Si number density = 20.280250 Si / 1000 Ang^3
#
#
#
# Elastic Constant Matrix: (Units=GPa)
#
#
# Indices 1 2 3 4 5 6 
#
# 1 45.6581 2.2393 -9.9049 0.0000 0.0000 0.0000
# 2 2.2393 102.9812 40.0560 0.0000 0.0000 0.0000
# 3 -9.9049 40.0560 99.6491 0.0000 0.0000 0.0000
# 4 0.0000 0.0000 0.0000 37.8620 0.0000 0.0000
# 5 0.0000 0.0000 0.0000 0.0000 -2.3359 0.0000
# 6 0.0000 0.0000 0.0000 0.0000 0.0000 6.5318
#
#
#
# Elastic Compliance Matrix: (Units=1/GPa)
#
#
# Indices 1 2 3 4 5 6 
#
# 1 0.022610 -0.001619 0.002898 0.000000 0.000000 0.000000
# 2 -0.001619 0.011626 -0.004834 0.000000 0.000000 0.000000
# 3 0.002898 -0.004834 0.012267 0.000000 0.000000 0.000000
# 4 0.000000 0.000000 0.000000 0.026412 0.000000 0.000000
# 5 0.000000 0.000000 0.000000 0.000000 -0.428103 0.000000
# 6 0.000000 0.000000 0.000000 0.000000 0.000000 0.153096
#
#
# Mechanical properties :
#
#
# Convention : Reuss Voigt Hill
#
# Bulk Modulus (GPa) = 25.38555 34.78549 30.08552
# Shear Modulus (GPa) = -27.49503 22.80479 -2.34512
#
# Velocity S-wave (km/s) = -3.68605 3.35697 -1.07651
# Velocity P-wave (km/s) = 2.36038 5.67585 3.64992
#
# Compressibility (1/GPa) = 0.03939249
#
# Stress axis : x y z
#
# Youngs Moduli (GPa) = 44.22820 86.01363 81.52283
#
# Poissons Ratio (x) = 0.13925 -0.23626
# Poissons Ratio (y) = 0.07160 0.39410
# Poissons Ratio (z) = -0.12818 0.41581
#
# Static dielectric constant tensor:
#      x y z
#    x 3.475480 0.000000 0.000000 
#    y 0.000000 3.975360 0.000000 
#    z 0.000000 0.000000 3.632560 
# 
# 
# High freq. dielectric constant tensor:
#      x y z
#    x 1.764630 0.000000 0.000000 
#    y 0.000000 1.802390 0.000000 
#    z 0.000000 0.000000 1.780380 
# 
# From -- ./inp_files/27787.got.cif
#   From: 2010.03.12/outbox.cif.g09.slc.cpg/sg59_14_cif.got.tgz:27787.got - 2010.04.16 16:29:54.
