data_PCOD8242334
_publ_section_title
;
Structure prediction by ZEFSAII (Michael W. Deem and Ramdas Pophale) SiO2 
 PCOD8242334
Probable space group: P M M N
;
_chemical_formula_sum "Si O2"
_cell_formula_units_Z 48
_cell_length_a 9.177075
_cell_length_b 20.320314
_cell_length_c 14.097739
_cell_angle_alpha 90.000000
_cell_angle_beta 90.000000
_cell_angle_gamma 90.000000
_cell_volume 2628.961109
_symmetry_space_group_name_H-M "P M M N"
_symmetry_group_IT_number 59
_space_group.IT_coordinate_system_code '2'
_symmetry_cell_setting 'orthorhombic'
loop_
_space_group_symop_operation_xyz
x,y,z
1/2-x,1/2-y,z
1/2+x,-y,-z
-x,1/2+y,-z
-x,-y,-z
1/2+x,1/2+y,-z
1/2-x,y,z
x,1/2-y,z
loop_
_atom_site_type_symbol
_atom_site_label
_atom_site_fract_x
_atom_site_fract_y
_atom_site_fract_z
Si Si1 0.917317 0.470560 0.223952
Si Si2 0.418076 0.324310 0.523169
Si Si3 0.420066 0.060171 0.048859
Si Si4 0.592131 0.326379 0.702589
Si Si5 0.077715 0.455301 0.421424
Si Si6 0.089603 0.383516 0.857945
O O1 0.750000 0.447589 0.238446
O O2 0.925935 0.543153 0.182009
O O3 0.999183 0.422562 0.148057
O O4 0.004578 0.470083 0.321423
O O5 0.250000 0.321596 0.549961
O O6 0.471322 0.250000 0.494019
O O7 0.495025 0.353853 0.616892
O O8 0.448324 0.377211 0.440653
O O9 0.250000 0.043530 0.067534
O O10 0.434809 0.119242 0.972005
O O11 0.500000 0.000000 0.000000
O O12 0.750000 0.361139 0.697954
O O13 0.609541 0.250000 0.686343
O O14 0.525651 0.337610 0.806190
O O15 0.250000 0.471440 0.419589
O O16 0.000000 0.500000 0.500000
O O17 0.250000 0.356325 0.834368
#
# Coordination Sequence:
#
# PCOD8242334 Si02
#       6
#     8   8   8   8   8   8
#     4  10  20  33  49  72 101 130 162 199 243 294
#     4   9  19  36  54  70  94 132 172 205 242 295
#     4   9  17  30  48  71  97 125 159 195 236 289
#     4  10  20  31  46  71  98 124 158 200 244 289
#     4  11  22  34  51  76 104 132 166 210 256 298
#     4   9  18  31  48  70  96 127 160 193 234 289
#
# _framework density 18.258163
#
# number of rings (size 3 to 8) (size 9 to 14) (size 15 to 20)
#    0.000    2.333    0.000    4.000    0.000   10.333 
#    0.000    0.000    0.000    1.000    0.000    2.333 
#    0.000    0.000    0.000    0.000    0.000    0.000 
#
# Total GULP energy -594830.082460 kJ/mol
# GULP energy per Si atom -12392.293385 kJ/mol
# Density = 1.821661 g / cm^3
# Si number density = 18.258163 Si / 1000 Ang^3
#
#
#
# Elastic Constant Matrix: (Units=GPa)
#
#
# Indices 1 2 3 4 5 6 
#
# 1 121.4996 22.7627 59.5640 0.0000 0.0000 0.0000
# 2 22.7627 34.3252 18.3866 0.0000 0.0000 0.0000
# 3 59.5640 18.3866 127.1455 0.0000 0.0000 0.0000
# 4 0.0000 0.0000 0.0000 21.4756 0.0000 0.0000
# 5 0.0000 0.0000 0.0000 0.0000 34.6502 0.0000
# 6 0.0000 0.0000 0.0000 0.0000 0.0000 20.4247
#
#
#
# Elastic Compliance Matrix: (Units=1/GPa)
#
#
# Indices 1 2 3 4 5 6 
#
# 1 0.011458 -0.005120 -0.004627 0.000000 0.000000 0.000000
# 2 -0.005120 0.033867 -0.002499 0.000000 0.000000 0.000000
# 3 -0.004627 -0.002499 0.010394 0.000000 0.000000 0.000000
# 4 0.000000 0.000000 0.000000 0.046564 0.000000 0.000000
# 5 0.000000 0.000000 0.000000 0.000000 0.028860 0.000000
# 6 0.000000 0.000000 0.000000 0.000000 0.000000 0.048960
#
#
# Mechanical properties :
#
#
# Convention : Reuss Voigt Hill
#
# Bulk Modulus (GPa) = 32.02378 53.82189 42.92284
# Shear Modulus (GPa) = 23.25521 27.46056 25.35789
#
# Velocity S-wave (km/s) = 3.57275 3.88237 3.73077
# Velocity P-wave (km/s) = 5.88191 7.04552 6.48985
#
# Compressibility (1/GPa) = 0.03122679
#
# Stress axis : x y z
#
# Youngs Moduli (GPa) = 87.27340 29.52732 96.20711
#
# Poissons Ratio (x) = 0.15117 0.44520
# Poissons Ratio (y) = 0.44682 0.24043
# Poissons Ratio (z) = 0.40386 0.07379
#
# Static dielectric constant tensor:
#      x y z
#    x 3.841040 0.000000 0.000000 
#    y 0.000000 3.197680 0.000000 
#    z 0.000000 0.000000 3.962910 
# 
# 
# High freq. dielectric constant tensor:
#      x y z
#    x 1.725290 0.000000 0.000000 
#    y 0.000000 1.667060 0.000000 
#    z 0.000000 0.000000 1.709660 
# 
# From -- ./inp_files/18595.got.cif
#   From: 2010.03.12/outbox.cif.g09.slc.cpg/sg59_10_cif.got.tgz:18595.got - 2010.04.16 16:29:54.
