data_PCOD8242928
_publ_section_title
;
Structure prediction by ZEFSAII (Michael W. Deem and Ramdas Pophale) SiO2 
 PCOD8242928
Probable space group: P M M N
;
_chemical_formula_sum "Si O2"
_cell_formula_units_Z 56
_cell_length_a 19.468247
_cell_length_b 9.137276
_cell_length_c 15.975591
_cell_angle_alpha 90.000000
_cell_angle_beta 90.000000
_cell_angle_gamma 90.000000
_cell_volume 2841.845900
_symmetry_space_group_name_H-M "P M M N"
_symmetry_group_IT_number 59
_space_group.IT_coordinate_system_code '2'
_symmetry_cell_setting 'orthorhombic'
loop_
_space_group_symop_operation_xyz
x,y,z
1/2-x,1/2-y,z
1/2+x,-y,-z
-x,1/2+y,-z
-x,-y,-z
1/2+x,1/2+y,-z
1/2-x,y,z
x,1/2-y,z
loop_
_atom_site_type_symbol
_atom_site_label
_atom_site_fract_x
_atom_site_fract_y
_atom_site_fract_z
Si Si1 0.327662 0.079160 0.848880
Si Si2 0.454097 0.576078 0.570528
Si Si3 0.590598 0.082070 0.822850
Si Si4 0.671233 0.421208 0.981258
Si Si5 0.453664 0.418872 0.739360
Si Si6 0.827480 0.916657 0.686594
Si Si7 0.828922 0.583119 0.494115
O O1 0.250000 0.036083 0.821939
O O2 0.333936 0.250000 0.867611
O O3 0.379169 0.033429 0.774470
O O4 0.350029 0.998107 0.933055
O O5 0.500000 0.500000 0.500000
O O6 0.462544 0.750000 0.564386
O O7 0.476078 0.521690 0.662464
O O8 0.374983 0.528036 0.558957
O O9 0.612354 0.250000 0.822128
O O10 0.621528 0.014342 0.908414
O O11 0.508581 0.060200 0.815016
O O12 0.622872 0.013867 0.740632
O O13 0.750000 0.457346 0.956871
O O14 0.659967 0.250000 0.994932
O O15 0.453157 0.250000 0.709219
O O16 0.750000 0.973814 0.697333
O O17 0.833132 0.750000 0.716639
O O18 0.850512 0.930549 0.590633
O O19 0.750000 0.538571 0.480458
O O20 0.841049 0.750000 0.463600
#
# Coordination Sequence:
#
# PCOD8242928 Si02
#       7
#     8   8   8   8   8   8   8
#     4   9  19  37  59  81 107 142 183 225 272 327
#     4  12  25  40  59  83 113 149 190 234 282 339
#     4  10  20  33  51  77 109 144 182 223 269 324
#     4   9  18  33  53  78 109 143 177 217 269 325
#     4  10  22  39  57  80 109 142 183 231 281 331
#     4   9  18  32  51  77 108 141 177 218 265 320
#     4   9  19  37  59  82 110 144 183 231 287 341
#
# _framework density 19.705503
#
# number of rings (size 3 to 8) (size 9 to 14) (size 15 to 20)
#    0.000    2.286    0.000    3.429    0.000    6.857 
#    0.000    4.286    0.000    0.000    0.000    0.000 
#    0.000    0.000    0.000    0.000    0.000    0.000 
#
# Total GULP energy -694421.596300 kJ/mol
# GULP energy per Si atom -12400.385648 kJ/mol
# Density = 1.966065 g / cm^3
# Si number density = 19.705503 Si / 1000 Ang^3
#
#
#
# Elastic Constant Matrix: (Units=GPa)
#
#
# Indices 1 2 3 4 5 6 
#
# 1 88.1725 38.4387 51.8626 0.0000 0.0000 0.0000
# 2 38.4387 74.5653 43.6783 0.0000 0.0000 0.0000
# 3 51.8626 43.6783 99.1396 0.0000 0.0000 0.0000
# 4 0.0000 0.0000 0.0000 34.7840 0.0000 0.0000
# 5 0.0000 0.0000 0.0000 0.0000 36.0898 0.0000
# 6 0.0000 0.0000 0.0000 0.0000 0.0000 25.5146
#
#
#
# Elastic Compliance Matrix: (Units=1/GPa)
#
#
# Indices 1 2 3 4 5 6 
#
# 1 0.017653 -0.004974 -0.007043 0.000000 0.000000 0.000000
# 2 -0.004974 0.019478 -0.005979 0.000000 0.000000 0.000000
# 3 -0.007043 -0.005979 0.016405 0.000000 0.000000 0.000000
# 4 0.000000 0.000000 0.000000 0.028749 0.000000 0.000000
# 5 0.000000 0.000000 0.000000 0.000000 0.027709 0.000000
# 6 0.000000 0.000000 0.000000 0.000000 0.000000 0.039193
#
#
# Mechanical properties :
#
#
# Convention : Reuss Voigt Hill
#
# Bulk Modulus (GPa) = 57.00355 58.87073 57.93714
# Shear Modulus (GPa) = 26.17425 27.80420 26.98923
#
# Velocity S-wave (km/s) = 3.64850 3.76039 3.70486
# Velocity P-wave (km/s) = 6.83661 6.98528 6.91135
#
# Compressibility (1/GPa) = 0.01754277
#
# Stress axis : x y z
#
# Youngs Moduli (GPa) = 56.64866 51.34041 60.95543
#
# Poissons Ratio (x) = 0.25539 0.42931
# Poissons Ratio (y) = 0.28180 0.36446
# Poissons Ratio (z) = 0.39898 0.30697
#
# Static dielectric constant tensor:
#      x y z
#    x 3.783690 0.000000 0.000000 
#    y 0.000000 3.436150 0.000000 
#    z 0.000000 0.000000 3.497060 
# 
# 
# High freq. dielectric constant tensor:
#      x y z
#    x 1.778320 0.000000 0.000000 
#    y 0.000000 1.752390 0.000000 
#    z 0.000000 0.000000 1.761620 
# 
# From -- ./inp_files/24247.got.cif
#   From: 2010.03.12/outbox.cif.g09.slc.cpg/sg59_13_cif.got.tgz:24247.got - 2010.04.16 16:29:54.
