data_PCOD8242057
_publ_section_title
;
Structure prediction by ZEFSAII (Michael W. Deem and Ramdas Pophale) SiO2 
 PCOD8242057
Probable space group: P M M N
;
_chemical_formula_sum "Si O2"
_cell_formula_units_Z 56
_cell_length_a 14.841997
_cell_length_b 19.185219
_cell_length_c 9.132821
_cell_angle_alpha 90.000000
_cell_angle_beta 90.000000
_cell_angle_gamma 90.000000
_cell_volume 2600.543042
_symmetry_space_group_name_H-M "P M M N"
_symmetry_group_IT_number 59
_space_group.IT_coordinate_system_code '2'
_symmetry_cell_setting 'orthorhombic'
loop_
_space_group_symop_operation_xyz
x,y,z
1/2-x,1/2-y,z
1/2+x,-y,-z
-x,1/2+y,-z
-x,-y,-z
1/2+x,1/2+y,-z
1/2-x,y,z
x,1/2-y,z
loop_
_atom_site_type_symbol
_atom_site_label
_atom_site_fract_x
_atom_site_fract_y
_atom_site_fract_z
Si Si1 0.600817 0.474353 0.478751
Si Si2 0.345795 0.063604 0.777143
Si Si3 0.593006 0.172264 0.604261
Si Si4 0.114531 0.173840 0.561380
Si Si5 0.149676 0.085724 0.296516
Si Si6 0.647062 0.330644 0.933678
Si Si7 0.480156 0.079482 0.023415
O O1 0.500000 0.500000 0.500000
O O2 0.625070 0.493444 0.310351
O O3 0.619430 0.391298 0.495460
O O4 0.654444 0.515323 0.605561
O O5 0.250000 0.048148 0.856552
O O6 0.326098 0.121171 0.654238
O O7 0.415993 0.098484 0.887924
O O8 0.624012 0.250000 0.547266
O O9 0.486508 0.171353 0.621676
O O10 0.637205 0.156746 0.760747
O O11 0.156339 0.250000 0.577895
O O12 0.120905 0.152050 0.392461
O O13 0.250000 0.095771 0.229324
O O14 0.073373 0.086452 0.173537
O O15 0.750000 0.351945 0.977650
O O16 0.629128 0.250000 0.972532
O O17 0.572864 0.376089 0.022022
O O18 0.500000 0.000000 0.000000
#
# Coordination Sequence:
#
# PCOD8242057 Si02
#       7
#     8   8   8   8   8   8   8
#     4  11  18  36  61  88 124 166 210 259 318 370
#     4  11  23  38  61  93 127 166 211 259 314 379
#     4  10  19  34  63  94 119 152 205 262 314 374
#     4  10  20  38  64  93 126 163 204 253 312 379
#     4  11  24  39  61  94 132 173 211 257 318 388
#     4  10  22  42  67  94 124 164 217 274 332 389
#     4  12  25  41  64  91 128 172 217 268 318 379
#
# _framework density 21.533964000000001
#
# number of rings (size 3 to 8) (size 9 to 14) (size 15 to 20)
#    0.000    1.286    4.286    3.857    0.000    5.143 
#    0.000    0.000    0.000    2.571    0.000    0.000 
#    0.000    0.000    0.000    0.000    0.000    0.000 
#
# Total GULP energy -693860.305922 kJ/mol
# GULP energy per Si atom -12390.362606 kJ/mol
# Density = 2.148495 g / cm^3
# Si number density = 21.533964 Si / 1000 Ang^3
#
#
#
# Elastic Constant Matrix: (Units=GPa)
#
#
# Indices 1 2 3 4 5 6 
#
# 1 153.0007 20.8875 28.3815 0.0000 0.0000 0.0000
# 2 20.8875 119.8640 4.9531 0.0000 0.0000 0.0000
# 3 28.3815 4.9531 57.2868 0.0000 0.0000 0.0000
# 4 0.0000 0.0000 0.0000 23.6540 0.0000 0.0000
# 5 0.0000 0.0000 0.0000 0.0000 8.4623 0.0000
# 6 0.0000 0.0000 0.0000 0.0000 0.0000 19.5966
#
#
#
# Elastic Compliance Matrix: (Units=1/GPa)
#
#
# Indices 1 2 3 4 5 6 
#
# 1 0.007348 -0.001134 -0.003542 0.000000 0.000000 0.000000
# 2 -0.001134 0.008548 -0.000177 0.000000 0.000000 0.000000
# 3 -0.003542 -0.000177 0.019226 0.000000 0.000000 0.000000
# 4 0.000000 0.000000 0.000000 0.042276 0.000000 0.000000
# 5 0.000000 0.000000 0.000000 0.000000 0.118171 0.000000
# 6 0.000000 0.000000 0.000000 0.000000 0.000000 0.051029
#
#
# Mechanical properties :
#
#
# Convention : Reuss Voigt Hill
#
# Bulk Modulus (GPa) = 39.34714 48.73284 44.03999
# Shear Modulus (GPa) = 18.88382 28.73787 23.81085
#
# Velocity S-wave (km/s) = 2.96452 3.65709 3.32887
# Velocity P-wave (km/s) = 5.47993 6.36493 5.93893
#
# Compressibility (1/GPa) = 0.02541481
#
# Stress axis : x y z
#
# Youngs Moduli (GPa) = 136.09466 116.99008 52.01206
#
# Poissons Ratio (x) = 0.13267 0.18424
# Poissons Ratio (y) = 0.15434 0.00922
# Poissons Ratio (z) = 0.48208 0.02073
#
# Static dielectric constant tensor:
#      x y z
#    x 4.313090 0.000000 0.000000 
#    y 0.000000 4.062360 0.000000 
#    z 0.000000 0.000000 3.734380 
# 
# 
# High freq. dielectric constant tensor:
#      x y z
#    x 1.861480 0.000000 0.000000 
#    y 0.000000 1.843930 0.000000 
#    z 0.000000 0.000000 1.820260 
# 
# From -- ./inp_files/9374.got.cif
#   From: 2010.03.12/outbox.cif.g09.slc.cpg/sg59_5_cif.got.tgz:9374.got - 2010.04.16 16:29:54.
