data_PCOD8242017
_publ_section_title
;
Structure prediction by ZEFSAII (Michael W. Deem and Ramdas Pophale) SiO2 
 PCOD8242017
Probable space group: P M M N
;
_chemical_formula_sum "Si O2"
_cell_formula_units_Z 56
_cell_length_a 14.445677
_cell_length_b 22.424121
_cell_length_c 8.884651
_cell_angle_alpha 90.000000
_cell_angle_beta 90.000000
_cell_angle_gamma 90.000000
_cell_volume 2878.019294
_symmetry_space_group_name_H-M "P M M N"
_symmetry_group_IT_number 59
_space_group.IT_coordinate_system_code '2'
_symmetry_cell_setting 'orthorhombic'
loop_
_space_group_symop_operation_xyz
x,y,z
1/2-x,1/2-y,z
1/2+x,-y,-z
-x,1/2+y,-z
-x,-y,-z
1/2+x,1/2+y,-z
1/2-x,y,z
x,1/2-y,z
loop_
_atom_site_type_symbol
_atom_site_label
_atom_site_fract_x
_atom_site_fract_y
_atom_site_fract_z
Si Si1 0.142556 0.954093 0.012177
Si Si2 0.005573 0.398298 0.774457
Si Si3 0.142817 0.406062 0.014596
Si Si4 0.146147 0.376632 0.348145
Si Si5 0.355033 0.901489 0.689003
Si Si6 0.982110 0.318983 0.497246
Si Si7 0.146092 0.027526 0.584990
O O1 0.250000 0.943894 0.050846
O O2 0.083953 0.926681 0.147816
O O3 0.120900 0.023939 0.997148
O O4 0.114600 0.922252 0.855718
O O5 0.064789 0.447960 0.688214
O O6 0.969491 0.347075 0.662606
O O7 0.076632 0.370804 0.898225
O O8 0.250000 0.391708 0.982254
O O9 0.112548 0.383309 0.178130
O O10 0.250000 0.352168 0.356353
O O11 0.138688 0.442794 0.420825
O O12 0.086685 0.328832 0.440469
O O13 0.250000 0.878826 0.691595
O O14 0.416418 0.847719 0.628814
O O15 0.367827 0.956528 0.572102
O O16 0.957972 0.250000 0.509484
O O17 0.250000 0.039715 0.654731
#
# Coordination Sequence:
#
# PCOD8242017 Si02
#       7
#     8   8   8   8   8   8   8
#     4  10  21  35  55  90 125 150 178 225 292 363
#     4  11  21  34  59  83 120 152 185 232 294 341
#     4  10  19  34  57  91 125 146 173 220 293 370
#     4   9  20  36  60  89 120 152 185 230 287 347
#     4  10  21  39  61  84 116 152 189 236 288 342
#     4  11  26  42  57  79 110 156 210 248 274 320
#     4   9  18  33  55  90 122 148 183 229 290 354
#
# _framework density 19.457827000000002
#
# number of rings (size 3 to 8) (size 9 to 14) (size 15 to 20)
#    0.000    2.000    1.429    1.714    4.000    2.857 
#    0.000    2.857    0.000    1.714    0.000    0.000 
#    0.000    0.000    0.000    0.000    0.000    0.000 
#
# Total GULP energy -694333.999401 kJ/mol
# GULP energy per Si atom -12398.821418 kJ/mol
# Density = 1.941354 g / cm^3
# Si number density = 19.457827 Si / 1000 Ang^3
#
#
#
# Elastic Constant Matrix: (Units=GPa)
#
#
# Indices 1 2 3 4 5 6 
#
# 1 59.7770 20.9598 22.8954 0.0000 0.0000 0.0000
# 2 20.9598 79.2365 19.0601 0.0000 0.0000 0.0000
# 3 22.8954 19.0601 84.3999 0.0000 0.0000 0.0000
# 4 0.0000 0.0000 0.0000 18.7401 0.0000 0.0000
# 5 0.0000 0.0000 0.0000 0.0000 36.1884 0.0000
# 6 0.0000 0.0000 0.0000 0.0000 0.0000 14.0527
#
#
#
# Elastic Compliance Matrix: (Units=1/GPa)
#
#
# Indices 1 2 3 4 5 6 
#
# 1 0.019905 -0.004194 -0.004452 0.000000 0.000000 0.000000
# 2 -0.004194 0.014229 -0.002076 0.000000 0.000000 0.000000
# 3 -0.004452 -0.002076 0.013525 0.000000 0.000000 0.000000
# 4 0.000000 0.000000 0.000000 0.053362 0.000000 0.000000
# 5 0.000000 0.000000 0.000000 0.000000 0.027633 0.000000
# 6 0.000000 0.000000 0.000000 0.000000 0.000000 0.071161
#
#
# Mechanical properties :
#
#
# Convention : Reuss Voigt Hill
#
# Bulk Modulus (GPa) = 38.14704 38.80488 38.47596
# Shear Modulus (GPa) = 21.73941 24.49610 23.11776
#
# Velocity S-wave (km/s) = 3.34617 3.55199 3.45062
# Velocity P-wave (km/s) = 5.88019 6.06701 5.97433
#
# Compressibility (1/GPa) = 0.02621435
#
# Stress axis : x y z
#
# Youngs Moduli (GPa) = 50.23908 70.27806 73.93755
#
# Poissons Ratio (x) = 0.29476 0.32920
# Poissons Ratio (y) = 0.21071 0.15347
# Poissons Ratio (z) = 0.22369 0.14587
#
# Static dielectric constant tensor:
#      x y z
#    x 3.722460 0.000000 0.000000 
#    y 0.000000 3.045090 0.000000 
#    z 0.000000 0.000000 3.745530 
# 
# 
# High freq. dielectric constant tensor:
#      x y z
#    x 1.775030 0.000000 0.000000 
#    y 0.000000 1.699630 0.000000 
#    z 0.000000 0.000000 1.769900 
# 
# From -- ./inp_files/9388.got.cif
#   From: 2010.03.12/outbox.cif.g09.slc.cpg/sg59_5_cif.got.tgz:9388.got - 2010.04.16 16:29:54.
