data_PCOD8242870
_publ_section_title
;
Structure prediction by ZEFSAII (Michael W. Deem and Ramdas Pophale) SiO2 
 PCOD8242870
Probable space group: P M M N
;
_chemical_formula_sum "Si O2"
_cell_formula_units_Z 48
_cell_length_a 9.048783
_cell_length_b 9.517079
_cell_length_c 30.904911
_cell_angle_alpha 90.000000
_cell_angle_beta 90.000000
_cell_angle_gamma 90.000000
_cell_volume 2661.468590
_symmetry_space_group_name_H-M "P M M N"
_symmetry_group_IT_number 59
_space_group.IT_coordinate_system_code '2'
_symmetry_cell_setting 'orthorhombic'
loop_
_space_group_symop_operation_xyz
x,y,z
1/2-x,1/2-y,z
1/2+x,-y,-z
-x,1/2+y,-z
-x,-y,-z
1/2+x,1/2+y,-z
1/2-x,y,z
x,1/2-y,z
loop_
_atom_site_type_symbol
_atom_site_label
_atom_site_fract_x
_atom_site_fract_y
_atom_site_fract_z
Si Si1 0.078371 0.913671 0.462802
Si Si2 0.915003 0.416982 0.214115
Si Si3 0.914601 0.582476 0.868324
Si Si4 0.422599 0.087596 0.626025
Si Si5 0.579316 0.915766 0.700124
Si Si6 0.424688 0.408878 0.036272
O O1 0.250000 0.953937 0.460910
O O2 0.054358 0.750000 0.472539
O O3 0.005204 0.956912 0.417620
O O4 0.000000 0.000000 0.500000
O O5 0.750000 0.477021 0.220871
O O6 0.911830 0.250000 0.211872
O O7 0.978953 0.478010 0.169050
O O8 0.018493 0.466133 0.253458
O O9 0.750000 0.523763 0.859721
O O10 0.909581 0.750000 0.867099
O O11 0.971189 0.535218 0.915885
O O12 0.250000 0.057050 0.619941
O O13 0.452971 0.250000 0.637225
O O14 0.484906 0.992861 0.664044
O O15 0.750000 0.959812 0.696700
O O16 0.558242 0.750000 0.693903
O O17 0.250000 0.418232 0.031356
O O18 0.480002 0.250000 0.030145
O O19 0.500000 0.500000 0.000000
#
# Coordination Sequence:
#
# PCOD8242870 Si02
#       6
#     8   8   8   8   8   8
#     4  10  21  37  57  80 105 135 171 209 250 296
#     4   9  16  26  43  69  98 125 157 201 248 290
#     4   8  14  26  43  63  90 123 157 195 241 293
#     4  10  21  37  56  77 103 136 171 207 249 296
#     4  10  20  33  51  76 104 134 167 203 245 292
#     4   9  18  31  47  69  96 126 161 200 243 292
#
# _framework density 18.035153999999999
#
# number of rings (size 3 to 8) (size 9 to 14) (size 15 to 20)
#    0.000    2.667    0.000    3.000    0.000    6.667 
#    0.000    1.667    0.000    1.000    0.000    4.667 
#    0.000    0.000    0.000    0.000    0.000    0.000 
#
# Total GULP energy -595139.968176 kJ/mol
# GULP energy per Si atom -12398.749337 kJ/mol
# Density = 1.799411 g / cm^3
# Si number density = 18.035154 Si / 1000 Ang^3
#
#
#
# Elastic Constant Matrix: (Units=GPa)
#
#
# Indices 1 2 3 4 5 6 
#
# 1 110.4132 33.0140 73.8452 0.0000 0.0000 0.0000
# 2 33.0140 35.1007 48.0058 0.0000 0.0000 0.0000
# 3 73.8452 48.0058 163.5448 0.0000 0.0000 0.0000
# 4 0.0000 0.0000 0.0000 26.1691 0.0000 0.0000
# 5 0.0000 0.0000 0.0000 0.0000 42.0888 0.0000
# 6 0.0000 0.0000 0.0000 0.0000 0.0000 24.6000
#
#
#
# Elastic Compliance Matrix: (Units=1/GPa)
#
#
# Indices 1 2 3 4 5 6 
#
# 1 0.014094 -0.007606 -0.004131 0.000000 0.000000 0.000000
# 2 -0.007606 0.051702 -0.011742 0.000000 0.000000 0.000000
# 3 -0.004131 -0.011742 0.011427 0.000000 0.000000 0.000000
# 4 0.000000 0.000000 0.000000 0.038213 0.000000 0.000000
# 5 0.000000 0.000000 0.000000 0.000000 0.023759 0.000000
# 6 0.000000 0.000000 0.000000 0.000000 0.000000 0.040650
#
#
# Mechanical properties :
#
#
# Convention : Reuss Voigt Hill
#
# Bulk Modulus (GPa) = 33.04208 68.75432 50.89820
# Shear Modulus (GPa) = 21.10658 28.85115 24.97887
#
# Velocity S-wave (km/s) = 3.42468 4.00399 3.72561
# Velocity P-wave (km/s) = 5.83083 7.71887 6.84031
#
# Compressibility (1/GPa) = 0.03026443
#
# Stress axis : x y z
#
# Youngs Moduli (GPa) = 70.95122 19.34144 87.51520
#
# Poissons Ratio (x) = 0.14711 0.36155
# Poissons Ratio (y) = 0.53966 1.02760
# Poissons Ratio (z) = 0.29312 0.22711
#
# Static dielectric constant tensor:
#      x y z
#    x 3.108890 0.000000 0.000000 
#    y 0.000000 2.986270 0.000000 
#    z 0.000000 0.000000 1.929980 
# 
# 
# High freq. dielectric constant tensor:
#      x y z
#    x 1.709620 0.000000 0.000000 
#    y 0.000000 1.652330 0.000000 
#    z 0.000000 0.000000 1.715640 
# 
# From -- ./inp_files/31250.got.cif
#   From: 2010.03.12/outbox.cif.g09.slc.cpg/sg59_16_cif.got.tgz:31250.got - 2010.04.16 16:29:54.
