data_PCOD8242617
_publ_section_title
;
Structure prediction by ZEFSAII (Michael W. Deem and Ramdas Pophale) SiO2 
 PCOD8242617
Probable space group: P M M N
;
_chemical_formula_sum "Si O2"
_cell_formula_units_Z 48
_cell_length_a 9.387975
_cell_length_b 9.418208
_cell_length_c 31.234958
_cell_angle_alpha 90.000000
_cell_angle_beta 90.000000
_cell_angle_gamma 90.000000
_cell_volume 2761.729432
_symmetry_space_group_name_H-M "P M M N"
_symmetry_group_IT_number 59
_space_group.IT_coordinate_system_code '2'
_symmetry_cell_setting 'orthorhombic'
loop_
_space_group_symop_operation_xyz
x,y,z
1/2-x,1/2-y,z
1/2+x,-y,-z
-x,1/2+y,-z
-x,-y,-z
1/2+x,1/2+y,-z
1/2-x,y,z
x,1/2-y,z
loop_
_atom_site_type_symbol
_atom_site_label
_atom_site_fract_x
_atom_site_fract_y
_atom_site_fract_z
Si Si1 0.917136 0.586520 0.464855
Si Si2 0.589416 0.418832 0.801247
Si Si3 0.083442 0.582662 0.036482
Si Si4 0.907900 0.580836 0.370357
Si Si5 0.089515 0.418471 0.880111
Si Si6 0.909033 0.418780 0.706833
O O1 0.750000 0.559301 0.469809
O O2 0.954850 0.750000 0.471963
O O3 0.967453 0.537439 0.417243
O O4 0.000000 0.500000 0.500000
O O5 0.750000 0.476281 0.809238
O O6 0.593233 0.250000 0.804492
O O7 0.481734 0.481028 0.836808
O O8 0.534342 0.465136 0.753922
O O9 0.250000 0.539671 0.037185
O O10 0.065694 0.750000 0.028700
O O11 0.010506 0.534570 0.080735
O O12 0.000000 0.500000 0.000000
O O13 0.750000 0.519257 0.364533
O O14 0.904373 0.750000 0.367628
O O15 0.999696 0.513888 0.331740
O O16 0.250000 0.480357 0.885250
O O17 0.097201 0.250000 0.877579
O O18 0.750000 0.476529 0.700984
O O19 0.911623 0.250000 0.703563
#
# Coordination Sequence:
#
# PCOD8242617 Si02
#       6
#     8   8   8   8   8   8
#     4   9  18  31  45  63  87 114 146 183 221 262
#     4   8  13  21  32  48  74 106 137 170 208 250
#     4  10  20  33  49  68  91 120 152 187 227 267
#     4   8  14  24  36  51  75 105 134 168 210 252
#     4   9  16  25  38  57  81 110 144 179 215 258
#     4   8  13  20  31  49  73 102 136 170 204 248
#
# _framework density 17.380413000000001
#
# number of rings (size 3 to 8) (size 9 to 14) (size 15 to 20)
#    0.000    3.333    0.000    3.000    0.000    4.667 
#    0.000    5.000    0.000    0.000    0.000    0.000 
#    0.000    1.333    0.000    9.333    0.000   17.333 
#
# Total GULP energy -594771.432265 kJ/mol
# GULP energy per Si atom -12391.071506 kJ/mol
# Density = 1.734085 g / cm^3
# Si number density = 17.380413 Si / 1000 Ang^3
#
#
#
# Elastic Constant Matrix: (Units=GPa)
#
#
# Indices 1 2 3 4 5 6 
#
# 1 123.3119 22.8924 103.4238 0.0000 0.0000 0.0000
# 2 22.8924 15.2466 29.9703 0.0000 0.0000 0.0000
# 3 103.4238 29.9703 197.1963 0.0000 0.0000 0.0000
# 4 0.0000 0.0000 0.0000 16.4848 0.0000 0.0000
# 5 0.0000 0.0000 0.0000 0.0000 42.3814 0.0000
# 6 0.0000 0.0000 0.0000 0.0000 0.0000 14.7789
#
#
#
# Elastic Compliance Matrix: (Units=1/GPa)
#
#
# Indices 1 2 3 4 5 6 
#
# 1 0.015563 -0.010442 -0.006575 0.000000 0.000000 0.000000
# 2 -0.010442 0.100537 -0.009803 0.000000 0.000000 0.000000
# 3 -0.006575 -0.009803 0.010010 0.000000 0.000000 0.000000
# 4 0.000000 0.000000 0.000000 0.060662 0.000000 0.000000
# 5 0.000000 0.000000 0.000000 0.000000 0.023595 0.000000
# 6 0.000000 0.000000 0.000000 0.000000 0.000000 0.067664
#
#
# Mechanical properties :
#
#
# Convention : Reuss Voigt Hill
#
# Bulk Modulus (GPa) = 13.79914 72.03642 42.91778
# Shear Modulus (GPa) = 14.05173 26.69358 20.37265
#
# Velocity S-wave (km/s) = 2.84646 3.92323 3.42740
# Velocity P-wave (km/s) = 4.33127 7.87777 6.35685
#
# Compressibility (1/GPa) = 0.07246828
#
# Stress axis : x y z
#
# Youngs Moduli (GPa) = 64.25567 9.94656 99.90478
#
# Poissons Ratio (x) = 0.10386 0.65690
# Poissons Ratio (y) = 0.67097 0.97939
# Poissons Ratio (z) = 0.42250 0.09751
#
# Static dielectric constant tensor:
#      x y z
#    x 3.533550 0.000000 0.000000 
#    y 0.000000 2.524730 0.000000 
#    z 0.000000 0.000000 3.642360 
# 
# 
# High freq. dielectric constant tensor:
#      x y z
#    x 1.675150 0.000000 0.000000 
#    y 0.000000 1.586780 0.000000 
#    z 0.000000 0.000000 1.693370 
# 
# From -- ./inp_files/32467.got.cif
#   From: 2010.03.12/outbox.cif.g09.slc.cpg/sg59_17_cif.got.tgz:32467.got - 2010.04.16 16:29:54.
