data_PCOD8242918
_publ_section_title
;
Structure prediction by ZEFSAII (Michael W. Deem and Ramdas Pophale) SiO2 
 PCOD8242918
Probable space group: P M M N
;
_chemical_formula_sum "Si O2"
_cell_formula_units_Z 48
_cell_length_a 9.266307
_cell_length_b 9.076533
_cell_length_c 30.496759
_cell_angle_alpha 90.000000
_cell_angle_beta 90.000000
_cell_angle_gamma 90.000000
_cell_volume 2564.958621
_symmetry_space_group_name_H-M "P M M N"
_symmetry_group_IT_number 59
_space_group.IT_coordinate_system_code '2'
_symmetry_cell_setting 'orthorhombic'
loop_
_space_group_symop_operation_xyz
x,y,z
1/2-x,1/2-y,z
1/2+x,-y,-z
-x,1/2+y,-z
-x,-y,-z
1/2+x,1/2+y,-z
1/2-x,y,z
x,1/2-y,z
loop_
_atom_site_type_symbol
_atom_site_label
_atom_site_fract_x
_atom_site_fract_y
_atom_site_fract_z
Si Si1 0.078385 0.916150 0.126140
Si Si2 0.582388 0.583203 0.285542
Si Si3 0.919876 0.921041 0.960727
Si Si4 0.418567 0.080054 0.211898
Si Si5 0.082687 0.423090 0.460705
Si Si6 0.084165 0.420430 0.613458
O O1 0.250000 0.918398 0.127102
O O2 0.018514 0.750000 0.122969
O O3 0.023025 0.007999 0.084440
O O4 0.018371 0.990137 0.170495
O O5 0.750000 0.564274 0.275004
O O6 0.532959 0.750000 0.275225
O O7 0.494000 0.470285 0.256298
O O8 0.550912 0.545183 0.335981
O O9 0.750000 0.945820 0.966474
O O10 0.960787 0.750000 0.960324
O O11 0.000000 0.000000 0.000000
O O12 0.250000 0.050492 0.217612
O O13 0.452431 0.250000 0.203291
O O14 0.250000 0.465985 0.463400
O O15 0.059089 0.250000 0.464656
O O16 0.000000 0.500000 0.500000
O O17 0.020432 0.477412 0.414551
O O18 0.250000 0.457809 0.602215
O O19 0.053351 0.250000 0.602633
#
# Coordination Sequence:
#
# PCOD8242918 Si02
#       6
#     8   8   8   8   8   8
#     4   9  17  31  52  75 100 134 174 214 259 311
#     4   9  19  36  56  78 106 140 176 215 260 309
#     4  10  20  34  53  77 105 136 171 213 261 312
#     4  10  20  33  51  77 107 137 172 215 259 306
#     4  11  24  39  56  81 111 141 176 218 262 310
#     4   9  19  37  59  81 106 138 177 218 260 309
#
# _framework density 18.713753000000001
#
# number of rings (size 3 to 8) (size 9 to 14) (size 15 to 20)
#    0.000    2.333    0.000    3.500    0.000    9.333 
#    0.000    5.833    0.000    5.000    0.000    0.000 
#    0.000    0.000    0.000    0.000    0.000    0.000 
#
# Total GULP energy -595328.717676 kJ/mol
# GULP energy per Si atom -12402.681618 kJ/mol
# Density = 1.867116 g / cm^3
# Si number density = 18.713753 Si / 1000 Ang^3
#
#
#
# Elastic Constant Matrix: (Units=GPa)
#
#
# Indices 1 2 3 4 5 6 
#
# 1 68.3532 61.8359 61.3530 0.0000 0.0000 0.0000
# 2 61.8359 121.4920 79.6869 0.0000 0.0000 0.0000
# 3 61.3530 79.6869 138.2663 0.0000 0.0000 0.0000
# 4 0.0000 0.0000 0.0000 43.1137 0.0000 0.0000
# 5 0.0000 0.0000 0.0000 0.0000 34.3261 0.0000
# 6 0.0000 0.0000 0.0000 0.0000 0.0000 30.3236
#
#
#
# Elastic Compliance Matrix: (Units=1/GPa)
#
#
# Indices 1 2 3 4 5 6 
#
# 1 0.031395 -0.011000 -0.007591 0.000000 0.000000 0.000000
# 2 -0.011000 0.017088 -0.004967 0.000000 0.000000 0.000000
# 3 -0.007591 -0.004967 0.013464 0.000000 0.000000 0.000000
# 4 0.000000 0.000000 0.000000 0.023194 0.000000 0.000000
# 5 0.000000 0.000000 0.000000 0.000000 0.029132 0.000000
# 6 0.000000 0.000000 0.000000 0.000000 0.000000 0.032978
#
#
# Mechanical properties :
#
#
# Convention : Reuss Voigt Hill
#
# Bulk Modulus (GPa) = 67.43345 81.54038 74.48692
# Shear Modulus (GPa) = 25.08654 29.90171 27.49413
#
# Velocity S-wave (km/s) = 3.66531 4.00164 3.83716
# Velocity P-wave (km/s) = 7.35017 8.06337 7.71502
#
# Compressibility (1/GPa) = 0.01482944
#
# Stress axis : x y z
#
# Youngs Moduli (GPa) = 31.85238 58.52224 74.27458
#
# Poissons Ratio (x) = 0.64374 0.56384
# Poissons Ratio (y) = 0.35037 0.36892
# Poissons Ratio (z) = 0.24180 0.29068
#
# Static dielectric constant tensor:
#      x y z
#    x 3.212130 0.000000 0.000000 
#    y 0.000000 3.533520 0.000000 
#    z 0.000000 0.000000 3.550850 
# 
# 
# High freq. dielectric constant tensor:
#      x y z
#    x 1.702890 0.000000 0.000000 
#    y 0.000000 1.736010 0.000000 
#    z 0.000000 0.000000 1.741610 
# 
# From -- ./inp_files/32799.got.cif
#   From: 2010.03.12/outbox.cif.g09.slc.cpg/sg59_17_cif.got.tgz:32799.got - 2010.04.16 16:29:54.
