data_PCOD8242586
_publ_section_title
;
Structure prediction by ZEFSAII (Michael W. Deem and Ramdas Pophale) SiO2 
 PCOD8242586
Probable space group: P M M N
;
_chemical_formula_sum "Si O2"
_cell_formula_units_Z 52
_cell_length_a 9.107754
_cell_length_b 14.196060
_cell_length_c 21.412925
_cell_angle_alpha 90.000000
_cell_angle_beta 90.000000
_cell_angle_gamma 90.000000
_cell_volume 2768.567484
_symmetry_space_group_name_H-M "P M M N"
_symmetry_group_IT_number 59
_space_group.IT_coordinate_system_code '2'
_symmetry_cell_setting 'orthorhombic'
loop_
_space_group_symop_operation_xyz
x,y,z
1/2-x,1/2-y,z
1/2+x,-y,-z
-x,1/2+y,-z
-x,-y,-z
1/2+x,1/2+y,-z
1/2-x,y,z
x,1/2-y,z
loop_
_atom_site_type_symbol
_atom_site_label
_atom_site_fract_x
_atom_site_fract_y
_atom_site_fract_z
Si Si1 0.080596 0.141860 0.497384
Si Si2 0.921086 0.015501 0.403458
Si Si3 0.082206 0.250000 0.012560
Si Si4 0.002982 0.250000 0.870736
Si Si5 0.418510 0.936173 0.291404
Si Si6 0.589613 0.457281 0.850646
Si Si7 0.912829 0.750000 0.266821
Si Si8 0.575996 0.436107 0.050528
O O1 0.250000 0.130181 0.477741
O O2 0.040758 0.250000 0.512135
O O3 0.046206 0.080616 0.558772
O O4 0.980971 0.105898 0.440497
O O5 0.750000 0.030317 0.390613
O O6 0.005967 0.010062 0.337926
O O7 0.250000 0.250000 0.035701
O O8 0.994685 0.165069 0.043297
O O9 0.087162 0.250000 0.936929
O O10 0.104477 0.250000 0.808852
O O11 0.908869 0.154274 0.867080
O O12 0.250000 0.919823 0.310572
O O13 0.431694 0.977625 0.222134
O O14 0.502810 0.838229 0.294510
O O15 0.750000 0.494094 0.872378
O O16 0.460535 0.516477 0.883057
O O17 0.750000 0.750000 0.295338
O O18 0.750000 0.431475 0.041045
O O19 0.500000 0.500000 0.000000
#
# Coordination Sequence:
#
# PCOD8242586 Si02
#       8
#     8   8   4   4   8   8   4   8
#     4   9  19  36  57  81 114 152 188 229 276 326
#     4  10  20  34  56  86 115 148 188 231 276 327
#     4  12  24  39  60  85 113 145 189 234 285 345
#     4  10  20  32  58  84 117 146 187 224 281 334
#     4  10  21  36  55  81 114 151 188 229 279 335
#     4  10  21  38  59  83 115 151 190 233 282 338
#     4  10  20  33  50  79 114 149 188 230 278 333
#     4  12  25  39  59  85 115 148 188 234 288 340
#
# _framework density 18.782277000000001
#
# number of rings (size 3 to 8) (size 9 to 14) (size 15 to 20)
#    0.000    1.692    1.538    3.231    1.077    6.462 
#    0.000    0.000    1.692    0.000    0.000    0.000 
#    0.000    0.000    0.000    0.000    0.000    0.000 
#
# Total GULP energy -644740.846049 kJ/mol
# GULP energy per Si atom -12398.862424 kJ/mol
# Density = 1.873953 g / cm^3
# Si number density = 18.782277 Si / 1000 Ang^3
#
#
#
# Elastic Constant Matrix: (Units=GPa)
#
#
# Indices 1 2 3 4 5 6 
#
# 1 151.3129 43.3307 47.5703 0.0000 0.0000 0.0000
# 2 43.3307 98.0546 31.0991 0.0000 0.0000 0.0000
# 3 47.5703 31.0991 81.8920 0.0000 0.0000 0.0000
# 4 0.0000 0.0000 0.0000 25.9525 0.0000 0.0000
# 5 0.0000 0.0000 0.0000 0.0000 28.0511 0.0000
# 6 0.0000 0.0000 0.0000 0.0000 0.0000 29.9435
#
#
#
# Elastic Compliance Matrix: (Units=1/GPa)
#
#
# Indices 1 2 3 4 5 6 
#
# 1 0.008600 -0.002519 -0.004039 0.000000 0.000000 0.000000
# 2 -0.002519 0.012333 -0.003220 0.000000 0.000000 0.000000
# 3 -0.004039 -0.003220 0.015780 0.000000 0.000000 0.000000
# 4 0.000000 0.000000 0.000000 0.038532 0.000000 0.000000
# 5 0.000000 0.000000 0.000000 0.000000 0.035649 0.000000
# 6 0.000000 0.000000 0.000000 0.000000 0.000000 0.033396
#
#
# Mechanical properties :
#
#
# Convention : Reuss Voigt Hill
#
# Bulk Modulus (GPa) = 58.28691 63.91775 61.10233
# Shear Modulus (GPa) = 29.48697 30.74003 30.11350
#
# Velocity S-wave (km/s) = 3.96654 4.04994 4.00846
# Velocity P-wave (km/s) = 7.21652 7.48159 7.35025
#
# Compressibility (1/GPa) = 0.01715651
#
# Stress axis : x y z
#
# Youngs Moduli (GPa) = 116.27814 81.08315 63.37046
#
# Poissons Ratio (x) = 0.20428 0.25595
# Poissons Ratio (y) = 0.29295 0.20406
# Poissons Ratio (z) = 0.46964 0.26109
#
# Static dielectric constant tensor:
#      x y z
#    x 3.659950 0.000000 0.000000 
#    y 0.000000 3.283860 0.000000 
#    z 0.000000 0.000000 3.522670 
# 
# 
# High freq. dielectric constant tensor:
#      x y z
#    x 1.740990 0.000000 0.000000 
#    y 0.000000 1.713950 0.000000 
#    z 0.000000 0.000000 1.725480 
# 
# From -- ./inp_files/28947.got.cif
#   From: 2010.03.12/outbox.cif.g09.slc.cpg/sg59_15_cif.got.tgz:28947.got - 2010.04.16 16:29:54.
