data_PCOD8242831
_publ_section_title
;
Structure prediction by ZEFSAII (Michael W. Deem and Ramdas Pophale) SiO2 
 PCOD8242831
Probable space group: P M M N
;
_chemical_formula_sum "Si O2"
_cell_formula_units_Z 40
_cell_length_a 9.402802
_cell_length_b 9.139352
_cell_length_c 25.610145
_cell_angle_alpha 90.000000
_cell_angle_beta 90.000000
_cell_angle_gamma 90.000000
_cell_volume 2200.821058
_symmetry_space_group_name_H-M "P M M N"
_symmetry_group_IT_number 59
_space_group.IT_coordinate_system_code '2'
_symmetry_cell_setting 'orthorhombic'
loop_
_space_group_symop_operation_xyz
x,y,z
1/2-x,1/2-y,z
1/2+x,-y,-z
-x,1/2+y,-z
-x,-y,-z
1/2+x,1/2+y,-z
1/2-x,y,z
x,1/2-y,z
loop_
_atom_site_type_symbol
_atom_site_label
_atom_site_fract_x
_atom_site_fract_y
_atom_site_fract_z
Si Si1 0.915297 0.080637 0.349713
Si Si2 0.583216 0.580700 0.954850
Si Si3 0.416259 0.919526 0.261723
Si Si4 0.918647 0.411574 0.854654
Si Si5 0.416535 0.420032 0.545377
O O1 0.750000 0.054705 0.338575
O O2 0.950234 0.250000 0.359769
O O3 0.965422 0.989903 0.400050
O O4 0.999916 0.025056 0.299899
O O5 0.750000 0.549268 0.961706
O O6 0.546468 0.750000 0.958040
O O7 0.527336 0.523408 0.898739
O O8 0.500000 0.500000 0.000000
O O9 0.250000 0.950694 0.268633
O O10 0.450579 0.750000 0.273722
O O11 0.468534 0.960214 0.203089
O O12 0.750000 0.404578 0.853962
O O13 0.979156 0.250000 0.867831
O O14 0.500000 0.500000 0.500000
O O15 0.250000 0.444793 0.535922
O O16 0.457391 0.250000 0.545998
#
# Coordination Sequence:
#
# PCOD8242831 Si02
#       5
#     8   8   8   8   8
#     4  10  21  36  53  75 105 139 172 207 250 298
#     4  10  20  33  51  75 101 131 168 208 252 302
#     4   9  18  33  54  79 103 130 168 210 251 299
#     4   8  15  30  51  73  99 131 166 206 252 299
#     4  10  21  37  57  79 103 134 171 209 252 301
#
# _framework density 18.175035999999999
#
# number of rings (size 3 to 8) (size 9 to 14) (size 15 to 20)
#    0.000    2.600    0.000    3.000    0.000    5.600 
#    0.000    3.000    0.000    1.200    0.000    0.000 
#    0.000    0.000    0.000    0.000    0.000    0.000 
#
# Total GULP energy -495989.079071 kJ/mol
# GULP energy per Si atom -12399.726977 kJ/mol
# Density = 1.813367 g / cm^3
# Si number density = 18.175036 Si / 1000 Ang^3
#
#
#
# Elastic Constant Matrix: (Units=GPa)
#
#
# Indices 1 2 3 4 5 6 
#
# 1 38.8469 49.4305 52.4332 0.0000 0.0000 0.0000
# 2 49.4305 137.2987 96.1637 0.0000 0.0000 0.0000
# 3 52.4332 96.1637 165.0953 0.0000 0.0000 0.0000
# 4 0.0000 0.0000 0.0000 42.4795 0.0000 0.0000
# 5 0.0000 0.0000 0.0000 0.0000 33.5872 0.0000
# 6 0.0000 0.0000 0.0000 0.0000 0.0000 29.1288
#
#
#
# Elastic Compliance Matrix: (Units=1/GPa)
#
#
# Indices 1 2 3 4 5 6 
#
# 1 0.056164 -0.013052 -0.010235 0.000000 0.000000 0.000000
# 2 -0.013052 0.015335 -0.004787 0.000000 0.000000 0.000000
# 3 -0.010235 -0.004787 0.012096 0.000000 0.000000 0.000000
# 4 0.000000 0.000000 0.000000 0.023541 0.000000 0.000000
# 5 0.000000 0.000000 0.000000 0.000000 0.029773 0.000000
# 6 0.000000 0.000000 0.000000 0.000000 0.000000 0.034330
#
#
# Mechanical properties :
#
#
# Convention : Reuss Voigt Hill
#
# Bulk Modulus (GPa) = 36.43304 81.92174 59.17739
# Shear Modulus (GPa) = 21.13829 30.58668 25.86248
#
# Velocity S-wave (km/s) = 3.41404 4.10676 3.77632
# Velocity P-wave (km/s) = 5.96909 8.22551 7.18641
#
# Compressibility (1/GPa) = 0.02744762
#
# Stress axis : x y z
#
# Youngs Moduli (GPa) = 17.80486 65.20915 82.67070
#
# Poissons Ratio (x) = 0.85109 0.84615
# Poissons Ratio (y) = 0.23238 0.39577
# Poissons Ratio (z) = 0.18224 0.31217
#
# Static dielectric constant tensor:
#      x y z
#    x 3.079570 0.000000 0.000000 
#    y 0.000000 -2.999580 0.000000 
#    z 0.000000 0.000000 3.670820 
# 
# 
# High freq. dielectric constant tensor:
#      x y z
#    x 1.675150 0.000000 0.000000 
#    y 0.000000 1.712740 0.000000 
#    z 0.000000 0.000000 1.719340 
# 
# From -- ./inp_files/28726.got.cif
#   From: 2010.03.12/outbox.cif.g09.slc.cpg/sg59_15_cif.got.tgz:28726.got - 2010.04.16 16:29:54.
