data_PCOD8242266
_publ_section_title
;
Structure prediction by ZEFSAII (Michael W. Deem and Ramdas Pophale) SiO2 
 PCOD8242266
Probable space group: P M M N
;
_chemical_formula_sum "Si O2"
_cell_formula_units_Z 64
_cell_length_a 14.397483
_cell_length_b 17.829236
_cell_length_c 12.463420
_cell_angle_alpha 90.000000
_cell_angle_beta 90.000000
_cell_angle_gamma 90.000000
_cell_volume 3199.311584
_symmetry_space_group_name_H-M "P M M N"
_symmetry_group_IT_number 59
_space_group.IT_coordinate_system_code '2'
_symmetry_cell_setting 'orthorhombic'
loop_
_space_group_symop_operation_xyz
x,y,z
1/2-x,1/2-y,z
1/2+x,-y,-z
-x,1/2+y,-z
-x,-y,-z
1/2+x,1/2+y,-z
1/2-x,y,z
x,1/2-y,z
loop_
_atom_site_type_symbol
_atom_site_label
_atom_site_fract_x
_atom_site_fract_y
_atom_site_fract_z
Si Si1 0.856925 0.838026 0.904067
Si Si2 0.968162 0.165295 0.605992
Si Si3 0.088552 0.047427 0.528176
Si Si4 0.638725 0.406422 0.787270
Si Si5 0.357453 0.066758 0.293549
Si Si6 0.976947 0.412714 0.998396
Si Si7 0.147570 0.894038 0.589264
Si Si8 0.140629 0.837362 0.819589
O O1 0.750000 0.861240 0.929259
O O2 0.867293 0.750000 0.896329
O O3 0.894493 0.870831 0.789975
O O4 0.923807 0.869396 0.998117
O O5 0.003277 0.250000 0.605782
O O6 0.894480 0.155005 0.701581
O O7 0.919585 0.144896 0.494663
O O8 0.061039 0.112895 0.613070
O O9 0.123734 0.085938 0.417745
O O10 0.157089 0.985276 0.578853
O O11 0.000000 0.000000 0.500000
O O12 0.750000 0.401034 0.805404
O O13 0.603269 0.485471 0.739241
O O14 0.583030 0.389708 0.895402
O O15 0.250000 0.062247 0.274252
O O16 0.914183 0.388480 0.097616
O O17 0.000000 0.500000 0.000000
O O18 0.250000 0.860502 0.571131
O O19 0.109890 0.870280 0.704968
O O20 0.250000 0.847726 0.838818
O O21 0.112179 0.750000 0.829946
#
# Coordination Sequence:
#
# PCOD8242266 Si02
#       8
#     8   8   8   8   8   8   8   8
#     4  10  23  42  64  92 123 158 209 266 318 371
#     4  11  24  37  57  90 127 165 204 249 307 365
#     4  10  20  33  57  87 126 156 202 247 296 362
#     4  11  23  41  63  91 125 164 211 259 308 372
#     4  10  19  37  63  91 122 160 204 255 310 365
#     4  12  25  38  66  92 124 162 207 256 314 371
#     4  10  20  37  63  90 119 160 202 247 304 366
#     4  10  23  41  61  93 131 161 200 256 319 378
#
# _framework density 20.004303
#
# number of rings (size 3 to 8) (size 9 to 14) (size 15 to 20)
#    0.000    1.500    3.750    1.875    5.250    3.500 
#    0.000    0.000    0.000    1.125    0.000    0.000 
#    0.000    0.000    0.000    0.000    0.000    0.000 
#
# Total GULP energy -793265.943299 kJ/mol
# GULP energy per Si atom -12394.780364 kJ/mol
# Density = 1.995877 g / cm^3
# Si number density = 20.004303 Si / 1000 Ang^3
#
#
#
# Elastic Constant Matrix: (Units=GPa)
#
#
# Indices 1 2 3 4 5 6 
#
# 1 60.0343 33.1708 45.4125 0.0000 0.0000 0.0000
# 2 33.1708 123.0055 47.4373 0.0000 0.0000 0.0000
# 3 45.4125 47.4373 117.5962 0.0000 0.0000 0.0000
# 4 0.0000 0.0000 0.0000 31.5827 0.0000 0.0000
# 5 0.0000 0.0000 0.0000 0.0000 38.3998 0.0000
# 6 0.0000 0.0000 0.0000 0.0000 0.0000 27.4029
#
#
#
# Elastic Compliance Matrix: (Units=1/GPa)
#
#
# Indices 1 2 3 4 5 6 
#
# 1 0.024769 -0.003542 -0.008136 0.000000 0.000000 0.000000
# 2 -0.003542 0.010134 -0.002720 0.000000 0.000000 0.000000
# 3 -0.008136 -0.002720 0.012743 0.000000 0.000000 0.000000
# 4 0.000000 0.000000 0.000000 0.031663 0.000000 0.000000
# 5 0.000000 0.000000 0.000000 0.000000 0.026042 0.000000
# 6 0.000000 0.000000 0.000000 0.000000 0.000000 0.036493
#
#
# Mechanical properties :
#
#
# Convention : Reuss Voigt Hill
#
# Bulk Modulus (GPa) = 53.05261 61.40858 57.23060
# Shear Modulus (GPa) = 28.26102 31.11809 29.68956
#
# Velocity S-wave (km/s) = 3.76273 3.94835 3.85666
# Velocity P-wave (km/s) = 6.74208 7.17985 6.96441
#
# Compressibility (1/GPa) = 0.01884921
#
# Stress axis : x y z
#
# Youngs Moduli (GPa) = 40.37368 98.67933 78.47414
#
# Poissons Ratio (x) = 0.34948 0.63849
# Poissons Ratio (y) = 0.14298 0.21347
# Poissons Ratio (z) = 0.32849 0.26843
#
# Static dielectric constant tensor:
#      x y z
#    x 3.954550 0.000000 0.000000 
#    y 0.000000 4.061890 0.000000 
#    z 0.000000 0.000000 3.450820 
# 
# 
# High freq. dielectric constant tensor:
#      x y z
#    x 1.784140 0.000000 0.000000 
#    y 0.000000 1.777670 0.000000 
#    z 0.000000 0.000000 1.771730 
# 
# From -- ./inp_files/17199.got.cif
#   From: 2010.03.12/outbox.cif.g09.slc.cpg/sg59_9_cif.got.tgz:17199.got - 2010.04.16 16:29:54.
