data_PCOD8242868
_publ_section_title
;
Structure prediction by ZEFSAII (Michael W. Deem and Ramdas Pophale) SiO2 
 PCOD8242868
Probable space group: P M M N
;
_chemical_formula_sum "Si O2"
_cell_formula_units_Z 64
_cell_length_a 9.473145
_cell_length_b 14.912266
_cell_length_c 23.954275
_cell_angle_alpha 90.000000
_cell_angle_beta 90.000000
_cell_angle_gamma 90.000000
_cell_volume 3383.926004
_symmetry_space_group_name_H-M "P M M N"
_symmetry_group_IT_number 59
_space_group.IT_coordinate_system_code '2'
_symmetry_cell_setting 'orthorhombic'
loop_
_space_group_symop_operation_xyz
x,y,z
1/2-x,1/2-y,z
1/2+x,-y,-z
-x,1/2+y,-z
-x,-y,-z
1/2+x,1/2+y,-z
1/2-x,y,z
x,1/2-y,z
loop_
_atom_site_type_symbol
_atom_site_label
_atom_site_fract_x
_atom_site_fract_y
_atom_site_fract_z
Si Si1 0.093469 0.856258 0.942552
Si Si2 0.916248 0.147578 0.182401
Si Si3 0.086283 0.853125 0.149261
Si Si4 0.587717 0.354215 0.423749
Si Si5 0.414398 0.999085 0.367342
Si Si6 0.417737 0.651082 0.450720
Si Si7 0.087637 0.502328 0.239963
Si Si8 0.908813 0.643352 0.043244
O O1 0.250000 0.896067 0.953649
O O2 0.102277 0.750000 0.947706
O O3 0.041104 0.881775 0.880514
O O4 0.985014 0.896108 0.988009
O O5 0.750000 0.136888 0.191070
O O6 0.962345 0.250000 0.193811
O O7 0.996070 0.084438 0.225527
O O8 0.250000 0.863355 0.132761
O O9 0.050283 0.750000 0.163619
O O10 0.993606 0.888987 0.097643
O O11 0.045246 0.911846 0.202953
O O12 0.750000 0.382511 0.416244
O O13 0.567419 0.250000 0.410055
O O14 0.494075 0.408797 0.380130
O O15 0.535432 0.375710 0.486696
O O16 0.250000 0.014479 0.379503
O O17 0.441559 0.970469 0.303703
O O18 0.477566 0.920437 0.406530
O O19 0.250000 0.654850 0.448171
O O20 0.477680 0.750000 0.435708
O O21 0.250000 0.476226 0.230311
O O22 0.750000 0.605042 0.045950
O O23 0.907776 0.750000 0.040488
#
# Coordination Sequence:
#
# PCOD8242868 Si02
#       8
#     8   8   8   8   8   8   8   8
#     4   8  14  27  48  72  96 123 158 200 247 301
#     4   9  19  36  56  75  97 131 172 209 249 300
#     4   9  18  34  53  70  95 133 170 205 248 298
#     4   9  18  33  53  77 104 135 170 204 243 297
#     4  10  20  33  51  76 104 133 167 210 255 294
#     4   8  15  30  53  79 105 133 166 205 249 297
#     4  10  22  36  50  74 103 131 170 214 252 293
#     4   9  16  26  45  75 103 125 156 200 251 305
#
# _framework density 18.912942999999999
#
# number of rings (size 3 to 8) (size 9 to 14) (size 15 to 20)
#    0.000    3.000    0.000    2.250    0.000    4.500 
#    0.000    6.875    0.000    1.125    0.000    1.750 
#    0.000    0.000    0.000    0.000    0.000    0.000 
#
# Total GULP energy -793516.920622 kJ/mol
# GULP energy per Si atom -12398.701885 kJ/mol
# Density = 1.886990 g / cm^3
# Si number density = 18.912943 Si / 1000 Ang^3
#
#
#
# Elastic Constant Matrix: (Units=GPa)
#
#
# Indices 1 2 3 4 5 6 
#
# 1 56.8598 22.3074 30.3039 0.0000 0.0000 0.0000
# 2 22.3074 58.8220 23.0643 0.0000 0.0000 0.0000
# 3 30.3039 23.0643 74.9276 0.0000 0.0000 0.0000
# 4 0.0000 0.0000 0.0000 19.1779 0.0000 0.0000
# 5 0.0000 0.0000 0.0000 0.0000 27.0423 0.0000
# 6 0.0000 0.0000 0.0000 0.0000 0.0000 19.1610
#
#
#
# Elastic Compliance Matrix: (Units=1/GPa)
#
#
# Indices 1 2 3 4 5 6 
#
# 1 0.024186 -0.006069 -0.007914 0.000000 0.000000 0.000000
# 2 -0.006069 0.020857 -0.003966 0.000000 0.000000 0.000000
# 3 -0.007914 -0.003966 0.017767 0.000000 0.000000 0.000000
# 4 0.000000 0.000000 0.000000 0.052143 0.000000 0.000000
# 5 0.000000 0.000000 0.000000 0.000000 0.036979 0.000000
# 6 0.000000 0.000000 0.000000 0.000000 0.000000 0.052189
#
#
# Mechanical properties :
#
#
# Convention : Reuss Voigt Hill
#
# Bulk Modulus (GPa) = 37.15587 37.99563 37.57575
# Shear Modulus (GPa) = 20.08114 20.73849 20.40982
#
# Velocity S-wave (km/s) = 3.26201 3.31497 3.28860
# Velocity P-wave (km/s) = 5.82031 5.89792 5.85924
#
# Compressibility (1/GPa) = 0.02691365
#
# Stress axis : x y z
#
# Youngs Moduli (GPa) = 41.34660 47.94545 56.28259
#
# Poissons Ratio (x) = 0.29099 0.44539
# Poissons Ratio (y) = 0.25094 0.22319
# Poissons Ratio (z) = 0.32720 0.19013
#
# Static dielectric constant tensor:
#      x y z
#    x 3.356360 0.000000 0.000000 
#    y 0.000000 3.360700 0.000000 
#    z 0.000000 0.000000 3.518730 
# 
# 
# High freq. dielectric constant tensor:
#      x y z
#    x 1.715380 0.000000 0.000000 
#    y 0.000000 1.727710 0.000000 
#    z 0.000000 0.000000 1.733920 
# 
# From -- ./inp_files/31437.got.cif
#   From: 2010.03.12/outbox.cif.g09.slc.cpg/sg59_16_cif.got.tgz:31437.got - 2010.04.16 16:29:54.
