data_PCOD8242545
_publ_section_title
;
Structure prediction by ZEFSAII (Michael W. Deem and Ramdas Pophale) SiO2 
 PCOD8242545
Probable space group: P M M N
;
_chemical_formula_sum "Si O2"
_cell_formula_units_Z 48
_cell_length_a 9.370044
_cell_length_b 9.105770
_cell_length_c 30.619228
_cell_angle_alpha 90.000000
_cell_angle_beta 90.000000
_cell_angle_gamma 90.000000
_cell_volume 2612.477407
_symmetry_space_group_name_H-M "P M M N"
_symmetry_group_IT_number 59
_space_group.IT_coordinate_system_code '2'
_symmetry_cell_setting 'orthorhombic'
loop_
_space_group_symop_operation_xyz
x,y,z
1/2-x,1/2-y,z
1/2+x,-y,-z
-x,1/2+y,-z
-x,-y,-z
1/2+x,1/2+y,-z
1/2-x,y,z
x,1/2-y,z
loop_
_atom_site_type_symbol
_atom_site_label
_atom_site_fract_x
_atom_site_fract_y
_atom_site_fract_z
Si Si1 0.410596 0.924501 0.208088
Si Si2 0.416600 0.420980 0.613556
Si Si3 0.916579 0.080867 0.134473
Si Si4 0.909964 0.078784 0.036317
Si Si5 0.407445 0.075926 0.711914
Si Si6 0.416595 0.423342 0.461019
O O1 0.250000 0.985432 0.206758
O O2 0.413102 0.750000 0.208163
O O3 0.483378 0.987548 0.252235
O O4 0.493835 0.977702 0.165790
O O5 0.250000 0.451262 0.603484
O O6 0.450848 0.250000 0.605094
O O7 0.454870 0.467706 0.663093
O O8 0.517333 0.520907 0.584145
O O9 0.750000 0.044486 0.139762
O O10 0.946038 0.250000 0.146182
O O11 0.967749 0.046710 0.085079
O O12 0.750000 0.018311 0.032688
O O13 0.914365 0.250000 0.026682
O O14 0.000000 0.000000 0.000000
O O15 0.250000 0.011295 0.721925
O O16 0.400336 0.250000 0.714873
O O17 0.500000 0.500000 0.500000
O O18 0.250000 0.465729 0.463224
O O19 0.438175 0.250000 0.464843
#
# Coordination Sequence:
#
# PCOD8242545 Si02
#       6
#     8   8   8   8   8   8
#     4  10  20  32  49  77 108 135 168 211 255 299
#     4   9  18  34  57  83 107 133 170 213 255 302
#     4   9  19  36  54  71  96 133 173 209 249 300
#     4   9  19  35  53  74 100 129 164 207 252 301
#     4   8  15  30  52  76 103 136 172 209 249 296
#     4  11  24  39  55  78 107 138 174 214 255 303
#
# _framework density 18.373363999999999
#
# number of rings (size 3 to 8) (size 9 to 14) (size 15 to 20)
#    0.000    2.667    0.000    3.500    0.000    7.333 
#    0.000    7.500    0.000    1.000    0.000    0.000 
#    0.000    0.000    0.000    0.000    0.000    0.000 
#
# Total GULP energy -595112.831394 kJ/mol
# GULP energy per Si atom -12398.183987 kJ/mol
# Density = 1.833155 g / cm^3
# Si number density = 18.373364 Si / 1000 Ang^3
#
#
#
# Elastic Constant Matrix: (Units=GPa)
#
#
# Indices 1 2 3 4 5 6 
#
# 1 109.9833 41.2023 79.2236 0.0000 0.0000 0.0000
# 2 41.2023 41.9668 41.2954 0.0000 0.0000 0.0000
# 3 79.2236 41.2954 142.3883 0.0000 0.0000 0.0000
# 4 0.0000 0.0000 0.0000 31.9261 0.0000 0.0000
# 5 0.0000 0.0000 0.0000 0.0000 37.8258 0.0000
# 6 0.0000 0.0000 0.0000 0.0000 0.0000 28.9958
#
#
#
# Elastic Compliance Matrix: (Units=1/GPa)
#
#
# Indices 1 2 3 4 5 6 
#
# 1 0.018239 -0.011084 -0.006933 0.000000 0.000000 0.000000
# 2 -0.011084 0.040080 -0.005457 0.000000 0.000000 0.000000
# 3 -0.006933 -0.005457 0.012463 0.000000 0.000000 0.000000
# 4 0.000000 0.000000 0.000000 0.031322 0.000000 0.000000
# 5 0.000000 0.000000 0.000000 0.000000 0.026437 0.000000
# 6 0.000000 0.000000 0.000000 0.000000 0.000000 0.034488
#
#
# Mechanical properties :
#
#
# Convention : Reuss Voigt Hill
#
# Bulk Modulus (GPa) = 41.95764 68.64235 55.29999
# Shear Modulus (GPa) = 22.94385 28.59069 25.76727
#
# Velocity S-wave (km/s) = 3.53761 3.94902 3.74896
# Velocity P-wave (km/s) = 6.29062 7.63111 6.99306
#
# Compressibility (1/GPa) = 0.02383356
#
# Stress axis : x y z
#
# Youngs Moduli (GPa) = 54.82758 24.94986 80.23554
#
# Poissons Ratio (x) = 0.27655 0.55630
# Poissons Ratio (y) = 0.60773 0.43784
# Poissons Ratio (z) = 0.38014 0.13615
#
# Static dielectric constant tensor:
#      x y z
#    x 3.633670 0.000000 0.000000 
#    y 0.000000 3.103010 0.000000 
#    z 0.000000 0.000000 3.554200 
# 
# 
# High freq. dielectric constant tensor:
#      x y z
#    x 1.713000 0.000000 0.000000 
#    y 0.000000 1.687480 0.000000 
#    z 0.000000 0.000000 1.728180 
# 
# From -- ./inp_files/32811.got.cif
#   From: 2010.03.12/outbox.cif.g09.slc.cpg/sg59_17_cif.got.tgz:32811.got - 2010.04.16 16:29:54.
