data_PCOD8242820
_publ_section_title
;
Structure prediction by ZEFSAII (Michael W. Deem and Ramdas Pophale) SiO2 
 PCOD8242820
Probable space group: P M M N
;
_chemical_formula_sum "Si O2"
_cell_formula_units_Z 56
_cell_length_a 9.359810
_cell_length_b 15.587737
_cell_length_c 19.798523
_cell_angle_alpha 90.000000
_cell_angle_beta 90.000000
_cell_angle_gamma 90.000000
_cell_volume 2888.569990
_symmetry_space_group_name_H-M "P M M N"
_symmetry_group_IT_number 59
_space_group.IT_coordinate_system_code '2'
_symmetry_cell_setting 'orthorhombic'
loop_
_space_group_symop_operation_xyz
x,y,z
1/2-x,1/2-y,z
1/2+x,-y,-z
-x,1/2+y,-z
-x,-y,-z
1/2+x,1/2+y,-z
1/2-x,y,z
x,1/2-y,z
loop_
_atom_site_type_symbol
_atom_site_label
_atom_site_fract_x
_atom_site_fract_y
_atom_site_fract_z
Si Si1 0.582733 0.499087 0.569362
Si Si2 0.414683 0.591903 0.077829
Si Si3 0.914031 0.421313 0.069647
Si Si4 0.583662 0.349629 0.671300
Si Si5 0.407377 0.348412 0.799043
Si Si6 0.904764 0.348956 0.209902
Si Si7 0.916864 0.848248 0.666135
O O1 0.500000 0.500000 0.500000
O O2 0.750000 0.500343 0.554067
O O3 0.541404 0.412212 0.609722
O O4 0.535930 0.586156 0.607808
O O5 0.250000 0.594876 0.101202
O O6 0.469549 0.495304 0.074881
O O7 0.509070 0.643941 0.130654
O O8 0.432231 0.629747 0.001524
O O9 0.750000 0.455998 0.073620
O O10 0.952793 0.360711 0.132475
O O11 0.750000 0.358811 0.689057
O O12 0.547076 0.250000 0.653008
O O13 0.498026 0.385459 0.736459
O O14 0.250000 0.393012 0.803305
O O15 0.384614 0.250000 0.783736
O O16 0.750000 0.393244 0.221474
O O17 0.891447 0.250000 0.224543
O O18 0.015519 0.385273 0.264496
O O19 0.750000 0.852426 0.678601
O O20 0.963726 0.750000 0.647903
#
# Coordination Sequence:
#
# PCOD8242820 Si02
#       7
#     8   8   8   8   8   8   8
#     4  10  22  38  57  84 112 141 179 217 263 325
#     4  10  20  33  51  74 104 142 182 225 274 326
#     4   9  19  34  50  73 105 141 181 226 273 321
#     4   9  19  37  58  81 111 144 181 227 273 321
#     4  10  21  36  54  78 107 139 179 227 277 329
#     4   9  18  33  53  77 103 134 176 223 269 317
#     4   9  19  36  55  78 111 145 177 218 265 317
#
# _framework density 19.386755000000001
#
# number of rings (size 3 to 8) (size 9 to 14) (size 15 to 20)
#    0.000    2.571    0.000    0.857    2.000    4.286 
#    0.000    1.429    0.000    1.714    0.000    0.000 
#    0.000    0.000    0.000    0.000    0.000    0.000 
#
# Total GULP energy -693937.216470 kJ/mol
# GULP energy per Si atom -12391.736008 kJ/mol
# Density = 1.934263 g / cm^3
# Si number density = 19.386755 Si / 1000 Ang^3
#
#
#
# Elastic Constant Matrix: (Units=GPa)
#
#
# Indices 1 2 3 4 5 6 
#
# 1 87.9087 33.8031 76.6940 0.0000 0.0000 0.0000
# 2 33.8031 70.6258 56.7276 0.0000 0.0000 0.0000
# 3 76.6940 56.7276 180.4624 0.0000 0.0000 0.0000
# 4 0.0000 0.0000 0.0000 31.8487 0.0000 0.0000
# 5 0.0000 0.0000 0.0000 0.0000 38.4881 0.0000
# 6 0.0000 0.0000 0.0000 0.0000 0.0000 19.5345
#
#
#
# Elastic Compliance Matrix: (Units=1/GPa)
#
#
# Indices 1 2 3 4 5 6 
#
# 1 0.018680 -0.003430 -0.006860 0.000000 0.000000 0.000000
# 2 -0.003430 0.019572 -0.004694 0.000000 0.000000 0.000000
# 3 -0.006860 -0.004694 0.009933 0.000000 0.000000 0.000000
# 4 0.000000 0.000000 0.000000 0.031398 0.000000 0.000000
# 5 0.000000 0.000000 0.000000 0.000000 0.025982 0.000000
# 6 0.000000 0.000000 0.000000 0.000000 0.000000 0.051191
#
#
# Mechanical properties :
#
#
# Convention : Reuss Voigt Hill
#
# Bulk Modulus (GPa) = 54.90349 74.82738 64.86544
# Shear Modulus (GPa) = 25.93409 29.42576 27.67992
#
# Velocity S-wave (km/s) = 3.66146 3.90016 3.78269
# Velocity P-wave (km/s) = 6.80122 7.67871 7.25325
#
# Compressibility (1/GPa) = 0.01821378
#
# Stress axis : x y z
#
# Youngs Moduli (GPa) = 53.53459 51.09458 100.67932
#
# Poissons Ratio (x) = 0.17526 0.69069
# Poissons Ratio (y) = 0.18363 0.47264
# Poissons Ratio (z) = 0.36726 0.23986
#
# Static dielectric constant tensor:
#      x y z
#    x 3.907390 0.000000 0.000000 
#    y 0.000000 3.497940 0.000000 
#    z 0.000000 0.000000 3.657980 
# 
# 
# High freq. dielectric constant tensor:
#      x y z
#    x 1.755880 0.000000 0.000000 
#    y 0.000000 1.739740 0.000000 
#    z 0.000000 0.000000 1.757450 
# 
# From -- ./inp_files/29022.got.cif
#   From: 2010.03.12/outbox.cif.g09.slc.cpg/sg59_15_cif.got.tgz:29022.got - 2010.04.16 16:29:54.
