data_PCOD8242735
_publ_section_title
;
Structure prediction by ZEFSAII (Michael W. Deem and Ramdas Pophale) SiO2 
 PCOD8242735
Probable space group: P M M N
;
_chemical_formula_sum "Si O2"
_cell_formula_units_Z 40
_cell_length_a 8.960140
_cell_length_b 9.161920
_cell_length_c 25.945378
_cell_angle_alpha 90.000000
_cell_angle_beta 90.000000
_cell_angle_gamma 90.000000
_cell_volume 2129.910199
_symmetry_space_group_name_H-M "P M M N"
_symmetry_group_IT_number 59
_space_group.IT_coordinate_system_code '2'
_symmetry_cell_setting 'orthorhombic'
loop_
_space_group_symop_operation_xyz
x,y,z
1/2-x,1/2-y,z
1/2+x,-y,-z
-x,1/2+y,-z
-x,-y,-z
1/2+x,1/2+y,-z
1/2-x,y,z
x,1/2-y,z
loop_
_atom_site_type_symbol
_atom_site_label
_atom_site_fract_x
_atom_site_fract_y
_atom_site_fract_z
Si Si1 0.922653 0.078601 0.140380
Si Si2 0.915869 0.576754 0.757920
Si Si3 0.926676 0.083283 0.546861
Si Si4 0.572384 0.912625 0.645654
Si Si5 0.574103 0.081235 0.952589
O O1 0.750000 0.040987 0.132486
O O2 0.953554 0.250000 0.132403
O O3 0.971736 0.026183 0.197321
O O4 0.019824 0.989331 0.100208
O O5 0.750000 0.512966 0.769115
O O6 0.905600 0.750000 0.755688
O O7 0.976999 0.524329 0.701852
O O8 0.750000 0.066044 0.542904
O O9 0.977883 0.250000 0.544693
O O10 0.987703 0.016983 0.600549
O O11 0.000000 0.000000 0.500000
O O12 0.750000 0.905807 0.645209
O O13 0.507133 0.750000 0.636334
O O14 0.750000 0.062269 0.957059
O O15 0.526732 0.250000 0.953946
O O16 0.500000 0.000000 0.000000
#
# Coordination Sequence:
#
# PCOD8242735 Si02
#       5
#     8   8   8   8   8
#     4  10  20  34  54  81 111 142 175 210 251 301
#     4   8  14  27  49  74  99 132 173 212 251 297
#     4  10  20  33  50  73 100 132 170 211 258 310
#     4   8  14  27  48  71  96 130 171 212 253 299
#     4  11  24  40  58  81 107 137 175 216 259 307
#
# _framework density 18.780134
#
# number of rings (size 3 to 8) (size 9 to 14) (size 15 to 20)
#    0.000    2.600    0.000    3.600    0.000    6.400 
#    0.000    2.000    0.000    7.200    0.000    0.000 
#    0.000    0.000    0.000    0.000    0.000    0.000 
#
# Total GULP energy -495899.077571 kJ/mol
# GULP energy per Si atom -12397.476939 kJ/mol
# Density = 1.873739 g / cm^3
# Si number density = 18.780134 Si / 1000 Ang^3
#
#
#
# Elastic Constant Matrix: (Units=GPa)
#
#
# Indices 1 2 3 4 5 6 
#
# 1 46.6781 37.6827 38.2934 0.0000 0.0000 0.0000
# 2 37.6827 102.4369 75.1378 0.0000 0.0000 0.0000
# 3 38.2934 75.1378 176.7777 0.0000 0.0000 0.0000
# 4 0.0000 0.0000 0.0000 31.7903 0.0000 0.0000
# 5 0.0000 0.0000 0.0000 0.0000 33.8738 0.0000
# 6 0.0000 0.0000 0.0000 0.0000 0.0000 22.0831
#
#
#
# Elastic Compliance Matrix: (Units=1/GPa)
#
#
# Indices 1 2 3 4 5 6 
#
# 1 0.031364 -0.009523 -0.002746 0.000000 0.000000 0.000000
# 2 -0.009523 0.017076 -0.005195 0.000000 0.000000 0.000000
# 3 -0.002746 -0.005195 0.008460 0.000000 0.000000 0.000000
# 4 0.000000 0.000000 0.000000 0.031456 0.000000 0.000000
# 5 0.000000 0.000000 0.000000 0.000000 0.029521 0.000000
# 6 0.000000 0.000000 0.000000 0.000000 0.000000 0.045283
#
#
# Mechanical properties :
#
#
# Convention : Reuss Voigt Hill
#
# Bulk Modulus (GPa) = 45.51499 69.79115 57.65307
# Shear Modulus (GPa) = 24.34106 29.20136 26.77121
#
# Velocity S-wave (km/s) = 3.60405 3.94751 3.77968
# Velocity P-wave (km/s) = 6.45037 7.61709 7.05788
#
# Compressibility (1/GPa) = 0.02197078
#
# Stress axis : x y z
#
# Youngs Moduli (GPa) = 31.88329 58.56178 118.20562
#
# Poissons Ratio (x) = 0.55770 0.32463
# Poissons Ratio (y) = 0.30364 0.61408
# Poissons Ratio (z) = 0.08756 0.30423
#
# Static dielectric constant tensor:
#      x y z
#    x 3.221950 0.000000 0.000000 
#    y 0.000000 3.365990 0.000000 
#    z 0.000000 0.000000 4.091530 
# 
# 
# High freq. dielectric constant tensor:
#      x y z
#    x 1.706370 0.000000 0.000000 
#    y 0.000000 1.707310 0.000000 
#    z 0.000000 0.000000 1.752260 
# 
# From -- ./inp_files/31133.got.cif
#   From: 2010.03.12/outbox.cif.g09.slc.cpg/sg59_16_cif.got.tgz:31133.got - 2010.04.16 16:29:54.
