data_PCOD8242651
_publ_section_title
;
Structure prediction by ZEFSAII (Michael W. Deem and Ramdas Pophale) SiO2 
 PCOD8242651
Probable space group: P M M N
;
_chemical_formula_sum "Si O2"
_cell_formula_units_Z 56
_cell_length_a 9.131328
_cell_length_b 19.683352
_cell_length_c 17.809595
_cell_angle_alpha 90.000000
_cell_angle_beta 90.000000
_cell_angle_gamma 90.000000
_cell_volume 3201.010109
_symmetry_space_group_name_H-M "P M M N"
_symmetry_group_IT_number 59
_space_group.IT_coordinate_system_code '2'
_symmetry_cell_setting 'orthorhombic'
loop_
_space_group_symop_operation_xyz
x,y,z
1/2-x,1/2-y,z
1/2+x,-y,-z
-x,1/2+y,-z
-x,-y,-z
1/2+x,1/2+y,-z
1/2-x,y,z
x,1/2-y,z
loop_
_atom_site_type_symbol
_atom_site_label
_atom_site_fract_x
_atom_site_fract_y
_atom_site_fract_z
Si Si1 0.420334 0.424772 0.082421
Si Si2 0.924338 0.825470 0.206274
Si Si3 0.920426 0.562079 0.091026
Si Si4 0.081114 0.669807 0.806923
Si Si5 0.587261 0.669304 0.371531
Si Si6 0.915277 0.669132 0.659105
Si Si7 0.585493 0.168899 0.486001
O O1 0.250000 0.423297 0.103181
O O2 0.487663 0.495413 0.110992
O O3 0.501877 0.362738 0.121852
O O4 0.447041 0.414970 0.994111
O O5 0.750000 0.821929 0.205786
O O6 0.987179 0.750000 0.188486
O O7 0.981476 0.877805 0.143821
O O8 0.975552 0.850437 0.289164
O O9 0.750000 0.546523 0.106048
O O10 0.250000 0.647782 0.804613
O O11 0.063510 0.750000 0.815113
O O12 0.005030 0.642801 0.731005
O O13 0.750000 0.638883 0.383481
O O14 0.595986 0.750000 0.376923
O O15 0.482717 0.640118 0.436633
O O16 0.750000 0.640811 0.662966
O O17 0.915040 0.750000 0.657639
O O18 0.992171 0.640778 0.584077
O O19 0.750000 0.140974 0.478809
O O20 0.584460 0.250000 0.486021
#
# Coordination Sequence:
#
# PCOD8242651 Si02
#       7
#     8   8   8   8   8   8   8
#     4  10  20  33  50  71  95 124 159 198 238 284
#     4   8  14  26  46  71  95 120 155 198 239 278
#     4   9  18  33  52  71  93 124 161 199 237 280
#     4  10  20  33  49  70  97 126 156 194 240 286
#     4   8  13  22  37  58  85 116 150 188 228 269
#     4   9  16  26  41  62  89 120 154 191 230 272
#     4   9  15  22  34  55  86 122 155 185 222 269
#
# _framework density 17.494478000000001
#
# number of rings (size 3 to 8) (size 9 to 14) (size 15 to 20)
#    0.000    3.000    0.000    2.571    0.000    5.429 
#    0.000    2.143    0.000    1.286    0.000    1.000 
#    0.000    0.000    0.000    0.000    0.000    0.000 
#
# Total GULP energy -694261.678197 kJ/mol
# GULP energy per Si atom -12397.529968 kJ/mol
# Density = 1.745466 g / cm^3
# Si number density = 17.494478 Si / 1000 Ang^3
#
#
#
# Elastic Constant Matrix: (Units=GPa)
#
#
# Indices 1 2 3 4 5 6 
#
# 1 115.7566 33.2695 62.6841 0.0000 0.0000 0.0000
# 2 33.2695 37.3926 42.3354 0.0000 0.0000 0.0000
# 3 62.6841 42.3354 118.4652 0.0000 0.0000 0.0000
# 4 0.0000 0.0000 0.0000 4.3149 0.0000 0.0000
# 5 0.0000 0.0000 0.0000 0.0000 25.7072 0.0000
# 6 0.0000 0.0000 0.0000 0.0000 0.0000 18.9969
#
#
#
# Elastic Compliance Matrix: (Units=1/GPa)
#
#
# Indices 1 2 3 4 5 6 
#
# 1 0.012940 -0.006317 -0.004589 0.000000 0.000000 0.000000
# 2 -0.006317 0.048001 -0.013811 0.000000 0.000000 0.000000
# 3 -0.004589 -0.013811 0.015805 0.000000 0.000000 0.000000
# 4 0.000000 0.000000 0.000000 0.231756 0.000000 0.000000
# 5 0.000000 0.000000 0.000000 0.000000 0.038900 0.000000
# 6 0.000000 0.000000 0.000000 0.000000 0.000000 0.052640
#
#
# Mechanical properties :
#
#
# Convention : Reuss Voigt Hill
#
# Bulk Modulus (GPa) = 36.61585 60.91026 48.76305
# Shear Modulus (GPa) = 10.90322 18.69214 14.79768
#
# Velocity S-wave (km/s) = 2.49918 3.27228 2.91150
# Velocity P-wave (km/s) = 5.41325 7.01210 6.26389
#
# Compressibility (1/GPa) = 0.02731058
#
# Stress axis : x y z
#
# Youngs Moduli (GPa) = 77.28261 20.83307 63.26942
#
# Poissons Ratio (x) = 0.13160 0.29037
# Poissons Ratio (y) = 0.48817 0.87384
# Poissons Ratio (z) = 0.35468 0.28773
#
# Static dielectric constant tensor:
#      x y z
#    x 3.305990 0.000000 0.000000 
#    y 0.000000 2.841870 0.000000 
#    z 0.000000 0.000000 3.496060 
# 
# 
# High freq. dielectric constant tensor:
#      x y z
#    x 1.672230 0.000000 0.000000 
#    y 0.000000 1.619150 0.000000 
#    z 0.000000 0.000000 1.689450 
# 
# From -- ./inp_files/26001.got.cif
#   From: 2010.03.12/outbox.cif.g09.slc.cpg/sg59_14_cif.got.tgz:26001.got - 2010.04.16 16:29:54.
