data_PCOD8242438
_publ_section_title
;
Structure prediction by ZEFSAII (Michael W. Deem and Ramdas Pophale) SiO2 
 PCOD8242438
Probable space group: P M M N
;
_chemical_formula_sum "Si O2"
_cell_formula_units_Z 56
_cell_length_a 9.146470
_cell_length_b 23.750971
_cell_length_c 14.093816
_cell_angle_alpha 90.000000
_cell_angle_beta 90.000000
_cell_angle_gamma 90.000000
_cell_volume 3061.705970
_symmetry_space_group_name_H-M "P M M N"
_symmetry_group_IT_number 59
_space_group.IT_coordinate_system_code '2'
_symmetry_cell_setting 'orthorhombic'
loop_
_space_group_symop_operation_xyz
x,y,z
1/2-x,1/2-y,z
1/2+x,-y,-z
-x,1/2+y,-z
-x,-y,-z
1/2+x,1/2+y,-z
1/2-x,y,z
x,1/2-y,z
loop_
_atom_site_type_symbol
_atom_site_label
_atom_site_fract_x
_atom_site_fract_y
_atom_site_fract_z
Si Si1 0.920681 0.415664 0.823959
Si Si2 0.918818 0.186200 0.692872
Si Si3 0.578544 0.099029 0.037517
Si Si4 0.915712 0.685209 0.843640
Si Si5 0.079173 0.185065 0.499250
Si Si6 0.922300 0.133405 0.326766
Si Si7 0.417892 0.523815 0.786722
O O1 0.750000 0.425752 0.819049
O O2 0.964111 0.356205 0.776811
O O3 0.992544 0.467191 0.767025
O O4 0.975232 0.416776 0.932535
O O5 0.750000 0.177876 0.662945
O O6 0.945865 0.250000 0.729030
O O7 0.020168 0.172334 0.603708
O O8 0.750000 0.113952 0.040684
O O9 0.489237 0.153801 0.068230
O O10 0.541564 0.048472 0.109647
O O11 0.750000 0.663601 0.827887
O O12 0.917657 0.750000 0.870938
O O13 0.006514 0.676170 0.747685
O O14 0.250000 0.170834 0.495591
O O15 0.049517 0.250000 0.471278
O O16 0.993581 0.143834 0.428691
O O17 0.750000 0.145146 0.330657
O O18 0.955638 0.069468 0.294320
O O19 0.250000 0.506935 0.782557
#
# Coordination Sequence:
#
# PCOD8242438 Si02
#       7
#     8   8   8   8   8   8   8
#     4  10  20  34  55  79 100 131 175 216 256 301
#     4   9  19  36  55  76 103 133 168 211 255 302
#     4   9  19  34  51  74 103 137 177 215 254 304
#     4  10  20  32  47  73 107 138 171 212 257 305
#     4  10  20  34  54  80 106 133 168 209 254 304
#     4  10  20  34  53  77 104 136 172 207 251 307
#     4   9  19  34  51  75 106 136 168 208 254 306
#
# _framework density 18.290457
#
# number of rings (size 3 to 8) (size 9 to 14) (size 15 to 20)
#    0.000    2.429    0.000    3.000    0.000    8.286 
#    0.000    2.143    0.000    1.714    0.000    0.000 
#    0.000    0.000    0.000    0.000    0.000    0.000 
#
# Total GULP energy -694495.707685 kJ/mol
# GULP energy per Si atom -12401.709066 kJ/mol
# Density = 1.824883 g / cm^3
# Si number density = 18.290457 Si / 1000 Ang^3
#
#
#
# Elastic Constant Matrix: (Units=GPa)
#
#
# Indices 1 2 3 4 5 6 
#
# 1 79.9500 50.5586 40.3643 0.0000 0.0000 0.0000
# 2 50.5586 111.3109 52.5852 0.0000 0.0000 0.0000
# 3 40.3643 52.5852 84.4324 0.0000 0.0000 0.0000
# 4 0.0000 0.0000 0.0000 22.1942 0.0000 0.0000
# 5 0.0000 0.0000 0.0000 0.0000 21.6333 0.0000
# 6 0.0000 0.0000 0.0000 0.0000 0.0000 33.1341
#
#
#
# Elastic Compliance Matrix: (Units=1/GPa)
#
#
# Indices 1 2 3 4 5 6 
#
# 1 0.019074 -0.006172 -0.005275 0.000000 0.000000 0.000000
# 2 -0.006172 0.014726 -0.006221 0.000000 0.000000 0.000000
# 3 -0.005275 -0.006221 0.018240 0.000000 0.000000 0.000000
# 4 0.000000 0.000000 0.000000 0.045057 0.000000 0.000000
# 5 0.000000 0.000000 0.000000 0.000000 0.046225 0.000000
# 6 0.000000 0.000000 0.000000 0.000000 0.000000 0.030180
#
#
# Mechanical properties :
#
#
# Convention : Reuss Voigt Hill
#
# Bulk Modulus (GPa) = 59.86277 62.52328 61.19302
# Shear Modulus (GPa) = 23.32038 24.20469 23.76253
#
# Velocity S-wave (km/s) = 3.57459 3.64174 3.60832
# Velocity P-wave (km/s) = 7.05953 7.20699 7.13364
#
# Compressibility (1/GPa) = 0.01670487
#
# Stress axis : x y z
#
# Youngs Moduli (GPa) = 52.42830 67.90731 54.82458
#
# Poissons Ratio (x) = 0.41909 0.28919
# Poissons Ratio (y) = 0.32356 0.34107
# Poissons Ratio (z) = 0.27655 0.42245
#
# Static dielectric constant tensor:
#      x y z
#    x 3.408010 0.000000 0.000000 
#    y 0.000000 3.298700 0.000000 
#    z 0.000000 0.000000 3.326690 
# 
# 
# High freq. dielectric constant tensor:
#      x y z
#    x 1.714130 0.000000 0.000000 
#    y 0.000000 1.704040 0.000000 
#    z 0.000000 0.000000 1.698220 
# 
# From -- ./inp_files/20918.got.cif
#   From: 2010.03.12/outbox.cif.g09.slc.cpg/sg59_11_cif.got.tgz:20918.got - 2010.04.16 16:29:54.
