data_PCOD8242077
_publ_section_title
;
Structure prediction by ZEFSAII (Michael W. Deem and Ramdas Pophale) SiO2 
 PCOD8242077
Probable space group: P M M N
;
_chemical_formula_sum "Si O2"
_cell_formula_units_Z 52
_cell_length_a 12.252275
_cell_length_b 28.574934
_cell_length_c 7.957017
_cell_angle_alpha 90.000000
_cell_angle_beta 90.000000
_cell_angle_gamma 90.000000
_cell_volume 2785.814906
_symmetry_space_group_name_H-M "P M M N"
_symmetry_group_IT_number 59
_space_group.IT_coordinate_system_code '2'
_symmetry_cell_setting 'orthorhombic'
loop_
_space_group_symop_operation_xyz
x,y,z
1/2-x,1/2-y,z
1/2+x,-y,-z
-x,1/2+y,-z
-x,-y,-z
1/2+x,1/2+y,-z
1/2-x,y,z
x,1/2-y,z
loop_
_atom_site_type_symbol
_atom_site_label
_atom_site_fract_x
_atom_site_fract_y
_atom_site_fract_z
Si Si1 0.018127 0.933167 0.139672
Si Si2 0.377504 0.524405 0.822625
Si Si3 0.074039 0.250000 0.942793
Si Si4 0.378884 0.582862 0.504175
Si Si5 0.372268 0.350353 0.810330
Si Si6 0.123470 0.250000 0.323319
Si Si7 0.621406 0.250000 0.731723
Si Si8 0.995687 0.173683 0.514107
O O1 0.082176 0.929709 0.316141
O O2 0.954159 0.885191 0.091441
O O3 0.098129 0.942432 0.983084
O O4 0.931680 0.974415 0.154873
O O5 0.250000 0.516006 0.813735
O O6 0.419804 0.546502 0.646461
O O7 0.123678 0.203778 0.860923
O O8 0.942562 0.250000 0.911435
O O9 0.117236 0.250000 0.127319
O O10 0.250000 0.584844 0.501539
O O11 0.422487 0.633298 0.567920
O O12 0.250000 0.369505 0.830865
O O13 0.408618 0.352152 0.616845
O O14 0.250000 0.250000 0.385180
O O15 0.058273 0.204203 0.377915
O O16 0.750000 0.250000 0.766662
O O17 0.585291 0.295832 0.630070
#
# Coordination Sequence:
#
# PCOD8242077 Si02
#       8
#     8   8   4   8   8   4   4   8
#     4  10  21  36  58  83 111 145 187 231 274 336
#     4  10  21  37  57  82 112 146 184 230 282 331
#     4  10  22  34  52  82 110 144 180 226 272 340
#     4  10  20  36  57  81 112 147 184 230 282 335
#     4  10  19  35  56  78 106 144 183 223 275 328
#     4  11  21  35  54  78 114 147 181 231 286 336
#     4   9  17  35  54  72 102 141 181 225 272 326
#     4   9  20  33  54  78 105 139 186 227 272 337
#
# _framework density 18.665991999999999
#
# number of rings (size 3 to 8) (size 9 to 14) (size 15 to 20)
#    0.000    2.154    0.000    3.462    2.154    0.000 
#    0.000    3.077    0.000    5.538    0.000    0.000 
#    0.000    0.000    0.000    0.000    0.000    0.000 
#
# Total GULP energy -644467.592471 kJ/mol
# GULP energy per Si atom -12393.607548 kJ/mol
# Density = 1.862351 g / cm^3
# Si number density = 18.665992 Si / 1000 Ang^3
#
#
#
# Elastic Constant Matrix: (Units=GPa)
#
#
# Indices 1 2 3 4 5 6 
#
# 1 90.7888 22.8009 24.3824 0.0000 0.0000 0.0000
# 2 22.8009 95.3885 21.9138 0.0000 0.0000 0.0000
# 3 24.3824 21.9138 75.8332 0.0000 0.0000 0.0000
# 4 0.0000 0.0000 0.0000 18.4789 0.0000 0.0000
# 5 0.0000 0.0000 0.0000 0.0000 23.2073 0.0000
# 6 0.0000 0.0000 0.0000 0.0000 0.0000 29.1960
#
#
#
# Elastic Compliance Matrix: (Units=1/GPa)
#
#
# Indices 1 2 3 4 5 6 
#
# 1 0.012475 -0.002207 -0.003373 0.000000 0.000000 0.000000
# 2 -0.002207 0.011619 -0.002648 0.000000 0.000000 0.000000
# 3 -0.003373 -0.002648 0.015037 0.000000 0.000000 0.000000
# 4 0.000000 0.000000 0.000000 0.054116 0.000000 0.000000
# 5 0.000000 0.000000 0.000000 0.000000 0.043090 0.000000
# 6 0.000000 0.000000 0.000000 0.000000 0.000000 0.034251
#
#
# Mechanical properties :
#
#
# Convention : Reuss Voigt Hill
#
# Bulk Modulus (GPa) = 44.10292 44.46719 44.28506
# Shear Modulus (GPa) = 25.69344 27.03734 26.36539
#
# Velocity S-wave (km/s) = 3.71412 3.81002 3.76238
# Velocity P-wave (km/s) = 6.48627 6.57490 6.53073
#
# Compressibility (1/GPa) = 0.02267424
#
# Stress axis : x y z
#
# Youngs Moduli (GPa) = 80.16202 86.06356 66.50416
#
# Poissons Ratio (x) = 0.18994 0.22433
# Poissons Ratio (y) = 0.17691 0.17611
# Poissons Ratio (z) = 0.27040 0.22791
#
# Static dielectric constant tensor:
#      x y z
#    x 3.471760 0.000000 0.000000 
#    y 0.000000 3.281190 0.000000 
#    z 0.000000 0.000000 3.439610 
# 
# 
# High freq. dielectric constant tensor:
#      x y z
#    x 1.729920 0.000000 0.000000 
#    y 0.000000 1.736300 0.000000 
#    z 0.000000 0.000000 1.713490 
# 
# From -- ./inp_files/7802.got.cif
#   From: 2010.03.12/outbox.cif.g09.slc.cpg/sg59_4_cif.got.tgz:7802.got - 2010.04.16 16:29:54.
