data_PCOD8242996
_publ_section_title
;
Structure prediction by ZEFSAII (Michael W. Deem and Ramdas Pophale) SiO2 
 PCOD8242996
Probable space group: P M M N
;
_chemical_formula_sum "Si O2"
_cell_formula_units_Z 64
_cell_length_a 9.044142
_cell_length_b 17.753276
_cell_length_c 21.418309
_cell_angle_alpha 90.000000
_cell_angle_beta 90.000000
_cell_angle_gamma 90.000000
_cell_volume 3438.991142
_symmetry_space_group_name_H-M "P M M N"
_symmetry_group_IT_number 59
_space_group.IT_coordinate_system_code '2'
_symmetry_cell_setting 'orthorhombic'
loop_
_space_group_symop_operation_xyz
x,y,z
1/2-x,1/2-y,z
1/2+x,-y,-z
-x,1/2+y,-z
-x,-y,-z
1/2+x,1/2+y,-z
1/2-x,y,z
x,1/2-y,z
loop_
_atom_site_type_symbol
_atom_site_label
_atom_site_fract_x
_atom_site_fract_y
_atom_site_fract_z
Si Si1 0.575852 0.031855 0.938992
Si Si2 0.922240 0.664247 0.501152
Si Si3 0.425056 0.664887 0.732459
Si Si4 0.581269 0.950449 0.812880
Si Si5 0.422679 0.407706 0.629399
Si Si6 0.924584 0.421241 0.389499
Si Si7 0.422716 0.891380 0.245708
Si Si8 0.079704 0.164288 0.873002
O O1 0.750000 0.042694 0.949250
O O2 0.506701 0.112736 0.922520
O O3 0.543029 0.972813 0.883698
O O4 0.500000 0.000000 0.000000
O O5 0.750000 0.652831 0.514286
O O6 0.971754 0.750000 0.512393
O O7 0.960643 0.642355 0.430448
O O8 0.009935 0.610307 0.546932
O O9 0.250000 0.663117 0.733739
O O10 0.485504 0.750000 0.735112
O O11 0.481721 0.619934 0.792849
O O12 0.485721 0.626326 0.669254
O O13 0.750000 0.925135 0.806738
O O14 0.547126 0.020872 0.768069
O O15 0.250000 0.405245 0.646493
O O16 0.475690 0.492820 0.617208
O O17 0.514371 0.372043 0.686259
O O18 0.750000 0.414478 0.394113
O O19 0.250000 0.871791 0.241759
O O20 0.507556 0.840964 0.195325
O O21 0.250000 0.138102 0.869203
O O22 0.067469 0.250000 0.896623
#
# Coordination Sequence:
#
# PCOD8242996 Si02
#       8
#     8   8   8   8   8   8   8   8
#     4  10  21  38  61  89 118 153 195 235 277 328
#     4  10  22  37  51  72 103 137 176 225 279 336
#     4  10  20  33  52  79 107 137 178 226 275 327
#     4   9  19  35  54  79 110 141 177 219 265 322
#     4  10  20  35  55  77 103 140 182 224 276 336
#     4  10  20  35  55  76 100 136 182 228 273 330
#     4  10  20  34  55  83 112 142 180 227 277 333
#     4  10  21  37  59  87 119 155 193 234 281 331
#
# _framework density 18.610109999999999
#
# number of rings (size 3 to 8) (size 9 to 14) (size 15 to 20)
#    0.000    2.125    1.250    2.625    0.000    6.500 
#    0.000    1.875    0.000    0.750    0.000    0.000 
#    0.000    0.000    0.000    0.000    0.000    0.000 
#
# Total GULP energy -793832.054106 kJ/mol
# GULP energy per Si atom -12403.625845 kJ/mol
# Density = 1.856775 g / cm^3
# Si number density = 18.610110 Si / 1000 Ang^3
#
#
#
# Elastic Constant Matrix: (Units=GPa)
#
#
# Indices 1 2 3 4 5 6 
#
# 1 72.8877 33.1135 44.1796 0.0000 0.0000 0.0000
# 2 33.1135 70.6635 27.5735 0.0000 0.0000 0.0000
# 3 44.1796 27.5735 104.7851 0.0000 0.0000 0.0000
# 4 0.0000 0.0000 0.0000 21.8048 0.0000 0.0000
# 5 0.0000 0.0000 0.0000 0.0000 36.9893 0.0000
# 6 0.0000 0.0000 0.0000 0.0000 0.0000 27.2260
#
#
#
# Elastic Compliance Matrix: (Units=1/GPa)
#
#
# Indices 1 2 3 4 5 6 
#
# 1 0.021286 -0.007214 -0.007077 0.000000 0.000000 0.000000
# 2 -0.007214 0.018216 -0.001752 0.000000 0.000000 0.000000
# 3 -0.007077 -0.001752 0.012988 0.000000 0.000000 0.000000
# 4 0.000000 0.000000 0.000000 0.045862 0.000000 0.000000
# 5 0.000000 0.000000 0.000000 0.000000 0.027035 0.000000
# 6 0.000000 0.000000 0.000000 0.000000 0.000000 0.036730
#
#
# Mechanical properties :
#
#
# Convention : Reuss Voigt Hill
#
# Bulk Modulus (GPa) = 49.00586 50.89659 49.95123
# Shear Modulus (GPa) = 24.87542 26.76865 25.82204
#
# Velocity S-wave (km/s) = 3.66000 3.79673 3.72899
# Velocity P-wave (km/s) = 6.65214 6.82850 6.74090
#
# Compressibility (1/GPa) = 0.02040572
#
# Stress axis : x y z
#
# Youngs Moduli (GPa) = 46.97870 54.89820 76.99447
#
# Poissons Ratio (x) = 0.39601 0.54485
# Poissons Ratio (y) = 0.33889 0.13489
# Poissons Ratio (z) = 0.33245 0.09618
#
# Static dielectric constant tensor:
#      x y z
#    x 3.386890 0.000000 0.000000 
#    y 0.000000 3.420930 0.000000 
#    z 0.000000 0.000000 3.342880 
# 
# 
# High freq. dielectric constant tensor:
#      x y z
#    x 1.722170 0.000000 0.000000 
#    y 0.000000 1.720580 0.000000 
#    z 0.000000 0.000000 1.719780 
# 
# From -- ./inp_files/29469.got.cif
#   From: 2010.03.12/outbox.cif.g09.slc.cpg/sg59_15_cif.got.tgz:29469.got - 2010.04.16 16:29:54.
