data_PCOD8242035
_publ_section_title
;
Structure prediction by ZEFSAII (Michael W. Deem and Ramdas Pophale) SiO2 
 PCOD8242035
Probable space group: P M M N
;
_chemical_formula_sum "Si O2"
_cell_formula_units_Z 64
_cell_length_a 8.893544
_cell_length_b 30.792140
_cell_length_c 11.968252
_cell_angle_alpha 90.000000
_cell_angle_beta 90.000000
_cell_angle_gamma 90.000000
_cell_volume 3277.520794
_symmetry_space_group_name_H-M "P M M N"
_symmetry_group_IT_number 59
_space_group.IT_coordinate_system_code '2'
_symmetry_cell_setting 'orthorhombic'
loop_
_space_group_symop_operation_xyz
x,y,z
1/2-x,1/2-y,z
1/2+x,-y,-z
-x,1/2+y,-z
-x,-y,-z
1/2+x,1/2+y,-z
1/2-x,y,z
x,1/2-y,z
loop_
_atom_site_type_symbol
_atom_site_label
_atom_site_fract_x
_atom_site_fract_y
_atom_site_fract_z
Si Si1 0.073656 0.453418 0.227212
Si Si2 0.073527 0.949934 0.235932
Si Si3 0.928468 0.372250 0.614421
Si Si4 0.074131 0.299477 0.759606
Si Si5 0.072798 0.624211 0.638903
Si Si6 0.422001 0.335813 0.998513
Si Si7 0.072634 0.574389 0.992923
Si Si8 0.421594 0.298890 0.234262
O O1 0.250000 0.444096 0.222936
O O2 0.036750 0.501244 0.276857
O O3 0.998152 0.417757 0.304313
O O4 0.010900 0.453039 0.101801
O O5 0.250000 0.942303 0.228875
O O6 0.005063 0.914765 0.322057
O O7 0.008562 0.941696 0.112019
O O8 0.750000 0.371840 0.618188
O O9 0.986872 0.373654 0.487699
O O10 0.986086 0.328689 0.671803
O O11 0.250000 0.306255 0.740387
O O12 0.026151 0.250000 0.737621
O O13 0.028617 0.311649 0.885784
O O14 0.250000 0.618655 0.644600
O O15 0.028809 0.668218 0.701216
O O16 0.250000 0.352682 0.990327
O O17 0.533843 0.375243 0.022067
O O18 0.440564 0.302662 0.100889
O O19 0.250000 0.567635 0.979821
O O20 0.250000 0.309156 0.268467
O O21 0.466201 0.250000 0.268860
#
# Coordination Sequence:
#
# PCOD8242035 Si02
#       8
#     8   8   8   8   8   8   8   8
#     4  11  22  38  60  85 116 152 189 233 288 346
#     4   9  20  38  60  85 115 151 188 233 286 343
#     4  10  22  42  61  80 112 153 196 240 288 337
#     4  10  21  37  59  89 121 150 187 235 283 337
#     4  11  24  40  59  83 114 151 194 245 289 332
#     4  10  19  34  58  87 118 151 185 228 284 340
#     4  11  20  34  59  88 119 150 185 230 283 345
#     4  10  21  38  61  86 115 153 191 230 283 344
#
# _framework density 19.526955000000001
#
# number of rings (size 3 to 8) (size 9 to 14) (size 15 to 20)
#    0.000    1.750    2.500    1.875    0.000    4.000 
#    0.000    5.625    0.000    2.250    0.000    0.000 
#    0.000    0.000    0.000    0.000    0.000    0.000 
#
# Total GULP energy -793732.577799 kJ/mol
# GULP energy per Si atom -12402.071528 kJ/mol
# Density = 1.948251 g / cm^3
# Si number density = 19.526955 Si / 1000 Ang^3
#
#
#
# Elastic Constant Matrix: (Units=GPa)
#
#
# Indices 1 2 3 4 5 6 
#
# 1 53.2166 31.0448 34.0840 0.0000 0.0000 0.0000
# 2 31.0448 128.0003 52.9625 0.0000 0.0000 0.0000
# 3 34.0840 52.9625 133.4512 0.0000 0.0000 0.0000
# 4 0.0000 0.0000 0.0000 10.4669 0.0000 0.0000
# 5 0.0000 0.0000 0.0000 0.0000 22.9648 0.0000
# 6 0.0000 0.0000 0.0000 0.0000 0.0000 22.4518
#
#
#
# Elastic Compliance Matrix: (Units=1/GPa)
#
#
# Indices 1 2 3 4 5 6 
#
# 1 0.024014 -0.003932 -0.004573 0.000000 0.000000 0.000000
# 2 -0.003932 0.009991 -0.002961 0.000000 0.000000 0.000000
# 3 -0.004573 -0.002961 0.009836 0.000000 0.000000 0.000000
# 4 0.000000 0.000000 0.000000 0.095539 0.000000 0.000000
# 5 0.000000 0.000000 0.000000 0.000000 0.043545 0.000000
# 6 0.000000 0.000000 0.000000 0.000000 0.000000 0.044540
#
#
# Mechanical properties :
#
#
# Convention : Reuss Voigt Hill
#
# Bulk Modulus (GPa) = 47.82440 61.20564 54.51502
# Shear Modulus (GPa) = 19.42752 24.28182 21.85467
#
# Velocity S-wave (km/s) = 3.15764 3.53016 3.34908
# Velocity P-wave (km/s) = 6.15133 6.93024 6.55237
#
# Compressibility (1/GPa) = 0.02090983
#
# Stress axis : x y z
#
# Youngs Moduli (GPa) = 41.64292 100.08679 101.66381
#
# Poissons Ratio (x) = 0.39356 0.46487
# Poissons Ratio (y) = 0.16375 0.30102
# Poissons Ratio (z) = 0.19042 0.29635
#
# Static dielectric constant tensor:
#      x y z
#    x 3.392770 0.000000 0.000000 
#    y 0.000000 3.662820 0.000000 
#    z 0.000000 0.000000 3.748060 
# 
# 
# High freq. dielectric constant tensor:
#      x y z
#    x 1.745190 0.000000 0.000000 
#    y 0.000000 1.771830 0.000000 
#    z 0.000000 0.000000 1.762670 
# 
# From -- ./inp_files/15059.got.cif
#   From: 2010.03.12/outbox.cif.g09.slc.cpg/sg59_8_cif.got.tgz:15059.got - 2010.04.16 16:29:54.
