data_PCOD8242768
_publ_section_title
;
Structure prediction by ZEFSAII (Michael W. Deem and Ramdas Pophale) SiO2 
 PCOD8242768
Probable space group: P M M N
;
_chemical_formula_sum "Si O2"
_cell_formula_units_Z 64
_cell_length_a 19.287006
_cell_length_b 8.916823
_cell_length_c 20.362839
_cell_angle_alpha 90.000000
_cell_angle_beta 90.000000
_cell_angle_gamma 90.000000
_cell_volume 3501.976997
_symmetry_space_group_name_H-M "P M M N"
_symmetry_group_IT_number 59
_space_group.IT_coordinate_system_code '2'
_symmetry_cell_setting 'orthorhombic'
loop_
_space_group_symop_operation_xyz
x,y,z
1/2-x,1/2-y,z
1/2+x,-y,-z
-x,1/2+y,-z
-x,-y,-z
1/2+x,1/2+y,-z
1/2-x,y,z
x,1/2-y,z
loop_
_atom_site_type_symbol
_atom_site_label
_atom_site_fract_x
_atom_site_fract_y
_atom_site_fract_z
Si Si1 0.668420 0.920766 0.922400
Si Si2 0.416491 0.923410 0.187859
Si Si3 0.920429 0.424418 0.319392
Si Si4 0.081920 0.424161 0.322361
Si Si5 0.670377 0.074162 0.565528
Si Si6 0.326763 0.071855 0.931031
Si Si7 0.424084 0.075036 0.815721
Si Si8 0.670286 0.926031 0.430369
O O1 0.750000 0.931073 0.910015
O O2 0.642781 0.750000 0.911615
O O3 0.630364 0.031361 0.873117
O O4 0.650246 0.977859 0.995917
O O5 0.404422 0.750000 0.204932
O O6 0.495810 0.955468 0.168592
O O7 0.394460 0.020266 0.250826
O O8 0.902620 0.250000 0.323076
O O9 0.899347 0.485073 0.248052
O O10 0.876067 0.511678 0.372375
O O11 0.000948 0.456406 0.333436
O O12 0.100092 0.250000 0.328757
O O13 0.123755 0.515921 0.375793
O O14 0.750000 0.031929 0.580469
O O15 0.659830 0.250000 0.557768
O O16 0.645034 0.998035 0.498407
O O17 0.250000 0.008527 0.914695
O O18 0.324311 0.250000 0.929889
O O19 0.380847 0.010866 0.877393
O O20 0.409242 0.250000 0.803334
O O21 0.750000 0.968576 0.416112
O O22 0.659313 0.750000 0.435777
#
# Coordination Sequence:
#
# PCOD8242768 Si02
#       8
#     8   8   8   8   8   8   8   8
#     4   9  18  33  52  73  98 131 171 212 253 302
#     4  10  20  33  50  74 104 135 167 209 259 305
#     4  10  21  36  54  78 107 138 173 215 261 304
#     4  10  21  37  56  77 103 138 177 213 253 307
#     4  10  21  37  57  81 108 136 168 212 263 307
#     4   8  15  30  52  75  99 130 169 210 251 300
#     4   9  18  33  52  75 103 134 170 211 254 305
#     4  10  21  37  57  80 106 139 177 212 250 303
#
# _framework density 18.275390999999999
#
# number of rings (size 3 to 8) (size 9 to 14) (size 15 to 20)
#    0.000    2.500    0.000    2.625    0.000    5.750 
#    0.000    1.875    0.000    0.750    0.000    0.000 
#    0.000    0.000    0.000    0.000    0.000    0.000 
#
# Total GULP energy -793742.975398 kJ/mol
# GULP energy per Si atom -12402.233991 kJ/mol
# Density = 1.823380 g / cm^3
# Si number density = 18.275391 Si / 1000 Ang^3
#
#
#
# Elastic Constant Matrix: (Units=GPa)
#
#
# Indices 1 2 3 4 5 6 
#
# 1 63.2408 32.2574 67.2033 0.0000 0.0000 0.0000
# 2 32.2574 60.9645 42.0012 0.0000 0.0000 0.0000
# 3 67.2033 42.0012 137.8392 0.0000 0.0000 0.0000
# 4 0.0000 0.0000 0.0000 32.5277 0.0000 0.0000
# 5 0.0000 0.0000 0.0000 0.0000 38.5671 0.0000
# 6 0.0000 0.0000 0.0000 0.0000 0.0000 26.9393
#
#
#
# Elastic Compliance Matrix: (Units=1/GPa)
#
#
# Indices 1 2 3 4 5 6 
#
# 1 0.036238 -0.008863 -0.014967 0.000000 0.000000 0.000000
# 2 -0.008863 0.022929 -0.002666 0.000000 0.000000 0.000000
# 3 -0.014967 -0.002666 0.015364 0.000000 0.000000 0.000000
# 4 0.000000 0.000000 0.000000 0.030743 0.000000 0.000000
# 5 0.000000 0.000000 0.000000 0.000000 0.025929 0.000000
# 6 0.000000 0.000000 0.000000 0.000000 0.000000 0.037121
#
#
# Mechanical properties :
#
#
# Convention : Reuss Voigt Hill
#
# Bulk Modulus (GPa) = 46.42487 60.55203 53.48845
# Shear Modulus (GPa) = 21.88223 27.64565 24.76394
#
# Velocity S-wave (km/s) = 3.46404 3.89360 3.68508
# Velocity P-wave (km/s) = 6.43875 7.30880 6.88753
#
# Compressibility (1/GPa) = 0.02154018
#
# Stress axis : x y z
#
# Youngs Moduli (GPa) = 27.59500 43.61308 65.08518
#
# Poissons Ratio (x) = 0.38653 0.97416
# Poissons Ratio (y) = 0.24456 0.17350
# Poissons Ratio (z) = 0.41303 0.11626
#
# Static dielectric constant tensor:
#      x y z
#    x 3.388980 0.000000 0.000000 
#    y 0.000000 3.376800 0.000000 
#    z 0.000000 0.000000 3.552440 
# 
# 
# High freq. dielectric constant tensor:
#      x y z
#    x 1.703740 0.000000 0.000000 
#    y 0.000000 1.705000 0.000000 
#    z 0.000000 0.000000 1.718290 
# 
# From -- ./inp_files/28231.got.cif
#   From: 2010.03.12/outbox.cif.g09.slc.cpg/sg59_15_cif.got.tgz:28231.got - 2010.04.16 16:29:54.
