data_PCOD8242970
_publ_section_title
;
Structure prediction by ZEFSAII (Michael W. Deem and Ramdas Pophale) SiO2 
 PCOD8242970
Probable space group: P M M N
;
_chemical_formula_sum "Si O2"
_cell_formula_units_Z 56
_cell_length_a 21.341608
_cell_length_b 9.745867
_cell_length_c 14.252829
_cell_angle_alpha 90.000000
_cell_angle_beta 90.000000
_cell_angle_gamma 90.000000
_cell_volume 2964.481153
_symmetry_space_group_name_H-M "P M M N"
_symmetry_group_IT_number 59
_space_group.IT_coordinate_system_code '2'
_symmetry_cell_setting 'orthorhombic'
loop_
_space_group_symop_operation_xyz
x,y,z
1/2-x,1/2-y,z
1/2+x,-y,-z
-x,1/2+y,-z
-x,-y,-z
1/2+x,1/2+y,-z
1/2-x,y,z
x,1/2-y,z
loop_
_atom_site_type_symbol
_atom_site_label
_atom_site_fract_x
_atom_site_fract_y
_atom_site_fract_z
Si Si1 0.505546 0.401100 0.586335
Si Si2 0.679680 0.602983 0.725511
Si Si3 0.912858 0.909587 0.252848
Si Si4 0.646394 0.401713 0.570179
Si Si5 0.442084 0.412295 0.959840
Si Si6 0.323577 0.908100 0.637833
Si Si7 0.820751 0.912962 0.927409
O O1 0.500000 0.500000 0.500000
O O2 0.481679 0.250000 0.556160
O O3 0.467922 0.454259 0.676144
O O4 0.577760 0.395695 0.614642
O O5 0.750000 0.637303 0.753662
O O6 0.646511 0.750000 0.699800
O O7 0.683115 0.503527 0.636983
O O8 0.653850 0.539760 0.823592
O O9 0.894714 0.750000 0.261533
O O10 0.937711 0.944544 0.150219
O O11 0.852063 0.998898 0.279643
O O12 0.677606 0.250000 0.572441
O O13 0.647566 0.454742 0.462715
O O14 0.453541 0.250000 0.979081
O O15 0.500000 0.500000 0.000000
O O16 0.375119 0.463624 0.001712
O O17 0.250000 0.933554 0.635360
O O18 0.340396 0.750000 0.658267
O O19 0.750000 0.971134 0.952141
O O20 0.817567 0.750000 0.931194
#
# Coordination Sequence:
#
# PCOD8242970 Si02
#       7
#     8   8   8   8   8   8   8
#     4  10  20  35  54  77 106 140 178 220 264 317
#     4   9  18  32  51  77 106 136 176 222 261 309
#     4  10  22  38  56  82 112 141 182 230 275 326
#     4  10  20  33  52  77 109 147 179 214 267 325
#     4  10  22  39  60  86 114 145 183 232 286 337
#     4  10  21  37  56  79 109 146 187 226 268 327
#     4   8  16  34  57  79 106 143 187 229 273 332
#
# _framework density 18.890319999999999
#
# number of rings (size 3 to 8) (size 9 to 14) (size 15 to 20)
#    0.000    2.429    1.429    1.286    2.000    3.429 
#    0.000    1.429    0.000    1.286    0.000    0.000 
#    0.000    0.000    0.000    0.000    0.000    0.000 
#
# Total GULP energy -693902.225202 kJ/mol
# GULP energy per Si atom -12391.111164 kJ/mol
# Density = 1.884733 g / cm^3
# Si number density = 18.890320 Si / 1000 Ang^3
#
#
#
# Elastic Constant Matrix: (Units=GPa)
#
#
# Indices 1 2 3 4 5 6 
#
# 1 96.5229 37.8110 48.7837 0.0000 0.0000 0.0000
# 2 37.8110 66.9434 61.0205 0.0000 0.0000 0.0000
# 3 48.7837 61.0205 136.2019 0.0000 0.0000 0.0000
# 4 0.0000 0.0000 0.0000 26.1642 0.0000 0.0000
# 5 0.0000 0.0000 0.0000 0.0000 33.1584 0.0000
# 6 0.0000 0.0000 0.0000 0.0000 0.0000 28.1817
#
#
#
# Elastic Compliance Matrix: (Units=1/GPa)
#
#
# Indices 1 2 3 4 5 6 
#
# 1 0.013770 -0.005547 -0.002447 0.000000 0.000000 0.000000
# 2 -0.005547 0.027484 -0.010326 0.000000 0.000000 0.000000
# 3 -0.002447 -0.010326 0.012845 0.000000 0.000000 0.000000
# 4 0.000000 0.000000 0.000000 0.038220 0.000000 0.000000
# 5 0.000000 0.000000 0.000000 0.000000 0.030158 0.000000
# 6 0.000000 0.000000 0.000000 0.000000 0.000000 0.035484
#
#
# Mechanical properties :
#
#
# Convention : Reuss Voigt Hill
#
# Bulk Modulus (GPa) = 57.28071 66.09983 61.69027
# Shear Modulus (GPa) = 24.94749 27.63772 26.29261
#
# Velocity S-wave (km/s) = 3.63802 3.82915 3.73481
# Velocity P-wave (km/s) = 6.93076 7.39034 7.16424
#
# Compressibility (1/GPa) = 0.01745789
#
# Stress axis : x y z
#
# Youngs Moduli (GPa) = 72.62229 36.38492 77.85297
#
# Poissons Ratio (x) = 0.20184 0.19048
# Poissons Ratio (y) = 0.40286 0.80393
# Poissons Ratio (z) = 0.17769 0.37572
#
# Static dielectric constant tensor:
#      x y z
#    x 3.582430 0.000000 0.000000 
#    y 0.000000 3.359840 0.000000 
#    z 0.000000 0.000000 3.485320 
# 
# 
# High freq. dielectric constant tensor:
#      x y z
#    x 1.733150 0.000000 0.000000 
#    y 0.000000 1.714850 0.000000 
#    z 0.000000 0.000000 1.733330 
# 
# From -- ./inp_files/21014.got.cif
#   From: 2010.03.12/outbox.cif.g09.slc.cpg/sg59_11_cif.got.tgz:21014.got - 2010.04.16 16:29:54.
