data_PCOD8242995
_publ_section_title
;
Structure prediction by ZEFSAII (Michael W. Deem and Ramdas Pophale) SiO2 
 PCOD8242995
Probable space group: P M M N
;
_chemical_formula_sum "Si O2"
_cell_formula_units_Z 40
_cell_length_a 10.858216
_cell_length_b 17.888713
_cell_length_c 10.482943
_cell_angle_alpha 90.000000
_cell_angle_beta 90.000000
_cell_angle_gamma 90.000000
_cell_volume 2036.201709
_symmetry_space_group_name_H-M "P M M N"
_symmetry_group_IT_number 59
_space_group.IT_coordinate_system_code '2'
_symmetry_cell_setting 'orthorhombic'
loop_
_space_group_symop_operation_xyz
x,y,z
1/2-x,1/2-y,z
1/2+x,-y,-z
-x,1/2+y,-z
-x,-y,-z
1/2+x,1/2+y,-z
1/2-x,y,z
x,1/2-y,z
loop_
_atom_site_type_symbol
_atom_site_label
_atom_site_fract_x
_atom_site_fract_y
_atom_site_fract_z
Si Si1 0.386119 0.336737 0.390695
Si Si2 0.896313 0.834828 0.128445
Si Si3 0.116640 0.926751 0.525072
Si Si4 0.509075 0.533296 0.286050
Si Si5 0.609794 0.587605 0.872366
O O1 0.250000 0.364962 0.437266
O O2 0.396928 0.250000 0.415764
O O3 0.498326 0.373192 0.467325
O O4 0.400572 0.352677 0.241144
O O5 0.750000 0.833723 0.130912
O O6 0.947255 0.750000 0.142018
O O7 0.945914 0.884654 0.245221
O O8 0.944574 0.871326 0.996805
O O9 0.250000 0.885885 0.535432
O O10 0.107162 0.963065 0.383655
O O11 0.115465 0.989618 0.635773
O O12 0.469694 0.486053 0.161187
O O13 0.750000 0.562515 0.897484
#
# Coordination Sequence:
#
# PCOD8242995 Si02
#       5
#     8   8   8   8   8
#     4   9  18  33  54  80 110 143 179 222 269 315
#     4  10  20  33  52  79 107 134 169 216 267 318
#     4  10  21  35  53  78 108 144 185 224 263 313
#     4  10  20  34  53  75 106 140 177 219 265 315
#     4   9  17  32  55  79 102 133 176 220 261 312
#
# _framework density 19.644418999999999
#
# number of rings (size 3 to 8) (size 9 to 14) (size 15 to 20)
#    0.000    2.400    0.000    2.400    0.000    9.200 
#    0.000    2.000    0.000    3.000    0.000    0.000 
#    0.000    0.000    0.000    0.000    0.000    0.000 
#
# Total GULP energy -495716.253577 kJ/mol
# GULP energy per Si atom -12392.906339 kJ/mol
# Density = 1.959971 g / cm^3
# Si number density = 19.644419 Si / 1000 Ang^3
#
#
#
# Elastic Constant Matrix: (Units=GPa)
#
#
# Indices 1 2 3 4 5 6 
#
# 1 115.9186 46.7199 27.3261 0.0000 0.0000 0.0000
# 2 46.7199 126.0787 44.1602 0.0000 0.0000 0.0000
# 3 27.3261 44.1602 79.8465 0.0000 0.0000 0.0000
# 4 0.0000 0.0000 0.0000 23.0092 0.0000 0.0000
# 5 0.0000 0.0000 0.0000 0.0000 10.2933 0.0000
# 6 0.0000 0.0000 0.0000 0.0000 0.0000 25.2355
#
#
#
# Elastic Compliance Matrix: (Units=1/GPa)
#
#
# Indices 1 2 3 4 5 6 
#
# 1 0.010337 -0.003214 -0.001760 0.000000 0.000000 0.000000
# 2 -0.003214 0.010836 -0.004893 0.000000 0.000000 0.000000
# 3 -0.001760 -0.004893 0.015833 0.000000 0.000000 0.000000
# 4 0.000000 0.000000 0.000000 0.043461 0.000000 0.000000
# 5 0.000000 0.000000 0.000000 0.000000 0.097151 0.000000
# 6 0.000000 0.000000 0.000000 0.000000 0.000000 0.039627
#
#
# Mechanical properties :
#
#
# Convention : Reuss Voigt Hill
#
# Bulk Modulus (GPa) = 57.89943 62.02847 59.96395
# Shear Modulus (GPa) = 20.59846 25.28343 22.94094
#
# Velocity S-wave (km/s) = 3.24167 3.59145 3.42103
# Velocity P-wave (km/s) = 6.59916 6.98872 6.79673
#
# Compressibility (1/GPa) = 0.01727133
#
# Stress axis : x y z
#
# Youngs Moduli (GPa) = 96.73943 92.28089 63.16033
#
# Poissons Ratio (x) = 0.29659 0.11117
# Poissons Ratio (y) = 0.31092 0.30906
# Poissons Ratio (z) = 0.17027 0.45156
#
# Static dielectric constant tensor:
#      x y z
#    x 3.384200 0.000000 0.000000 
#    y 0.000000 3.584140 0.000000 
#    z 0.000000 0.000000 3.590150 
# 
# 
# High freq. dielectric constant tensor:
#      x y z
#    x 1.743050 0.000000 0.000000 
#    y 0.000000 1.759410 0.000000 
#    z 0.000000 0.000000 1.769560 
# 
# From -- ./inp_files/7133.got.cif
#   From: 2010.03.12/outbox.cif.g09.slc.cpg/sg59_4_cif.got.tgz:7133.got - 2010.04.16 16:29:54.
