data_PCOD8242325
_publ_section_title
;
Structure prediction by ZEFSAII (Michael W. Deem and Ramdas Pophale) SiO2 
 PCOD8242325
Probable space group: P M M N
;
_chemical_formula_sum "Si O2"
_cell_formula_units_Z 64
_cell_length_a 30.359722
_cell_length_b 9.055485
_cell_length_c 14.316950
_cell_angle_alpha 90.000000
_cell_angle_beta 90.000000
_cell_angle_gamma 90.000000
_cell_volume 3936.044631
_symmetry_space_group_name_H-M "P M M N"
_symmetry_group_IT_number 59
_space_group.IT_coordinate_system_code '2'
_symmetry_cell_setting 'orthorhombic'
loop_
_space_group_symop_operation_xyz
x,y,z
1/2-x,1/2-y,z
1/2+x,-y,-z
-x,1/2+y,-z
-x,-y,-z
1/2+x,1/2+y,-z
1/2-x,y,z
x,1/2-y,z
loop_
_atom_site_type_symbol
_atom_site_label
_atom_site_fract_x
_atom_site_fract_y
_atom_site_fract_z
Si Si1 0.623202 0.583763 0.574498
Si Si2 0.457564 0.420540 0.540791
Si Si3 0.799944 0.419698 0.649605
Si Si4 0.610831 0.424611 0.936888
Si Si5 0.072565 0.083231 0.236614
Si Si6 0.013432 0.417649 0.740688
Si Si7 0.540582 0.577341 0.052825
Si Si8 0.798194 0.425362 0.859217
O O1 0.632952 0.750000 0.542632
O O2 0.587007 0.512162 0.504761
O O3 0.669182 0.497034 0.572676
O O4 0.606897 0.575298 0.680381
O O5 0.500000 0.500000 0.500000
O O6 0.461297 0.250000 0.510298
O O7 0.453874 0.438731 0.652788
O O8 0.750000 0.442271 0.615805
O O9 0.813527 0.250000 0.651767
O O10 0.805875 0.487096 0.754278
O O11 0.606683 0.250000 0.952171
O O12 0.585536 0.467775 0.842881
O O13 0.662143 0.476263 0.927772
O O14 0.587420 0.508846 0.021980
O O15 0.069659 0.250000 0.196319
O O16 0.025437 0.033703 0.275234
O O17 0.994849 0.250000 0.742018
O O18 0.038663 0.452079 0.836706
O O19 0.538973 0.750000 0.028396
O O20 0.500000 0.500000 0.000000
O O21 0.750000 0.480093 0.896499
O O22 0.797876 0.250000 0.852466
#
# Coordination Sequence:
#
# PCOD8242325 Si02
#       8
#     8   8   8   8   8   8   8   8
#     4  10  20  31  45  70 100 127 157 195 243 281
#     4  10  20  34  49  69  94 125 162 198 235 283
#     4   9  17  30  48  69  94 126 161 193 229 281
#     4  11  20  31  49  71  95 129 164 195 236 284
#     4  11  20  29  45  69  99 128 157 197 236 276
#     4  10  21  35  50  65  90 128 167 199 234 279
#     4  11  22  34  48  69  95 126 163 202 239 280
#     4   8  15  28  46  68  93 121 155 192 228 277
#
# _framework density 16.259978
#
# number of rings (size 3 to 8) (size 9 to 14) (size 15 to 20)
#    0.000    2.000    3.750    1.875    0.000    1.750 
#    0.000    0.000    0.000    1.500    0.000    0.875 
#    0.000    5.000    0.000    0.000    0.000    0.000 
#
# Total GULP energy -793349.830308 kJ/mol
# GULP energy per Si atom -12396.091099 kJ/mol
# Density = 1.622297 g / cm^3
# Si number density = 16.259978 Si / 1000 Ang^3
#
#
#
# Elastic Constant Matrix: (Units=GPa)
#
#
# Indices 1 2 3 4 5 6 
#
# 1 122.3596 43.4237 40.7337 0.0000 0.0000 0.0000
# 2 43.4237 60.0447 27.2996 0.0000 0.0000 0.0000
# 3 40.7337 27.2996 76.7336 0.0000 0.0000 0.0000
# 4 0.0000 0.0000 0.0000 18.7963 0.0000 0.0000
# 5 0.0000 0.0000 0.0000 0.0000 26.3859 0.0000
# 6 0.0000 0.0000 0.0000 0.0000 0.0000 25.7163
#
#
#
# Elastic Compliance Matrix: (Units=1/GPa)
#
#
# Indices 1 2 3 4 5 6 
#
# 1 0.011890 -0.006834 -0.003880 0.000000 0.000000 0.000000
# 2 -0.006834 0.023796 -0.004838 0.000000 0.000000 0.000000
# 3 -0.003880 -0.004838 0.016813 0.000000 0.000000 0.000000
# 4 0.000000 0.000000 0.000000 0.053202 0.000000 0.000000
# 5 0.000000 0.000000 0.000000 0.000000 0.037899 0.000000
# 6 0.000000 0.000000 0.000000 0.000000 0.000000 0.038886
#
#
# Mechanical properties :
#
#
# Convention : Reuss Voigt Hill
#
# Bulk Modulus (GPa) = 46.74189 53.56131 50.15160
# Shear Modulus (GPa) = 22.65283 24.02509 23.33896
#
# Velocity S-wave (km/s) = 3.73656 3.84807 3.79273
# Velocity P-wave (km/s) = 6.88657 7.26331 7.07745
#
# Compressibility (1/GPa) = 0.02139408
#
# Stress axis : x y z
#
# Youngs Moduli (GPa) = 84.10577 42.02301 59.47742
#
# Poissons Ratio (x) = 0.28720 0.23078
# Poissons Ratio (y) = 0.57482 0.28776
# Poissons Ratio (z) = 0.32634 0.20331
#
# Static dielectric constant tensor:
#      x y z
#    x 3.280470 0.000000 0.000000 
#    y 0.000000 3.048220 0.000000 
#    z 0.000000 0.000000 3.009930 
# 
# 
# High freq. dielectric constant tensor:
#      x y z
#    x 1.619340 0.000000 0.000000 
#    y 0.000000 1.620870 0.000000 
#    z 0.000000 0.000000 1.597890 
# 
# From -- ./inp_files/21920.got.cif
#   From: 2010.03.12/outbox.cif.g09.slc.cpg/sg59_11_cif.got.tgz:21920.got - 2010.04.16 16:29:54.
