data_PCOD8242202
_publ_section_title
;
Structure prediction by ZEFSAII (Michael W. Deem and Ramdas Pophale) SiO2 
 PCOD8242202
Probable space group: P M M N
;
_chemical_formula_sum "Si O2"
_cell_formula_units_Z 48
_cell_length_a 27.993393
_cell_length_b 8.868210
_cell_length_c 10.311194
_cell_angle_alpha 90.000000
_cell_angle_beta 90.000000
_cell_angle_gamma 90.000000
_cell_volume 2559.767189
_symmetry_space_group_name_H-M "P M M N"
_symmetry_group_IT_number 59
_space_group.IT_coordinate_system_code '2'
_symmetry_cell_setting 'orthorhombic'
loop_
_space_group_symop_operation_xyz
x,y,z
1/2-x,1/2-y,z
1/2+x,-y,-z
-x,1/2+y,-z
-x,-y,-z
1/2+x,1/2+y,-z
1/2-x,y,z
x,1/2-y,z
loop_
_atom_site_type_symbol
_atom_site_label
_atom_site_fract_x
_atom_site_fract_y
_atom_site_fract_z
Si Si1 0.058904 0.571728 0.234340
Si Si2 0.695891 0.073937 0.108854
Si Si3 0.894998 0.571433 0.015728
Si Si4 0.803354 0.921343 0.377108
Si Si5 0.451170 0.428544 0.732402
Si Si6 0.896555 0.574552 0.521832
O O1 0.060520 0.750000 0.217177
O O2 0.091948 0.524102 0.353512
O O3 0.005280 0.512291 0.259915
O O4 0.077195 0.495414 0.104873
O O5 0.750000 0.029456 0.069459
O O6 0.686852 0.250000 0.091975
O O7 0.659708 0.985279 0.015239
O O8 0.686214 0.030846 0.257719
O O9 0.895784 0.750000 0.005491
O O10 0.921095 0.510367 0.145350
O O11 0.750000 0.946562 0.432870
O O12 0.810222 0.750000 0.325732
O O13 0.840662 0.953426 0.491748
O O14 0.449330 0.250000 0.734791
O O15 0.427827 0.486552 0.598940
O O16 0.907186 0.750000 0.550131
#
# Coordination Sequence:
#
# PCOD8242202 Si02
#       6
#     8   8   8   8   8   8
#     4  11  23  37  53  80 116 150 185 231 285 335
#     4  10  20  34  55  85 116 142 175 224 278 329
#     4  11  21  38  60  82 109 147 189 230 275 328
#     4   9  17  32  57  84 109 141 182 227 272 323
#     4   9  19  36  58  82 109 142 189 238 277 324
#     4  10  19  36  57  81 112 146 186 231 274 330
#
# _framework density 18.751705000000001
#
# number of rings (size 3 to 8) (size 9 to 14) (size 15 to 20)
#    0.000    2.000    1.667    2.500    0.000    1.667 
#    0.000    4.167    0.000    3.000    0.000    0.000 
#    0.000    0.000    0.000    0.000    0.000    0.000 
#
# Total GULP energy -595301.752982 kJ/mol
# GULP energy per Si atom -12402.119854 kJ/mol
# Density = 1.870903 g / cm^3
# Si number density = 18.751705 Si / 1000 Ang^3
#
#
#
# Elastic Constant Matrix: (Units=GPa)
#
#
# Indices 1 2 3 4 5 6 
#
# 1 109.5922 27.8457 17.0207 0.0000 0.0000 0.0000
# 2 27.8457 58.1284 17.9061 0.0000 0.0000 0.0000
# 3 17.0207 17.9061 64.7531 0.0000 0.0000 0.0000
# 4 0.0000 0.0000 0.0000 27.7375 0.0000 0.0000
# 5 0.0000 0.0000 0.0000 0.0000 6.4065 0.0000
# 6 0.0000 0.0000 0.0000 0.0000 0.0000 26.1393
#
#
#
# Elastic Compliance Matrix: (Units=1/GPa)
#
#
# Indices 1 2 3 4 5 6 
#
# 1 0.010521 -0.004578 -0.001500 0.000000 0.000000 0.000000
# 2 -0.004578 0.020797 -0.004548 0.000000 0.000000 0.000000
# 3 -0.001500 -0.004548 0.017095 0.000000 0.000000 0.000000
# 4 0.000000 0.000000 0.000000 0.036052 0.000000 0.000000
# 5 0.000000 0.000000 0.000000 0.000000 0.156091 0.000000
# 6 0.000000 0.000000 0.000000 0.000000 0.000000 0.038257
#
#
# Mechanical properties :
#
#
# Convention : Reuss Voigt Hill
#
# Bulk Modulus (GPa) = 36.81521 39.77987 38.29754
# Shear Modulus (GPa) = 16.17508 23.37006 19.77257
#
# Velocity S-wave (km/s) = 2.94018 3.53411 3.25074
# Velocity P-wave (km/s) = 5.58586 6.15738 5.87857
#
# Compressibility (1/GPa) = 0.02716269
#
# Stress axis : x y z
#
# Youngs Moduli (GPa) = 95.04960 48.08339 58.49659
#
# Poissons Ratio (x) = 0.22012 0.08772
# Poissons Ratio (y) = 0.43513 0.26602
# Poissons Ratio (z) = 0.14253 0.21867
#
# Static dielectric constant tensor:
#      x y z
#    x 3.820360 0.000000 0.000000 
#    y 0.000000 3.311150 0.000000 
#    z 0.000000 0.000000 3.297190 
# 
# 
# High freq. dielectric constant tensor:
#      x y z
#    x 1.746750 0.000000 0.000000 
#    y 0.000000 1.716420 0.000000 
#    z 0.000000 0.000000 1.710520 
# 
# From -- ./inp_files/6193.got.cif
#   From: 2010.03.12/outbox.cif.g09.slc.cpg/sg59_4_cif.got.tgz:6193.got - 2010.04.16 16:29:54.
