data_PCOD8242784
_publ_section_title
;
Structure prediction by ZEFSAII (Michael W. Deem and Ramdas Pophale) SiO2 
 PCOD8242784
Probable space group: P M M N
;
_chemical_formula_sum "Si O2"
_cell_formula_units_Z 40
_cell_length_a 8.999029
_cell_length_b 14.648973
_cell_length_c 16.995136
_cell_angle_alpha 90.000000
_cell_angle_beta 90.000000
_cell_angle_gamma 90.000000
_cell_volume 2240.409854
_symmetry_space_group_name_H-M "P M M N"
_symmetry_group_IT_number 59
_space_group.IT_coordinate_system_code '2'
_symmetry_cell_setting 'orthorhombic'
loop_
_space_group_symop_operation_xyz
x,y,z
1/2-x,1/2-y,z
1/2+x,-y,-z
-x,1/2+y,-z
-x,-y,-z
1/2+x,1/2+y,-z
1/2-x,y,z
x,1/2-y,z
loop_
_atom_site_type_symbol
_atom_site_label
_atom_site_fract_x
_atom_site_fract_y
_atom_site_fract_z
Si Si1 0.084904 0.750000 0.756818
Si Si2 0.423107 0.356214 0.489443
Si Si3 0.422936 0.499902 0.619779
Si Si4 0.415109 0.750000 0.942170
Si Si5 0.074927 0.068909 0.058233
Si Si6 0.425008 0.433313 0.238794
O O1 0.250000 0.750000 0.718678
O O2 0.100626 0.750000 0.849566
O O3 0.993471 0.661711 0.730228
O O4 0.250000 0.363546 0.467186
O O5 0.473492 0.250000 0.494569
O O6 0.453705 0.406132 0.572823
O O7 0.516022 0.410230 0.424311
O O8 0.250000 0.515104 0.634835
O O9 0.505869 0.489507 0.704104
O O10 0.250000 0.750000 0.980590
O O11 0.509676 0.835566 0.970159
O O12 0.250000 0.069285 0.046887
O O13 0.031559 0.045762 0.148488
O O14 0.000000 0.000000 0.000000
O O15 0.250000 0.428053 0.248996
#
# Coordination Sequence:
#
# PCOD8242784 Si02
#       6
#     4   8   8   4   8   8
#     4   9  17  29  47  73 101 130 165 208 257 303
#     4   9  19  36  55  74 101 137 172 211 261 308
#     4  10  20  33  52  78 104 133 173 217 255 306
#     4   9  17  31  51  75 103 132 165 212 263 311
#     4  10  20  34  54  78 105 140 179 217 264 317
#     4  10  20  33  50  74 106 139 171 210 262 314
#
# _framework density 17.853874999999999
#
# number of rings (size 3 to 8) (size 9 to 14) (size 15 to 20)
#    0.000    2.400    0.000    2.400    1.400    6.000 
#    0.000    0.000    2.200    0.000    0.000    0.000 
#    0.000    0.000    0.000    0.000    0.000    0.000 
#
# Total GULP energy -495886.962980 kJ/mol
# GULP energy per Si atom -12397.174074 kJ/mol
# Density = 1.781324 g / cm^3
# Si number density = 17.853875 Si / 1000 Ang^3
#
#
#
# Elastic Constant Matrix: (Units=GPa)
#
#
# Indices 1 2 3 4 5 6 
#
# 1 105.8234 45.6758 57.1369 0.0000 0.0000 0.0000
# 2 45.6758 108.2923 51.6877 0.0000 0.0000 0.0000
# 3 57.1369 51.6877 91.4428 0.0000 0.0000 0.0000
# 4 0.0000 0.0000 0.0000 24.9268 0.0000 0.0000
# 5 0.0000 0.0000 0.0000 0.0000 32.2542 0.0000
# 6 0.0000 0.0000 0.0000 0.0000 0.0000 30.3306
#
#
#
# Elastic Compliance Matrix: (Units=1/GPa)
#
#
# Indices 1 2 3 4 5 6 
#
# 1 0.014737 -0.002493 -0.007799 0.000000 0.000000 0.000000
# 2 -0.002493 0.013068 -0.005829 0.000000 0.000000 0.000000
# 3 -0.007799 -0.005829 0.019103 0.000000 0.000000 0.000000
# 4 0.000000 0.000000 0.000000 0.040117 0.000000 0.000000
# 5 0.000000 0.000000 0.000000 0.000000 0.031004 0.000000
# 6 0.000000 0.000000 0.000000 0.000000 0.000000 0.032970
#
#
# Mechanical properties :
#
#
# Convention : Reuss Voigt Hill
#
# Bulk Modulus (GPa) = 68.18238 68.28438 68.23338
# Shear Modulus (GPa) = 26.57750 27.57286 27.07518
#
# Velocity S-wave (km/s) = 3.86244 3.93410 3.89844
# Velocity P-wave (km/s) = 7.62649 7.67890 7.65274
#
# Compressibility (1/GPa) = 0.01466655
#
# Stress axis : x y z
#
# Youngs Moduli (GPa) = 67.85835 76.52320 52.34707
#
# Poissons Ratio (x) = 0.19080 0.40823
# Poissons Ratio (y) = 0.16920 0.30511
# Poissons Ratio (z) = 0.52920 0.44603
#
# Static dielectric constant tensor:
#      x y z
#    x 3.484310 0.000000 0.000000 
#    y 0.000000 3.449070 0.000000 
#    z 0.000000 0.000000 3.285990 
# 
# 
# High freq. dielectric constant tensor:
#      x y z
#    x 1.707070 0.000000 0.000000 
#    y 0.000000 1.674430 0.000000 
#    z 0.000000 0.000000 1.680360 
# 
# From -- ./inp_files/19999.got.cif
#   From: 2010.03.12/outbox.cif.g09.slc.cpg/sg59_10_cif.got.tgz:19999.got - 2010.04.16 16:29:54.
