data_PCOD8242993
_publ_section_title
;
Structure prediction by ZEFSAII (Michael W. Deem and Ramdas Pophale) SiO2 
 PCOD8242993
Probable space group: P M M N
;
_chemical_formula_sum "Si O2"
_cell_formula_units_Z 48
_cell_length_a 9.276749
_cell_length_b 8.947731
_cell_length_c 30.784561
_cell_angle_alpha 90.000000
_cell_angle_beta 90.000000
_cell_angle_gamma 90.000000
_cell_volume 2555.298794
_symmetry_space_group_name_H-M "P M M N"
_symmetry_group_IT_number 59
_space_group.IT_coordinate_system_code '2'
_symmetry_cell_setting 'orthorhombic'
loop_
_space_group_symop_operation_xyz
x,y,z
1/2-x,1/2-y,z
1/2+x,-y,-z
-x,1/2+y,-z
-x,-y,-z
1/2+x,1/2+y,-z
1/2-x,y,z
x,1/2-y,z
loop_
_atom_site_type_symbol
_atom_site_label
_atom_site_fract_x
_atom_site_fract_y
_atom_site_fract_z
Si Si1 0.421592 0.416226 0.366879
Si Si2 0.415749 0.922392 0.793528
Si Si3 0.083269 0.424891 0.883151
Si Si4 0.920938 0.080806 0.717908
Si Si5 0.417612 0.073891 0.039661
Si Si6 0.588127 0.926502 0.537966
O O1 0.250000 0.410219 0.368653
O O2 0.480933 0.250000 0.356409
O O3 0.475800 0.528407 0.329531
O O4 0.476328 0.470367 0.414429
O O5 0.250000 0.947376 0.780644
O O6 0.447808 0.750000 0.804349
O O7 0.456961 0.021151 0.835100
O O8 0.512978 0.973213 0.753758
O O9 0.250000 0.460408 0.893981
O O10 0.050873 0.250000 0.887051
O O11 0.981727 0.513640 0.915679
O O12 0.750000 0.067624 0.721170
O O13 0.973693 0.250000 0.725302
O O14 0.250000 0.030851 0.036952
O O15 0.440714 0.250000 0.037282
O O16 0.500000 0.000000 0.000000
O O17 0.750000 0.987440 0.533943
O O18 0.583577 0.750000 0.532662
O O19 0.500000 0.000000 0.500000
#
# Coordination Sequence:
#
# PCOD8242993 Si02
#       6
#     8   8   8   8   8   8
#     4   8  15  30  50  70  96 132 171 211 255 304
#     4  10  21  37  57  80 107 142 180 216 260 313
#     4  10  21  38  60  84 110 142 180 221 266 315
#     4  10  20  33  52  79 106 133 170 215 261 310
#     4  11  24  40  59  85 115 147 184 224 267 315
#     4   9  18  32  50  73 100 130 167 210 256 308
#
# _framework density 18.784496000000001
#
# number of rings (size 3 to 8) (size 9 to 14) (size 15 to 20)
#    0.000    2.333    0.000    3.500    0.000    8.000 
#    0.000    2.500    0.000    1.000    0.000    0.000 
#    0.000    0.000    0.000    0.000    0.000    0.000 
#
# Total GULP energy -595207.281372 kJ/mol
# GULP energy per Si atom -12400.151695 kJ/mol
# Density = 1.874174 g / cm^3
# Si number density = 18.784496 Si / 1000 Ang^3
#
#
#
# Elastic Constant Matrix: (Units=GPa)
#
#
# Indices 1 2 3 4 5 6 
#
# 1 68.8006 45.2766 59.9819 0.0000 0.0000 0.0000
# 2 45.2766 74.0631 47.5038 0.0000 0.0000 0.0000
# 3 59.9819 47.5038 135.0496 0.0000 0.0000 0.0000
# 4 0.0000 0.0000 0.0000 42.1369 0.0000 0.0000
# 5 0.0000 0.0000 0.0000 0.0000 34.0164 0.0000
# 6 0.0000 0.0000 0.0000 0.0000 0.0000 28.3093
#
#
#
# Elastic Compliance Matrix: (Units=1/GPa)
#
#
# Indices 1 2 3 4 5 6 
#
# 1 0.031282 -0.013187 -0.009255 0.000000 0.000000 0.000000
# 2 -0.013187 0.022995 -0.002231 0.000000 0.000000 0.000000
# 3 -0.009255 -0.002231 0.012300 0.000000 0.000000 0.000000
# 4 0.000000 0.000000 0.000000 0.023732 0.000000 0.000000
# 5 0.000000 0.000000 0.000000 0.000000 0.029398 0.000000
# 6 0.000000 0.000000 0.000000 0.000000 0.000000 0.035324
#
#
# Mechanical properties :
#
#
# Convention : Reuss Voigt Hill
#
# Bulk Modulus (GPa) = 58.04001 64.82643 61.43322
# Shear Modulus (GPa) = 23.79576 29.23594 26.51585
#
# Velocity S-wave (km/s) = 3.56304 3.94939 3.76118
# Velocity P-wave (km/s) = 6.92040 7.44193 7.18590
#
# Compressibility (1/GPa) = 0.01722949
#
# Stress axis : x y z
#
# Youngs Moduli (GPa) = 31.96739 43.48792 81.29930
#
# Poissons Ratio (x) = 0.57348 0.75244
# Poissons Ratio (y) = 0.42156 0.18141
# Poissons Ratio (z) = 0.29586 0.09704
#
# Static dielectric constant tensor:
#      x y z
#    x 3.412190 0.000000 0.000000 
#    y 0.000000 3.508810 0.000000 
#    z 0.000000 0.000000 3.501560 
# 
# 
# High freq. dielectric constant tensor:
#      x y z
#    x 1.705540 0.000000 0.000000 
#    y 0.000000 1.736870 0.000000 
#    z 0.000000 0.000000 1.746290 
# 
# From -- ./inp_files/32779.got.cif
#   From: 2010.03.12/outbox.cif.g09.slc.cpg/sg59_17_cif.got.tgz:32779.got - 2010.04.16 16:29:54.
