data_PCOD8242648
_publ_section_title
;
Structure prediction by ZEFSAII (Michael W. Deem and Ramdas Pophale) SiO2 
 PCOD8242648
Probable space group: P M M N
;
_chemical_formula_sum "Si O2"
_cell_formula_units_Z 48
_cell_length_a 9.159794
_cell_length_b 8.965259
_cell_length_c 31.033095
_cell_angle_alpha 90.000000
_cell_angle_beta 90.000000
_cell_angle_gamma 90.000000
_cell_volume 2548.435452
_symmetry_space_group_name_H-M "P M M N"
_symmetry_group_IT_number 59
_space_group.IT_coordinate_system_code '2'
_symmetry_cell_setting 'orthorhombic'
loop_
_space_group_symop_operation_xyz
x,y,z
1/2-x,1/2-y,z
1/2+x,-y,-z
-x,1/2+y,-z
-x,-y,-z
1/2+x,1/2+y,-z
1/2-x,y,z
x,1/2-y,z
loop_
_atom_site_type_symbol
_atom_site_label
_atom_site_fract_x
_atom_site_fract_y
_atom_site_fract_z
Si Si1 0.586193 0.928083 0.707016
Si Si2 0.421507 0.577993 0.884474
Si Si3 0.582067 0.926576 0.539488
Si Si4 0.085288 0.572503 0.624071
Si Si5 0.917499 0.074553 0.960725
Si Si6 0.911606 0.072981 0.211856
O O1 0.750000 0.989779 0.702378
O O2 0.585862 0.750000 0.706948
O O3 0.490839 0.989577 0.667258
O O4 0.520153 0.990650 0.751803
O O5 0.250000 0.553845 0.892253
O O6 0.462830 0.750000 0.892944
O O7 0.512492 0.473789 0.915804
O O8 0.465327 0.528743 0.835958
O O9 0.750000 0.978213 0.539978
O O10 0.568777 0.750000 0.535322
O O11 0.506158 0.984623 0.583137
O O12 0.500000 0.000000 0.500000
O O13 0.250000 0.509562 0.621418
O O14 0.087159 0.750000 0.625057
O O15 0.750000 0.022970 0.961686
O O16 0.932392 0.250000 0.965797
O O17 0.000000 0.000000 0.000000
O O18 0.750000 0.007335 0.220426
O O19 0.903305 0.250000 0.214802
#
# Coordination Sequence:
#
# PCOD8242648 Si02
#       6
#     8   8   8   8   8   8
#     4   9  15  22  35  59  91 124 158 196 237 283
#     4   9  18  33  53  77 104 133 166 203 242 287
#     4  10  20  33  49  70  96 126 162 204 249 298
#     4   9  16  26  41  61  88 123 160 199 245 293
#     4  11  24  39  55  77 103 131 166 206 247 293
#     4   8  14  25  41  63  93 126 157 191 233 281
#
# _framework density 18.835086
#
# number of rings (size 3 to 8) (size 9 to 14) (size 15 to 20)
#    0.000    2.667    0.000    3.500    0.000    9.333 
#    0.000    1.667    0.000    0.000    0.000    1.167 
#    0.000    4.000    0.000    0.000    0.000    0.000 
#
# Total GULP energy -595138.023363 kJ/mol
# GULP energy per Si atom -12398.708820 kJ/mol
# Density = 1.879222 g / cm^3
# Si number density = 18.835086 Si / 1000 Ang^3
#
#
#
# Elastic Constant Matrix: (Units=GPa)
#
#
# Indices 1 2 3 4 5 6 
#
# 1 162.8289 26.5865 103.1168 0.0000 0.0000 0.0000
# 2 26.5865 20.2466 25.6894 0.0000 0.0000 0.0000
# 3 103.1168 25.6894 182.6468 0.0000 0.0000 0.0000
# 4 0.0000 0.0000 0.0000 21.4827 0.0000 0.0000
# 5 0.0000 0.0000 0.0000 0.0000 41.9136 0.0000
# 6 0.0000 0.0000 0.0000 0.0000 0.0000 18.9760
#
#
#
# Elastic Compliance Matrix: (Units=1/GPa)
#
#
# Indices 1 2 3 4 5 6 
#
# 1 0.010435 -0.007580 -0.004825 0.000000 0.000000 0.000000
# 2 -0.007580 0.065626 -0.004951 0.000000 0.000000 0.000000
# 3 -0.004825 -0.004951 0.008895 0.000000 0.000000 0.000000
# 4 0.000000 0.000000 0.000000 0.046549 0.000000 0.000000
# 5 0.000000 0.000000 0.000000 0.000000 0.023859 0.000000
# 6 0.000000 0.000000 0.000000 0.000000 0.000000 0.052698
#
#
# Mechanical properties :
#
#
# Convention : Reuss Voigt Hill
#
# Bulk Modulus (GPa) = 19.90264 75.16754 47.53509
# Shear Modulus (GPa) = 19.26617 30.49645 24.88131
#
# Velocity S-wave (km/s) = 3.20173 4.02821 3.63851
# Velocity P-wave (km/s) = 4.92522 7.85049 6.55317
#
# Compressibility (1/GPa) = 0.05024460
#
# Stress axis : x y z
#
# Youngs Moduli (GPa) = 95.83475 15.23776 112.41755
#
# Poissons Ratio (x) = 0.11550 0.54241
# Poissons Ratio (y) = 0.72643 0.55657
# Poissons Ratio (z) = 0.46240 0.07544
#
# Static dielectric constant tensor:
#      x y z
#    x 3.751130 0.000000 0.000000 
#    y 0.000000 2.848360 0.000000 
#    z 0.000000 0.000000 3.739560 
# 
# 
# High freq. dielectric constant tensor:
#      x y z
#    x 1.742740 0.000000 0.000000 
#    y 0.000000 1.667120 0.000000 
#    z 0.000000 0.000000 1.752120 
# 
# From -- ./inp_files/32874.got.cif
#   From: 2010.03.12/outbox.cif.g09.slc.cpg/sg59_17_cif.got.tgz:32874.got - 2010.04.16 16:29:54.
