data_PCOD8242704
_publ_section_title
;
Structure prediction by ZEFSAII (Michael W. Deem and Ramdas Pophale) SiO2 
 PCOD8242704
Probable space group: P M M N
;
_chemical_formula_sum "Si O2"
_cell_formula_units_Z 48
_cell_length_a 9.378885
_cell_length_b 9.610413
_cell_length_c 31.044858
_cell_angle_alpha 90.000000
_cell_angle_beta 90.000000
_cell_angle_gamma 90.000000
_cell_volume 2798.226982
_symmetry_space_group_name_H-M "P M M N"
_symmetry_group_IT_number 59
_space_group.IT_coordinate_system_code '2'
_symmetry_cell_setting 'orthorhombic'
loop_
_space_group_symop_operation_xyz
x,y,z
1/2-x,1/2-y,z
1/2+x,-y,-z
-x,1/2+y,-z
-x,-y,-z
1/2+x,1/2+y,-z
1/2-x,y,z
x,1/2-y,z
loop_
_atom_site_type_symbol
_atom_site_label
_atom_site_fract_x
_atom_site_fract_y
_atom_site_fract_z
Si Si1 0.917326 0.089555 0.289703
Si Si2 0.916449 0.413833 0.964466
Si Si3 0.591479 0.585053 0.117458
Si Si4 0.591970 0.915465 0.629641
Si Si5 0.080444 0.094986 0.788183
Si Si6 0.082181 0.090676 0.465768
O O1 0.750000 0.067956 0.294580
O O2 0.957926 0.250000 0.282523
O O3 0.986893 0.028786 0.333311
O O4 0.979818 0.005918 0.248849
O O5 0.750000 0.451530 0.965979
O O6 0.942086 0.250000 0.972133
O O7 0.978801 0.462948 0.918452
O O8 0.000000 0.500000 0.000000
O O9 0.750000 0.524507 0.106940
O O10 0.602604 0.750000 0.119161
O O11 0.536914 0.534918 0.164614
O O12 0.750000 0.973923 0.639242
O O13 0.595829 0.750000 0.629497
O O14 0.540531 0.963634 0.582215
O O15 0.250000 0.100739 0.786211
O O16 0.017616 0.250000 0.780880
O O17 0.250000 0.074554 0.472958
O O18 0.034755 0.250000 0.471765
O O19 0.000000 0.000000 0.500000
#
# Coordination Sequence:
#
# PCOD8242704 Si02
#       6
#     8   8   8   8   8   8
#     4   9  16  26  43  67  89 110 144 187 221 253
#     4  10  20  33  50  72  96 123 156 193 233 276
#     4   8  14  27  47  66  86 118 155 185 219 269
#     4   8  15  29  46  62  85 118 149 176 214 268
#     4   8  14  26  44  64  87 117 149 179 217 264
#     4   9  18  32  49  69  92 119 153 191 231 276
#
# _framework density 17.15372
#
# number of rings (size 3 to 8) (size 9 to 14) (size 15 to 20)
#    0.000    3.333    0.000    2.500    0.000    2.000 
#    0.000    4.167    0.000    7.500    0.000    0.000 
#    0.000    0.000    0.000    0.000    0.000    0.000 
#
# Total GULP energy -594878.915815 kJ/mol
# GULP energy per Si atom -12393.310746 kJ/mol
# Density = 1.711468 g / cm^3
# Si number density = 17.153720 Si / 1000 Ang^3
#
#
#
# Elastic Constant Matrix: (Units=GPa)
#
#
# Indices 1 2 3 4 5 6 
#
# 1 70.1350 34.2162 72.8928 0.0000 0.0000 0.0000
# 2 34.2162 48.2646 59.9837 0.0000 0.0000 0.0000
# 3 72.8928 59.9837 187.4880 0.0000 0.0000 0.0000
# 4 0.0000 0.0000 0.0000 31.1213 0.0000 0.0000
# 5 0.0000 0.0000 0.0000 0.0000 31.9731 0.0000
# 6 0.0000 0.0000 0.0000 0.0000 0.0000 18.0231
#
#
#
# Elastic Compliance Matrix: (Units=1/GPa)
#
#
# Indices 1 2 3 4 5 6 
#
# 1 0.026517 -0.009937 -0.007130 0.000000 0.000000 0.000000
# 2 -0.009937 0.038119 -0.008332 0.000000 0.000000 0.000000
# 3 -0.007130 -0.008332 0.010772 0.000000 0.000000 0.000000
# 4 0.000000 0.000000 0.000000 0.032132 0.000000 0.000000
# 5 0.000000 0.000000 0.000000 0.000000 0.031276 0.000000
# 6 0.000000 0.000000 0.000000 0.000000 0.000000 0.055484
#
#
# Mechanical properties :
#
#
# Convention : Reuss Voigt Hill
#
# Bulk Modulus (GPa) = 40.63624 71.11922 55.87773
# Shear Modulus (GPa) = 19.73928 25.47647 22.60787
#
# Velocity S-wave (km/s) = 3.39592 3.85799 3.63431
# Velocity P-wave (km/s) = 6.25438 7.83552 7.08917
#
# Compressibility (1/GPa) = 0.02460858
#
# Stress axis : x y z
#
# Youngs Moduli (GPa) = 37.71222 26.23354 92.83737
#
# Poissons Ratio (x) = 0.26068 0.66194
# Poissons Ratio (y) = 0.37475 0.77354
# Poissons Ratio (z) = 0.26889 0.21858
#
# Static dielectric constant tensor:
#      x y z
#    x 3.115130 0.000000 0.000000 
#    y 0.000000 2.683140 0.000000 
#    z 0.000000 0.000000 3.708740 
# 
# 
# High freq. dielectric constant tensor:
#      x y z
#    x 1.642330 0.000000 0.000000 
#    y 0.000000 1.623020 0.000000 
#    z 0.000000 0.000000 1.679670 
# 
# From -- ./inp_files/32583.got.cif
#   From: 2010.03.12/outbox.cif.g09.slc.cpg/sg59_17_cif.got.tgz:32583.got - 2010.04.16 16:29:54.
