data_PCOD8242524
_publ_section_title
;
Structure prediction by ZEFSAII (Michael W. Deem and Ramdas Pophale) SiO2 
 PCOD8242524
Probable space group: P M M N
;
_chemical_formula_sum "Si O2"
_cell_formula_units_Z 40
_cell_length_a 9.289297
_cell_length_b 13.427832
_cell_length_c 18.516878
_cell_angle_alpha 90.000000
_cell_angle_beta 90.000000
_cell_angle_gamma 90.000000
_cell_volume 2309.704990
_symmetry_space_group_name_H-M "P M M N"
_symmetry_group_IT_number 59
_space_group.IT_coordinate_system_code '2'
_symmetry_cell_setting 'orthorhombic'
loop_
_space_group_symop_operation_xyz
x,y,z
1/2-x,1/2-y,z
1/2+x,-y,-z
-x,1/2+y,-z
-x,-y,-z
1/2+x,1/2+y,-z
1/2-x,y,z
x,1/2-y,z
loop_
_atom_site_type_symbol
_atom_site_label
_atom_site_fract_x
_atom_site_fract_y
_atom_site_fract_z
Si Si1 0.084457 0.139754 0.028569
Si Si2 0.580984 0.133952 0.742126
Si Si3 0.086264 0.638916 0.521966
Si Si4 0.418338 0.941487 0.102928
Si Si5 0.917992 0.946639 0.392697
O O1 0.250000 0.126099 0.006459
O O2 0.055195 0.250000 0.060816
O O3 0.042019 0.057634 0.088719
O O4 0.993814 0.127515 0.955955
O O5 0.750000 0.116576 0.730752
O O6 0.541420 0.250000 0.737612
O O7 0.527314 0.089797 0.818243
O O8 0.495751 0.072816 0.682328
O O9 0.250000 0.623372 0.494457
O O10 0.063516 0.750000 0.553049
O O11 0.051586 0.561473 0.585848
O O12 0.981609 0.624827 0.454197
O O13 0.250000 0.920671 0.096075
O O14 0.750000 0.923259 0.384642
#
# Coordination Sequence:
#
# PCOD8242524 Si02
#       5
#     8   8   8   8   8
#     4   9  17  30  49  72  96 121 152 195 241 276
#     4  10  20  33  48  67  95 129 158 187 230 281
#     4   9  18  34  53  70  93 126 157 187 230 281
#     4   9  18  32  49  69  94 125 160 192 226 278
#     4  10  20  32  49  74  98 120 154 197 233 270
#
# _framework density 17.318228000000001
#
# number of rings (size 3 to 8) (size 9 to 14) (size 15 to 20)
#    0.000    2.600    0.000    1.800    0.000    6.000 
#    0.000    1.000    0.000    1.200    0.000    0.000 
#    0.000    0.000    0.000    0.000    0.000    0.000 
#
# Total GULP energy -495997.085616 kJ/mol
# GULP energy per Si atom -12399.927140 kJ/mol
# Density = 1.727881 g / cm^3
# Si number density = 17.318228 Si / 1000 Ang^3
#
#
#
# Elastic Constant Matrix: (Units=GPa)
#
#
# Indices 1 2 3 4 5 6 
#
# 1 52.0888 35.5950 45.8659 0.0000 0.0000 0.0000
# 2 35.5950 119.3204 52.9743 0.0000 0.0000 0.0000
# 3 45.8659 52.9743 116.8452 0.0000 0.0000 0.0000
# 4 0.0000 0.0000 0.0000 19.3131 0.0000 0.0000
# 5 0.0000 0.0000 0.0000 0.0000 31.4653 0.0000
# 6 0.0000 0.0000 0.0000 0.0000 0.0000 23.7575
#
#
#
# Elastic Compliance Matrix: (Units=1/GPa)
#
#
# Indices 1 2 3 4 5 6 
#
# 1 0.031460 -0.004886 -0.010134 0.000000 0.000000 0.000000
# 2 -0.004886 0.011252 -0.003183 0.000000 0.000000 0.000000
# 3 -0.010134 -0.003183 0.013980 0.000000 0.000000 0.000000
# 4 0.000000 0.000000 0.000000 0.051778 0.000000 0.000000
# 5 0.000000 0.000000 0.000000 0.000000 0.031781 0.000000
# 6 0.000000 0.000000 0.000000 0.000000 0.000000 0.042092
#
#
# Mechanical properties :
#
#
# Convention : Reuss Voigt Hill
#
# Bulk Modulus (GPa) = 49.29799 61.90276 55.60037
# Shear Modulus (GPa) = 22.17191 25.16181 23.66686
#
# Velocity S-wave (km/s) = 3.58196 3.81584 3.70075
# Velocity P-wave (km/s) = 6.75537 7.43210 7.10180
#
# Compressibility (1/GPa) = 0.02028480
#
# Stress axis : x y z
#
# Youngs Moduli (GPa) = 31.78625 88.87644 71.53296
#
# Poissons Ratio (x) = 0.43423 0.72493
# Poissons Ratio (y) = 0.15530 0.22771
# Poissons Ratio (z) = 0.32213 0.28292
#
# Static dielectric constant tensor:
#      x y z
#    x 3.245640 0.000000 0.000000 
#    y 0.000000 3.427330 0.000000 
#    z 0.000000 0.000000 3.098850 
# 
# 
# High freq. dielectric constant tensor:
#      x y z
#    x 1.669890 0.000000 0.000000 
#    y 0.000000 1.679240 0.000000 
#    z 0.000000 0.000000 1.649870 
# 
# From -- ./inp_files/25315.got.cif
#   From: 2010.03.12/outbox.cif.g09.slc.cpg/sg59_13_cif.got.tgz:25315.got - 2010.04.16 16:29:54.
