data_PCOD8242274
_publ_section_title
;
Structure prediction by ZEFSAII (Michael W. Deem and Ramdas Pophale) SiO2 
 PCOD8242274
Probable space group: P M M N
;
_chemical_formula_sum "Si O2"
_cell_formula_units_Z 48
_cell_length_a 17.451011
_cell_length_b 27.245852
_cell_length_c 4.979632
_cell_angle_alpha 90.000000
_cell_angle_beta 90.000000
_cell_angle_gamma 90.000000
_cell_volume 2367.653989
_symmetry_space_group_name_H-M "P M M N"
_symmetry_group_IT_number 59
_space_group.IT_coordinate_system_code '2'
_symmetry_cell_setting 'orthorhombic'
loop_
_space_group_symop_operation_xyz
x,y,z
1/2-x,1/2-y,z
1/2+x,-y,-z
-x,1/2+y,-z
-x,-y,-z
1/2+x,1/2+y,-z
1/2-x,y,z
x,1/2-y,z
loop_
_atom_site_type_symbol
_atom_site_label
_atom_site_fract_x
_atom_site_fract_y
_atom_site_fract_z
Si Si1 0.962781 0.057043 0.291504
Si Si2 0.919647 0.341288 0.123009
Si Si3 0.591566 0.808274 0.803558
Si Si4 0.435885 0.450332 0.788659
Si Si5 0.161621 0.141778 0.704710
Si Si6 0.836457 0.305764 0.621679
O O1 0.909265 0.102799 0.220617
O O2 0.993570 0.063606 0.593506
O O3 0.912743 0.007124 0.264910
O O4 0.036330 0.055739 0.094287
O O5 0.872776 0.307212 0.326007
O O6 0.007446 0.324820 0.106958
O O7 0.885454 0.338264 0.825787
O O8 0.597601 0.750000 0.783084
O O9 0.610134 0.831416 0.516408
O O10 0.651879 0.828447 0.019411
O O11 0.364028 0.414804 0.739236
O O12 0.250000 0.142313 0.618664
O O13 0.750000 0.325916 0.609678
O O14 0.838223 0.250000 0.723376
#
# Coordination Sequence:
#
# PCOD8242274 Si02
#       6
#     8   8   8   8   8   8
#     4  10  20  35  66  87 116 145 198 249 297 351
#     4  12  21  40  64  92 119 154 201 262 292 353
#     4  12  25  40  61  91 120 160 218 255 293 353
#     4  10  19  39  59  90 113 153 197 242 297 367
#     4  12  24  41  61  86 128 166 201 255 310 355
#     4  11  24  40  59  86 124 165 196 234 305 372
#
# _framework density 20.273233999999999
#
# number of rings (size 3 to 8) (size 9 to 14) (size 15 to 20)
#    0.000    0.833    3.333    5.000    0.000    3.333 
#    0.000    1.667    0.000    0.000    0.000    0.000 
#    0.000    0.000    0.000    0.000    0.000    0.000 
#
# Total GULP energy -595468.191006 kJ/mol
# GULP energy per Si atom -12405.587313 kJ/mol
# Density = 2.022709 g / cm^3
# Si number density = 20.273234 Si / 1000 Ang^3
#
#
#
# Elastic Constant Matrix: (Units=GPa)
#
#
# Indices 1 2 3 4 5 6 
#
# 1 92.6100 25.5027 9.7785 0.0000 0.0000 0.0000
# 2 25.5027 101.5173 5.1760 0.0000 0.0000 0.0000
# 3 9.7785 5.1760 77.0996 0.0000 0.0000 0.0000
# 4 0.0000 0.0000 0.0000 32.3124 0.0000 0.0000
# 5 0.0000 0.0000 0.0000 0.0000 24.7967 0.0000
# 6 0.0000 0.0000 0.0000 0.0000 0.0000 21.7696
#
#
#
# Elastic Compliance Matrix: (Units=1/GPa)
#
#
# Indices 1 2 3 4 5 6 
#
# 1 0.011728 -0.002880 -0.001294 0.000000 0.000000 0.000000
# 2 -0.002880 0.010592 -0.000346 0.000000 0.000000 0.000000
# 3 -0.001294 -0.000346 0.013158 0.000000 0.000000 0.000000
# 4 0.000000 0.000000 0.000000 0.030948 0.000000 0.000000
# 5 0.000000 0.000000 0.000000 0.000000 0.040328 0.000000
# 6 0.000000 0.000000 0.000000 0.000000 0.000000 0.045936
#
#
# Mechanical properties :
#
#
# Convention : Reuss Voigt Hill
#
# Bulk Modulus (GPa) = 37.82586 39.12683 38.47634
# Shear Modulus (GPa) = 29.31850 31.16040 30.23945
#
# Velocity S-wave (km/s) = 3.80698 3.92474 3.86631
# Velocity P-wave (km/s) = 6.16625 6.31504 6.24109
#
# Compressibility (1/GPa) = 0.02643694
#
# Stress axis : x y z
#
# Youngs Moduli (GPa) = 85.26779 94.41335 76.00188
#
# Poissons Ratio (x) = 0.27193 0.09835
# Poissons Ratio (y) = 0.24559 0.02628
# Poissons Ratio (z) = 0.11034 0.03265
#
# Static dielectric constant tensor:
#      x y z
#    x 3.378730 0.000000 0.000000 
#    y 0.000000 3.968940 0.000000 
#    z 0.000000 0.000000 3.754040 
# 
# 
# High freq. dielectric constant tensor:
#      x y z
#    x 1.759670 0.000000 0.000000 
#    y 0.000000 1.806780 0.000000 
#    z 0.000000 0.000000 1.812020 
# 
# From -- ./inp_files/2138.got.cif
#   From: 2010.03.12/outbox.cif.g09.slc.cpg/sg59_2_cif.got.tgz:2138.got - 2010.04.16 16:29:54.
