data_PCOD8242088
_publ_section_title
;
Structure prediction by ZEFSAII (Michael W. Deem and Ramdas Pophale) SiO2 
 PCOD8242088
Probable space group: P M M N
;
_chemical_formula_sum "Si O2"
_cell_formula_units_Z 48
_cell_length_a 18.908175
_cell_length_b 9.260670
_cell_length_c 14.876181
_cell_angle_alpha 90.000000
_cell_angle_beta 90.000000
_cell_angle_gamma 90.000000
_cell_volume 2604.854534
_symmetry_space_group_name_H-M "P M M N"
_symmetry_group_IT_number 59
_space_group.IT_coordinate_system_code '2'
_symmetry_cell_setting 'orthorhombic'
loop_
_space_group_symop_operation_xyz
x,y,z
1/2-x,1/2-y,z
1/2+x,-y,-z
-x,1/2+y,-z
-x,-y,-z
1/2+x,1/2+y,-z
1/2-x,y,z
x,1/2-y,z
loop_
_atom_site_type_symbol
_atom_site_label
_atom_site_fract_x
_atom_site_fract_y
_atom_site_fract_z
Si Si1 0.555298 0.582185 0.119361
Si Si2 0.941055 0.920396 0.322956
Si Si3 0.418209 0.421992 0.361924
Si Si4 0.169247 0.915344 0.218565
Si Si5 0.403892 0.914626 0.042231
Si Si6 0.828902 0.920111 0.468029
O O1 0.570389 0.750000 0.111759
O O2 0.570353 0.528271 0.220428
O O3 0.475280 0.540248 0.094496
O O4 0.607877 0.505904 0.048513
O O5 0.958255 0.750000 0.327993
O O6 0.869929 0.960907 0.376713
O O7 0.005029 0.006269 0.368964
O O8 0.426324 0.250000 0.360142
O O9 0.379551 0.474324 0.272047
O O10 0.372402 0.478190 0.446385
O O11 0.250000 0.944080 0.244690
O O12 0.146550 0.750000 0.240539
O O13 0.159729 0.943245 0.111910
O O14 0.407705 0.750000 0.011159
O O15 0.750000 0.989274 0.465802
O O16 0.822013 0.750000 0.477179
#
# Coordination Sequence:
#
# PCOD8242088 Si02
#       6
#     8   8   8   8   8   8
#     4   9  17  30  50  75 100 129 168 213 254 297
#     4  10  19  35  57  78 104 138 180 221 257 313
#     4  11  21  33  53  81 110 137 173 221 268 312
#     4  10  20  35  54  76 106 144 180 214 262 322
#     4   9  17  31  49  72 102 133 168 210 254 306
#     4   9  19  35  54  77 106 140 174 214 267 318
#
# _framework density 18.427133000000001
#
# number of rings (size 3 to 8) (size 9 to 14) (size 15 to 20)
#    0.000    2.333    1.667    1.500    0.000    2.333 
#    0.000    1.667    0.000    3.500    0.000    0.000 
#    0.000    0.000    0.000    0.000    0.000    0.000 
#
# Total GULP energy -595183.339844 kJ/mol
# GULP energy per Si atom -12399.652913 kJ/mol
# Density = 1.838519 g / cm^3
# Si number density = 18.427133 Si / 1000 Ang^3
#
#
#
# Elastic Constant Matrix: (Units=GPa)
#
#
# Indices 1 2 3 4 5 6 
#
# 1 89.9855 31.5504 55.9607 0.0000 0.0000 0.0000
# 2 31.5504 44.7049 38.2613 0.0000 0.0000 0.0000
# 3 55.9607 38.2613 137.2798 0.0000 0.0000 0.0000
# 4 0.0000 0.0000 0.0000 24.8226 0.0000 0.0000
# 5 0.0000 0.0000 0.0000 0.0000 24.7614 0.0000
# 6 0.0000 0.0000 0.0000 0.0000 0.0000 18.5122
#
#
#
# Elastic Compliance Matrix: (Units=1/GPa)
#
#
# Indices 1 2 3 4 5 6 
#
# 1 0.016751 -0.007851 -0.004640 0.000000 0.000000 0.000000
# 2 -0.007851 0.033055 -0.006013 0.000000 0.000000 0.000000
# 3 -0.004640 -0.006013 0.010852 0.000000 0.000000 0.000000
# 4 0.000000 0.000000 0.000000 0.040286 0.000000 0.000000
# 5 0.000000 0.000000 0.000000 0.000000 0.040385 0.000000
# 6 0.000000 0.000000 0.000000 0.000000 0.000000 0.054018
#
#
# Mechanical properties :
#
#
# Convention : Reuss Voigt Hill
#
# Bulk Modulus (GPa) = 42.28129 58.16833 50.22481
# Shear Modulus (GPa) = 20.81258 23.36577 22.08917
#
# Velocity S-wave (km/s) = 3.36438 3.56477 3.46603
# Velocity P-wave (km/s) = 6.17147 6.96984 6.58277
#
# Compressibility (1/GPa) = 0.02365113
#
# Stress axis : x y z
#
# Youngs Moduli (GPa) = 59.69697 30.25218 92.15047
#
# Poissons Ratio (x) = 0.23750 0.42762
# Poissons Ratio (y) = 0.46866 0.55407
# Poissons Ratio (z) = 0.27702 0.18190
#
# Static dielectric constant tensor:
#      x y z
#    x 3.401340 0.000000 0.000000 
#    y 0.000000 3.202460 0.000000 
#    z 0.000000 0.000000 3.541220 
# 
# 
# High freq. dielectric constant tensor:
#      x y z
#    x 1.699400 0.000000 0.000000 
#    y 0.000000 1.692380 0.000000 
#    z 0.000000 0.000000 1.724160 
# 
# From -- ./inp_files/20329.got.cif
#   From: 2010.03.12/outbox.cif.g09.slc.cpg/sg59_11_cif.got.tgz:20329.got - 2010.04.16 16:29:54.
