data_PCOD8242222
_publ_section_title
;
Structure prediction by ZEFSAII (Michael W. Deem and Ramdas Pophale) SiO2 
 PCOD8242222
Probable space group: P M M N
;
_chemical_formula_sum "Si O2"
_cell_formula_units_Z 56
_cell_length_a 14.824854
_cell_length_b 8.989418
_cell_length_c 21.799860
_cell_angle_alpha 90.000000
_cell_angle_beta 90.000000
_cell_angle_gamma 90.000000
_cell_volume 2905.197787
_symmetry_space_group_name_H-M "P M M N"
_symmetry_group_IT_number 59
_space_group.IT_coordinate_system_code '2'
_symmetry_cell_setting 'orthorhombic'
loop_
_space_group_symop_operation_xyz
x,y,z
1/2-x,1/2-y,z
1/2+x,-y,-z
-x,1/2+y,-z
-x,-y,-z
1/2+x,1/2+y,-z
1/2-x,y,z
x,1/2-y,z
loop_
_atom_site_type_symbol
_atom_site_label
_atom_site_fract_x
_atom_site_fract_y
_atom_site_fract_z
Si Si1 0.054668 0.075002 0.945798
Si Si2 0.750000 0.573965 0.020359
Si Si3 0.750000 0.926721 0.880793
Si Si4 0.649748 0.582103 0.621897
Si Si5 0.505571 0.075831 0.700731
Si Si6 0.148314 0.580861 0.632672
Si Si7 0.093244 0.079161 0.512113
Si Si8 0.570813 0.424421 0.834265
O O1 0.052260 0.250000 0.957827
O O2 0.158858 0.016979 0.945704
O O3 0.008228 0.032145 0.881746
O O4 0.000000 0.000000 0.000000
O O5 0.750000 0.750000 0.019855
O O6 0.750000 0.514397 0.950620
O O7 0.750000 0.750000 0.877231
O O8 0.838425 0.986415 0.847247
O O9 0.750000 0.550396 0.647247
O O10 0.619082 0.750000 0.638811
O O11 0.582037 0.465412 0.651697
O O12 0.653231 0.563235 0.548647
O O13 0.487838 0.250000 0.697671
O O14 0.535963 0.025241 0.767983
O O15 0.413143 0.993853 0.684405
O O16 0.250000 0.573522 0.657610
O O17 0.116174 0.750000 0.622367
O O18 0.144269 0.497319 0.568052
O O19 0.075794 0.250000 0.529703
O O20 0.000000 0.000000 0.500000
O O21 0.593094 0.250000 0.837001
#
# Coordination Sequence:
#
# PCOD8242222 Si02
#       8
#     8   4   4   8   8   8   8   8
#     4  10  19  36  59  84 117 152 190 239 291 343
#     4   9  18  33  57  89 117 147 192 239 288 347
#     4  11  21  35  61  93 119 155 196 235 286 355
#     4  10  22  39  59  85 117 153 192 237 294 354
#     4  11  24  41  60  85 117 157 201 245 293 351
#     4  11  24  42  64  88 116 155 201 250 304 358
#     4  11  21  36  61  90 120 154 193 243 300 356
#     4  10  23  40  58  86 122 159 195 242 297 349
#
# _framework density 19.275794999999999
#
# number of rings (size 3 to 8) (size 9 to 14) (size 15 to 20)
#    0.000    1.571    2.857    1.929    1.000    3.714 
#    1.286    0.357    0.000    0.000    0.000    0.000 
#    0.000    0.000    0.000    0.000    0.000    0.000 
#
# Total GULP energy -694533.178909 kJ/mol
# GULP energy per Si atom -12402.378195 kJ/mol
# Density = 1.923192 g / cm^3
# Si number density = 19.275795 Si / 1000 Ang^3
#
#
#
# Elastic Constant Matrix: (Units=GPa)
#
#
# Indices 1 2 3 4 5 6 
#
# 1 154.2048 52.7272 62.9048 0.0000 0.0000 0.0000
# 2 52.7272 88.2616 48.5125 0.0000 0.0000 0.0000
# 3 62.9048 48.5125 121.2064 0.0000 0.0000 0.0000
# 4 0.0000 0.0000 0.0000 28.3106 0.0000 0.0000
# 5 0.0000 0.0000 0.0000 0.0000 17.9905 0.0000
# 6 0.0000 0.0000 0.0000 0.0000 0.0000 24.2470
#
#
#
# Elastic Compliance Matrix: (Units=1/GPa)
#
#
# Indices 1 2 3 4 5 6 
#
# 1 0.009047 -0.003620 -0.003246 0.000000 0.000000 0.000000
# 2 -0.003620 0.015974 -0.004515 0.000000 0.000000 0.000000
# 3 -0.003246 -0.004515 0.011742 0.000000 0.000000 0.000000
# 4 0.000000 0.000000 0.000000 0.035322 0.000000 0.000000
# 5 0.000000 0.000000 0.000000 0.000000 0.055585 0.000000
# 6 0.000000 0.000000 0.000000 0.000000 0.000000 0.041242
#
#
# Mechanical properties :
#
#
# Convention : Reuss Voigt Hill
#
# Bulk Modulus (GPa) = 71.42481 76.88466 74.15473
# Shear Modulus (GPa) = 25.46569 27.41151 26.43860
#
# Velocity S-wave (km/s) = 3.63867 3.77512 3.70752
# Velocity P-wave (km/s) = 7.40188 7.67954 7.54199
#
# Compressibility (1/GPa) = 0.01400074
#
# Stress axis : x y z
#
# Youngs Moduli (GPa) = 110.53320 62.60078 85.16317
#
# Poissons Ratio (x) = 0.22664 0.27646
# Poissons Ratio (y) = 0.40017 0.38449
# Poissons Ratio (z) = 0.35882 0.28262
#
# Static dielectric constant tensor:
#      x y z
#    x 3.705960 0.000000 0.000000 
#    y 0.000000 3.596690 0.000000 
#    z 0.000000 0.000000 3.602340 
# 
# 
# High freq. dielectric constant tensor:
#      x y z
#    x 1.764030 0.000000 0.000000 
#    y 0.000000 1.747280 0.000000 
#    z 0.000000 0.000000 1.743530 
# 
# From -- ./inp_files/30425.got.cif
#   From: 2010.03.12/outbox.cif.g09.slc.cpg/sg59_16_cif.got.tgz:30425.got - 2010.04.16 16:29:54.
