data_PCOD8242137
_publ_section_title
;
Structure prediction by ZEFSAII (Michael W. Deem and Ramdas Pophale) SiO2 
 PCOD8242137
Probable space group: P M M N
;
_chemical_formula_sum "Si O2"
_cell_formula_units_Z 24
_cell_length_a 7.711382
_cell_length_b 18.717172
_cell_length_c 9.211082
_cell_angle_alpha 90.000000
_cell_angle_beta 90.000000
_cell_angle_gamma 90.000000
_cell_volume 1329.483945
_symmetry_space_group_name_H-M "P M M N"
_symmetry_group_IT_number 59
_space_group.IT_coordinate_system_code '2'
_symmetry_cell_setting 'orthorhombic'
loop_
_space_group_symop_operation_xyz
x,y,z
1/2-x,1/2-y,z
1/2+x,-y,-z
-x,1/2+y,-z
-x,-y,-z
1/2+x,1/2+y,-z
1/2-x,y,z
x,1/2-y,z
loop_
_atom_site_type_symbol
_atom_site_label
_atom_site_fract_x
_atom_site_fract_y
_atom_site_fract_z
Si Si1 0.250000 0.166348 0.839911
Si Si2 0.554593 0.415227 0.329820
Si Si3 0.250000 0.166284 0.176936
Si Si4 0.941248 0.927015 0.363501
O O1 0.250000 0.250000 0.808971
O O2 0.250000 0.147086 0.007810
O O3 0.423112 0.131526 0.765898
O O4 0.750000 0.402336 0.271033
O O5 0.425242 0.363691 0.245845
O O6 0.490265 0.496996 0.302423
O O7 0.555488 0.398027 0.503089
O O8 0.250000 0.250000 0.204479
O O9 0.750000 0.942887 0.430290
#
# Coordination Sequence:
#
# PCOD8242137 Si02
#       4
#     4   8   4   8
#     4   9  19  37  57  79 114 153 184 221 279 334
#     4  10  19  35  58  85 111 140 186 234 277 326
#     4  11  23  37  55  79 116 155 182 227 279 330
#     4   8  17  34  55  85 108 141 184 226 275 325
#
# _framework density 18.052116999999999
#
# number of rings (size 3 to 8) (size 9 to 14) (size 15 to 20)
#    1.000    1.667    1.667    0.000    2.333    4.667 
#    0.000    1.667    0.000    2.000    0.000    0.000 
#    0.000    0.000    0.000    0.000    0.000    0.000 
#
# Total GULP energy -297348.658875 kJ/mol
# GULP energy per Si atom -12389.527453 kJ/mol
# Density = 1.801103 g / cm^3
# Si number density = 18.052117 Si / 1000 Ang^3
#
#
#
# Elastic Constant Matrix: (Units=GPa)
#
#
# Indices 1 2 3 4 5 6 
#
# 1 80.0160 43.4110 47.1650 0.0000 0.0000 0.0000
# 2 43.4110 112.0956 85.0417 0.0000 0.0000 0.0000
# 3 47.1650 85.0417 117.6381 0.0000 0.0000 0.0000
# 4 0.0000 0.0000 0.0000 34.0967 0.0000 0.0000
# 5 0.0000 0.0000 0.0000 0.0000 -1.3514 0.0000
# 6 0.0000 0.0000 0.0000 0.0000 0.0000 30.4221
#
#
#
# Elastic Compliance Matrix: (Units=1/GPa)
#
#
# Indices 1 2 3 4 5 6 
#
# 1 0.016837 -0.003099 -0.004511 0.000000 0.000000 0.000000
# 2 -0.003099 0.020326 -0.013452 0.000000 0.000000 0.000000
# 3 -0.004511 -0.013452 0.020033 0.000000 0.000000 0.000000
# 4 0.000000 0.000000 0.000000 0.029328 0.000000 0.000000
# 5 0.000000 0.000000 0.000000 0.000000 -0.739947 0.000000
# 6 0.000000 0.000000 0.000000 0.000000 0.000000 0.032871
#
#
# Mechanical properties :
#
#
# Convention : Reuss Voigt Hill
#
# Bulk Modulus (GPa) = 66.33416 73.44279 69.88847
# Shear Modulus (GPa) = -8.71985 21.57561 6.42788
#
# Velocity S-wave (km/s) = -2.20020 3.46089 1.88904
# Velocity P-wave (km/s) = 5.51101 7.53276 6.59976
#
# Compressibility (1/GPa) = 0.01507519
#
# Stress axis : x y z
#
# Youngs Moduli (GPa) = 59.39183 49.19825 49.91679
#
# Poissons Ratio (x) = 0.15244 0.22516
# Poissons Ratio (y) = 0.18403 0.67146
# Poissons Ratio (z) = 0.26790 0.66179
#
# Static dielectric constant tensor:
#      x y z
#    x 3.169910 0.000000 0.000000 
#    y 0.000000 3.239280 0.000000 
#    z 0.000000 0.000000 3.154700 
# 
# 
# High freq. dielectric constant tensor:
#      x y z
#    x 1.683470 0.000000 0.000000 
#    y 0.000000 1.694310 0.000000 
#    z 0.000000 0.000000 1.684470 
# 
# From -- ./inp_files/5244.got.cif
#   From: 2010.03.12/outbox.cif.g09.slc.cpg/sg59_3_cif.got.tgz:5244.got - 2010.04.16 16:29:54.
