data_PCOD8242136
_publ_section_title
;
Structure prediction by ZEFSAII (Michael W. Deem and Ramdas Pophale) SiO2 
 PCOD8242136
Probable space group: P M M N
;
_chemical_formula_sum "Si O2"
_cell_formula_units_Z 40
_cell_length_a 29.043904
_cell_length_b 8.684623
_cell_length_c 7.932295
_cell_angle_alpha 90.000000
_cell_angle_beta 90.000000
_cell_angle_gamma 90.000000
_cell_volume 2000.805259
_symmetry_space_group_name_H-M "P M M N"
_symmetry_group_IT_number 59
_space_group.IT_coordinate_system_code '2'
_symmetry_cell_setting 'orthorhombic'
loop_
_space_group_symop_operation_xyz
x,y,z
1/2-x,1/2-y,z
1/2+x,-y,-z
-x,1/2+y,-z
-x,-y,-z
1/2+x,1/2+y,-z
1/2-x,y,z
x,1/2-y,z
loop_
_atom_site_type_symbol
_atom_site_label
_atom_site_fract_x
_atom_site_fract_y
_atom_site_fract_z
Si Si1 0.046325 0.931333 0.927376
Si Si2 0.452884 0.431630 0.566822
Si Si3 0.857809 0.430095 0.934193
Si Si4 0.137134 0.931987 0.437931
Si Si5 0.198208 0.566340 0.750747
O O1 0.040236 0.750000 0.910065
O O2 0.058691 0.000889 0.748114
O O3 0.088738 0.978319 0.047573
O O4 0.000000 0.000000 0.000000
O O5 0.500000 0.500000 0.500000
O O6 0.457740 0.250000 0.575351
O O7 0.411342 0.480400 0.445612
O O8 0.853822 0.250000 0.963203
O O9 0.841044 0.474030 0.745510
O O10 0.825920 0.504186 0.080880
O O11 0.127828 0.750000 0.452738
O O12 0.171353 0.990957 0.583853
O O13 0.250000 0.501197 0.743128
O O14 0.198625 0.750000 0.753572
#
# Coordination Sequence:
#
# PCOD8242136 Si02
#       5
#     8   8   8   8   8
#     4  11  21  36  56  83 119 158 199 244 292 352
#     4  12  24  38  57  83 115 155 199 247 301 363
#     4   9  18  32  53  81 115 151 187 234 289 344
#     4  10  19  35  58  84 117 154 193 242 295 352
#     4   9  17  31  54  86 120 152 190 240 295 349
#
# _framework density 19.991951
#
# number of rings (size 3 to 8) (size 9 to 14) (size 15 to 20)
#    0.000    1.800    2.000    3.600    0.000    2.400 
#    0.000    5.000    0.000    0.600    0.000    0.000 
#    0.000    0.000    0.000    0.000    0.000    0.000 
#
# Total GULP energy -495935.462116 kJ/mol
# GULP energy per Si atom -12398.386553 kJ/mol
# Density = 1.994645 g / cm^3
# Si number density = 19.991951 Si / 1000 Ang^3
#
#
#
# Elastic Constant Matrix: (Units=GPa)
#
#
# Indices 1 2 3 4 5 6 
#
# 1 153.2362 30.1085 80.9669 0.0000 0.0000 0.0000
# 2 30.1085 63.4206 17.6076 0.0000 0.0000 0.0000
# 3 80.9669 17.6076 158.5857 0.0000 0.0000 0.0000
# 4 0.0000 0.0000 0.0000 19.8183 0.0000 0.0000
# 5 0.0000 0.0000 0.0000 0.0000 33.6013 0.0000
# 6 0.0000 0.0000 0.0000 0.0000 0.0000 20.3125
#
#
#
# Elastic Compliance Matrix: (Units=1/GPa)
#
#
# Indices 1 2 3 4 5 6 
#
# 1 0.009556 -0.003283 -0.004515 0.000000 0.000000 0.000000
# 2 -0.003283 0.017397 -0.000255 0.000000 0.000000 0.000000
# 3 -0.004515 -0.000255 0.008639 0.000000 0.000000 0.000000
# 4 0.000000 0.000000 0.000000 0.050458 0.000000 0.000000
# 5 0.000000 0.000000 0.000000 0.000000 0.029761 0.000000
# 6 0.000000 0.000000 0.000000 0.000000 0.000000 0.049231
#
#
# Mechanical properties :
#
#
# Convention : Reuss Voigt Hill
#
# Bulk Modulus (GPa) = 51.31785 70.28982 60.80384
# Shear Modulus (GPa) = 26.64613 31.18373 28.91493
#
# Velocity S-wave (km/s) = 3.65477 3.95373 3.80719
# Velocity P-wave (km/s) = 6.59809 7.48853 7.05737
#
# Compressibility (1/GPa) = 0.01948640
#
# Stress axis : x y z
#
# Youngs Moduli (GPa) = 104.64187 57.47981 115.75418
#
# Poissons Ratio (x) = 0.18873 0.52257
# Poissons Ratio (y) = 0.34359 0.02954
# Poissons Ratio (z) = 0.47241 0.01467
#
# Static dielectric constant tensor:
#      x y z
#    x 3.821920 0.000000 0.000000 
#    y 0.000000 3.436520 0.000000 
#    z 0.000000 0.000000 3.984420 
# 
# 
# High freq. dielectric constant tensor:
#      x y z
#    x 1.781070 0.000000 0.000000 
#    y 0.000000 1.734940 0.000000 
#    z 0.000000 0.000000 1.799870 
# 
# From -- ./inp_files/5860.got.cif
#   From: 2010.03.12/outbox.cif.g09.slc.cpg/sg59_3_cif.got.tgz:5860.got - 2010.04.16 16:29:54.
