data_PCOD8242790
_publ_section_title
;
Structure prediction by ZEFSAII (Michael W. Deem and Ramdas Pophale) SiO2 
 PCOD8242790
Probable space group: P M M N
;
_chemical_formula_sum "Si O2"
_cell_formula_units_Z 56
_cell_length_a 9.437448
_cell_length_b 23.733959
_cell_length_c 13.848494
_cell_angle_alpha 90.000000
_cell_angle_beta 90.000000
_cell_angle_gamma 90.000000
_cell_volume 3101.896528
_symmetry_space_group_name_H-M "P M M N"
_symmetry_group_IT_number 59
_space_group.IT_coordinate_system_code '2'
_symmetry_cell_setting 'orthorhombic'
loop_
_space_group_symop_operation_xyz
x,y,z
1/2-x,1/2-y,z
1/2+x,-y,-z
-x,1/2+y,-z
-x,-y,-z
1/2+x,1/2+y,-z
1/2-x,y,z
x,1/2-y,z
loop_
_atom_site_type_symbol
_atom_site_label
_atom_site_fract_x
_atom_site_fract_y
_atom_site_fract_z
Si Si1 0.913372 0.313488 0.794054
Si Si2 0.413173 0.597045 0.545181
Si Si3 0.913594 0.686492 0.645504
Si Si4 0.915272 0.814244 0.018023
Si Si5 0.913890 0.079866 0.672243
Si Si6 0.583524 0.023635 0.270260
Si Si7 0.914248 0.884611 0.832775
O O1 0.750000 0.315829 0.824494
O O2 0.955799 0.250000 0.761052
O O3 0.945208 0.356357 0.706724
O O4 0.002048 0.332908 0.886664
O O5 0.250000 0.614645 0.549637
O O6 0.502058 0.653142 0.563840
O O7 0.454179 0.573899 0.440148
O O8 0.449386 0.549931 0.624698
O O9 0.750000 0.683000 0.617468
O O10 0.969654 0.750000 0.646347
O O11 0.942107 0.661571 0.750912
O O12 0.750000 0.820038 0.039882
O O13 0.953203 0.750000 0.988700
O O14 0.961380 0.856207 0.932789
O O15 0.750000 0.063581 0.689522
O O16 0.012518 0.037720 0.732882
O O17 0.750000 0.018636 0.249317
O O18 0.512206 0.061136 0.186395
O O19 0.750000 0.903333 0.834244
#
# Coordination Sequence:
#
# PCOD8242790 Si02
#       7
#     8   8   8   8   8   8   8
#     4   9  19  35  53  74  99 126 160 202 243 286
#     4   9  19  33  49  71  98 130 167 205 244 289
#     4   9  17  29  46  71 102 132 162 198 241 290
#     4   9  17  31  53  78 101 128 163 201 242 289
#     4  10  20  35  54  72  94 130 169 200 240 293
#     4  10  20  33  50  75 103 127 160 206 248 286
#     4   9  17  31  51  73 100 133 164 195 238 294
#
# _framework density 18.053470999999998
#
# number of rings (size 3 to 8) (size 9 to 14) (size 15 to 20)
#    0.000    2.714    0.000    1.286    0.000    4.857 
#    0.000    2.143    0.000    4.286    0.000    0.000 
#    0.000    0.000    0.000    0.000    0.000    0.000 
#
# Total GULP energy -694472.782571 kJ/mol
# GULP energy per Si atom -12401.299689 kJ/mol
# Density = 1.801238 g / cm^3
# Si number density = 18.053471 Si / 1000 Ang^3
#
#
#
# Elastic Constant Matrix: (Units=GPa)
#
#
# Indices 1 2 3 4 5 6 
#
# 1 55.5135 40.8008 27.7108 0.0000 0.0000 0.0000
# 2 40.8008 96.8968 28.0725 0.0000 0.0000 0.0000
# 3 27.7108 28.0725 67.3785 0.0000 0.0000 0.0000
# 4 0.0000 0.0000 0.0000 23.2027 0.0000 0.0000
# 5 0.0000 0.0000 0.0000 0.0000 28.6993 0.0000
# 6 0.0000 0.0000 0.0000 0.0000 0.0000 30.8240
#
#
#
# Elastic Compliance Matrix: (Units=1/GPa)
#
#
# Indices 1 2 3 4 5 6 
#
# 1 0.029350 -0.010078 -0.007872 0.000000 0.000000 0.000000
# 2 -0.010078 0.015197 -0.002187 0.000000 0.000000 0.000000
# 3 -0.007872 -0.002187 0.018990 0.000000 0.000000 0.000000
# 4 0.000000 0.000000 0.000000 0.043098 0.000000 0.000000
# 5 0.000000 0.000000 0.000000 0.000000 0.034844 0.000000
# 6 0.000000 0.000000 0.000000 0.000000 0.000000 0.032442
#
#
# Mechanical properties :
#
#
# Convention : Reuss Voigt Hill
#
# Bulk Modulus (GPa) = 42.98523 45.88411 44.43467
# Shear Modulus (GPa) = 22.52745 24.75883 23.64314
#
# Velocity S-wave (km/s) = 3.53628 3.70728 3.62279
# Velocity P-wave (km/s) = 6.36674 6.61786 6.49351
#
# Compressibility (1/GPa) = 0.02326381
#
# Stress axis : x y z
#
# Youngs Moduli (GPa) = 34.07136 65.80036 52.65854
#
# Poissons Ratio (x) = 0.66314 0.41453
# Poissons Ratio (y) = 0.34337 0.11517
# Poissons Ratio (z) = 0.26821 0.14391
#
# Static dielectric constant tensor:
#      x y z
#    x 3.307450 0.000000 0.000000 
#    y 0.000000 3.340130 0.000000 
#    z 0.000000 0.000000 3.228940 
# 
# 
# High freq. dielectric constant tensor:
#      x y z
#    x 1.696690 0.000000 0.000000 
#    y 0.000000 1.698410 0.000000 
#    z 0.000000 0.000000 1.685120 
# 
# From -- ./inp_files/21029.got.cif
#   From: 2010.03.12/outbox.cif.g09.slc.cpg/sg59_11_cif.got.tgz:21029.got - 2010.04.16 16:29:54.
