data_PCOD8242091
_publ_section_title
;
Structure prediction by ZEFSAII (Michael W. Deem and Ramdas Pophale) SiO2 
 PCOD8242091
Probable space group: P M M N
;
_chemical_formula_sum "Si O2"
_cell_formula_units_Z 64
_cell_length_a 9.292598
_cell_length_b 18.568688
_cell_length_c 19.871208
_cell_angle_alpha 90.000000
_cell_angle_beta 90.000000
_cell_angle_gamma 90.000000
_cell_volume 3428.803826
_symmetry_space_group_name_H-M "P M M N"
_symmetry_group_IT_number 59
_space_group.IT_coordinate_system_code '2'
_symmetry_cell_setting 'orthorhombic'
loop_
_space_group_symop_operation_xyz
x,y,z
1/2-x,1/2-y,z
1/2+x,-y,-z
-x,1/2+y,-z
-x,-y,-z
1/2+x,1/2+y,-z
1/2-x,y,z
x,1/2-y,z
loop_
_atom_site_type_symbol
_atom_site_label
_atom_site_fract_x
_atom_site_fract_y
_atom_site_fract_z
Si Si1 0.918895 0.667234 0.035943
Si Si2 0.083377 0.090840 0.100549
Si Si3 0.916672 0.166656 0.218778
Si Si4 0.914407 0.834771 0.381383
Si Si5 0.920372 0.829594 0.529779
Si Si6 0.415497 0.930597 0.134278
Si Si7 0.079865 0.095746 0.336420
Si Si8 0.080850 0.560284 0.288118
O O1 0.750000 0.659325 0.046439
O O2 0.966531 0.750000 0.030237
O O3 0.993948 0.632385 0.100245
O O4 0.969112 0.626621 0.968573
O O5 0.250000 0.109454 0.116335
O O6 0.986242 0.120213 0.160027
O O7 0.060809 0.005314 0.094732
O O8 0.750000 0.145432 0.225835
O O9 0.936201 0.250000 0.200790
O O10 0.997245 0.150622 0.288234
O O11 0.750000 0.859740 0.372901
O O12 0.929300 0.750000 0.369722
O O13 0.973899 0.855370 0.456061
O O14 0.008289 0.873696 0.325616
O O15 0.750000 0.823409 0.525961
O O16 0.983016 0.750000 0.546492
O O17 0.967650 0.885774 0.587221
O O18 0.250000 0.907085 0.132127
O O19 0.468698 0.939889 0.210737
O O20 0.250000 0.106281 0.324951
O O21 0.030963 0.014522 0.321565
O O22 0.250000 0.569828 0.294495
#
# Coordination Sequence:
#
# PCOD8242091 Si02
#       8
#     8   8   8   8   8   8   8   8
#     4  10  22  38  58  86 113 140 183 232 274 325
#     4  10  20  39  62  82 108 146 187 225 268 326
#     4  11  23  35  51  82 119 149 181 223 270 321
#     4   9  19  36  56  79 107 141 185 232 277 329
#     4   8  15  30  54  81 106 139 186 231 270 320
#     4  10  21  38  58  81 111 146 184 227 276 329
#     4  10  19  35  57  79 108 147 188 227 268 325
#     4  10  21  36  54  81 112 141 183 230 271 326
#
# _framework density 18.665400000000002
#
# number of rings (size 3 to 8) (size 9 to 14) (size 15 to 20)
#    0.000    2.250    1.250    2.250    0.000    5.500 
#    0.000    3.125    0.000    0.750    0.000    0.000 
#    0.000    0.000    0.000    0.000    0.000    0.000 
#
# Total GULP energy -793708.257604 kJ/mol
# GULP energy per Si atom -12401.691525 kJ/mol
# Density = 1.862292 g / cm^3
# Si number density = 18.665400 Si / 1000 Ang^3
#
#
#
# Elastic Constant Matrix: (Units=GPa)
#
#
# Indices 1 2 3 4 5 6 
#
# 1 40.1701 29.7057 35.3238 0.0000 0.0000 0.0000
# 2 29.7057 89.0135 69.6509 0.0000 0.0000 0.0000
# 3 35.3238 69.6509 121.7759 0.0000 0.0000 0.0000
# 4 0.0000 0.0000 0.0000 39.2836 0.0000 0.0000
# 5 0.0000 0.0000 0.0000 0.0000 22.4091 0.0000
# 6 0.0000 0.0000 0.0000 0.0000 0.0000 31.0918
#
#
#
# Elastic Compliance Matrix: (Units=1/GPa)
#
#
# Indices 1 2 3 4 5 6 
#
# 1 0.035603 -0.006879 -0.006393 0.000000 0.000000 0.000000
# 2 -0.006879 0.021664 -0.010396 0.000000 0.000000 0.000000
# 3 -0.006393 -0.010396 0.016012 0.000000 0.000000 0.000000
# 4 0.000000 0.000000 0.000000 0.025456 0.000000 0.000000
# 5 0.000000 0.000000 0.000000 0.000000 0.044625 0.000000
# 6 0.000000 0.000000 0.000000 0.000000 0.000000 0.032163
#
#
# Mechanical properties :
#
#
# Convention : Reuss Voigt Hill
#
# Bulk Modulus (GPa) = 38.54469 57.81337 48.17903
# Shear Modulus (GPa) = 21.59772 26.30884 23.95328
#
# Velocity S-wave (km/s) = 3.40531 3.75840 3.58620
# Velocity P-wave (km/s) = 6.01304 7.06222 6.55864
#
# Compressibility (1/GPa) = 0.02594391
#
# Stress axis : x y z
#
# Youngs Moduli (GPa) = 28.08768 46.15881 62.45309
#
# Poissons Ratio (x) = 0.31754 0.39924
# Poissons Ratio (y) = 0.19322 0.64924
# Poissons Ratio (z) = 0.17956 0.47985
#
# Static dielectric constant tensor:
#      x y z
#    x 3.224040 0.000000 0.000000 
#    y 0.000000 3.404740 0.000000 
#    z 0.000000 0.000000 3.599430 
# 
# 
# High freq. dielectric constant tensor:
#      x y z
#    x 1.703920 0.000000 0.000000 
#    y 0.000000 1.727030 0.000000 
#    z 0.000000 0.000000 1.734410 
# 
# From -- ./inp_files/29406.got.cif
#   From: 2010.03.12/outbox.cif.g09.slc.cpg/sg59_15_cif.got.tgz:29406.got - 2010.04.16 16:29:54.
