data_PCOD8242195
_publ_section_title
;
Structure prediction by ZEFSAII (Michael W. Deem and Ramdas Pophale) SiO2 
 PCOD8242195
Probable space group: P M M N
;
_chemical_formula_sum "Si O2"
_cell_formula_units_Z 64
_cell_length_a 18.039383
_cell_length_b 15.731396
_cell_length_c 11.629533
_cell_angle_alpha 90.000000
_cell_angle_beta 90.000000
_cell_angle_gamma 90.000000
_cell_volume 3300.283273
_symmetry_space_group_name_H-M "P M M N"
_symmetry_group_IT_number 59
_space_group.IT_coordinate_system_code '2'
_symmetry_cell_setting 'orthorhombic'
loop_
_space_group_symop_operation_xyz
x,y,z
1/2-x,1/2-y,z
1/2+x,-y,-z
-x,1/2+y,-z
-x,-y,-z
1/2+x,1/2+y,-z
1/2-x,y,z
x,1/2-y,z
loop_
_atom_site_type_symbol
_atom_site_label
_atom_site_fract_x
_atom_site_fract_y
_atom_site_fract_z
Si Si1 0.561605 0.843650 0.500481
Si Si2 0.666548 0.511995 0.489804
Si Si3 0.452029 0.567849 0.669368
Si Si4 0.333848 0.999514 0.012214
Si Si5 0.422779 0.651851 0.901202
Si Si6 0.831676 0.059547 0.740230
Si Si7 0.989396 0.114888 0.728428
Si Si8 0.933431 0.656166 0.042109
O O1 0.582844 0.750000 0.542367
O O2 0.637129 0.892693 0.469185
O O3 0.519982 0.891346 0.602252
O O4 0.509844 0.837861 0.388662
O O5 0.750000 0.504827 0.442292
O O6 0.615144 0.447129 0.419356
O O7 0.662300 0.495144 0.625059
O O8 0.421362 0.631061 0.766036
O O9 0.483616 0.482643 0.726679
O O10 0.250000 0.002137 0.967557
O O11 0.372385 0.082737 0.959970
O O12 0.368290 0.911024 0.968672
O O13 0.338583 0.003332 0.150501
O O14 0.398071 0.750000 0.920374
O O15 0.505822 0.635673 0.945462
O O16 0.750000 0.105331 0.744313
O O17 0.900316 0.124856 0.743853
O O18 0.027911 0.160847 0.834218
O O19 0.898147 0.750000 0.019930
#
# Coordination Sequence:
#
# PCOD8242195 Si02
#       8
#     8   8   8   8   8   8   8   8
#     4  11  22  35  56  88 120 152 194 244 296 351
#     4  10  21  38  60  84 112 154 198 238 292 354
#     4  11  20  37  60  87 113 157 198 241 295 347
#     4  11  23  40  62  87 121 159 192 242 302 353
#     4  11  23  38  62  91 117 153 201 245 294 355
#     4  10  19  35  63  88 110 148 195 239 293 354
#     4  11  18  38  63  83 114 154 204 246 285 342
#     4  11  23  39  63  90 118 157 202 248 292 348
#
# _framework density 19.392275000000001
#
# number of rings (size 3 to 8) (size 9 to 14) (size 15 to 20)
#    0.000    1.250    5.000    2.625    0.000    1.250 
#    0.000    0.000    0.000    7.125    0.000    0.000 
#    0.000    0.000    0.000    0.000    0.000    0.000 
#
# Total GULP energy -793564.400375 kJ/mol
# GULP energy per Si atom -12399.443756 kJ/mol
# Density = 1.934814 g / cm^3
# Si number density = 19.392275 Si / 1000 Ang^3
#
#
#
# Elastic Constant Matrix: (Units=GPa)
#
#
# Indices 1 2 3 4 5 6 
#
# 1 107.4908 45.5173 26.2919 0.0000 0.0000 0.0000
# 2 45.5173 122.1044 25.0641 0.0000 0.0000 0.0000
# 3 26.2919 25.0641 92.5153 0.0000 0.0000 0.0000
# 4 0.0000 0.0000 0.0000 17.2269 0.0000 0.0000
# 5 0.0000 0.0000 0.0000 0.0000 26.7141 0.0000
# 6 0.0000 0.0000 0.0000 0.0000 0.0000 12.3450
#
#
#
# Elastic Compliance Matrix: (Units=1/GPa)
#
#
# Indices 1 2 3 4 5 6 
#
# 1 0.011463 -0.003817 -0.002224 0.000000 0.000000 0.000000
# 2 -0.003817 0.009943 -0.001609 0.000000 0.000000 0.000000
# 3 -0.002224 -0.001609 0.011877 0.000000 0.000000 0.000000
# 4 0.000000 0.000000 0.000000 0.058049 0.000000 0.000000
# 5 0.000000 0.000000 0.000000 0.000000 0.037433 0.000000
# 6 0.000000 0.000000 0.000000 0.000000 0.000000 0.081004
#
#
# Mechanical properties :
#
#
# Convention : Reuss Voigt Hill
#
# Bulk Modulus (GPa) = 55.60499 57.31746 56.46122
# Shear Modulus (GPa) = 21.63914 26.27302 23.95608
#
# Velocity S-wave (km/s) = 3.34408 3.68478 3.51856
# Velocity P-wave (km/s) = 6.60655 6.90829 6.75911
#
# Compressibility (1/GPa) = 0.01798400
#
# Stress axis : x y z
#
# Youngs Moduli (GPa) = 87.23539 100.57565 84.19709
#
# Poissons Ratio (x) = 0.38387 0.18723
# Poissons Ratio (y) = 0.33295 0.13547
# Poissons Ratio (z) = 0.19399 0.16183
#
# Static dielectric constant tensor:
#      x y z
#    x 3.681930 0.000000 0.000000 
#    y 0.000000 3.415920 0.000000 
#    z 0.000000 0.000000 3.636450 
# 
# 
# High freq. dielectric constant tensor:
#      x y z
#    x 1.750040 0.000000 0.000000 
#    y 0.000000 1.739270 0.000000 
#    z 0.000000 0.000000 1.769560 
# 
# From -- ./inp_files/17179.got.cif
#   From: 2010.03.12/outbox.cif.g09.slc.cpg/sg59_9_cif.got.tgz:17179.got - 2010.04.16 16:29:54.
