data_PCOD8242860
_publ_section_title
;
Structure prediction by ZEFSAII (Michael W. Deem and Ramdas Pophale) SiO2 
 PCOD8242860
Probable space group: P M M N
;
_chemical_formula_sum "Si O2"
_cell_formula_units_Z 48
_cell_length_a 9.263913
_cell_length_b 9.251921
_cell_length_c 30.763790
_cell_angle_alpha 90.000000
_cell_angle_beta 90.000000
_cell_angle_gamma 90.000000
_cell_volume 2636.733407
_symmetry_space_group_name_H-M "P M M N"
_symmetry_group_IT_number 59
_space_group.IT_coordinate_system_code '2'
_symmetry_cell_setting 'orthorhombic'
loop_
_space_group_symop_operation_xyz
x,y,z
1/2-x,1/2-y,z
1/2+x,-y,-z
-x,1/2+y,-z
-x,-y,-z
1/2+x,1/2+y,-z
1/2-x,y,z
x,1/2-y,z
loop_
_atom_site_type_symbol
_atom_site_label
_atom_site_fract_x
_atom_site_fract_y
_atom_site_fract_z
Si Si1 0.917796 0.417909 0.290568
Si Si2 0.420387 0.083425 0.037893
Si Si3 0.421145 0.590216 0.120448
Si Si4 0.582371 0.916498 0.623757
Si Si5 0.913819 0.420794 0.783003
Si Si6 0.080482 0.917040 0.462169
O O1 0.750000 0.451938 0.295139
O O2 0.949395 0.250000 0.282683
O O3 0.994107 0.470880 0.334609
O O4 0.979101 0.504021 0.250032
O O5 0.250000 0.061011 0.032458
O O6 0.464747 0.250000 0.035921
O O7 0.476103 0.021128 0.084014
O O8 0.500000 0.000000 0.000000
O O9 0.250000 0.600455 0.120134
O O10 0.485042 0.750000 0.110396
O O11 0.468430 0.537626 0.168444
O O12 0.750000 0.938667 0.634409
O O13 0.547372 0.750000 0.612510
O O14 0.532606 0.013881 0.583457
O O15 0.750000 0.475593 0.775272
O O16 0.921199 0.250000 0.776507
O O17 0.250000 0.936678 0.469547
O O18 0.034442 0.750000 0.462387
O O19 0.000000 0.000000 0.500000
#
# Coordination Sequence:
#
# PCOD8242860 Si02
#       6
#     8   8   8   8   8   8
#     4  10  21  35  51  75 107 139 170 207 253 303
#     4  10  20  33  51  76 103 132 168 208 251 301
#     4   8  15  30  51  73  98 129 166 209 254 298
#     4   9  18  34  54  74 100 137 178 216 253 296
#     4   9  18  33  54  78 101 129 168 211 254 302
#     4  10  21  36  55  80 108 137 170 210 255 302
#
# _framework density 18.204343000000001
#
# number of rings (size 3 to 8) (size 9 to 14) (size 15 to 20)
#    0.000    2.667    0.000    2.500    0.000    5.333 
#    0.000    5.833    0.000    1.000    0.000    0.000 
#    0.000    0.000    0.000    0.000    0.000    0.000 
#
# Total GULP energy -595219.639767 kJ/mol
# GULP energy per Si atom -12400.409162 kJ/mol
# Density = 1.816291 g / cm^3
# Si number density = 18.204343 Si / 1000 Ang^3
#
#
#
# Elastic Constant Matrix: (Units=GPa)
#
#
# Indices 1 2 3 4 5 6 
#
# 1 52.7355 42.1544 62.7711 0.0000 0.0000 0.0000
# 2 42.1544 107.7676 93.2953 0.0000 0.0000 0.0000
# 3 62.7711 93.2953 184.6471 0.0000 0.0000 0.0000
# 4 0.0000 0.0000 0.0000 38.9188 0.0000 0.0000
# 5 0.0000 0.0000 0.0000 0.0000 31.2623 0.0000
# 6 0.0000 0.0000 0.0000 0.0000 0.0000 26.5225
#
#
#
# Elastic Compliance Matrix: (Units=1/GPa)
#
#
# Indices 1 2 3 4 5 6 
#
# 1 0.033785 -0.005817 -0.008546 0.000000 0.000000 0.000000
# 2 -0.005817 0.017495 -0.006862 0.000000 0.000000 0.000000
# 3 -0.008546 -0.006862 0.011788 0.000000 0.000000 0.000000
# 4 0.000000 0.000000 0.000000 0.025695 0.000000 0.000000
# 5 0.000000 0.000000 0.000000 0.000000 0.031987 0.000000
# 6 0.000000 0.000000 0.000000 0.000000 0.000000 0.037704
#
#
# Mechanical properties :
#
#
# Convention : Reuss Voigt Hill
#
# Bulk Modulus (GPa) = 48.50171 82.39910 65.45041
# Shear Modulus (GPa) = 24.06425 29.13601 26.60013
#
# Velocity S-wave (km/s) = 3.63973 4.00496 3.82671
# Velocity P-wave (km/s) = 6.66065 8.16994 7.45360
#
# Compressibility (1/GPa) = 0.02061783
#
# Stress axis : x y z
#
# Youngs Moduli (GPa) = 29.59916 57.15840 84.82998
#
# Poissons Ratio (x) = 0.33248 0.72497
# Poissons Ratio (y) = 0.17217 0.58213
# Poissons Ratio (z) = 0.25296 0.39224
#
# Static dielectric constant tensor:
#      x y z
#    x 3.133040 0.000000 0.000000 
#    y 0.000000 3.084440 0.000000 
#    z 0.000000 0.000000 3.602740 
# 
# 
# High freq. dielectric constant tensor:
#      x y z
#    x 1.682120 0.000000 0.000000 
#    y 0.000000 1.705600 0.000000 
#    z 0.000000 0.000000 1.719960 
# 
# From -- ./inp_files/32918.got.cif
#   From: 2010.03.12/outbox.cif.g09.slc.cpg/sg59_17_cif.got.tgz:32918.got - 2010.04.16 16:29:54.
