data_PCOD8242056
_publ_section_title
;
Structure prediction by ZEFSAII (Michael W. Deem and Ramdas Pophale) SiO2 
 PCOD8242056
Probable space group: P M M N
;
_chemical_formula_sum "Si O2"
_cell_formula_units_Z 40
_cell_length_a 18.939980
_cell_length_b 11.722527
_cell_length_c 9.143109
_cell_angle_alpha 90.000000
_cell_angle_beta 90.000000
_cell_angle_gamma 90.000000
_cell_volume 2029.993536
_symmetry_space_group_name_H-M "P M M N"
_symmetry_group_IT_number 59
_space_group.IT_coordinate_system_code '2'
_symmetry_cell_setting 'orthorhombic'
loop_
_space_group_symop_operation_xyz
x,y,z
1/2-x,1/2-y,z
1/2+x,-y,-z
-x,1/2+y,-z
-x,-y,-z
1/2+x,1/2+y,-z
1/2-x,y,z
x,1/2-y,z
loop_
_atom_site_type_symbol
_atom_site_label
_atom_site_fract_x
_atom_site_fract_y
_atom_site_fract_z
Si Si1 0.020288 0.556239 0.351628
Si Si2 0.368787 0.750000 0.406907
Si Si3 0.750000 0.250000 0.824260
Si Si4 0.370249 0.124290 0.618794
Si Si5 0.250000 0.508160 0.769627
Si Si6 0.750000 0.250000 0.349734
Si Si7 0.380248 0.117890 0.270527
Si Si8 0.750000 0.992548 0.899470
O O1 0.082685 0.640426 0.395083
O O2 0.049516 0.459232 0.238209
O O3 0.000000 0.500000 0.500000
O O4 0.947303 0.615110 0.301237
O O5 0.320383 0.750000 0.267215
O O6 0.321090 0.750000 0.552481
O O7 0.750000 0.369647 0.910964
O O8 0.341261 0.250000 0.654861
O O9 0.368180 0.107735 0.444041
O O10 0.319812 0.031227 0.687020
O O11 0.250000 0.644402 0.761127
O O12 0.250000 0.455570 0.931842
O O13 0.391260 0.250000 0.223195
O O14 0.316842 0.061092 0.182052
#
# Coordination Sequence:
#
# PCOD8242056 Si02
#       8
#     8   4   2   8   4   2   8   4
#     4  10  19  34  60  96 126 148 192 251 317 360
#     4  11  20  36  68  97 118 154 200 253 307 361
#     4  11  23  38  66  86 120 160 210 258 284 344
#     4  10  21  39  63  91 124 152 196 258 307 356
#     4  12  26  41  58  86 126 167 201 246 309 364
#     4  11  23  38  58  94 128 152 198 254 306 362
#     4  10  21  37  61  92 120 153 204 256 298 356
#     4  12  24  41  60  82 122 169 211 250 291 358
#
# _framework density 19.704495000000001
#
# number of rings (size 3 to 8) (size 9 to 14) (size 15 to 20)
#    0.000    1.400    3.000    3.900    4.200    3.200 
#    1.800    1.000    0.000    0.000    0.000    0.000 
#    0.000    0.000    0.000    0.000    0.000    0.000 
#
# Total GULP energy -495582.813783 kJ/mol
# GULP energy per Si atom -12389.570345 kJ/mol
# Density = 1.965965 g / cm^3
# Si number density = 19.704495 Si / 1000 Ang^3
#
#
#
# Elastic Constant Matrix: (Units=GPa)
#
#
# Indices 1 2 3 4 5 6 
#
# 1 124.8555 46.1280 28.9288 0.0000 0.0000 0.0000
# 2 46.1280 144.6236 22.7381 0.0000 0.0000 0.0000
# 3 28.9288 22.7381 56.2343 0.0000 0.0000 0.0000
# 4 0.0000 0.0000 0.0000 -19.6845 0.0000 0.0000
# 5 0.0000 0.0000 0.0000 0.0000 5.2277 0.0000
# 6 0.0000 0.0000 0.0000 0.0000 0.0000 20.4178
#
#
#
# Elastic Compliance Matrix: (Units=1/GPa)
#
#
# Indices 1 2 3 4 5 6 
#
# 1 0.009879 -0.002512 -0.004067 0.000000 0.000000 0.000000
# 2 -0.002512 0.008022 -0.001952 0.000000 0.000000 0.000000
# 3 -0.004067 -0.001952 0.020664 0.000000 0.000000 0.000000
# 4 0.000000 0.000000 0.000000 -0.050801 0.000000 0.000000
# 5 0.000000 0.000000 0.000000 0.000000 0.191288 0.000000
# 6 0.000000 0.000000 0.000000 0.000000 0.000000 0.048977
#
#
# Mechanical properties :
#
#
# Convention : Reuss Voigt Hill
#
# Bulk Modulus (GPa) = 46.49960 57.92255 52.21108
# Shear Modulus (GPa) = 19.82097 16.38677 18.10387
#
# Velocity S-wave (km/s) = 3.17505 2.88692 3.03441
# Velocity P-wave (km/s) = 6.09024 6.36960 6.23148
#
# Compressibility (1/GPa) = 0.02150556
#
# Stress axis : x y z
#
# Youngs Moduli (GPa) = 101.22010 124.64994 48.39344
#
# Poissons Ratio (x) = 0.31308 0.19680
# Poissons Ratio (y) = 0.25423 0.09445
# Poissons Ratio (z) = 0.41163 0.24328
#
# Static dielectric constant tensor:
#      x y z
#    x 5.014030 0.000000 0.000000 
#    y 0.000000 4.350270 0.000000 
#    z 0.000000 0.000000 3.121610 
# 
# 
# High freq. dielectric constant tensor:
#      x y z
#    x 1.781790 0.000000 0.000000 
#    y 0.000000 1.797090 0.000000 
#    z 0.000000 0.000000 1.721250 
# 
# From -- ./inp_files/11204.got.cif
#   From: 2010.03.12/outbox.cif.g09.slc.cpg/sg59_6_cif.got.tgz:11204.got - 2010.04.16 16:29:54.
