data_PCOD8242932
_publ_section_title
;
Structure prediction by ZEFSAII (Michael W. Deem and Ramdas Pophale) SiO2 
 PCOD8242932
Probable space group: P M M N
;
_chemical_formula_sum "Si O2"
_cell_formula_units_Z 64
_cell_length_a 9.355940
_cell_length_b 22.506949
_cell_length_c 15.211059
_cell_angle_alpha 90.000000
_cell_angle_beta 90.000000
_cell_angle_gamma 90.000000
_cell_volume 3203.048433
_symmetry_space_group_name_H-M "P M M N"
_symmetry_group_IT_number 59
_space_group.IT_coordinate_system_code '2'
_symmetry_cell_setting 'orthorhombic'
loop_
_space_group_symop_operation_xyz
x,y,z
1/2-x,1/2-y,z
1/2+x,-y,-z
-x,1/2+y,-z
-x,-y,-z
1/2+x,1/2+y,-z
1/2-x,y,z
x,1/2-y,z
loop_
_atom_site_type_symbol
_atom_site_label
_atom_site_fract_x
_atom_site_fract_y
_atom_site_fract_z
Si Si1 0.584739 0.319407 0.538461
Si Si2 0.413366 0.628969 0.648845
Si Si3 0.593146 0.680422 0.799186
Si Si4 0.581971 0.623150 0.302865
Si Si5 0.409983 0.641842 0.138147
Si Si6 0.907486 0.318283 0.045907
Si Si7 0.085523 0.990088 0.743803
Si Si8 0.588231 0.005390 0.910301
O O1 0.750000 0.327860 0.565031
O O2 0.548859 0.250000 0.524480
O O3 0.547551 0.356377 0.451077
O O4 0.485066 0.347481 0.611826
O O5 0.250000 0.646512 0.668730
O O6 0.510760 0.669934 0.709235
O O7 0.441044 0.559448 0.668936
O O8 0.750000 0.650932 0.794599
O O9 0.608599 0.750000 0.814840
O O10 0.509439 0.650756 0.881955
O O11 0.750000 0.634521 0.303625
O O12 0.515204 0.656325 0.218354
O O13 0.543149 0.553190 0.299332
O O14 0.250000 0.664808 0.161373
O O15 0.406661 0.573116 0.117005
O O16 0.471260 0.675037 0.051913
O O17 0.750000 0.348941 0.049463
O O18 0.891823 0.250000 0.070937
O O19 0.250000 0.991754 0.774789
O O20 0.991109 0.972470 0.829132
O O21 0.750000 0.980436 0.922432
O O22 0.500000 0.000000 0.000000
#
# Coordination Sequence:
#
# PCOD8242932 Si02
#       8
#     8   8   8   8   8   8   8   8
#     4  10  22  40  62  87 112 144 189 237 286 342
#     4  10  21  38  61  84 110 147 193 238 279 336
#     4  10  21  35  51  77 114 149 182 230 289 343
#     4  10  21  38  59  84 116 149 183 230 290 347
#     4   9  19  35  54  77 107 145 187 231 275 325
#     4   9  18  33  53  76 103 141 187 228 273 332
#     4   9  20  38  57  82 115 150 190 235 286 338
#     4  10  20  33  51  77 111 150 192 234 276 326
#
# _framework density 19.980965999999999
#
# number of rings (size 3 to 8) (size 9 to 14) (size 15 to 20)
#    0.000    2.375    0.000    1.500    1.750    5.000 
#    0.000    1.250    0.000    0.000    0.000    0.000 
#    0.000    0.000    0.000    0.000    0.000    0.000 
#
# Total GULP energy -793532.370326 kJ/mol
# GULP energy per Si atom -12398.943286 kJ/mol
# Density = 1.993549 g / cm^3
# Si number density = 19.980966 Si / 1000 Ang^3
#
#
#
# Elastic Constant Matrix: (Units=GPa)
#
#
# Indices 1 2 3 4 5 6 
#
# 1 127.3653 30.6463 92.8435 0.0000 0.0000 0.0000
# 2 30.6463 41.3443 31.3285 0.0000 0.0000 0.0000
# 3 92.8435 31.3285 155.7111 0.0000 0.0000 0.0000
# 4 0.0000 0.0000 0.0000 30.9648 0.0000 0.0000
# 5 0.0000 0.0000 0.0000 0.0000 21.3692 0.0000
# 6 0.0000 0.0000 0.0000 0.0000 0.0000 20.9866
#
#
#
# Elastic Compliance Matrix: (Units=1/GPa)
#
#
# Indices 1 2 3 4 5 6 
#
# 1 0.014723 -0.005028 -0.007767 0.000000 0.000000 0.000000
# 2 -0.005028 0.030255 -0.003089 0.000000 0.000000 0.000000
# 3 -0.007767 -0.003089 0.011675 0.000000 0.000000 0.000000
# 4 0.000000 0.000000 0.000000 0.032295 0.000000 0.000000
# 5 0.000000 0.000000 0.000000 0.000000 0.046796 0.000000
# 6 0.000000 0.000000 0.000000 0.000000 0.000000 0.047650
#
#
# Mechanical properties :
#
#
# Convention : Reuss Voigt Hill
#
# Bulk Modulus (GPa) = 40.18597 70.45082 55.31839
# Shear Modulus (GPa) = 22.37567 25.97093 24.17330
#
# Velocity S-wave (km/s) = 3.35005 3.60916 3.48201
# Velocity P-wave (km/s) = 5.92617 7.25972 6.62658
#
# Compressibility (1/GPa) = 0.02488430
#
# Stress axis : x y z
#
# Youngs Moduli (GPa) = 67.92034 33.05246 85.65384
#
# Poissons Ratio (x) = 0.16619 0.66529
# Poissons Ratio (y) = 0.34150 0.26461
# Poissons Ratio (z) = 0.52755 0.10211
#
# Static dielectric constant tensor:
#      x y z
#    x 3.958340 0.000000 0.000000 
#    y 0.000000 3.454000 0.000000 
#    z 0.000000 0.000000 3.778120 
# 
# 
# High freq. dielectric constant tensor:
#      x y z
#    x 1.780970 0.000000 0.000000 
#    y 0.000000 1.771730 0.000000 
#    z 0.000000 0.000000 1.778890 
# 
# From -- ./inp_files/21615.got.cif
#   From: 2010.03.12/outbox.cif.g09.slc.cpg/sg59_11_cif.got.tgz:21615.got - 2010.04.16 16:29:54.
