data_PCOD8242125
_publ_section_title
;
Structure prediction by ZEFSAII (Michael W. Deem and Ramdas Pophale) SiO2 
 PCOD8242125
Probable space group: P M M N
;
_chemical_formula_sum "Si O2"
_cell_formula_units_Z 48
_cell_length_a 9.134392
_cell_length_b 28.131163
_cell_length_c 10.248071
_cell_angle_alpha 90.000000
_cell_angle_beta 90.000000
_cell_angle_gamma 90.000000
_cell_volume 2633.355292
_symmetry_space_group_name_H-M "P M M N"
_symmetry_group_IT_number 59
_space_group.IT_coordinate_system_code '2'
_symmetry_cell_setting 'orthorhombic'
loop_
_space_group_symop_operation_xyz
x,y,z
1/2-x,1/2-y,z
1/2+x,-y,-z
-x,1/2+y,-z
-x,-y,-z
1/2+x,1/2+y,-z
1/2-x,y,z
x,1/2-y,z
loop_
_atom_site_type_symbol
_atom_site_label
_atom_site_fract_x
_atom_site_fract_y
_atom_site_fract_z
Si Si1 0.577323 0.143530 0.773427
Si Si2 0.077836 0.648941 0.745737
Si Si3 0.923364 0.694830 0.990068
Si Si4 0.576144 0.302917 0.518570
Si Si5 0.920685 0.045446 0.652191
Si Si6 0.079652 0.548133 0.644691
O O1 0.750000 0.151512 0.795592
O O2 0.517794 0.170986 0.646801
O O3 0.540446 0.088049 0.751190
O O4 0.490548 0.163222 0.895848
O O5 0.250000 0.658361 0.769249
O O6 0.021386 0.670859 0.610371
O O7 0.043530 0.592736 0.737952
O O8 0.985402 0.674220 0.856474
O O9 0.750000 0.689290 0.990852
O O10 0.969853 0.750000 0.005757
O O11 0.750000 0.303361 0.520730
O O12 0.511826 0.250000 0.518551
O O13 0.750000 0.035238 0.653671
O O14 0.970917 0.058629 0.504524
O O15 0.999316 0.997916 0.702775
O O16 0.250000 0.537095 0.646425
#
# Coordination Sequence:
#
# PCOD8242125 Si02
#       6
#     8   8   8   8   8   8
#     4  10  19  35  58  83 108 140 185 229 269 320
#     4  10  19  35  58  83 108 140 185 229 269 320
#     4  11  25  41  54  75 112 151 184 223 274 331
#     4   9  16  28  52  83 107 129 171 231 278 313
#     4   9  17  31  53  83 115 142 174 220 272 325
#     4   9  17  31  53  83 115 142 174 220 272 325
#
# _framework density 18.227695000000001
#
# number of rings (size 3 to 8) (size 9 to 14) (size 15 to 20)
#    0.000    2.333    1.667    1.500    0.000    4.000 
#    0.000    1.667    0.000    3.000    0.000    0.000 
#    0.000    0.000    0.000    0.000    0.000    0.000 
#
# Total GULP energy -595149.600716 kJ/mol
# GULP energy per Si atom -12398.950015 kJ/mol
# Density = 1.818621 g / cm^3
# Si number density = 18.227695 Si / 1000 Ang^3
#
#
#
# Elastic Constant Matrix: (Units=GPa)
#
#
# Indices 1 2 3 4 5 6 
#
# 1 39.6387 33.6288 16.3644 0.0000 0.0000 0.0000
# 2 33.6288 104.3798 11.8953 0.0000 0.0000 0.0000
# 3 16.3644 11.8953 59.4737 0.0000 0.0000 0.0000
# 4 0.0000 0.0000 0.0000 28.5995 0.0000 0.0000
# 5 0.0000 0.0000 0.0000 0.0000 18.2033 0.0000
# 6 0.0000 0.0000 0.0000 0.0000 0.0000 30.0373
#
#
#
# Elastic Compliance Matrix: (Units=1/GPa)
#
#
# Indices 1 2 3 4 5 6 
#
# 1 0.038311 -0.011402 -0.008261 0.000000 0.000000 0.000000
# 2 -0.011402 0.013197 0.000498 0.000000 0.000000 0.000000
# 3 -0.008261 0.000498 0.018988 0.000000 0.000000 0.000000
# 4 0.000000 0.000000 0.000000 0.034966 0.000000 0.000000
# 5 0.000000 0.000000 0.000000 0.000000 0.054935 0.000000
# 6 0.000000 0.000000 0.000000 0.000000 0.000000 0.033292
#
#
# Mechanical properties :
#
#
# Convention : Reuss Voigt Hill
#
# Bulk Modulus (GPa) = 31.08874 36.36325 33.72600
# Shear Modulus (GPa) = 20.59811 24.80826 22.70318
#
# Velocity S-wave (km/s) = 3.36526 3.69320 3.53304
# Velocity P-wave (km/s) = 5.67387 6.17892 5.93177
#
# Compressibility (1/GPa) = 0.03216598
#
# Stress axis : x y z
#
# Youngs Moduli (GPa) = 26.10197 75.77470 52.66569
#
# Poissons Ratio (x) = 0.86395 0.43508
# Poissons Ratio (y) = 0.29760 -0.02621
# Poissons Ratio (z) = 0.21563 -0.03771
#
# Static dielectric constant tensor:
#      x y z
#    x 3.100240 0.000000 0.000000 
#    y 0.000000 3.602650 0.000000 
#    z 0.000000 0.000000 3.366240 
# 
# 
# High freq. dielectric constant tensor:
#      x y z
#    x 1.679880 0.000000 0.000000 
#    y 0.000000 1.723290 0.000000 
#    z 0.000000 0.000000 1.695090 
# 
# From -- ./inp_files/14502.got.cif
#   From: 2010.03.12/outbox.cif.g09.slc.cpg/sg59_8_cif.got.tgz:14502.got - 2010.04.16 16:29:54.
