data_PCOD8242294
_publ_section_title
;
Structure prediction by ZEFSAII (Michael W. Deem and Ramdas Pophale) SiO2 
 PCOD8242294
Probable space group: P M M N
;
_chemical_formula_sum "Si O2"
_cell_formula_units_Z 64
_cell_length_a 24.716318
_cell_length_b 9.310547
_cell_length_c 17.740711
_cell_angle_alpha 90.000000
_cell_angle_beta 90.000000
_cell_angle_gamma 90.000000
_cell_volume 4082.535710
_symmetry_space_group_name_H-M "P M M N"
_symmetry_group_IT_number 59
_space_group.IT_coordinate_system_code '2'
_symmetry_cell_setting 'orthorhombic'
loop_
_space_group_symop_operation_xyz
x,y,z
1/2-x,1/2-y,z
1/2+x,-y,-z
-x,1/2+y,-z
-x,-y,-z
1/2+x,1/2+y,-z
1/2-x,y,z
x,1/2-y,z
loop_
_atom_site_type_symbol
_atom_site_label
_atom_site_fract_x
_atom_site_fract_y
_atom_site_fract_z
Si Si1 0.185693 0.591367 0.137270
Si Si2 0.110114 0.418377 0.586552
Si Si3 0.314312 0.410756 0.000081
Si Si4 0.185777 0.585448 0.691782
Si Si5 0.991887 0.417071 0.423019
Si Si6 0.685755 0.588472 0.165697
Si Si7 0.689139 0.420766 0.697074
Si Si8 0.611162 0.588668 0.591046
O O1 0.250000 0.598258 0.130369
O O2 0.160895 0.750000 0.130154
O O3 0.171183 0.524879 0.219398
O O4 0.159905 0.501507 0.068449
O O5 0.106100 0.250000 0.606110
O O6 0.162457 0.489167 0.624409
O O7 0.057098 0.501518 0.619773
O O8 0.115001 0.444974 0.497558
O O9 0.250000 0.415773 0.005409
O O10 0.335633 0.250000 0.010537
O O11 0.332894 0.467079 0.917317
O O12 0.250000 0.575140 0.685988
O O13 0.166112 0.750000 0.685589
O O14 0.164066 0.520889 0.771047
O O15 0.977104 0.250000 0.437484
O O16 0.000000 0.500000 0.500000
O O17 0.049220 0.428386 0.379296
O O18 0.750000 0.593528 0.168014
O O19 0.663550 0.750000 0.180829
O O20 0.750000 0.473959 0.678779
O O21 0.687199 0.250000 0.695860
O O22 0.648941 0.479355 0.634634
O O23 0.631566 0.750000 0.606716
#
# Coordination Sequence:
#
# PCOD8242294 Si02
#       8
#     8   8   8   8   8   8   8   8
#     4   8  14  24  36  52  77 108 140 173 208 244
#     4  10  20  33  48  65  85 112 145 180 221 262
#     4   8  13  21  35  55  76 102 138 174 208 247
#     4  10  20  31  43  62  88 118 150 180 213 255
#     4   9  17  31  49  68  87 105 134 178 224 265
#     4   8  14  25  39  55  79 110 141 174 211 250
#     4   9  18  30  42  59  86 119 150 178 210 250
#     4   9  19  32  46  65  85 108 140 178 218 257
#
# _framework density 15.676531000000001
#
# number of rings (size 3 to 8) (size 9 to 14) (size 15 to 20)
#    0.000    3.125    0.000    3.375    0.000    5.500 
#    0.000    6.250    0.000    0.000    0.000    0.000 
#    0.000    1.000    0.000    3.250    0.000    5.125 
#
# Total GULP energy -793012.764167 kJ/mol
# GULP energy per Si atom -12390.824440 kJ/mol
# Density = 1.564085 g / cm^3
# Si number density = 15.676531 Si / 1000 Ang^3
#
#
#
# Elastic Constant Matrix: (Units=GPa)
#
#
# Indices 1 2 3 4 5 6 
#
# 1 41.8466 33.2370 32.0470 0.0000 0.0000 0.0000
# 2 33.2370 92.6457 49.1301 0.0000 0.0000 0.0000
# 3 32.0470 49.1301 84.5313 0.0000 0.0000 0.0000
# 4 0.0000 0.0000 0.0000 31.1713 0.0000 0.0000
# 5 0.0000 0.0000 0.0000 0.0000 0.6909 0.0000
# 6 0.0000 0.0000 0.0000 0.0000 0.0000 22.7124
#
#
#
# Elastic Compliance Matrix: (Units=1/GPa)
#
#
# Indices 1 2 3 4 5 6 
#
# 1 0.037927 -0.008646 -0.009353 0.000000 0.000000 0.000000
# 2 -0.008646 0.017574 -0.006936 0.000000 0.000000 0.000000
# 3 -0.009353 -0.006936 0.019407 0.000000 0.000000 0.000000
# 4 0.000000 0.000000 0.000000 0.032081 0.000000 0.000000
# 5 0.000000 0.000000 0.000000 0.000000 1.447292 0.000000
# 6 0.000000 0.000000 0.000000 0.000000 0.000000 0.044029
#
#
# Mechanical properties :
#
#
# Convention : Reuss Voigt Hill
#
# Bulk Modulus (GPa) = 39.94149 49.76133 44.85141
# Shear Modulus (GPa) = 3.01836 17.88891 10.45363
#
# Velocity S-wave (km/s) = 1.38909 3.38172 2.58511
# Velocity P-wave (km/s) = 5.30157 6.85999 6.13050
#
# Compressibility (1/GPa) = 0.02503662
#
# Stress axis : x y z
#
# Youngs Moduli (GPa) = 26.36615 56.90232 51.52704
#
# Poissons Ratio (x) = 0.49200 0.48196
# Poissons Ratio (y) = 0.22797 0.35740
# Poissons Ratio (z) = 0.24661 0.39468
#
# Static dielectric constant tensor:
#      x y z
#    x 2.875280 0.000000 0.000000 
#    y 0.000000 3.182770 0.000000 
#    z 0.000000 0.000000 3.136040 
# 
# 
# High freq. dielectric constant tensor:
#      x y z
#    x 1.552290 0.000000 0.000000 
#    y 0.000000 1.610150 0.000000 
#    z 0.000000 0.000000 1.594510 
# 
# From -- ./inp_files/28499.got.cif
#   From: 2010.03.12/outbox.cif.g09.slc.cpg/sg59_15_cif.got.tgz:28499.got - 2010.04.16 16:29:54.
