data_PCOD8242176
_publ_section_title
;
Structure prediction by ZEFSAII (Michael W. Deem and Ramdas Pophale) SiO2 
 PCOD8242176
Probable space group: P M M N
;
_chemical_formula_sum "Si O2"
_cell_formula_units_Z 64
_cell_length_a 25.296710
_cell_length_b 8.786392
_cell_length_c 14.344937
_cell_angle_alpha 90.000000
_cell_angle_beta 90.000000
_cell_angle_gamma 90.000000
_cell_volume 3188.403392
_symmetry_space_group_name_H-M "P M M N"
_symmetry_group_IT_number 59
_space_group.IT_coordinate_system_code '2'
_symmetry_cell_setting 'orthorhombic'
loop_
_space_group_symop_operation_xyz
x,y,z
1/2-x,1/2-y,z
1/2+x,-y,-z
-x,1/2+y,-z
-x,-y,-z
1/2+x,1/2+y,-z
1/2-x,y,z
x,1/2-y,z
loop_
_atom_site_type_symbol
_atom_site_label
_atom_site_fract_x
_atom_site_fract_y
_atom_site_fract_z
Si Si1 0.870727 0.926025 0.086858
Si Si2 0.189510 0.425058 0.727221
Si Si3 0.019277 0.928891 0.904415
Si Si4 0.596123 0.070918 0.376509
Si Si5 0.808474 0.569337 0.909771
Si Si6 0.310797 0.071704 0.297639
Si Si7 0.496000 0.569620 0.281334
Si Si8 0.098258 0.929338 0.411400
O O1 0.888801 0.750000 0.078556
O O2 0.825924 0.945913 0.164730
O O3 0.920000 0.029515 0.114618
O O4 0.848446 0.989777 0.988685
O O5 0.250000 0.477027 0.715349
O O6 0.181903 0.250000 0.697035
O O7 0.154231 0.530373 0.660788
O O8 0.011153 0.750000 0.908029
O O9 0.984676 0.995856 0.819510
O O10 0.000000 0.000000 0.000000
O O11 0.585909 0.250000 0.366180
O O12 0.591224 0.014990 0.482935
O O13 0.553213 0.980117 0.317280
O O14 0.750000 0.501711 0.928331
O O15 0.804850 0.750000 0.915199
O O16 0.827845 0.519605 0.806808
O O17 0.250000 0.027083 0.315998
O O18 0.319170 0.250000 0.309586
O O19 0.346281 0.987878 0.372889
O O20 0.494979 0.750000 0.271539
O O21 0.450879 0.507712 0.351095
O O22 0.099526 0.750000 0.406892
#
# Coordination Sequence:
#
# PCOD8242176 Si02
#       8
#     8   8   8   8   8   8   8   8
#     4  10  19  35  60  88 120 156 199 245 295 355
#     4  10  21  37  60  90 124 165 208 251 304 365
#     4  12  26  42  61  89 125 162 198 242 297 359
#     4  11  23  41  62  88 120 158 200 251 311 366
#     4   8  15  30  54  84 115 148 189 235 281 338
#     4   9  19  36  58  87 121 156 198 246 295 353
#     4  11  23  43  66  90 120 155 199 253 305 364
#     4  10  24  41  61  88 118 155 202 251 307 367
#
# _framework density 20.072742000000002
#
# number of rings (size 3 to 8) (size 9 to 14) (size 15 to 20)
#    0.000    1.875    1.250    3.375    1.750    4.500 
#    0.000    2.500    0.000    1.875    0.000    0.000 
#    0.000    0.000    0.000    0.000    0.000    0.000 
#
# Total GULP energy -793774.028211 kJ/mol
# GULP energy per Si atom -12402.719191 kJ/mol
# Density = 2.002706 g / cm^3
# Si number density = 20.072742 Si / 1000 Ang^3
#
#
#
# Elastic Constant Matrix: (Units=GPa)
#
#
# Indices 1 2 3 4 5 6 
#
# 1 89.1509 21.0496 45.5090 0.0000 0.0000 0.0000
# 2 21.0496 56.5781 43.2012 0.0000 0.0000 0.0000
# 3 45.5090 43.2012 142.1944 0.0000 0.0000 0.0000
# 4 0.0000 0.0000 0.0000 30.6538 0.0000 0.0000
# 5 0.0000 0.0000 0.0000 0.0000 36.1433 0.0000
# 6 0.0000 0.0000 0.0000 0.0000 0.0000 25.4441
#
#
#
# Elastic Compliance Matrix: (Units=1/GPa)
#
#
# Indices 1 2 3 4 5 6 
#
# 1 0.013627 -0.002265 -0.003673 0.000000 0.000000 0.000000
# 2 -0.002265 0.023390 -0.006381 0.000000 0.000000 0.000000
# 3 -0.003673 -0.006381 0.010147 0.000000 0.000000 0.000000
# 4 0.000000 0.000000 0.000000 0.032622 0.000000 0.000000
# 5 0.000000 0.000000 0.000000 0.000000 0.027668 0.000000
# 6 0.000000 0.000000 0.000000 0.000000 0.000000 0.039302
#
#
# Mechanical properties :
#
#
# Convention : Reuss Voigt Hill
#
# Bulk Modulus (GPa) = 44.39583 56.38257 50.38920
# Shear Modulus (GPa) = 27.94812 30.32580 29.13696
#
# Velocity S-wave (km/s) = 3.73546 3.89111 3.81408
# Velocity P-wave (km/s) = 6.38517 6.95254 6.67488
#
# Compressibility (1/GPa) = 0.02252464
#
# Stress axis : x y z
#
# Youngs Moduli (GPa) = 73.38516 42.75326 98.55197
#
# Poissons Ratio (x) = 0.09684 0.36198
# Poissons Ratio (y) = 0.16623 0.62889
# Poissons Ratio (z) = 0.26954 0.27282
#
# Static dielectric constant tensor:
#      x y z
#    x 3.715920 0.000000 0.000000 
#    y 0.000000 3.418500 0.000000 
#    z 0.000000 0.000000 4.025330 
# 
# 
# High freq. dielectric constant tensor:
#      x y z
#    x 1.786490 0.000000 0.000000 
#    y 0.000000 1.761310 0.000000 
#    z 0.000000 0.000000 1.798520 
# 
# From -- ./inp_files/24692.got.cif
#   From: 2010.03.12/outbox.cif.g09.slc.cpg/sg59_13_cif.got.tgz:24692.got - 2010.04.16 16:29:54.
