data_PCOD8242361
_publ_section_title
;
Structure prediction by ZEFSAII (Michael W. Deem and Ramdas Pophale) SiO2 
 PCOD8242361
Probable space group: P M M N
;
_chemical_formula_sum "Si O2"
_cell_formula_units_Z 40
_cell_length_a 9.816641
_cell_length_b 18.374336
_cell_length_c 12.741357
_cell_angle_alpha 90.000000
_cell_angle_beta 90.000000
_cell_angle_gamma 90.000000
_cell_volume 2298.212842
_symmetry_space_group_name_H-M "P M M N"
_symmetry_group_IT_number 59
_space_group.IT_coordinate_system_code '2'
_symmetry_cell_setting 'orthorhombic'
loop_
_space_group_symop_operation_xyz
x,y,z
1/2-x,1/2-y,z
1/2+x,-y,-z
-x,1/2+y,-z
-x,-y,-z
1/2+x,1/2+y,-z
1/2-x,y,z
x,1/2-y,z
loop_
_atom_site_type_symbol
_atom_site_label
_atom_site_fract_x
_atom_site_fract_y
_atom_site_fract_z
Si Si1 0.593320 0.833740 0.513761
Si Si2 0.088424 0.067267 0.676360
Si Si3 0.401640 0.416920 0.904946
Si Si4 0.410293 0.903043 0.682337
Si Si5 0.600137 0.410350 0.080834
O O1 0.750000 0.854465 0.539687
O O2 0.581628 0.750000 0.480933
O O3 0.536341 0.881181 0.416653
O O4 0.498849 0.847867 0.613774
O O5 0.250000 0.065990 0.685092
O O6 0.035533 0.097970 0.788775
O O7 0.038580 0.984866 0.655992
O O8 0.250000 0.383648 0.916479
O O9 0.395467 0.502945 0.920942
O O10 0.495794 0.379830 0.993714
O O11 0.250000 0.893569 0.657761
O O12 0.442390 0.883630 0.803304
O O13 0.750000 0.379952 0.053157
#
# Coordination Sequence:
#
# PCOD8242361 Si02
#       5
#     8   8   8   8   8
#     4  10  20  32  46  65  90 118 148 186 229 268
#     4   8  15  29  47  67  91 118 149 184 222 263
#     4   8  13  23  41  63  87 115 144 175 214 261
#     4   9  17  30  48  67  89 119 152 184 218 262
#     4   8  14  24  39  63  91 113 138 177 221 258
#
# _framework density 17.404827999999998
#
# number of rings (size 3 to 8) (size 9 to 14) (size 15 to 20)
#    0.000    3.400    0.000    3.000    0.000    1.200 
#    0.000    4.000    0.000    1.200    0.000    2.800 
#    0.000    0.000    0.000    0.000    0.000    0.000 
#
# Total GULP energy -495763.726870 kJ/mol
# GULP energy per Si atom -12394.093172 kJ/mol
# Density = 1.736521 g / cm^3
# Si number density = 17.404828 Si / 1000 Ang^3
#
#
#
# Elastic Constant Matrix: (Units=GPa)
#
#
# Indices 1 2 3 4 5 6 
#
# 1 63.6103 16.0014 54.2452 0.0000 0.0000 0.0000
# 2 16.0014 32.8994 21.3806 0.0000 0.0000 0.0000
# 3 54.2452 21.3806 114.6843 0.0000 0.0000 0.0000
# 4 0.0000 0.0000 0.0000 5.7587 0.0000 0.0000
# 5 0.0000 0.0000 0.0000 0.0000 31.1843 0.0000
# 6 0.0000 0.0000 0.0000 0.0000 0.0000 15.5372
#
#
#
# Elastic Compliance Matrix: (Units=1/GPa)
#
#
# Indices 1 2 3 4 5 6 
#
# 1 0.027208 -0.005541 -0.011836 0.000000 0.000000 0.000000
# 2 -0.005541 0.035715 -0.004037 0.000000 0.000000 0.000000
# 3 -0.011836 -0.004037 0.015071 0.000000 0.000000 0.000000
# 4 0.000000 0.000000 0.000000 0.173650 0.000000 0.000000
# 5 0.000000 0.000000 0.000000 0.000000 0.032067 0.000000
# 6 0.000000 0.000000 0.000000 0.000000 0.000000 0.064362
#
#
# Mechanical properties :
#
#
# Convention : Reuss Voigt Hill
#
# Bulk Modulus (GPa) = 28.43822 43.82760 36.13291
# Shear Modulus (GPa) = 12.41852 18.46714 15.44283
#
# Velocity S-wave (km/s) = 2.67406 3.26089 2.98194
# Velocity P-wave (km/s) = 5.09007 6.27804 5.71501
#
# Compressibility (1/GPa) = 0.03516394
#
# Stress axis : x y z
#
# Youngs Moduli (GPa) = 36.75329 27.99980 66.35329
#
# Poissons Ratio (x) = 0.15515 0.78539
# Poissons Ratio (y) = 0.20366 0.26789
# Poissons Ratio (z) = 0.43503 0.11304
#
# Static dielectric constant tensor:
#      x y z
#    x 3.248330 0.000000 0.000000 
#    y 0.000000 2.820570 0.000000 
#    z 0.000000 0.000000 3.531100 
# 
# 
# High freq. dielectric constant tensor:
#      x y z
#    x 1.651790 0.000000 0.000000 
#    y 0.000000 1.624510 0.000000 
#    z 0.000000 0.000000 1.683750 
# 
# From -- ./inp_files/7108.got.cif
#   From: 2010.03.12/outbox.cif.g09.slc.cpg/sg59_4_cif.got.tgz:7108.got - 2010.04.16 16:29:54.
