data_PCOD8242793
_publ_section_title
;
Structure prediction by ZEFSAII (Michael W. Deem and Ramdas Pophale) SiO2 
 PCOD8242793
Probable space group: P M M N
;
_chemical_formula_sum "Si O2"
_cell_formula_units_Z 48
_cell_length_a 7.934967
_cell_length_b 18.469334
_cell_length_c 17.046331
_cell_angle_alpha 90.000000
_cell_angle_beta 90.000000
_cell_angle_gamma 90.000000
_cell_volume 2498.200421
_symmetry_space_group_name_H-M "P M M N"
_symmetry_group_IT_number 59
_space_group.IT_coordinate_system_code '2'
_symmetry_cell_setting 'orthorhombic'
loop_
_space_group_symop_operation_xyz
x,y,z
1/2-x,1/2-y,z
1/2+x,-y,-z
-x,1/2+y,-z
-x,-y,-z
1/2+x,1/2+y,-z
1/2-x,y,z
x,1/2-y,z
loop_
_atom_site_type_symbol
_atom_site_label
_atom_site_fract_x
_atom_site_fract_y
_atom_site_fract_z
Si Si1 0.250000 0.335944 0.753876
Si Si2 0.060494 0.163984 0.195891
Si Si3 0.750000 0.663484 0.069944
Si Si4 0.438443 0.833775 0.349502
Si Si5 0.943728 0.167212 0.363137
Si Si6 0.563737 0.336172 0.030665
Si Si7 0.059502 0.081419 0.506824
O O1 0.250000 0.250000 0.757627
O O2 0.250000 0.367559 0.841822
O O3 0.420241 0.363393 0.710749
O O4 0.250000 0.133912 0.195558
O O5 0.058939 0.250000 0.193112
O O6 0.968685 0.137070 0.274897
O O7 0.965667 0.133952 0.118900
O O8 0.750000 0.750000 0.069067
O O9 0.581879 0.633589 0.026789
O O10 0.250000 0.843934 0.313594
O O11 0.473910 0.750000 0.368835
O O12 0.444743 0.876661 0.430950
O O13 0.750000 0.160950 0.386914
O O14 0.007616 0.250000 0.368827
O O15 0.051097 0.118833 0.422081
O O16 0.750000 0.361765 0.002396
O O17 0.554072 0.250000 0.031074
O O18 0.250000 0.084055 0.537398
O O19 0.000000 0.000000 0.500000
#
# Coordination Sequence:
#
# PCOD8242793 Si02
#       7
#     4   8   4   8   8   8   8
#     4   9  18  32  50  73 101 137 176 217 262 307
#     4   9  15  25  41  63  94 134 173 207 247 301
#     4   9  16  26  40  63  97 131 169 211 252 307
#     4  10  20  36  57  79 105 139 179 220 265 317
#     4  10  20  33  50  75 105 139 180 217 255 312
#     4   9  15  23  37  59  92 134 169 202 252 305
#     4  12  24  38  55  76 104 138 174 222 268 317
#
# _framework density 19.213830000000002
#
# number of rings (size 3 to 8) (size 9 to 14) (size 15 to 20)
#    0.000    2.167    1.667    3.000    0.000    5.667 
#    0.000    3.333    0.000    0.000    0.000    0.000 
#    0.000    1.333    0.667    0.000    0.000    0.000 
#
# Total GULP energy -595111.301642 kJ/mol
# GULP energy per Si atom -12398.152118 kJ/mol
# Density = 1.917010 g / cm^3
# Si number density = 19.213830 Si / 1000 Ang^3
#
#
#
# Elastic Constant Matrix: (Units=GPa)
#
#
# Indices 1 2 3 4 5 6 
#
# 1 146.1485 23.4849 60.7624 0.0000 0.0000 0.0000
# 2 23.4849 40.1318 30.6702 0.0000 0.0000 0.0000
# 3 60.7624 30.6702 146.9573 0.0000 0.0000 0.0000
# 4 0.0000 0.0000 0.0000 0.5873 0.0000 0.0000
# 5 0.0000 0.0000 0.0000 0.0000 27.6027 0.0000
# 6 0.0000 0.0000 0.0000 0.0000 0.0000 14.7430
#
#
#
# Elastic Compliance Matrix: (Units=1/GPa)
#
#
# Indices 1 2 3 4 5 6 
#
# 1 0.008506 -0.002724 -0.002948 0.000000 0.000000 0.000000
# 2 -0.002724 0.030519 -0.005243 0.000000 0.000000 0.000000
# 3 -0.002948 -0.005243 0.009118 0.000000 0.000000 0.000000
# 4 0.000000 0.000000 0.000000 1.702652 0.000000 0.000000
# 5 0.000000 0.000000 0.000000 0.000000 0.036228 0.000000
# 6 0.000000 0.000000 0.000000 0.000000 0.000000 0.067829
#
#
# Mechanical properties :
#
#
# Convention : Reuss Voigt Hill
#
# Bulk Modulus (GPa) = 38.00605 62.56363 50.28484
# Shear Modulus (GPa) = 2.65188 23.14128 12.89658
#
# Velocity S-wave (km/s) = 1.17609 3.47422 2.59359
# Velocity P-wave (km/s) = 4.65486 6.98041 5.93270
#
# Compressibility (1/GPa) = 0.02631160
#
# Stress axis : x y z
#
# Youngs Moduli (GPa) = 117.56474 32.76645 109.67359
#
# Poissons Ratio (x) = 0.08927 0.32336
# Poissons Ratio (y) = 0.32029 0.57501
# Poissons Ratio (z) = 0.34662 0.17179
#
# Static dielectric constant tensor:
#      x y z
#    x 3.747320 0.000000 0.000000 
#    y 0.000000 2.906270 0.000000 
#    z 0.000000 0.000000 3.778940 
# 
# 
# High freq. dielectric constant tensor:
#      x y z
#    x 1.767240 0.000000 0.000000 
#    y 0.000000 1.672340 0.000000 
#    z 0.000000 0.000000 1.750490 
# 
# From -- ./inp_files/20514.got.cif
#   From: 2010.03.12/outbox.cif.g09.slc.cpg/sg59_11_cif.got.tgz:20514.got - 2010.04.16 16:29:54.
