data_PCOD8242359
_publ_section_title
;
Structure prediction by ZEFSAII (Michael W. Deem and Ramdas Pophale) SiO2 
 PCOD8242359
Probable space group: P M M N
;
_chemical_formula_sum "Si O2"
_cell_formula_units_Z 64
_cell_length_a 24.806208
_cell_length_b 8.943137
_cell_length_c 18.526001
_cell_angle_alpha 90.000000
_cell_angle_beta 90.000000
_cell_angle_gamma 90.000000
_cell_volume 4109.906557
_symmetry_space_group_name_H-M "P M M N"
_symmetry_group_IT_number 59
_space_group.IT_coordinate_system_code '2'
_symmetry_cell_setting 'orthorhombic'
loop_
_space_group_symop_operation_xyz
x,y,z
1/2-x,1/2-y,z
1/2+x,-y,-z
-x,1/2+y,-z
-x,-y,-z
1/2+x,1/2+y,-z
1/2-x,y,z
x,1/2-y,z
loop_
_atom_site_type_symbol
_atom_site_label
_atom_site_fract_x
_atom_site_fract_y
_atom_site_fract_z
Si Si1 0.811028 0.417620 0.704054
Si Si2 0.509955 0.924974 0.388212
Si Si3 0.416113 0.924932 0.495321
Si Si4 0.602395 0.423942 0.818508
Si Si5 0.457533 0.082050 0.899504
Si Si6 0.996595 0.426377 0.234945
Si Si7 0.075071 0.583351 0.030490
Si Si8 0.688233 0.925041 0.558002
O O1 0.750000 0.425596 0.729769
O O2 0.825850 0.250000 0.676178
O O3 0.844088 0.460535 0.774774
O O4 0.822918 0.534859 0.641110
O O5 0.519305 0.750000 0.377352
O O6 0.450553 0.955611 0.422209
O O7 0.556296 0.987700 0.439603
O O8 0.516883 0.005543 0.312298
O O9 0.414999 0.750000 0.513553
O O10 0.354868 0.984300 0.489427
O O11 0.583981 0.250000 0.811088
O O12 0.556764 0.529146 0.786171
O O13 0.614678 0.460417 0.903079
O O14 0.440744 0.250000 0.880497
O O15 0.516391 0.070448 0.933709
O O16 0.454888 0.987191 0.825646
O O17 0.416530 0.021281 0.960844
O O18 0.990836 0.250000 0.239067
O O19 0.085803 0.750000 0.002356
O O20 0.750000 0.969955 0.536866
O O21 0.678721 0.750000 0.546849
#
# Coordination Sequence:
#
# PCOD8242359 Si02
#       8
#     8   8   8   8   8   8   8   8
#     4   9  17  29  44  61  82 110 144 180 215 250
#     4  10  20  33  47  64  89 118 146 179 220 265
#     4  10  20  33  49  67  87 114 148 183 219 261
#     4   9  17  28  41  58  82 112 144 177 213 252
#     4   9  16  26  39  55  78 106 135 168 204 241
#     4  11  20  28  41  61  84 111 144 176 208 252
#     4   8  14  24  37  54  77 105 136 168 202 241
#     4  10  20  32  46  65  89 117 148 183 223 262
#
# _framework density 15.57213
#
# number of rings (size 3 to 8) (size 9 to 14) (size 15 to 20)
#    0.000    2.500    0.000    4.125    0.000    8.750 
#    0.000    0.000    0.000    0.000    0.000    0.000 
#    0.000    1.000    0.000    5.000    0.000    3.500 
#
# Total GULP energy -793328.403591 kJ/mol
# GULP energy per Si atom -12395.756306 kJ/mol
# Density = 1.553669 g / cm^3
# Si number density = 15.572130 Si / 1000 Ang^3
#
#
#
# Elastic Constant Matrix: (Units=GPa)
#
#
# Indices 1 2 3 4 5 6 
#
# 1 58.0217 31.5591 31.1572 0.0000 0.0000 0.0000
# 2 31.5591 105.5600 57.4551 0.0000 0.0000 0.0000
# 3 31.1572 57.4551 102.3960 0.0000 0.0000 0.0000
# 4 0.0000 0.0000 0.0000 29.9600 0.0000 0.0000
# 5 0.0000 0.0000 0.0000 0.0000 21.4356 0.0000
# 6 0.0000 0.0000 0.0000 0.0000 0.0000 18.2503
#
#
#
# Elastic Compliance Matrix: (Units=1/GPa)
#
#
# Indices 1 2 3 4 5 6 
#
# 1 0.021816 -0.004188 -0.004288 0.000000 0.000000 0.000000
# 2 -0.004188 0.014443 -0.006829 0.000000 0.000000 0.000000
# 3 -0.004288 -0.006829 0.014903 0.000000 0.000000 0.000000
# 4 0.000000 0.000000 0.000000 0.033378 0.000000 0.000000
# 5 0.000000 0.000000 0.000000 0.000000 0.046651 0.000000
# 6 0.000000 0.000000 0.000000 0.000000 0.000000 0.054794
#
#
# Mechanical properties :
#
#
# Convention : Reuss Voigt Hill
#
# Bulk Modulus (GPa) = 48.66270 56.25783 52.46027
# Shear Modulus (GPa) = 22.37685 23.64961 23.01323
#
# Velocity S-wave (km/s) = 3.79487 3.90130 3.84845
# Velocity P-wave (km/s) = 7.10767 7.51659 7.31499
#
# Compressibility (1/GPa) = 0.02054962
#
# Stress axis : x y z
#
# Youngs Moduli (GPa) = 45.83861 69.23947 67.10140
#
# Poissons Ratio (x) = 0.28999 0.28773
# Poissons Ratio (y) = 0.19198 0.45827
# Poissons Ratio (z) = 0.19656 0.47287
#
# Static dielectric constant tensor:
#      x y z
#    x 2.765520 0.000000 0.000000 
#    y 0.000000 3.092740 0.000000 
#    z 0.000000 0.000000 3.106030 
# 
# 
# High freq. dielectric constant tensor:
#      x y z
#    x 1.552460 0.000000 0.000000 
#    y 0.000000 1.608990 0.000000 
#    z 0.000000 0.000000 1.594820 
# 
# From -- ./inp_files/28539.got.cif
#   From: 2010.03.12/outbox.cif.g09.slc.cpg/sg59_15_cif.got.tgz:28539.got - 2010.04.16 16:29:54.
