data_PCOD8242451
_publ_section_title
;
Structure prediction by ZEFSAII (Michael W. Deem and Ramdas Pophale) SiO2 
 PCOD8242451
Probable space group: P M M N
;
_chemical_formula_sum "Si O2"
_cell_formula_units_Z 40
_cell_length_a 7.959097
_cell_length_b 29.014069
_cell_length_c 9.693710
_cell_angle_alpha 90.000000
_cell_angle_beta 90.000000
_cell_angle_gamma 90.000000
_cell_volume 2238.527635
_symmetry_space_group_name_H-M "P M M N"
_symmetry_group_IT_number 59
_space_group.IT_coordinate_system_code '2'
_symmetry_cell_setting 'orthorhombic'
loop_
_space_group_symop_operation_xyz
x,y,z
1/2-x,1/2-y,z
1/2+x,-y,-z
-x,1/2+y,-z
-x,-y,-z
1/2+x,1/2+y,-z
1/2-x,y,z
x,1/2-y,z
loop_
_atom_site_type_symbol
_atom_site_label
_atom_site_fract_x
_atom_site_fract_y
_atom_site_fract_z
Si Si1 0.936264 0.359590 0.416860
Si Si2 0.566527 0.359002 0.089727
Si Si3 0.559559 0.957588 0.910294
Si Si4 0.250000 0.197628 0.089107
Si Si5 0.944102 0.037329 0.390697
Si Si6 0.750000 0.697726 0.581259
O O1 0.750000 0.345588 0.473551
O O2 0.936397 0.354995 0.253346
O O3 0.979001 0.412338 0.456237
O O4 0.082036 0.326870 0.478713
O O5 0.750000 0.342464 0.034279
O O6 0.545978 0.412419 0.048480
O O7 0.417066 0.327289 0.029001
O O8 0.750000 0.945732 0.945501
O O9 0.546915 0.970159 0.749215
O O10 0.500000 0.000000 0.000000
O O11 0.250000 0.250000 0.036220
O O12 0.250000 0.195225 0.253960
O O13 0.750000 0.031890 0.352264
O O14 0.000000 0.000000 0.500000
O O15 0.750000 0.750000 0.528012
#
# Coordination Sequence:
#
# PCOD8242451 Si02
#       6
#     8   8   8   4   8   4
#     4   8  16  27  40  59  88 119 152 191 236 283
#     4   9  16  28  42  61  89 122 156 195 241 289
#     4  11  20  32  49  70  98 132 167 205 244 295
#     4   9  16  26  40  62  87 121 161 195 238 291
#     4  10  20  32  48  71  96 131 167 200 244 292
#     4   9  16  24  40  60  83 119 159 191 234 285
#
# _framework density 17.86889
#
# number of rings (size 3 to 8) (size 9 to 14) (size 15 to 20)
#    0.000    2.600    1.000    3.600    5.600    0.800 
#    0.000    4.000    0.000    0.000    0.000    0.000 
#    0.000    3.200    0.000    5.800    0.000    7.800 
#
# Total GULP energy -495812.015689 kJ/mol
# GULP energy per Si atom -12395.300392 kJ/mol
# Density = 1.782822 g / cm^3
# Si number density = 17.868890 Si / 1000 Ang^3
#
#
#
# Elastic Constant Matrix: (Units=GPa)
#
#
# Indices 1 2 3 4 5 6 
#
# 1 163.5815 82.4670 13.8566 0.0000 0.0000 0.0000
# 2 82.4670 139.8557 25.6592 0.0000 0.0000 0.0000
# 3 13.8566 25.6592 17.4662 0.0000 0.0000 0.0000
# 4 0.0000 0.0000 0.0000 17.2645 0.0000 0.0000
# 5 0.0000 0.0000 0.0000 0.0000 13.5348 0.0000
# 6 0.0000 0.0000 0.0000 0.0000 0.0000 32.4155
#
#
#
# Elastic Compliance Matrix: (Units=1/GPa)
#
#
# Indices 1 2 3 4 5 6 
#
# 1 0.008709 -0.005295 0.000869 0.000000 0.000000 0.000000
# 2 -0.005295 0.013008 -0.014909 0.000000 0.000000 0.000000
# 3 0.000869 -0.014909 0.078466 0.000000 0.000000 0.000000
# 4 0.000000 0.000000 0.000000 0.057922 0.000000 0.000000
# 5 0.000000 0.000000 0.000000 0.000000 0.073884 0.000000
# 6 0.000000 0.000000 0.000000 0.000000 0.000000 0.030849
#
#
# Mechanical properties :
#
#
# Convention : Reuss Voigt Hill
#
# Bulk Modulus (GPa) = 16.25642 62.76323 39.50983
# Shear Modulus (GPa) = 15.52746 25.90433 20.71590
#
# Velocity S-wave (km/s) = 2.95102 3.81161 3.40858
# Velocity P-wave (km/s) = 4.55288 7.38727 6.13598
#
# Compressibility (1/GPa) = 0.06151415
#
# Stress axis : x y z
#
# Youngs Moduli (GPa) = 114.82708 76.87858 12.74439
#
# Poissons Ratio (x) = 0.40705 -0.01108
# Poissons Ratio (y) = 0.60797 0.19000
# Poissons Ratio (z) = -0.09981 1.14615
#
# Static dielectric constant tensor:
#      x y z
#    x 3.797560 0.000000 0.000000 
#    y 0.000000 3.623390 0.000000 
#    z 0.000000 0.000000 2.641760 
# 
# 
# High freq. dielectric constant tensor:
#      x y z
#    x 1.718850 0.000000 0.000000 
#    y 0.000000 1.693380 0.000000 
#    z 0.000000 0.000000 1.606190 
# 
# From -- ./inp_files/5910.got.cif
#   From: 2010.03.12/outbox.cif.g09.slc.cpg/sg59_3_cif.got.tgz:5910.got - 2010.04.16 16:29:54.
