data_PCOD8242240
_publ_section_title
;
Structure prediction by ZEFSAII (Michael W. Deem and Ramdas Pophale) SiO2 
 PCOD8242240
Probable space group: P M M N
;
_chemical_formula_sum "Si O2"
_cell_formula_units_Z 64
_cell_length_a 28.681502
_cell_length_b 8.977962
_cell_length_c 12.587633
_cell_angle_alpha 90.000000
_cell_angle_beta 90.000000
_cell_angle_gamma 90.000000
_cell_volume 3241.333561
_symmetry_space_group_name_H-M "P M M N"
_symmetry_group_IT_number 59
_space_group.IT_coordinate_system_code '2'
_symmetry_cell_setting 'orthorhombic'
loop_
_space_group_symop_operation_xyz
x,y,z
1/2-x,1/2-y,z
1/2+x,-y,-z
-x,1/2+y,-z
-x,-y,-z
1/2+x,1/2+y,-z
1/2-x,y,z
x,1/2-y,z
loop_
_atom_site_type_symbol
_atom_site_label
_atom_site_fract_x
_atom_site_fract_y
_atom_site_fract_z
Si Si1 0.553765 0.082495 0.244421
Si Si2 0.018811 0.925131 0.106275
Si Si3 0.842829 0.422710 0.219532
Si Si4 0.876880 0.426898 0.832633
Si Si5 0.302416 0.425685 0.575768
Si Si6 0.548617 0.078257 0.488420
Si Si7 0.801824 0.073145 0.001946
Si Si8 0.369918 0.073740 0.389361
O O1 0.535769 0.250000 0.221402
O O2 0.603040 0.053508 0.186786
O O3 0.565216 0.060374 0.367948
O O4 0.514440 0.969381 0.204290
O O5 0.017187 0.750000 0.089458
O O6 0.071331 0.977718 0.132246
O O7 0.000000 0.000000 0.000000
O O8 0.832585 0.250000 0.242449
O O9 0.829936 0.511499 0.324323
O O10 0.813124 0.484846 0.120509
O O11 0.874699 0.250000 0.817499
O O12 0.860373 0.505027 0.725224
O O13 0.840157 0.486804 0.919703
O O14 0.250000 0.490027 0.572303
O O15 0.302224 0.250000 0.587541
O O16 0.327678 0.473259 0.466776
O O17 0.545593 0.250000 0.523420
O O18 0.500000 0.000000 0.500000
O O19 0.582586 0.993653 0.567070
O O20 0.750000 0.017318 0.969897
O O21 0.804282 0.250000 0.003185
O O22 0.375346 0.250000 0.380475
#
# Coordination Sequence:
#
# PCOD8242240 Si02
#       8
#     8   8   8   8   8   8   8   8
#     4  10  21  36  56  83 117 152 191 243 296 351
#     4  11  23  38  58  84 116 157 199 243 295 355
#     4  10  19  36  61  89 118 149 192 247 304 361
#     4  10  22  40  60  83 117 155 196 246 298 355
#     4  10  22  39  58  84 121 161 199 245 301 356
#     4  11  22  37  58  85 117 154 196 241 294 351
#     4   9  18  34  59  88 114 144 187 244 307 362
#     4  11  23  39  59  84 118 158 202 247 295 353
#
# _framework density 19.744959000000001
#
# number of rings (size 3 to 8) (size 9 to 14) (size 15 to 20)
#    0.000    1.750    1.250    3.000    0.000    8.250 
#    0.000    0.625    0.000    0.750    0.000    0.000 
#    0.000    0.000    0.000    0.000    0.000    0.000 
#
# Total GULP energy -793754.574796 kJ/mol
# GULP energy per Si atom -12402.415231 kJ/mol
# Density = 1.970002 g / cm^3
# Si number density = 19.744959 Si / 1000 Ang^3
#
#
#
# Elastic Constant Matrix: (Units=GPa)
#
#
# Indices 1 2 3 4 5 6 
#
# 1 131.4675 31.6705 58.9581 0.0000 0.0000 0.0000
# 2 31.6705 39.5991 39.3590 0.0000 0.0000 0.0000
# 3 58.9581 39.3590 129.6512 0.0000 0.0000 0.0000
# 4 0.0000 0.0000 0.0000 33.1301 0.0000 0.0000
# 5 0.0000 0.0000 0.0000 0.0000 35.0329 0.0000
# 6 0.0000 0.0000 0.0000 0.0000 0.0000 24.7380
#
#
#
# Elastic Compliance Matrix: (Units=1/GPa)
#
#
# Indices 1 2 3 4 5 6 
#
# 1 0.010225 -0.005093 -0.003104 0.000000 0.000000 0.000000
# 2 -0.005093 0.038702 -0.009433 0.000000 0.000000 0.000000
# 3 -0.003104 -0.009433 0.011988 0.000000 0.000000 0.000000
# 4 0.000000 0.000000 0.000000 0.030184 0.000000 0.000000
# 5 0.000000 0.000000 0.000000 0.000000 0.028545 0.000000
# 6 0.000000 0.000000 0.000000 0.000000 0.000000 0.040424
#
#
# Mechanical properties :
#
#
# Convention : Reuss Voigt Hill
#
# Bulk Modulus (GPa) = 38.97734 62.29921 50.63828
# Shear Modulus (GPa) = 24.52431 29.96222 27.24327
#
# Velocity S-wave (km/s) = 3.52810 3.89969 3.71854
# Velocity P-wave (km/s) = 6.03158 7.20397 6.64369
#
# Compressibility (1/GPa) = 0.02565593
#
# Stress axis : x y z
#
# Youngs Moduli (GPa) = 97.79702 25.83832 83.41626
#
# Poissons Ratio (x) = 0.13159 0.25890
# Poissons Ratio (y) = 0.49808 0.78687
# Poissons Ratio (z) = 0.30354 0.24373
#
# Static dielectric constant tensor:
#      x y z
#    x 3.832800 0.000000 0.000000 
#    y 0.000000 5.756280 0.000000 
#    z 0.000000 0.000000 6.933290 
# 
# 
# High freq. dielectric constant tensor:
#      x y z
#    x 1.782570 0.000000 0.000000 
#    y 0.000000 1.751490 0.000000 
#    z 0.000000 0.000000 1.779110 
# 
# From -- ./inp_files/19296.got.cif
#   From: 2010.03.12/outbox.cif.g09.slc.cpg/sg59_10_cif.got.tgz:19296.got - 2010.04.16 16:29:54.
