data_PCOD8242045
_publ_section_title
;
Structure prediction by ZEFSAII (Michael W. Deem and Ramdas Pophale) SiO2 
 PCOD8242045
Probable space group: P M M N
;
_chemical_formula_sum "Si O2"
_cell_formula_units_Z 64
_cell_length_a 19.391499
_cell_length_b 8.798757
_cell_length_c 18.908478
_cell_angle_alpha 90.000000
_cell_angle_beta 90.000000
_cell_angle_gamma 90.000000
_cell_volume 3226.185081
_symmetry_space_group_name_H-M "P M M N"
_symmetry_group_IT_number 59
_space_group.IT_coordinate_system_code '2'
_symmetry_cell_setting 'orthorhombic'
loop_
_space_group_symop_operation_xyz
x,y,z
1/2-x,1/2-y,z
1/2+x,-y,-z
-x,1/2+y,-z
-x,-y,-z
1/2+x,1/2+y,-z
1/2-x,y,z
x,1/2-y,z
loop_
_atom_site_type_symbol
_atom_site_label
_atom_site_fract_x
_atom_site_fract_y
_atom_site_fract_z
Si Si1 0.943205 0.072809 0.851448
Si Si2 0.073004 0.570974 0.918708
Si Si3 0.327908 0.921244 0.542544
Si Si4 0.381504 0.424038 0.676651
Si Si5 0.550954 0.423435 0.556643
Si Si6 0.675879 0.421164 0.202689
Si Si7 0.828266 0.072591 0.957911
Si Si8 0.522276 0.571525 0.703880
O O1 0.958313 0.250000 0.841174
O O2 0.866525 0.044022 0.883062
O O3 0.943721 0.993320 0.775188
O O4 0.999216 0.010467 0.908665
O O5 0.059838 0.750000 0.928794
O O6 0.114732 0.531666 0.848344
O O7 0.120231 0.504010 0.982243
O O8 0.250000 0.967071 0.524197
O O9 0.332326 0.750000 0.573802
O O10 0.371010 0.932600 0.470754
O O11 0.359419 0.040177 0.597335
O O12 0.404337 0.250000 0.681119
O O13 0.320348 0.464201 0.730625
O O14 0.442076 0.533100 0.703391
O O15 0.500000 0.500000 0.500000
O O16 0.526017 0.250000 0.566303
O O17 0.554259 0.503054 0.632485
O O18 0.750000 0.434566 0.163287
O O19 0.665153 0.250000 0.230513
O O20 0.750000 0.001516 0.957664
O O21 0.820788 0.250000 0.973916
O O22 0.534180 0.750000 0.703658
#
# Coordination Sequence:
#
# PCOD8242045 Si02
#       8
#     8   8   8   8   8   8   8   8
#     4  11  22  37  60  89 120 153 196 251 301 349
#     4  10  19  34  59  87 118 157 196 236 288 353
#     4  10  22  40  61  86 119 158 195 231 283 355
#     4  12  23  35  55  83 118 155 195 243 294 349
#     4  11  22  38  63  91 120 154 195 241 290 344
#     4  10  20  33  51  78 116 161 200 232 278 347
#     4   9  19  37  61  89 119 155 200 245 294 357
#     4  12  24  40  61  85 116 156 202 249 297 355
#
# _framework density 19.837671
#
# number of rings (size 3 to 8) (size 9 to 14) (size 15 to 20)
#    0.000    1.375    2.500    4.125    0.000    4.000 
#    0.000    1.250    0.000    7.875    0.000    0.000 
#    0.000    0.000    0.000    0.000    0.000    0.000 
#
# Total GULP energy -793364.711607 kJ/mol
# GULP energy per Si atom -12396.323619 kJ/mol
# Density = 1.979252 g / cm^3
# Si number density = 19.837671 Si / 1000 Ang^3
#
#
#
# Elastic Constant Matrix: (Units=GPa)
#
#
# Indices 1 2 3 4 5 6 
#
# 1 100.7292 37.7649 58.1768 0.0000 0.0000 0.0000
# 2 37.7649 105.7705 52.2220 0.0000 0.0000 0.0000
# 3 58.1768 52.2220 121.3705 0.0000 0.0000 0.0000
# 4 0.0000 0.0000 0.0000 25.9211 0.0000 0.0000
# 5 0.0000 0.0000 0.0000 0.0000 22.2074 0.0000
# 6 0.0000 0.0000 0.0000 0.0000 0.0000 22.1671
#
#
#
# Elastic Compliance Matrix: (Units=1/GPa)
#
#
# Indices 1 2 3 4 5 6 
#
# 1 0.014105 -0.002156 -0.005833 0.000000 0.000000 0.000000
# 2 -0.002156 0.012334 -0.004274 0.000000 0.000000 0.000000
# 3 -0.005833 -0.004274 0.012874 0.000000 0.000000 0.000000
# 4 0.000000 0.000000 0.000000 0.038579 0.000000 0.000000
# 5 0.000000 0.000000 0.000000 0.000000 0.045030 0.000000
# 6 0.000000 0.000000 0.000000 0.000000 0.000000 0.045112
#
#
# Mechanical properties :
#
#
# Convention : Reuss Voigt Hill
#
# Bulk Modulus (GPa) = 67.62473 69.35527 68.49000
# Shear Modulus (GPa) = 25.31787 26.03955 25.67871
#
# Velocity S-wave (km/s) = 3.57634 3.62696 3.60174
# Velocity P-wave (km/s) = 7.15658 7.25100 7.20395
#
# Compressibility (1/GPa) = 0.01478749
#
# Stress axis : x y z
#
# Youngs Moduli (GPa) = 70.89679 81.07514 77.67531
#
# Poissons Ratio (x) = 0.17480 0.45310
# Poissons Ratio (y) = 0.15286 0.33195
# Poissons Ratio (z) = 0.41356 0.34648
#
# Static dielectric constant tensor:
#      x y z
#    x 3.720470 0.000000 0.000000 
#    y 0.000000 3.482400 0.000000 
#    z 0.000000 0.000000 3.691060 
# 
# 
# High freq. dielectric constant tensor:
#      x y z
#    x 1.773270 0.000000 0.000000 
#    y 0.000000 1.760140 0.000000 
#    z 0.000000 0.000000 1.775670 
# 
# From -- ./inp_files/28233.got.cif
#   From: 2010.03.12/outbox.cif.g09.slc.cpg/sg59_15_cif.got.tgz:28233.got - 2010.04.16 16:29:54.
