data_PCOD8242216
_publ_section_title
;
Structure prediction by ZEFSAII (Michael W. Deem and Ramdas Pophale) SiO2 
 PCOD8242216
Probable space group: P M M N
;
_chemical_formula_sum "Si O2"
_cell_formula_units_Z 32
_cell_length_a 9.045372
_cell_length_b 10.227526
_cell_length_c 18.920018
_cell_angle_alpha 90.000000
_cell_angle_beta 90.000000
_cell_angle_gamma 90.000000
_cell_volume 1750.324492
_symmetry_space_group_name_H-M "P M M N"
_symmetry_group_IT_number 59
_space_group.IT_coordinate_system_code '2'
_symmetry_cell_setting 'orthorhombic'
loop_
_space_group_symop_operation_xyz
x,y,z
1/2-x,1/2-y,z
1/2+x,-y,-z
-x,1/2+y,-z
-x,-y,-z
1/2+x,1/2+y,-z
1/2-x,y,z
x,1/2-y,z
loop_
_atom_site_type_symbol
_atom_site_label
_atom_site_fract_x
_atom_site_fract_y
_atom_site_fract_z
Si Si1 0.076702 0.003122 0.154129
Si Si2 0.923807 0.900194 0.447154
Si Si3 0.425243 0.750000 0.911435
Si Si4 0.417154 0.900067 0.305212
Si Si5 0.074684 0.750000 0.071722
O O1 0.250000 0.025381 0.139627
O O2 0.045395 0.987328 0.237359
O O3 0.015315 0.878181 0.111518
O O4 0.983904 0.124831 0.128811
O O5 0.750000 0.917834 0.453509
O O6 0.970912 0.750000 0.464167
O O7 0.972530 0.937981 0.368056
O O8 0.000000 0.000000 0.500000
O O9 0.250000 0.750000 0.909998
O O10 0.485024 0.750000 0.991724
O O11 0.250000 0.926299 0.331428
O O12 0.435842 0.750000 0.281947
O O13 0.250000 0.750000 0.074870
#
# Coordination Sequence:
#
# PCOD8242216 Si02
#       5
#     8   8   4   8   4
#     4  10  19  36  59  80 105 143 187 227 272 328
#     4  10  21  37  58  85 115 145 179 221 267 320
#     4  11  23  35  49  79 118 147 176 227 281 324
#     4   9  17  33  59  84 105 138 184 229 270 319
#     4   9  18  35  59  81 104 139 188 233 271 324
#
# _framework density 18.282325
#
# number of rings (size 3 to 8) (size 9 to 14) (size 15 to 20)
#    0.000    2.250    1.250    1.875    0.000    2.500 
#    2.250    1.875    0.000    0.000    0.000    0.000 
#    0.000    0.000    0.000    0.000    0.000    0.000 
#
# Total GULP energy -396850.697504 kJ/mol
# GULP energy per Si atom -12401.584297 kJ/mol
# Density = 1.824071 g / cm^3
# Si number density = 18.282325 Si / 1000 Ang^3
#
#
#
# Elastic Constant Matrix: (Units=GPa)
#
#
# Indices 1 2 3 4 5 6 
#
# 1 69.9046 53.1106 57.4207 0.0000 0.0000 0.0000
# 2 53.1106 132.7151 77.0465 0.0000 0.0000 0.0000
# 3 57.4207 77.0465 129.4474 0.0000 0.0000 0.0000
# 4 0.0000 0.0000 0.0000 36.8804 0.0000 0.0000
# 5 0.0000 0.0000 0.0000 0.0000 31.0944 0.0000
# 6 0.0000 0.0000 0.0000 0.0000 0.0000 5.7639
#
#
#
# Elastic Compliance Matrix: (Units=1/GPa)
#
#
# Indices 1 2 3 4 5 6 
#
# 1 0.024810 -0.005408 -0.007786 0.000000 0.000000 0.000000
# 2 -0.005408 0.012692 -0.005155 0.000000 0.000000 0.000000
# 3 -0.007786 -0.005155 0.014247 0.000000 0.000000 0.000000
# 4 0.000000 0.000000 0.000000 0.027115 0.000000 0.000000
# 5 0.000000 0.000000 0.000000 0.000000 0.032160 0.000000
# 6 0.000000 0.000000 0.000000 0.000000 0.000000 0.173494
#
#
# Mechanical properties :
#
#
# Convention : Reuss Voigt Hill
#
# Bulk Modulus (GPa) = 66.44618 78.58030 72.51324
# Shear Modulus (GPa) = 15.32642 24.38037 19.85339
#
# Velocity S-wave (km/s) = 2.89851 3.65574 3.29893
# Velocity P-wave (km/s) = 6.90110 7.80347 7.36612
#
# Compressibility (1/GPa) = 0.01504977
#
# Stress axis : x y z
#
# Youngs Moduli (GPa) = 40.30629 78.78925 70.18836
#
# Poissons Ratio (x) = 0.42612 0.54651
# Poissons Ratio (y) = 0.21799 0.36184
# Poissons Ratio (z) = 0.31384 0.40618
#
# Static dielectric constant tensor:
#      x y z
#    x 3.240530 0.000000 0.000000 
#    y 0.000000 4.280500 0.000000 
#    z 0.000000 0.000000 3.501600 
# 
# 
# High freq. dielectric constant tensor:
#      x y z
#    x 1.695910 0.000000 0.000000 
#    y 0.000000 1.705590 0.000000 
#    z 0.000000 0.000000 1.718780 
# 
# From -- ./inp_files/25231.got.cif
#   From: 2010.03.12/outbox.cif.g09.slc.cpg/sg59_13_cif.got.tgz:25231.got - 2010.04.16 16:29:54.
