data_PCOD8242400
_publ_section_title
;
Structure prediction by ZEFSAII (Michael W. Deem and Ramdas Pophale) SiO2 
 PCOD8242400
Probable space group: P M M N
;
_chemical_formula_sum "Si O2"
_cell_formula_units_Z 64
_cell_length_a 9.150890
_cell_length_b 17.137261
_cell_length_c 21.465458
_cell_angle_alpha 90.000000
_cell_angle_beta 90.000000
_cell_angle_gamma 90.000000
_cell_volume 3366.238674
_symmetry_space_group_name_H-M "P M M N"
_symmetry_group_IT_number 59
_space_group.IT_coordinate_system_code '2'
_symmetry_cell_setting 'orthorhombic'
loop_
_space_group_symop_operation_xyz
x,y,z
1/2-x,1/2-y,z
1/2+x,-y,-z
-x,1/2+y,-z
-x,-y,-z
1/2+x,1/2+y,-z
1/2-x,y,z
x,1/2-y,z
loop_
_atom_site_type_symbol
_atom_site_label
_atom_site_fract_x
_atom_site_fract_y
_atom_site_fract_z
Si Si1 0.910789 0.336155 0.136780
Si Si2 0.916620 0.398033 0.264019
Si Si3 0.421641 0.928879 0.086027
Si Si4 0.080744 0.401934 0.035098
Si Si5 0.419372 0.338989 0.375702
Si Si6 0.584410 0.931562 0.313654
Si Si7 0.424285 0.981562 0.564404
Si Si8 0.578097 0.159594 0.789307
O O1 0.750000 0.363123 0.112603
O O2 0.901383 0.250000 0.164892
O O3 0.964687 0.390853 0.192635
O O4 0.027238 0.334837 0.081213
O O5 0.750000 0.369056 0.275337
O O6 0.930824 0.488677 0.276819
O O7 0.027493 0.346512 0.304635
O O8 0.250000 0.914323 0.080743
O O9 0.477721 0.894190 0.152481
O O10 0.463052 0.019119 0.072911
O O11 0.500226 0.884388 0.029705
O O12 0.250000 0.397475 0.020953
O O13 0.250000 0.363764 0.380740
O O14 0.440599 0.250000 0.398711
O O15 0.518933 0.396249 0.416520
O O16 0.750000 0.900440 0.314571
O O17 0.489239 0.867558 0.276976
O O18 0.532885 0.951249 0.384780
O O19 0.250000 0.977304 0.557720
O O20 0.500000 0.000000 0.500000
O O21 0.750000 0.150256 0.782111
O O22 0.534826 0.250000 0.801512
#
# Coordination Sequence:
#
# PCOD8242400 Si02
#       8
#     8   8   8   8   8   8   8   8
#     4  10  20  32  47  69 100 137 170 204 254 313
#     4   9  18  33  53  76 103 138 179 217 256 311
#     4   9  19  36  54  72  98 132 171 218 270 321
#     4  10  20  33  51  74  98 129 172 221 270 321
#     4  10  20  33  52  81 114 145 179 221 267 313
#     4   9  19  35  56  82 108 135 169 212 262 311
#     4  10  21  38  60  85 113 147 185 222 265 319
#     4  10  21  36  55  79 105 137 180 225 269 323
#
# _framework density 19.012319000000002
#
# number of rings (size 3 to 8) (size 9 to 14) (size 15 to 20)
#    0.000    2.375    0.000    3.000    0.000    6.500 
#    0.000    1.875    0.000    0.750    0.000    0.000 
#    0.000    0.000    0.000    0.000    0.000    0.000 
#
# Total GULP energy -793187.130362 kJ/mol
# GULP energy per Si atom -12393.548912 kJ/mol
# Density = 1.896905 g / cm^3
# Si number density = 19.012319 Si / 1000 Ang^3
#
#
#
# Elastic Constant Matrix: (Units=GPa)
#
#
# Indices 1 2 3 4 5 6 
#
# 1 61.5437 32.8152 51.0673 0.0000 0.0000 0.0000
# 2 32.8152 61.2688 44.4881 0.0000 0.0000 0.0000
# 3 51.0673 44.4881 139.5161 0.0000 0.0000 0.0000
# 4 0.0000 0.0000 0.0000 18.3439 0.0000 0.0000
# 5 0.0000 0.0000 0.0000 0.0000 36.0327 0.0000
# 6 0.0000 0.0000 0.0000 0.0000 0.0000 27.4519
#
#
#
# Elastic Compliance Matrix: (Units=1/GPa)
#
#
# Indices 1 2 3 4 5 6 
#
# 1 0.026993 -0.009477 -0.006858 0.000000 0.000000 0.000000
# 2 -0.009477 0.024567 -0.004365 0.000000 0.000000 0.000000
# 3 -0.006858 -0.004365 0.011070 0.000000 0.000000 0.000000
# 4 0.000000 0.000000 0.000000 0.054514 0.000000 0.000000
# 5 0.000000 0.000000 0.000000 0.000000 0.027753 0.000000
# 6 0.000000 0.000000 0.000000 0.000000 0.000000 0.036427
#
#
# Mechanical properties :
#
#
# Convention : Reuss Voigt Hill
#
# Bulk Modulus (GPa) = 47.10567 57.67443 52.39005
# Shear Modulus (GPa) = 21.75811 25.29624 23.52718
#
# Velocity S-wave (km/s) = 3.38660 3.65158 3.52159
# Velocity P-wave (km/s) = 6.33421 6.94117 6.64463
#
# Compressibility (1/GPa) = 0.02122887
#
# Stress axis : x y z
#
# Youngs Moduli (GPa) = 37.04721 40.70537 90.33657
#
# Poissons Ratio (x) = 0.38578 0.61954
# Poissons Ratio (y) = 0.35111 0.39430
# Poissons Ratio (z) = 0.25407 0.17767
#
# Static dielectric constant tensor:
#      x y z
#    x 3.451370 0.000000 0.000000 
#    y 0.000000 3.429560 0.000000 
#    z 0.000000 0.000000 3.556560 
# 
# 
# High freq. dielectric constant tensor:
#      x y z
#    x 1.737260 0.000000 0.000000 
#    y 0.000000 1.725860 0.000000 
#    z 0.000000 0.000000 1.737280 
# 
# From -- ./inp_files/29614.got.cif
#   From: 2010.03.12/outbox.cif.g09.slc.cpg/sg59_15_cif.got.tgz:29614.got - 2010.04.16 16:29:54.
