data_PCOD8242981
_publ_section_title
;
Structure prediction by ZEFSAII (Michael W. Deem and Ramdas Pophale) SiO2 
 PCOD8242981
Probable space group: P M M N
;
_chemical_formula_sum "Si O2"
_cell_formula_units_Z 48
_cell_length_a 13.503252
_cell_length_b 22.626267
_cell_length_c 7.675307
_cell_angle_alpha 90.000000
_cell_angle_beta 90.000000
_cell_angle_gamma 90.000000
_cell_volume 2345.022618
_symmetry_space_group_name_H-M "P M M N"
_symmetry_group_IT_number 59
_space_group.IT_coordinate_system_code '2'
_symmetry_cell_setting 'orthorhombic'
loop_
_space_group_symop_operation_xyz
x,y,z
1/2-x,1/2-y,z
1/2+x,-y,-z
-x,1/2+y,-z
-x,-y,-z
1/2+x,1/2+y,-z
1/2-x,y,z
x,1/2-y,z
loop_
_atom_site_type_symbol
_atom_site_label
_atom_site_fract_x
_atom_site_fract_y
_atom_site_fract_z
Si Si1 0.860789 0.887098 0.696371
Si Si2 0.926622 0.077247 0.636800
Si Si3 0.640574 0.400294 0.995446
Si Si4 0.047267 0.528522 0.710612
Si Si5 0.443738 0.317695 0.608681
Si Si6 0.954864 0.682559 0.998151
O O1 0.750000 0.913613 0.707589
O O2 0.865083 0.845479 0.524878
O O3 0.940264 0.939644 0.690911
O O4 0.879117 0.847237 0.866148
O O5 0.849777 0.076659 0.796262
O O6 0.886470 0.047150 0.458758
O O7 0.954754 0.144896 0.591520
O O8 0.025387 0.041515 0.704903
O O9 0.750000 0.379546 0.054583
O O10 0.563586 0.347010 0.013292
O O11 0.605039 0.455323 0.114270
O O12 0.466293 0.250000 0.557991
O O13 0.407327 0.322550 0.809037
O O14 0.971145 0.750000 0.943530
#
# Coordination Sequence:
#
# PCOD8242981 Si02
#       6
#     8   8   8   8   8   8
#     4  10  20  33  52  78 105 136 174 214 260 313
#     4   9  18  35  55  73 101 139 172 211 262 310
#     4  10  20  33  53  79 104 136 177 218 260 307
#     4   9  19  36  54  75 107 139 171 215 263 311
#     4   9  18  33  52  73  98 130 169 212 256 303
#     4   9  19  35  52  73 105 140 173 214 262 310
#
# _framework density 20.468885
#
# number of rings (size 3 to 8) (size 9 to 14) (size 15 to 20)
#    0.000    2.667    0.000    1.000    0.000    3.667 
#    0.000    8.333    0.000    0.000    0.000    9.333 
#    0.000    0.000    0.000    0.000    0.000    0.000 
#
# Total GULP energy -594824.527049 kJ/mol
# GULP energy per Si atom -12392.177647 kJ/mol
# Density = 2.042230 g / cm^3
# Si number density = 20.468885 Si / 1000 Ang^3
#
#
#
# Elastic Constant Matrix: (Units=GPa)
#
#
# Indices 1 2 3 4 5 6 
#
# 1 90.0452 13.0321 34.1776 0.0000 0.0000 0.0000
# 2 13.0321 73.4104 5.0954 0.0000 0.0000 0.0000
# 3 34.1776 5.0954 83.4446 0.0000 0.0000 0.0000
# 4 0.0000 0.0000 0.0000 28.3517 0.0000 0.0000
# 5 0.0000 0.0000 0.0000 0.0000 10.6830 0.0000
# 6 0.0000 0.0000 0.0000 0.0000 0.0000 8.3345
#
#
#
# Elastic Compliance Matrix: (Units=1/GPa)
#
#
# Indices 1 2 3 4 5 6 
#
# 1 0.013439 -0.002012 -0.005382 0.000000 0.000000 0.000000
# 2 -0.002012 0.013981 -0.000030 0.000000 0.000000 0.000000
# 3 -0.005382 -0.000030 0.014190 0.000000 0.000000 0.000000
# 4 0.000000 0.000000 0.000000 0.035271 0.000000 0.000000
# 5 0.000000 0.000000 0.000000 0.000000 0.093606 0.000000
# 6 0.000000 0.000000 0.000000 0.000000 0.000000 0.119983
#
#
# Mechanical properties :
#
#
# Convention : Reuss Voigt Hill
#
# Bulk Modulus (GPa) = 37.36396 39.05673 38.21034
# Shear Modulus (GPa) = 15.91138 22.44684 19.17911
#
# Velocity S-wave (km/s) = 2.79112 3.31514 3.06435
# Velocity P-wave (km/s) = 5.35544 5.81171 5.58823
#
# Compressibility (1/GPa) = 0.02676376
#
# Stress axis : x y z
#
# Youngs Moduli (GPa) = 74.40780 71.52396 70.47180
#
# Poissons Ratio (x) = 0.14393 0.37926
# Poissons Ratio (y) = 0.14973 0.00208
# Poissons Ratio (z) = 0.40044 0.00211
#
# Static dielectric constant tensor:
#      x y z
#    x 3.145330 0.000000 0.000000 
#    y 0.000000 3.747290 0.000000 
#    z 0.000000 0.000000 4.083230 
# 
# 
# High freq. dielectric constant tensor:
#      x y z
#    x 1.747720 0.000000 0.000000 
#    y 0.000000 1.800800 0.000000 
#    z 0.000000 0.000000 1.825200 
# 
# From -- ./inp_files/7579.got.cif
#   From: 2010.03.12/outbox.cif.g09.slc.cpg/sg59_4_cif.got.tgz:7579.got - 2010.04.16 16:29:54.
