data_PCOD8242009
_publ_section_title
;
Structure prediction by ZEFSAII (Michael W. Deem and Ramdas Pophale) SiO2 
 PCOD8242009
Probable space group: P M M N
;
_chemical_formula_sum "Si O2"
_cell_formula_units_Z 56
_cell_length_a 14.656187
_cell_length_b 20.343397
_cell_length_c 9.491751
_cell_angle_alpha 90.000000
_cell_angle_beta 90.000000
_cell_angle_gamma 90.000000
_cell_volume 2830.028497
_symmetry_space_group_name_H-M "P M M N"
_symmetry_group_IT_number 59
_space_group.IT_coordinate_system_code '2'
_symmetry_cell_setting 'orthorhombic'
loop_
_space_group_symop_operation_xyz
x,y,z
1/2-x,1/2-y,z
1/2+x,-y,-z
-x,1/2+y,-z
-x,-y,-z
1/2+x,1/2+y,-z
1/2-x,y,z
x,1/2-y,z
loop_
_atom_site_type_symbol
_atom_site_label
_atom_site_fract_x
_atom_site_fract_y
_atom_site_fract_z
Si Si1 0.648919 0.175069 0.133763
Si Si2 0.354856 0.560061 0.359003
Si Si3 0.145424 0.428817 0.537669
Si Si4 0.485222 0.402137 0.091926
Si Si5 0.643008 0.673286 0.698363
Si Si6 0.858176 0.321413 0.451024
Si Si7 0.523718 0.961115 0.197463
O O1 0.750000 0.142780 0.119414
O O2 0.656207 0.250000 0.086280
O O3 0.573129 0.139578 0.039577
O O4 0.607729 0.168323 0.291796
O O5 0.250000 0.569961 0.312909
O O6 0.369163 0.493613 0.445438
O O7 0.393687 0.620447 0.451115
O O8 0.417481 0.558248 0.220986
O O9 0.250000 0.422920 0.586255
O O10 0.116639 0.365066 0.445523
O O11 0.085108 0.433173 0.677115
O O12 0.410308 0.357725 0.169782
O O13 0.525546 0.459842 0.191010
O O14 0.440227 0.431181 0.949677
O O15 0.750000 0.664068 0.730065
O O16 0.617031 0.750000 0.680306
O O17 0.750000 0.322229 0.444342
O O18 0.892089 0.250000 0.507625
#
# Coordination Sequence:
#
# PCOD8242009 Si02
#       7
#     8   8   8   8   8   8   8
#     4   9  18  34  56  82 113 149 190 231 275 343
#     4  10  19  34  57  84 119 156 191 236 290 347
#     4  10  21  39  63  88 113 150 202 254 304 349
#     4  11  23  38  57  86 121 158 197 236 294 366
#     4  10  22  42  66  87 111 152 207 261 305 350
#     4   8  15  28  49  79 110 144 187 229 274 332
#     4  11  24  37  56  87 123 156 192 245 296 354
#
# _framework density 19.787785
#
# number of rings (size 3 to 8) (size 9 to 14) (size 15 to 20)
#    0.000    2.143    1.429    2.571    2.000    2.857 
#    0.000    5.714    0.000    3.429    0.000    0.000 
#    0.000    0.000    0.000    0.000    0.000    0.000 
#
# Total GULP energy -694205.434041 kJ/mol
# GULP energy per Si atom -12396.525608 kJ/mol
# Density = 1.974275 g / cm^3
# Si number density = 19.787785 Si / 1000 Ang^3
#
#
#
# Elastic Constant Matrix: (Units=GPa)
#
#
# Indices 1 2 3 4 5 6 
#
# 1 82.5347 37.5452 42.5550 0.0000 0.0000 0.0000
# 2 37.5452 131.4660 44.9329 0.0000 0.0000 0.0000
# 3 42.5550 44.9329 77.4063 0.0000 0.0000 0.0000
# 4 0.0000 0.0000 0.0000 23.3771 0.0000 0.0000
# 5 0.0000 0.0000 0.0000 0.0000 22.2777 0.0000
# 6 0.0000 0.0000 0.0000 0.0000 0.0000 26.2591
#
#
#
# Elastic Compliance Matrix: (Units=1/GPa)
#
#
# Indices 1 2 3 4 5 6 
#
# 1 0.017369 -0.002117 -0.008320 0.000000 0.000000 0.000000
# 2 -0.002117 0.009747 -0.004494 0.000000 0.000000 0.000000
# 3 -0.008320 -0.004494 0.020102 0.000000 0.000000 0.000000
# 4 0.000000 0.000000 0.000000 0.042777 0.000000 0.000000
# 5 0.000000 0.000000 0.000000 0.000000 0.044888 0.000000
# 6 0.000000 0.000000 0.000000 0.000000 0.000000 0.038082
#
#
# Mechanical properties :
#
#
# Convention : Reuss Voigt Hill
#
# Bulk Modulus (GPa) = 57.61830 60.16369 58.89099
# Shear Modulus (GPa) = 23.96794 25.47435 24.72115
#
# Velocity S-wave (km/s) = 3.48408 3.59190 3.53840
# Velocity P-wave (km/s) = 6.73546 6.90455 6.82053
#
# Compressibility (1/GPa) = 0.01735560
#
# Stress axis : x y z
#
# Youngs Moduli (GPa) = 57.57455 102.59426 49.74690
#
# Poissons Ratio (x) = 0.21716 0.41389
# Poissons Ratio (y) = 0.12187 0.22358
# Poissons Ratio (z) = 0.47902 0.46110
#
# Static dielectric constant tensor:
#      x y z
#    x 3.597860 0.000000 0.000000 
#    y 0.000000 3.943440 0.000000 
#    z 0.000000 0.000000 3.321280 
# 
# 
# High freq. dielectric constant tensor:
#      x y z
#    x 1.774260 0.000000 0.000000 
#    y 0.000000 1.780240 0.000000 
#    z 0.000000 0.000000 1.743010 
# 
# From -- ./inp_files/9337.got.cif
#   From: 2010.03.12/outbox.cif.g09.slc.cpg/sg59_5_cif.got.tgz:9337.got - 2010.04.16 16:29:54.
