data_PCOD8242391
_publ_section_title
;
Structure prediction by ZEFSAII (Michael W. Deem and Ramdas Pophale) SiO2 
 PCOD8242391
Probable space group: P M M N
;
_chemical_formula_sum "Si O2"
_cell_formula_units_Z 56
_cell_length_a 9.385555
_cell_length_b 18.737781
_cell_length_c 18.120460
_cell_angle_alpha 90.000000
_cell_angle_beta 90.000000
_cell_angle_gamma 90.000000
_cell_volume 3186.745169
_symmetry_space_group_name_H-M "P M M N"
_symmetry_group_IT_number 59
_space_group.IT_coordinate_system_code '2'
_symmetry_cell_setting 'orthorhombic'
loop_
_space_group_symop_operation_xyz
x,y,z
1/2-x,1/2-y,z
1/2+x,-y,-z
-x,1/2+y,-z
-x,-y,-z
1/2+x,1/2+y,-z
1/2-x,y,z
x,1/2-y,z
loop_
_atom_site_type_symbol
_atom_site_label
_atom_site_fract_x
_atom_site_fract_y
_atom_site_fract_z
Si Si1 0.919557 0.329474 0.213438
Si Si2 0.084342 0.410412 0.932873
Si Si3 0.588645 0.165160 0.807361
Si Si4 0.410239 0.334808 0.670404
Si Si5 0.092249 0.665043 0.625499
Si Si6 0.409409 0.334858 0.507712
Si Si7 0.585004 0.075427 0.078522
O O1 0.750000 0.327355 0.217622
O O2 0.977167 0.250000 0.194537
O O3 0.975208 0.354913 0.294327
O O4 0.971776 0.384307 0.151243
O O5 0.250000 0.388936 0.937477
O O6 0.064935 0.491774 0.907312
O O7 0.004878 0.360108 0.875686
O O8 0.012316 0.397519 0.011888
O O9 0.750000 0.135575 0.813021
O O10 0.589004 0.250000 0.807480
O O11 0.517825 0.134977 0.732065
O O12 0.250000 0.363919 0.685377
O O13 0.406388 0.250000 0.673932
O O14 0.464258 0.359091 0.588980
O O15 0.250000 0.632570 0.617961
O O16 0.098235 0.750000 0.619578
O O17 0.002424 0.631347 0.558198
O O18 0.250000 0.363063 0.496526
O O19 0.413586 0.250000 0.502709
O O20 0.750000 0.093826 0.061078
#
# Coordination Sequence:
#
# PCOD8242391 Si02
#       7
#     8   8   8   8   8   8   8
#     4   8  14  26  45  68  92 117 147 184 222 259
#     4  10  20  33  49  68  91 119 150 187 229 271
#     4  10  20  32  47  68  92 118 150 188 229 273
#     4   8  14  25  40  59  86 118 148 179 218 263
#     4   8  13  21  35  57  84 113 144 177 212 250
#     4   8  13  21  34  54  83 118 148 173 209 258
#     4   9  18  33  51  69  90 119 155 188 220 267
#
# _framework density 17.572787999999999
#
# number of rings (size 3 to 8) (size 9 to 14) (size 15 to 20)
#    0.000    3.286    0.000    2.571    0.000    2.571 
#    0.000    5.000    0.000    0.857    0.000    1.000 
#    0.000    0.000    0.000    0.000    0.000    0.000 
#
# Total GULP energy -694007.892313 kJ/mol
# GULP energy per Si atom -12392.998077 kJ/mol
# Density = 1.753279 g / cm^3
# Si number density = 17.572788 Si / 1000 Ang^3
#
#
#
# Elastic Constant Matrix: (Units=GPa)
#
#
# Indices 1 2 3 4 5 6 
#
# 1 94.0339 16.2426 70.7852 0.0000 0.0000 0.0000
# 2 16.2426 15.1006 23.7745 0.0000 0.0000 0.0000
# 3 70.7852 23.7745 145.7366 0.0000 0.0000 0.0000
# 4 0.0000 0.0000 0.0000 1.7433 0.0000 0.0000
# 5 0.0000 0.0000 0.0000 0.0000 32.8411 0.0000
# 6 0.0000 0.0000 0.0000 0.0000 0.0000 14.1693
#
#
#
# Elastic Compliance Matrix: (Units=1/GPa)
#
#
# Indices 1 2 3 4 5 6 
#
# 1 0.017334 -0.007252 -0.007236 0.000000 0.000000 0.000000
# 2 -0.007252 0.092143 -0.011509 0.000000 0.000000 0.000000
# 3 -0.007236 -0.011509 0.012254 0.000000 0.000000 0.000000
# 4 0.000000 0.000000 0.000000 0.573640 0.000000 0.000000
# 5 0.000000 0.000000 0.000000 0.000000 0.030450 0.000000
# 6 0.000000 0.000000 0.000000 0.000000 0.000000 0.070575
#
#
# Mechanical properties :
#
#
# Convention : Reuss Voigt Hill
#
# Bulk Modulus (GPa) = 14.33977 52.94173 33.64075
# Shear Modulus (GPa) = 5.73633 19.35531 12.54582
#
# Velocity S-wave (km/s) = 1.80870 3.32239 2.67485
# Velocity P-wave (km/s) = 3.54116 6.70151 5.35957
#
# Compressibility (1/GPa) = 0.06973613
#
# Stress axis : x y z
#
# Youngs Moduli (GPa) = 57.68868 10.85264 81.60636
#
# Poissons Ratio (x) = 0.07871 0.59053
# Poissons Ratio (y) = 0.41838 0.93922
# Poissons Ratio (z) = 0.41745 0.12490
#
# Static dielectric constant tensor:
#      x y z
#    x 3.364610 0.000000 0.000000 
#    y 0.000000 2.792580 0.000000 
#    z 0.000000 0.000000 3.662210 
# 
# 
# High freq. dielectric constant tensor:
#      x y z
#    x 1.666510 0.000000 0.000000 
#    y 0.000000 1.621140 0.000000 
#    z 0.000000 0.000000 1.697630 
# 
# From -- ./inp_files/26106.got.cif
#   From: 2010.03.12/outbox.cif.g09.slc.cpg/sg59_14_cif.got.tgz:26106.got - 2010.04.16 16:29:54.
