data_PCOD8242520
_publ_section_title
;
Structure prediction by ZEFSAII (Michael W. Deem and Ramdas Pophale) SiO2 
 PCOD8242520
Probable space group: P M M N
;
_chemical_formula_sum "Si O2"
_cell_formula_units_Z 40
_cell_length_a 8.885621
_cell_length_b 14.527604
_cell_length_c 16.606227
_cell_angle_alpha 90.000000
_cell_angle_beta 90.000000
_cell_angle_gamma 90.000000
_cell_volume 2143.644424
_symmetry_space_group_name_H-M "P M M N"
_symmetry_group_IT_number 59
_space_group.IT_coordinate_system_code '2'
_symmetry_cell_setting 'orthorhombic'
loop_
_space_group_symop_operation_xyz
x,y,z
1/2-x,1/2-y,z
1/2+x,-y,-z
-x,1/2+y,-z
-x,-y,-z
1/2+x,1/2+y,-z
1/2-x,y,z
x,1/2-y,z
loop_
_atom_site_type_symbol
_atom_site_label
_atom_site_fract_x
_atom_site_fract_y
_atom_site_fract_z
Si Si1 0.425799 0.896015 0.419847
Si Si2 0.072462 0.103495 0.418124
Si Si3 0.421919 0.750000 0.876186
Si Si4 0.071623 0.250000 0.882069
Si Si5 0.072500 0.250000 0.293700
Si Si6 0.074365 0.750000 0.288190
Si Si7 0.427581 0.600556 0.007581
O O1 0.250000 0.890869 0.437334
O O2 0.505958 0.855587 0.499077
O O3 0.467554 0.839024 0.340765
O O4 0.482412 0.999500 0.404059
O O5 0.250000 0.111461 0.425114
O O6 0.012370 0.160760 0.341677
O O7 0.250000 0.750000 0.849658
O O8 0.520223 0.750000 0.797200
O O9 0.459661 0.658050 0.926511
O O10 0.250000 0.250000 0.895541
O O11 0.032847 0.250000 0.788340
O O12 0.001768 0.343065 0.919322
O O13 0.250000 0.250000 0.291392
O O14 0.250000 0.750000 0.262662
O O15 0.250000 0.591444 0.024265
O O16 0.500000 0.500000 0.000000
#
# Coordination Sequence:
#
# PCOD8242520 Si02
#       7
#     8   8   4   4   4   4   8
#     4   9  18  32  50  71  97 134 177 218 266 319
#     4   9  18  32  48  70 100 133 173 219 263 311
#     4   9  21  38  55  81 113 139 173 220 265 318
#     4  11  23  38  57  85 115 145 185 226 271 330
#     4  10  20  32  49  74 104 137 172 213 262 313
#     4  10  20  34  51  74 106 139 174 221 272 319
#     4  10  21  40  63  85 111 144 180 223 276 330
#
# _framework density 18.659811000000001
#
# number of rings (size 3 to 8) (size 9 to 14) (size 15 to 20)
#    0.000    2.400    0.000    2.700    0.000    5.600 
#    0.000    2.000    0.000    0.000    0.000    0.000 
#    0.000    0.000    0.000    0.000    0.000    0.000 
#
# Total GULP energy -495980.060425 kJ/mol
# GULP energy per Si atom -12399.501511 kJ/mol
# Density = 1.861734 g / cm^3
# Si number density = 18.659811 Si / 1000 Ang^3
#
#
#
# Elastic Constant Matrix: (Units=GPa)
#
#
# Indices 1 2 3 4 5 6 
#
# 1 68.8387 48.5113 48.6701 0.0000 0.0000 0.0000
# 2 48.5113 137.0936 65.7684 0.0000 0.0000 0.0000
# 3 48.6701 65.7684 135.3926 0.0000 0.0000 0.0000
# 4 0.0000 0.0000 0.0000 22.5437 0.0000 0.0000
# 5 0.0000 0.0000 0.0000 0.0000 37.7040 0.0000
# 6 0.0000 0.0000 0.0000 0.0000 0.0000 22.0626
#
#
#
# Elastic Compliance Matrix: (Units=1/GPa)
#
#
# Indices 1 2 3 4 5 6 
#
# 1 0.021997 -0.005203 -0.005380 0.000000 0.000000 0.000000
# 2 -0.005203 0.010741 -0.003347 0.000000 0.000000 0.000000
# 3 -0.005380 -0.003347 0.010946 0.000000 0.000000 0.000000
# 4 0.000000 0.000000 0.000000 0.044358 0.000000 0.000000
# 5 0.000000 0.000000 0.000000 0.000000 0.026522 0.000000
# 6 0.000000 0.000000 0.000000 0.000000 0.000000 0.045326
#
#
# Mechanical properties :
#
#
# Convention : Reuss Voigt Hill
#
# Bulk Modulus (GPa) = 63.19638 74.13606 68.66622
# Shear Modulus (GPa) = 25.90337 28.35374 27.12855
#
# Velocity S-wave (km/s) = 3.72988 3.90232 3.81707
# Velocity P-wave (km/s) = 7.24504 7.75375 7.50371
#
# Compressibility (1/GPa) = 0.01582369
#
# Stress axis : x y z
#
# Youngs Moduli (GPa) = 45.46095 93.09980 91.35822
#
# Poissons Ratio (x) = 0.48438 0.49151
# Poissons Ratio (y) = 0.23652 0.30581
# Poissons Ratio (z) = 0.24458 0.31164
#
# Static dielectric constant tensor:
#      x y z
#    x 3.356380 0.000000 0.000000 
#    y 0.000000 3.672560 0.000000 
#    z 0.000000 0.000000 3.420570 
# 
# 
# High freq. dielectric constant tensor:
#      x y z
#    x 1.719220 0.000000 0.000000 
#    y 0.000000 1.735430 0.000000 
#    z 0.000000 0.000000 1.722650 
# 
# From -- ./inp_files/20044.got.cif
#   From: 2010.03.12/outbox.cif.g09.slc.cpg/sg59_11_cif.got.tgz:20044.got - 2010.04.16 16:29:54.
