data_PCOD8242730
_publ_section_title
;
Structure prediction by ZEFSAII (Michael W. Deem and Ramdas Pophale) SiO2 
 PCOD8242730
Probable space group: P M M N
;
_chemical_formula_sum "Si O2"
_cell_formula_units_Z 48
_cell_length_a 9.059474
_cell_length_b 9.769980
_cell_length_c 30.958691
_cell_angle_alpha 90.000000
_cell_angle_beta 90.000000
_cell_angle_gamma 90.000000
_cell_volume 2740.180978
_symmetry_space_group_name_H-M "P M M N"
_symmetry_group_IT_number 59
_space_group.IT_coordinate_system_code '2'
_symmetry_cell_setting 'orthorhombic'
loop_
_space_group_symop_operation_xyz
x,y,z
1/2-x,1/2-y,z
1/2+x,-y,-z
-x,1/2+y,-z
-x,-y,-z
1/2+x,1/2+y,-z
1/2-x,y,z
x,1/2-y,z
loop_
_atom_site_type_symbol
_atom_site_label
_atom_site_fract_x
_atom_site_fract_y
_atom_site_fract_z
Si Si1 0.925592 0.402308 0.130763
Si Si2 0.077953 0.907442 0.965238
Si Si3 0.584009 0.912358 0.376887
Si Si4 0.083428 0.913025 0.293205
Si Si5 0.423456 0.909556 0.463896
Si Si6 0.923315 0.907928 0.207169
O O1 0.750000 0.402579 0.130462
O O2 0.982943 0.250000 0.142332
O O3 0.985810 0.508474 0.166216
O O4 0.980945 0.444634 0.082907
O O5 0.250000 0.937372 0.968150
O O6 0.042546 0.750000 0.975544
O O7 0.000000 0.000000 0.000000
O O8 0.750000 0.972007 0.380209
O O9 0.589730 0.750000 0.373684
O O10 0.505095 0.972780 0.334273
O O11 0.490174 0.957756 0.418320
O O12 0.250000 0.969732 0.294421
O O13 0.082524 0.750000 0.294906
O O14 0.004661 0.964175 0.249660
O O15 0.250000 0.938667 0.463393
O O16 0.457382 0.750000 0.472733
O O17 0.500000 0.000000 0.500000
O O18 0.750000 0.930680 0.214160
O O19 0.960860 0.750000 0.198534
#
# Coordination Sequence:
#
# PCOD8242730 Si02
#       6
#     8   8   8   8   8   8
#     4   8  15  29  47  65  88 119 152 185 223 270
#     4   9  18  32  49  70  95 123 157 196 237 282
#     4   9  16  27  45  68  93 122 157 196 236 279
#     4   9  16  26  41  63  92 121 147 182 230 277
#     4  10  20  33  50  73 100 130 164 201 243 291
#     4   9  16  26  43  67  89 110 143 185 224 264
#
# _framework density 17.517092000000002
#
# number of rings (size 3 to 8) (size 9 to 14) (size 15 to 20)
#    0.000    3.000    0.000    2.500    0.000    6.000 
#    0.000    2.500    0.000    4.500    0.000    2.333 
#    0.000    0.000    0.000    0.000    0.000    0.000 
#
# Total GULP energy -595062.123783 kJ/mol
# GULP energy per Si atom -12397.127579 kJ/mol
# Density = 1.747722 g / cm^3
# Si number density = 17.517092 Si / 1000 Ang^3
#
#
#
# Elastic Constant Matrix: (Units=GPa)
#
#
# Indices 1 2 3 4 5 6 
#
# 1 94.6662 40.2133 76.4892 0.0000 0.0000 0.0000
# 2 40.2133 54.3270 72.4504 0.0000 0.0000 0.0000
# 3 76.4892 72.4504 191.0599 0.0000 0.0000 0.0000
# 4 0.0000 0.0000 0.0000 27.4712 0.0000 0.0000
# 5 0.0000 0.0000 0.0000 0.0000 33.1092 0.0000
# 6 0.0000 0.0000 0.0000 0.0000 0.0000 17.7927
#
#
#
# Elastic Compliance Matrix: (Units=1/GPa)
#
#
# Indices 1 2 3 4 5 6 
#
# 1 0.016845 -0.007031 -0.004078 0.000000 0.000000 0.000000
# 2 -0.007031 0.040174 -0.012419 0.000000 0.000000 0.000000
# 3 -0.004078 -0.012419 0.011576 0.000000 0.000000 0.000000
# 4 0.000000 0.000000 0.000000 0.036402 0.000000 0.000000
# 5 0.000000 0.000000 0.000000 0.000000 0.030203 0.000000
# 6 0.000000 0.000000 0.000000 0.000000 0.000000 0.056203
#
#
# Mechanical properties :
#
#
# Convention : Reuss Voigt Hill
#
# Bulk Modulus (GPa) = 46.42754 79.81767 63.12261
# Shear Modulus (GPa) = 20.35530 25.73463 23.04496
#
# Velocity S-wave (km/s) = 3.41255 3.83706 3.63101
# Velocity P-wave (km/s) = 6.48760 8.08055 7.32749
#
# Compressibility (1/GPa) = 0.02153894
#
# Stress axis : x y z
#
# Youngs Moduli (GPa) = 59.36615 24.89197 86.38748
#
# Poissons Ratio (x) = 0.17501 0.35224
# Poissons Ratio (y) = 0.41739 1.07286
# Poissons Ratio (z) = 0.24207 0.30914
#
# Static dielectric constant tensor:
#      x y z
#    x 3.672080 0.000000 0.000000 
#    y 0.000000 2.699470 0.000000 
#    z 0.000000 0.000000 3.464540 
# 
# 
# High freq. dielectric constant tensor:
#      x y z
#    x 1.667810 0.000000 0.000000 
#    y 0.000000 1.633740 0.000000 
#    z 0.000000 0.000000 1.693560 
# 
# From -- ./inp_files/31241.got.cif
#   From: 2010.03.12/outbox.cif.g09.slc.cpg/sg59_16_cif.got.tgz:31241.got - 2010.04.16 16:29:54.
