data_PCOD8242890
_publ_section_title
;
Structure prediction by ZEFSAII (Michael W. Deem and Ramdas Pophale) SiO2 
 PCOD8242890
Probable space group: P M M N
;
_chemical_formula_sum "Si O2"
_cell_formula_units_Z 64
_cell_length_a 19.905177
_cell_length_b 8.998525
_cell_length_c 18.949107
_cell_angle_alpha 90.000000
_cell_angle_beta 90.000000
_cell_angle_gamma 90.000000
_cell_volume 3394.111611
_symmetry_space_group_name_H-M "P M M N"
_symmetry_group_IT_number 59
_space_group.IT_coordinate_system_code '2'
_symmetry_cell_setting 'orthorhombic'
loop_
_space_group_symop_operation_xyz
x,y,z
1/2-x,1/2-y,z
1/2+x,-y,-z
-x,1/2+y,-z
-x,-y,-z
1/2+x,1/2+y,-z
1/2-x,y,z
x,1/2-y,z
loop_
_atom_site_type_symbol
_atom_site_label
_atom_site_fract_x
_atom_site_fract_y
_atom_site_fract_z
Si Si1 0.322181 0.917080 0.597440
Si Si2 0.173310 0.422243 0.087354
Si Si3 0.679016 0.575849 0.260875
Si Si4 0.470530 0.578941 0.566909
Si Si5 0.948847 0.573860 0.185979
Si Si6 0.065696 0.423576 0.974308
Si Si7 0.453770 0.426968 0.290090
Si Si8 0.827581 0.425582 0.765218
O O1 0.250000 0.931252 0.554805
O O2 0.327145 0.750000 0.629253
O O3 0.390603 0.948930 0.555555
O O4 0.320417 0.038697 0.657501
O O5 0.250000 0.447489 0.064419
O O6 0.159458 0.250000 0.105797
O O7 0.155286 0.518374 0.156059
O O8 0.129122 0.477930 0.020829
O O9 0.750000 0.521753 0.226701
O O10 0.672189 0.750000 0.250826
O O11 0.614799 0.502097 0.225820
O O12 0.500000 0.500000 0.500000
O O13 0.489365 0.750000 0.561928
O O14 0.502948 0.519512 0.640979
O O15 0.960059 0.750000 0.195878
O O16 0.929484 0.530855 0.106869
O O17 0.012962 0.489659 0.218075
O O18 0.057536 0.250000 0.983370
O O19 0.000000 0.500000 0.000000
O O20 0.449821 0.250000 0.286370
O O21 0.377936 0.494602 0.290800
O O22 0.750000 0.465414 0.745752
O O23 0.839577 0.250000 0.762089
#
# Coordination Sequence:
#
# PCOD8242890 Si02
#       8
#     8   8   8   8   8   8   8   8
#     4   9  17  33  56  79 107 141 176 213 253 304
#     4   9  18  34  55  77 104 142 185 227 273 324
#     4   9  17  29  48  76 106 136 172 214 259 307
#     4  10  22  38  57  84 113 145 181 220 270 324
#     4  10  20  33  51  76 107 143 182 226 274 321
#     4  10  21  34  48  71 102 138 179 222 270 321
#     4  11  22  37  57  82 110 140 179 224 272 327
#     4  10  21  37  58  83 108 138 179 226 277 331
#
# _framework density 18.856183999999999
#
# number of rings (size 3 to 8) (size 9 to 14) (size 15 to 20)
#    0.000    2.250    1.250    1.500    0.000    5.750 
#    0.000    3.125    0.000    2.250    0.000    5.250 
#    0.000    0.000    0.000    0.000    0.000    0.000 
#
# Total GULP energy -792890.088622 kJ/mol
# GULP energy per Si atom -12388.907635 kJ/mol
# Density = 1.881327 g / cm^3
# Si number density = 18.856184 Si / 1000 Ang^3
#
#
#
# Elastic Constant Matrix: (Units=GPa)
#
#
# Indices 1 2 3 4 5 6 
#
# 1 159.1022 41.5145 60.3900 0.0000 0.0000 0.0000
# 2 41.5145 39.0547 30.7003 0.0000 0.0000 0.0000
# 3 60.3900 30.7003 80.0727 0.0000 0.0000 0.0000
# 4 0.0000 0.0000 0.0000 26.2852 0.0000 0.0000
# 5 0.0000 0.0000 0.0000 0.0000 28.3460 0.0000
# 6 0.0000 0.0000 0.0000 0.0000 0.0000 26.7685
#
#
#
# Elastic Compliance Matrix: (Units=1/GPa)
#
#
# Indices 1 2 3 4 5 6 
#
# 1 0.009881 -0.006650 -0.004903 0.000000 0.000000 0.000000
# 2 -0.006650 0.041126 -0.010753 0.000000 0.000000 0.000000
# 3 -0.004903 -0.010753 0.020309 0.000000 0.000000 0.000000
# 4 0.000000 0.000000 0.000000 0.038044 0.000000 0.000000
# 5 0.000000 0.000000 0.000000 0.000000 0.035278 0.000000
# 6 0.000000 0.000000 0.000000 0.000000 0.000000 0.037357
#
#
# Mechanical properties :
#
#
# Convention : Reuss Voigt Hill
#
# Bulk Modulus (GPa) = 37.44513 60.38214 48.91363
# Shear Modulus (GPa) = 21.23058 25.98827 23.60943
#
# Velocity S-wave (km/s) = 3.35912 3.71649 3.54231
# Velocity P-wave (km/s) = 5.91154 7.10692 6.53661
#
# Compressibility (1/GPa) = 0.02670575
#
# Stress axis : x y z
#
# Youngs Moduli (GPa) = 101.20107 24.31539 49.23902
#
# Poissons Ratio (x) = 0.16169 0.24141
# Poissons Ratio (y) = 0.67294 0.52947
# Poissons Ratio (z) = 0.49618 0.26146
#
# Static dielectric constant tensor:
#      x y z
#    x 4.042970 0.000000 0.000000 
#    y 0.000000 3.399320 0.000000 
#    z 0.000000 0.000000 3.282080 
# 
# 
# High freq. dielectric constant tensor:
#      x y z
#    x 1.759140 0.000000 0.000000 
#    y 0.000000 1.724380 0.000000 
#    z 0.000000 0.000000 1.702290 
# 
# From -- ./inp_files/28232.got.cif
#   From: 2010.03.12/outbox.cif.g09.slc.cpg/sg59_15_cif.got.tgz:28232.got - 2010.04.16 16:29:54.
