data_PCOD8242028
_publ_section_title
;
Structure prediction by ZEFSAII (Michael W. Deem and Ramdas Pophale) SiO2 
 PCOD8242028
Probable space group: P M M N
;
_chemical_formula_sum "Si O2"
_cell_formula_units_Z 64
_cell_length_a 8.831497
_cell_length_b 18.500487
_cell_length_c 20.138997
_cell_angle_alpha 90.000000
_cell_angle_beta 90.000000
_cell_angle_gamma 90.000000
_cell_volume 3290.450211
_symmetry_space_group_name_H-M "P M M N"
_symmetry_group_IT_number 59
_space_group.IT_coordinate_system_code '2'
_symmetry_cell_setting 'orthorhombic'
loop_
_space_group_symop_operation_xyz
x,y,z
1/2-x,1/2-y,z
1/2+x,-y,-z
-x,1/2+y,-z
-x,-y,-z
1/2+x,1/2+y,-z
1/2-x,y,z
x,1/2-y,z
loop_
_atom_site_type_symbol
_atom_site_label
_atom_site_fract_x
_atom_site_fract_y
_atom_site_fract_z
Si Si1 0.924038 0.167296 0.927982
Si Si2 0.572215 0.928343 0.968734
Si Si3 0.072842 0.926924 0.201034
Si Si4 0.927338 0.424651 0.172705
Si Si5 0.927612 0.085206 0.553785
Si Si6 0.072238 0.077581 0.418059
Si Si7 0.070384 0.670601 0.319474
Si Si8 0.571730 0.167353 0.299076
O O1 0.750000 0.159169 0.950190
O O2 0.962893 0.250000 0.910530
O O3 0.958639 0.118508 0.864715
O O4 0.030412 0.141170 0.987545
O O5 0.750000 0.941120 0.966866
O O6 0.516590 0.910800 0.895003
O O7 0.500000 0.000000 0.000000
O O8 0.250000 0.946391 0.208393
O O9 0.008258 0.881365 0.262424
O O10 0.974146 0.998526 0.202093
O O11 0.750000 0.423776 0.157018
O O12 0.971844 0.363680 0.226562
O O13 0.750000 0.086712 0.538682
O O14 0.978429 0.142498 0.608672
O O15 0.013634 0.110046 0.487467
O O16 0.975873 0.006625 0.581667
O O17 0.250000 0.087651 0.412910
O O18 0.001259 0.118756 0.356090
O O19 0.250000 0.673424 0.313198
O O20 0.000267 0.750000 0.309527
O O21 0.750000 0.163887 0.309652
O O22 0.512819 0.250000 0.303585
#
# Coordination Sequence:
#
# PCOD8242028 Si02
#       8
#     8   8   8   8   8   8   8   8
#     4  10  21  37  59  88 121 157 194 235 289 351
#     4  12  24  40  62  88 119 155 197 244 293 347
#     4  10  19  34  58  85 115 151 190 234 282 341
#     4  11  23  39  62  88 114 148 191 240 291 349
#     4   9  18  33  54  81 115 153 193 236 285 344
#     4  10  20  35  57  84 113 147 191 245 294 341
#     4   9  17  30  51  80 111 145 188 231 272 329
#     4  10  23  42  61  83 114 153 196 241 297 363
#
# _framework density 19.450225
#
# number of rings (size 3 to 8) (size 9 to 14) (size 15 to 20)
#    0.000    1.875    1.250    3.000    0.000    5.500 
#    0.000    3.125    0.000    1.875    0.000    0.000 
#    0.000    0.000    0.000    0.000    0.000    0.000 
#
# Total GULP energy -793714.844209 kJ/mol
# GULP energy per Si atom -12401.794441 kJ/mol
# Density = 1.940596 g / cm^3
# Si number density = 19.450225 Si / 1000 Ang^3
#
#
#
# Elastic Constant Matrix: (Units=GPa)
#
#
# Indices 1 2 3 4 5 6 
#
# 1 67.1809 35.7201 48.9374 0.0000 0.0000 0.0000
# 2 35.7201 81.5545 37.4367 0.0000 0.0000 0.0000
# 3 48.9374 37.4367 121.3966 0.0000 0.0000 0.0000
# 4 0.0000 0.0000 0.0000 -30.9497 0.0000 0.0000
# 5 0.0000 0.0000 0.0000 0.0000 29.4844 0.0000
# 6 0.0000 0.0000 0.0000 0.0000 0.0000 20.0930
#
#
#
# Elastic Compliance Matrix: (Units=1/GPa)
#
#
# Indices 1 2 3 4 5 6 
#
# 1 0.024169 -0.007122 -0.007547 0.000000 0.000000 0.000000
# 2 -0.007122 0.016382 -0.002181 0.000000 0.000000 0.000000
# 3 -0.007547 -0.002181 0.011952 0.000000 0.000000 0.000000
# 4 0.000000 0.000000 0.000000 -0.032310 0.000000 0.000000
# 5 0.000000 0.000000 0.000000 0.000000 0.033916 0.000000
# 6 0.000000 0.000000 0.000000 0.000000 0.000000 0.049769
#
#
# Mechanical properties :
#
#
# Convention : Reuss Voigt Hill
#
# Bulk Modulus (GPa) = 53.17872 57.14673 55.16273
# Shear Modulus (GPa) = 34.75950 13.59472 24.17711
#
# Velocity S-wave (km/s) = 4.23200 2.64663 3.52948
# Velocity P-wave (km/s) = 7.16101 6.22771 6.71060
#
# Compressibility (1/GPa) = 0.01880451
#
# Stress axis : x y z
#
# Youngs Moduli (GPa) = 41.37495 61.04210 83.66513
#
# Poissons Ratio (x) = 0.43471 0.63142
# Poissons Ratio (y) = 0.29465 0.18248
# Poissons Ratio (z) = 0.31225 0.13314
#
# Static dielectric constant tensor:
#      x y z
#    x 3.407400 0.000000 0.000000 
#    y 0.000000 3.708570 0.000000 
#    z 0.000000 0.000000 3.718270 
# 
# 
# High freq. dielectric constant tensor:
#      x y z
#    x 1.739380 0.000000 0.000000 
#    y 0.000000 1.759860 0.000000 
#    z 0.000000 0.000000 1.772730 
# 
# From -- ./inp_files/26282.got.cif
#   From: 2010.03.12/outbox.cif.g09.slc.cpg/sg59_14_cif.got.tgz:26282.got - 2010.04.16 16:29:54.
