data_PCOD8242259
_publ_section_title
;
Structure prediction by ZEFSAII (Michael W. Deem and Ramdas Pophale) SiO2 
 PCOD8242259
Probable space group: P M M N
;
_chemical_formula_sum "Si O2"
_cell_formula_units_Z 64
_cell_length_a 28.162989
_cell_length_b 9.130698
_cell_length_c 13.013140
_cell_angle_alpha 90.000000
_cell_angle_beta 90.000000
_cell_angle_gamma 90.000000
_cell_volume 3346.299637
_symmetry_space_group_name_H-M "P M M N"
_symmetry_group_IT_number 59
_space_group.IT_coordinate_system_code '2'
_symmetry_cell_setting 'orthorhombic'
loop_
_space_group_symop_operation_xyz
x,y,z
1/2-x,1/2-y,z
1/2+x,-y,-z
-x,1/2+y,-z
-x,-y,-z
1/2+x,1/2+y,-z
1/2-x,y,z
x,1/2-y,z
loop_
_atom_site_type_symbol
_atom_site_label
_atom_site_fract_x
_atom_site_fract_y
_atom_site_fract_z
Si Si1 0.365864 0.923177 0.917387
Si Si2 0.194268 0.419366 0.327237
Si Si3 0.546148 0.418386 0.536961
Si Si4 0.473115 0.923686 0.907299
Si Si5 0.648734 0.076437 0.479415
Si Si6 0.356894 0.581300 0.146139
Si Si7 0.196432 0.575487 0.730771
Si Si8 0.540905 0.416128 0.771273
O O1 0.367380 0.750000 0.906981
O O2 0.419256 0.982177 0.902206
O O3 0.332125 0.989269 0.828484
O O4 0.344879 0.966062 0.029110
O O5 0.250000 0.444687 0.320640
O O6 0.180658 0.250000 0.337834
O O7 0.174982 0.503262 0.425686
O O8 0.171969 0.479141 0.222369
O O9 0.500000 0.500000 0.500000
O O10 0.536022 0.250000 0.516029
O O11 0.593267 0.469418 0.476217
O O12 0.556411 0.451428 0.655780
O O13 0.475594 0.750000 0.921061
O O14 0.499172 0.972663 0.802650
O O15 0.500000 0.000000 0.000000
O O16 0.653851 0.250000 0.493938
O O17 0.672036 0.020008 0.373999
O O18 0.342964 0.750000 0.167829
O O19 0.413321 0.559976 0.157496
O O20 0.250000 0.514590 0.735021
O O21 0.196232 0.750000 0.733347
O O22 0.522094 0.250000 0.782291
#
# Coordination Sequence:
#
# PCOD8242259 Si02
#       8
#     8   8   8   8   8   8   8   8
#     4   9  19  34  54  83 117 148 184 235 285 329
#     4  11  24  39  57  85 117 145 184 241 295 346
#     4  10  22  37  55  82 118 151 186 234 283 341
#     4  11  21  34  55  82 113 151 189 231 280 338
#     4  10  20  38  62  85 112 150 192 233 280 339
#     4  10  19  37  60  82 113 150 189 234 284 343
#     4   9  18  33  56  85 112 140 184 239 284 328
#     4  10  20  37  55  79 115 149 188 237 280 331
#
# _framework density 19.125603000000002
#
# number of rings (size 3 to 8) (size 9 to 14) (size 15 to 20)
#    0.000    2.000    2.500    1.125    1.750    3.500 
#    0.000    1.250    0.000    0.750    0.000    1.750 
#    0.000    0.000    0.000    0.000    0.000    0.000 
#
# Total GULP energy -793657.838954 kJ/mol
# GULP energy per Si atom -12400.903734 kJ/mol
# Density = 1.908207 g / cm^3
# Si number density = 19.125603 Si / 1000 Ang^3
#
#
#
# Elastic Constant Matrix: (Units=GPa)
#
#
# Indices 1 2 3 4 5 6 
#
# 1 129.5493 35.4536 83.7447 0.0000 0.0000 0.0000
# 2 35.4536 45.0872 35.3304 0.0000 0.0000 0.0000
# 3 83.7447 35.3304 146.2260 0.0000 0.0000 0.0000
# 4 0.0000 0.0000 0.0000 22.6290 0.0000 0.0000
# 5 0.0000 0.0000 0.0000 0.0000 31.7598 0.0000
# 6 0.0000 0.0000 0.0000 0.0000 0.0000 28.5801
#
#
#
# Elastic Compliance Matrix: (Units=1/GPa)
#
#
# Indices 1 2 3 4 5 6 
#
# 1 0.013289 -0.005533 -0.006274 0.000000 0.000000 0.000000
# 2 -0.005533 0.029663 -0.003998 0.000000 0.000000 0.000000
# 3 -0.006274 -0.003998 0.011398 0.000000 0.000000 0.000000
# 4 0.000000 0.000000 0.000000 0.044191 0.000000 0.000000
# 5 0.000000 0.000000 0.000000 0.000000 0.031486 0.000000
# 6 0.000000 0.000000 0.000000 0.000000 0.000000 0.034989
#
#
# Mechanical properties :
#
#
# Convention : Reuss Voigt Hill
#
# Bulk Modulus (GPa) = 43.97633 69.99109 56.98371
# Shear Modulus (GPa) = 24.48498 27.68270 26.08384
#
# Velocity S-wave (km/s) = 3.58190 3.80862 3.69700
# Velocity P-wave (km/s) = 6.33640 7.48436 6.93418
#
# Compressibility (1/GPa) = 0.02273950
#
# Stress axis : x y z
#
# Youngs Moduli (GPa) = 75.25081 33.71178 87.73695
#
# Poissons Ratio (x) = 0.18654 0.55043
# Poissons Ratio (y) = 0.41639 0.35078
# Poissons Ratio (z) = 0.47210 0.13478
#
# Static dielectric constant tensor:
#      x y z
#    x 3.745160 0.000000 0.000000 
#    y 0.000000 3.295490 0.000000 
#    z 0.000000 0.000000 3.755400 
# 
# 
# High freq. dielectric constant tensor:
#      x y z
#    x 1.750700 0.000000 0.000000 
#    y 0.000000 1.709480 0.000000 
#    z 0.000000 0.000000 1.757630 
# 
# From -- ./inp_files/19353.got.cif
#   From: 2010.03.12/outbox.cif.g09.slc.cpg/sg59_10_cif.got.tgz:19353.got - 2010.04.16 16:29:54.
