data_PCOD8242312
_publ_section_title
;
Structure prediction by ZEFSAII (Michael W. Deem and Ramdas Pophale) SiO2 
 PCOD8242312
Probable space group: P M M N
;
_chemical_formula_sum "Si O2"
_cell_formula_units_Z 64
_cell_length_a 24.995174
_cell_length_b 9.322468
_cell_length_c 16.011726
_cell_angle_alpha 90.000000
_cell_angle_beta 90.000000
_cell_angle_gamma 90.000000
_cell_volume 3730.999710
_symmetry_space_group_name_H-M "P M M N"
_symmetry_group_IT_number 59
_space_group.IT_coordinate_system_code '2'
_symmetry_cell_setting 'orthorhombic'
loop_
_space_group_symop_operation_xyz
x,y,z
1/2-x,1/2-y,z
1/2+x,-y,-z
-x,1/2+y,-z
-x,-y,-z
1/2+x,1/2+y,-z
1/2-x,y,z
x,1/2-y,z
loop_
_atom_site_type_symbol
_atom_site_label
_atom_site_fract_x
_atom_site_fract_y
_atom_site_fract_z
Si Si1 0.598920 0.910006 0.328503
Si Si2 0.593791 0.078324 0.867214
Si Si3 0.644947 0.417451 0.575365
Si Si4 0.810150 0.083562 0.395721
Si Si5 0.521959 0.913710 0.190791
Si Si6 0.447546 0.410101 0.488782
Si Si7 0.554386 0.916244 0.012756
Si Si8 0.190786 0.919564 0.249179
O O1 0.611853 0.750000 0.294864
O O2 0.553230 0.983690 0.269702
O O3 0.579952 0.902667 0.422436
O O4 0.652946 0.002503 0.328597
O O5 0.593323 0.250000 0.880426
O O6 0.537727 0.022126 0.825551
O O7 0.644116 0.024140 0.812347
O O8 0.599212 0.998749 0.957423
O O9 0.629625 0.250000 0.580172
O O10 0.678442 0.453909 0.492507
O O11 0.590308 0.508295 0.576910
O O12 0.678935 0.465936 0.655707
O O13 0.750000 0.036384 0.376132
O O14 0.819774 0.250000 0.380505
O O15 0.510536 0.750000 0.213765
O O16 0.563171 0.927243 0.112515
O O17 0.500000 0.500000 0.500000
O O18 0.460009 0.250000 0.455298
O O19 0.550093 0.750000 0.984863
O O20 0.500000 0.000000 0.000000
O O21 0.250000 0.979817 0.224480
O O22 0.191617 0.750000 0.243069
#
# Coordination Sequence:
#
# PCOD8242312 Si02
#       8
#     8   8   8   8   8   8   8   8
#     4   9  18  31  47  67  90 119 158 194 228 274
#     4   9  17  29  48  71  97 126 157 195 240 285
#     4   9  17  30  49  68  90 123 164 203 240 277
#     4   9  17  30  47  67  93 121 152 194 241 281
#     4   8  15  28  47  69  92 119 152 192 235 279
#     4  10  20  31  45  65  95 128 160 195 237 287
#     4   9  16  29  49  71  95 119 149 186 230 283
#     4   9  17  29  49  75  97 125 170 211 238 280
#
# _framework density 17.153580000000002
#
# number of rings (size 3 to 8) (size 9 to 14) (size 15 to 20)
#    0.000    3.000    0.000    1.875    1.750    2.250 
#    0.000    3.750    0.000    3.000    0.000    3.500 
#    0.000    0.000    0.000    0.000    0.000    0.000 
#
# Total GULP energy -792970.378172 kJ/mol
# GULP energy per Si atom -12390.162159 kJ/mol
# Density = 1.711454 g / cm^3
# Si number density = 17.153580 Si / 1000 Ang^3
#
#
#
# Elastic Constant Matrix: (Units=GPa)
#
#
# Indices 1 2 3 4 5 6 
#
# 1 129.7664 36.7863 45.5817 0.0000 0.0000 0.0000
# 2 36.7863 56.2133 17.7435 0.0000 0.0000 0.0000
# 3 45.5817 17.7435 66.2693 0.0000 0.0000 0.0000
# 4 0.0000 0.0000 0.0000 22.4563 0.0000 0.0000
# 5 0.0000 0.0000 0.0000 0.0000 24.6457 0.0000
# 6 0.0000 0.0000 0.0000 0.0000 0.0000 24.1356
#
#
#
# Elastic Compliance Matrix: (Units=1/GPa)
#
#
# Indices 1 2 3 4 5 6 
#
# 1 0.011538 -0.005511 -0.006460 0.000000 0.000000 0.000000
# 2 -0.005511 0.022064 -0.002117 0.000000 0.000000 0.000000
# 3 -0.006460 -0.002117 0.020100 0.000000 0.000000 0.000000
# 4 0.000000 0.000000 0.000000 0.044531 0.000000 0.000000
# 5 0.000000 0.000000 0.000000 0.000000 0.040575 0.000000
# 6 0.000000 0.000000 0.000000 0.000000 0.000000 0.041433
#
#
# Mechanical properties :
#
#
# Convention : Reuss Voigt Hill
#
# Bulk Modulus (GPa) = 39.17676 50.27469 44.72573
# Shear Modulus (GPa) = 23.04935 24.39004 23.71969
#
# Velocity S-wave (km/s) = 3.66964 3.77485 3.72261
# Velocity P-wave (km/s) = 6.39088 6.95496 6.67888
#
# Compressibility (1/GPa) = 0.02552533
#
# Stress axis : x y z
#
# Youngs Moduli (GPa) = 86.67220 45.32239 49.75044
#
# Poissons Ratio (x) = 0.24978 0.32140
# Poissons Ratio (y) = 0.47767 0.10532
# Poissons Ratio (z) = 0.55993 0.09594
#
# Static dielectric constant tensor:
#      x y z
#    x 3.318020 0.000000 0.000000 
#    y 0.000000 3.210320 0.000000 
#    z 0.000000 0.000000 3.386150 
# 
# 
# High freq. dielectric constant tensor:
#      x y z
#    x 1.649860 0.000000 0.000000 
#    y 0.000000 1.639840 0.000000 
#    z 0.000000 0.000000 1.649810 
# 
# From -- ./inp_files/28426.got.cif
#   From: 2010.03.12/outbox.cif.g09.slc.cpg/sg59_15_cif.got.tgz:28426.got - 2010.04.16 16:29:54.
