data_PCOD8242163
_publ_section_title
;
Structure prediction by ZEFSAII (Michael W. Deem and Ramdas Pophale) SiO2 
 PCOD8242163
Probable space group: P M M N
;
_chemical_formula_sum "Si O2"
_cell_formula_units_Z 64
_cell_length_a 23.459394
_cell_length_b 8.501407
_cell_length_c 15.542930
_cell_angle_alpha 90.000000
_cell_angle_beta 90.000000
_cell_angle_gamma 90.000000
_cell_volume 3099.848641
_symmetry_space_group_name_H-M "P M M N"
_symmetry_group_IT_number 59
_space_group.IT_coordinate_system_code '2'
_symmetry_cell_setting 'orthorhombic'
loop_
_space_group_symop_operation_xyz
x,y,z
1/2-x,1/2-y,z
1/2+x,-y,-z
-x,1/2+y,-z
-x,-y,-z
1/2+x,1/2+y,-z
1/2-x,y,z
x,1/2-y,z
loop_
_atom_site_type_symbol
_atom_site_label
_atom_site_fract_x
_atom_site_fract_y
_atom_site_fract_z
Si Si1 0.380350 0.935927 0.947155
Si Si2 0.315143 0.431971 0.452443
Si Si3 0.386673 0.067054 0.122022
Si Si4 0.113930 0.933029 0.304220
Si Si5 0.009188 0.432777 0.872634
Si Si6 0.507274 0.431885 0.305568
Si Si7 0.878212 0.067841 0.388193
Si Si8 0.686404 0.063235 0.218140
O O1 0.386099 0.750000 0.943320
O O2 0.340638 0.001256 0.870508
O O3 0.442633 0.012980 0.938725
O O4 0.354850 0.990124 0.039413
O O5 0.250000 0.479983 0.472759
O O6 0.320205 0.250000 0.427999
O O7 0.336270 0.532761 0.371573
O O8 0.354209 0.465053 0.534585
O O9 0.372738 0.250000 0.125130
O O10 0.364859 0.989930 0.210674
O O11 0.453602 0.036758 0.111217
O O12 0.100345 0.750000 0.299914
O O13 0.055916 0.018883 0.335477
O O14 0.994767 0.250000 0.886216
O O15 0.029006 0.465092 0.774893
O O16 0.506688 0.250000 0.276942
O O17 0.553343 0.457053 0.381837
O O18 0.863050 0.250000 0.405247
O O19 0.849767 0.006696 0.299959
O O20 0.750000 0.994344 0.226429
O O21 0.687250 0.250000 0.214549
#
# Coordination Sequence:
#
# PCOD8242163 Si02
#       8
#     8   8   8   8   8   8   8   8
#     4  11  20  34  54  81 116 155 200 245 292 348
#     4  11  25  44  65  90 119 154 197 248 302 353
#     4  11  22  37  57  83 116 153 194 243 297 352
#     4  11  23  41  64  90 119 156 198 247 300 358
#     4  11  20  32  52  82 118 156 195 239 290 350
#     4  10  19  35  59  90 125 161 194 238 297 356
#     4  10  20  37  63  92 121 156 198 242 294 355
#     4   9  18  34  57  84 116 155 199 246 292 343
#
# _framework density 20.646169
#
# number of rings (size 3 to 8) (size 9 to 14) (size 15 to 20)
#    0.000    1.500    1.250    6.750    0.000    3.000 
#    0.000    0.625    0.000    4.500    0.000    0.000 
#    0.000    0.000    0.000    0.000    0.000    0.000 
#
# Total GULP energy -793723.206362 kJ/mol
# GULP energy per Si atom -12401.925099 kJ/mol
# Density = 2.059918 g / cm^3
# Si number density = 20.646169 Si / 1000 Ang^3
#
#
#
# Elastic Constant Matrix: (Units=GPa)
#
#
# Indices 1 2 3 4 5 6 
#
# 1 42.7385 15.3398 31.4820 0.0000 0.0000 0.0000
# 2 15.3398 72.3285 23.4361 0.0000 0.0000 0.0000
# 3 31.4820 23.4361 123.6968 0.0000 0.0000 0.0000
# 4 0.0000 0.0000 0.0000 35.1976 0.0000 0.0000
# 5 0.0000 0.0000 0.0000 0.0000 22.3926 0.0000
# 6 0.0000 0.0000 0.0000 0.0000 0.0000 20.6710
#
#
#
# Elastic Compliance Matrix: (Units=1/GPa)
#
#
# Indices 1 2 3 4 5 6 
#
# 1 0.029912 -0.004131 -0.006830 0.000000 0.000000 0.000000
# 2 -0.004131 0.015301 -0.001848 0.000000 0.000000 0.000000
# 3 -0.006830 -0.001848 0.010173 0.000000 0.000000 0.000000
# 4 0.000000 0.000000 0.000000 0.028411 0.000000 0.000000
# 5 0.000000 0.000000 0.000000 0.000000 0.044658 0.000000
# 6 0.000000 0.000000 0.000000 0.000000 0.000000 0.048377
#
#
# Mechanical properties :
#
#
# Convention : Reuss Voigt Hill
#
# Bulk Modulus (GPa) = 33.59304 42.14216 37.86760
# Shear Modulus (GPa) = 23.54375 26.88598 25.21486
#
# Velocity S-wave (km/s) = 3.38056 3.61255 3.49848
# Velocity P-wave (km/s) = 5.61638 6.15277 5.89069
#
# Compressibility (1/GPa) = 0.02976807
#
# Stress axis : x y z
#
# Youngs Moduli (GPa) = 33.43141 65.35716 98.30236
#
# Poissons Ratio (x) = 0.26997 0.67143
# Poissons Ratio (y) = 0.13810 0.18162
# Poissons Ratio (z) = 0.22834 0.12075
#
# Static dielectric constant tensor:
#      x y z
#    x 3.666570 0.000000 0.000000 
#    y 0.000000 3.596520 0.000000 
#    z 0.000000 0.000000 3.891870 
# 
# 
# High freq. dielectric constant tensor:
#      x y z
#    x 1.787550 0.000000 0.000000 
#    y 0.000000 1.800450 0.000000 
#    z 0.000000 0.000000 1.815360 
# 
# From -- ./inp_files/24759.got.cif
#   From: 2010.03.12/outbox.cif.g09.slc.cpg/sg59_13_cif.got.tgz:24759.got - 2010.04.16 16:29:54.
