data_PCOD8242652
_publ_section_title
;
Structure prediction by ZEFSAII (Michael W. Deem and Ramdas Pophale) SiO2 
 PCOD8242652
Probable space group: P M M N
;
_chemical_formula_sum "Si O2"
_cell_formula_units_Z 56
_cell_length_a 9.102726
_cell_length_b 18.764662
_cell_length_c 18.060490
_cell_angle_alpha 90.000000
_cell_angle_beta 90.000000
_cell_angle_gamma 90.000000
_cell_volume 3084.904651
_symmetry_space_group_name_H-M "P M M N"
_symmetry_group_IT_number 59
_space_group.IT_coordinate_system_code '2'
_symmetry_cell_setting 'orthorhombic'
loop_
_space_group_symop_operation_xyz
x,y,z
1/2-x,1/2-y,z
1/2+x,-y,-z
-x,1/2+y,-z
-x,-y,-z
1/2+x,1/2+y,-z
1/2-x,y,z
x,1/2-y,z
loop_
_atom_site_type_symbol
_atom_site_label
_atom_site_fract_x
_atom_site_fract_y
_atom_site_fract_z
Si Si1 0.579820 0.586536 0.573376
Si Si2 0.916066 0.335038 0.007189
Si Si3 0.421005 0.832274 0.282352
Si Si4 0.581973 0.165547 0.296868
Si Si5 0.419736 0.921502 0.424036
Si Si6 0.584019 0.665117 0.848577
Si Si7 0.415678 0.165152 0.863518
O O1 0.750000 0.607602 0.575707
O O2 0.493019 0.633997 0.631092
O O3 0.554175 0.504227 0.593443
O O4 0.518173 0.604157 0.492249
O O5 0.750000 0.364072 0.008762
O O6 0.916964 0.250000 0.007101
O O7 0.996014 0.365066 0.934031
O O8 0.001227 0.364533 0.079018
O O9 0.250000 0.843076 0.265381
O O10 0.458276 0.750000 0.298158
O O11 0.472106 0.877166 0.353085
O O12 0.508665 0.862038 0.211651
O O13 0.750000 0.140146 0.292622
O O14 0.570551 0.250000 0.301874
O O15 0.499223 0.136609 0.224047
O O16 0.250000 0.906190 0.443377
O O17 0.750000 0.635538 0.848019
O O18 0.583787 0.750000 0.849742
O O19 0.250000 0.135894 0.866748
O O20 0.418352 0.250000 0.865517
#
# Coordination Sequence:
#
# PCOD8242652 Si02
#       7
#     8   8   8   8   8   8   8
#     4  10  20  34  52  72  95 124 159 199 239 282
#     4   9  15  23  37  58  87 124 161 192 227 274
#     4   9  17  30  48  69  94 124 157 193 234 280
#     4  10  20  33  49  70  97 127 159 197 241 288
#     4   9  19  35  52  71  96 126 160 196 236 285
#     4   9  16  26  41  63  92 123 155 193 236 279
#     4   9  16  25  38  60  91 123 155 193 235 275
#
# _framework density 18.152912000000001
#
# number of rings (size 3 to 8) (size 9 to 14) (size 15 to 20)
#    0.000    2.714    0.000    2.143    0.000    7.714 
#    0.000    1.429    0.000    0.000    0.000    1.000 
#    0.000    0.000    0.000    0.000    0.000    0.000 
#
# Total GULP energy -694468.404123 kJ/mol
# GULP energy per Si atom -12401.221502 kJ/mol
# Density = 1.811159 g / cm^3
# Si number density = 18.152912 Si / 1000 Ang^3
#
#
#
# Elastic Constant Matrix: (Units=GPa)
#
#
# Indices 1 2 3 4 5 6 
#
# 1 156.8596 23.1521 96.4497 0.0000 0.0000 0.0000
# 2 23.1521 11.2049 26.2095 0.0000 0.0000 0.0000
# 3 96.4497 26.2095 157.4712 0.0000 0.0000 0.0000
# 4 0.0000 0.0000 0.0000 -1.3262 0.0000 0.0000
# 5 0.0000 0.0000 0.0000 0.0000 40.5080 0.0000
# 6 0.0000 0.0000 0.0000 0.0000 0.0000 14.8881
#
#
#
# Elastic Compliance Matrix: (Units=1/GPa)
#
#
# Indices 1 2 3 4 5 6 
#
# 1 0.011060 -0.011474 -0.004864 0.000000 0.000000 0.000000
# 2 -0.011474 0.158048 -0.019278 0.000000 0.000000 0.000000
# 3 -0.004864 -0.019278 0.012538 0.000000 0.000000 0.000000
# 4 0.000000 0.000000 0.000000 -0.754037 0.000000 0.000000
# 5 0.000000 0.000000 0.000000 0.000000 0.024686 0.000000
# 6 0.000000 0.000000 0.000000 0.000000 0.000000 0.067168
#
#
# Mechanical properties :
#
#
# Convention : Reuss Voigt Hill
#
# Bulk Modulus (GPa) = 9.05683 68.57313 38.81498
# Shear Modulus (GPa) = -13.42278 22.79561 4.68641
#
# Velocity S-wave (km/s) = -2.72219 3.54751 1.60849
# Velocity P-wave (km/s) = 2.20917 7.39169 4.98782
#
# Compressibility (1/GPa) = 0.11041395
#
# Stress axis : x y z
#
# Youngs Moduli (GPa) = 90.41999 6.32719 79.75632
#
# Poissons Ratio (x) = 0.07260 0.38794
# Poissons Ratio (y) = 1.03747 1.53753
# Poissons Ratio (z) = 0.43981 0.12197
#
# Static dielectric constant tensor:
#      x y z
#    x 3.557720 0.000000 0.000000 
#    y 0.000000 2.829180 0.000000 
#    z 0.000000 0.000000 3.507280 
# 
# 
# High freq. dielectric constant tensor:
#      x y z
#    x 1.717500 0.000000 0.000000 
#    y 0.000000 1.642110 0.000000 
#    z 0.000000 0.000000 1.719460 
# 
# From -- ./inp_files/25999.got.cif
#   From: 2010.03.12/outbox.cif.g09.slc.cpg/sg59_13_cif.got.tgz:25999.got - 2010.04.16 16:29:54.
