data_PCOD8242192
_publ_section_title
;
Structure prediction by ZEFSAII (Michael W. Deem and Ramdas Pophale) SiO2 
 PCOD8242192
Probable space group: P M M N
;
_chemical_formula_sum "Si O2"
_cell_formula_units_Z 56
_cell_length_a 13.490956
_cell_length_b 16.976372
_cell_length_c 12.320904
_cell_angle_alpha 90.000000
_cell_angle_beta 90.000000
_cell_angle_gamma 90.000000
_cell_volume 2821.825689
_symmetry_space_group_name_H-M "P M M N"
_symmetry_group_IT_number 59
_space_group.IT_coordinate_system_code '2'
_symmetry_cell_setting 'orthorhombic'
loop_
_space_group_symop_operation_xyz
x,y,z
1/2-x,1/2-y,z
1/2+x,-y,-z
-x,1/2+y,-z
-x,-y,-z
1/2+x,1/2+y,-z
1/2-x,y,z
x,1/2-y,z
loop_
_atom_site_type_symbol
_atom_site_label
_atom_site_fract_x
_atom_site_fract_y
_atom_site_fract_z
Si Si1 0.866116 0.959796 0.218874
Si Si2 0.359673 0.589173 0.148600
Si Si3 0.044844 0.160130 0.944804
Si Si4 0.863413 0.658909 0.644122
Si Si5 0.857889 0.338960 0.623063
Si Si6 0.541466 0.920274 0.451384
Si Si7 0.034944 0.428816 0.163299
O O1 0.750000 0.978655 0.231163
O O2 0.882143 0.891078 0.130556
O O3 0.912485 0.931295 0.332484
O O4 0.922681 0.038675 0.178288
O O5 0.250000 0.600557 0.099781
O O6 0.431293 0.652098 0.092889
O O7 0.361077 0.601246 0.277065
O O8 0.395363 0.500757 0.127175
O O9 0.080069 0.250000 0.935671
O O10 0.046818 0.135251 0.069850
O O11 0.750000 0.650242 0.681342
O O12 0.895302 0.750000 0.639808
O O13 0.874929 0.619160 0.526142
O O14 0.933018 0.611720 0.725727
O O15 0.750000 0.348160 0.564443
O O16 0.871145 0.250000 0.665548
O O17 0.947691 0.360963 0.544678
O O18 0.500000 0.000000 0.500000
#
# Coordination Sequence:
#
# PCOD8242192 Si02
#       7
#     8   8   8   8   8   8   8
#     4  11  24  42  65  93 126 165 212 263 316 372
#     4  10  19  35  62  90 117 151 199 251 302 365
#     4  11  24  40  62  92 126 163 204 256 317 373
#     4  11  24  41  63  92 126 165 209 257 314 378
#     4  10  20  35  60  92 123 156 197 250 311 369
#     4  12  22  41  64  92 127 166 209 263 310 372
#     4  11  22  42  63  88 125 168 210 256 305 372
#
# _framework density 19.845306000000001
#
# number of rings (size 3 to 8) (size 9 to 14) (size 15 to 20)
#    0.000    1.143    4.286    3.857    0.000    6.857 
#    0.000    0.000    0.000    1.286    0.000    0.000 
#    0.000    0.000    0.000    0.000    0.000    0.000 
#
# Total GULP energy -694423.877306 kJ/mol
# GULP energy per Si atom -12400.426380 kJ/mol
# Density = 1.980014 g / cm^3
# Si number density = 19.845306 Si / 1000 Ang^3
#
#
#
# Elastic Constant Matrix: (Units=GPa)
#
#
# Indices 1 2 3 4 5 6 
#
# 1 120.2578 31.9529 22.9629 0.0000 0.0000 0.0000
# 2 31.9529 105.8968 27.6887 0.0000 0.0000 0.0000
# 3 22.9629 27.6887 89.3147 0.0000 0.0000 0.0000
# 4 0.0000 0.0000 0.0000 33.2937 0.0000 0.0000
# 5 0.0000 0.0000 0.0000 0.0000 17.9655 0.0000
# 6 0.0000 0.0000 0.0000 0.0000 0.0000 20.2722
#
#
#
# Elastic Compliance Matrix: (Units=1/GPa)
#
#
# Indices 1 2 3 4 5 6 
#
# 1 0.009258 -0.002363 -0.001648 0.000000 0.000000 0.000000
# 2 -0.002363 0.010879 -0.002765 0.000000 0.000000 0.000000
# 3 -0.001648 -0.002765 0.012477 0.000000 0.000000 0.000000
# 4 0.000000 0.000000 0.000000 0.030036 0.000000 0.000000
# 5 0.000000 0.000000 0.000000 0.000000 0.055662 0.000000
# 6 0.000000 0.000000 0.000000 0.000000 0.000000 0.049329
#
#
# Mechanical properties :
#
#
# Convention : Reuss Voigt Hill
#
# Bulk Modulus (GPa) = 52.45761 53.40869 52.93315
# Shear Modulus (GPa) = 26.66010 29.83060 28.24535
#
# Velocity S-wave (km/s) = 3.66921 3.88126 3.77673
# Velocity P-wave (km/s) = 6.66644 6.85978 6.76380
#
# Compressibility (1/GPa) = 0.01906301
#
# Stress axis : x y z
#
# Youngs Moduli (GPa) = 108.01636 91.91984 80.14580
#
# Poissons Ratio (x) = 0.21717 0.13206
# Poissons Ratio (y) = 0.25520 0.22162
# Poissons Ratio (z) = 0.17799 0.25418
#
# Static dielectric constant tensor:
#      x y z
#    x 4.093160 0.000000 0.000000 
#    y 0.000000 3.642260 0.000000 
#    z 0.000000 0.000000 3.560490 
# 
# 
# High freq. dielectric constant tensor:
#      x y z
#    x 1.778700 0.000000 0.000000 
#    y 0.000000 1.776910 0.000000 
#    z 0.000000 0.000000 1.768190 
# 
# From -- ./inp_files/16989.got.cif
#   From: 2010.03.12/outbox.cif.g09.slc.cpg/sg59_9_cif.got.tgz:16989.got - 2010.04.16 16:29:54.
