data_PCOD8242621
_publ_section_title
;
Structure prediction by ZEFSAII (Michael W. Deem and Ramdas Pophale) SiO2 
 PCOD8242621
Probable space group: P M M N
;
_chemical_formula_sum "Si O2"
_cell_formula_units_Z 40
_cell_length_a 13.431929
_cell_length_b 17.184503
_cell_length_c 10.095654
_cell_angle_alpha 90.000000
_cell_angle_beta 90.000000
_cell_angle_gamma 90.000000
_cell_volume 2330.289196
_symmetry_space_group_name_H-M "P M M N"
_symmetry_group_IT_number 59
_space_group.IT_coordinate_system_code '2'
_symmetry_cell_setting 'orthorhombic'
loop_
_space_group_symop_operation_xyz
x,y,z
1/2-x,1/2-y,z
1/2+x,-y,-z
-x,1/2+y,-z
-x,-y,-z
1/2+x,1/2+y,-z
1/2-x,y,z
x,1/2-y,z
loop_
_atom_site_type_symbol
_atom_site_label
_atom_site_fract_x
_atom_site_fract_y
_atom_site_fract_z
Si Si1 0.865613 0.657885 0.892344
Si Si2 0.987575 0.550862 0.689809
Si Si3 0.525946 0.933537 0.099170
Si Si4 0.137102 0.563403 0.472300
Si Si5 0.137845 0.663071 0.219484
O O1 0.750000 0.643088 0.857306
O O2 0.889465 0.750000 0.892789
O O3 0.936997 0.614612 0.786323
O O4 0.886301 0.620976 0.039116
O O5 0.901657 0.516215 0.595294
O O6 0.046121 0.479030 0.763083
O O7 0.071689 0.590102 0.598597
O O8 0.427383 0.882348 0.113711
O O9 0.500000 0.000000 0.000000
O O10 0.250000 0.549393 0.518683
O O11 0.129291 0.632865 0.368401
O O12 0.250000 0.656506 0.166725
O O13 0.097820 0.750000 0.222792
#
# Coordination Sequence:
#
# PCOD8242621 Si02
#       5
#     8   8   8   8   8
#     4  10  20  33  49  68  93 126 161 198 239 283
#     4   9  18  32  49  71  96 125 158 195 239 281
#     4   9  18  31  48  69  92 122 158 194 231 274
#     4   9  17  30  49  72  96 123 157 194 234 283
#     4   9  17  30  49  71  95 123 153 189 235 283
#
# _framework density 17.165251000000001
#
# number of rings (size 3 to 8) (size 9 to 14) (size 15 to 20)
#    0.000    2.800    0.000    1.200    0.000    6.400 
#    0.000    3.000    0.000    1.200    0.000   19.600 
#    0.000    0.000    0.000    0.000    0.000    0.000 
#
# Total GULP energy -495622.533841 kJ/mol
# GULP energy per Si atom -12390.563346 kJ/mol
# Density = 1.712618 g / cm^3
# Si number density = 17.165251 Si / 1000 Ang^3
#
#
#
# Elastic Constant Matrix: (Units=GPa)
#
#
# Indices 1 2 3 4 5 6 
#
# 1 98.3471 53.9951 56.0937 0.0000 0.0000 0.0000
# 2 53.9951 109.9515 39.4985 0.0000 0.0000 0.0000
# 3 56.0937 39.4985 72.1796 0.0000 0.0000 0.0000
# 4 0.0000 0.0000 0.0000 18.7815 0.0000 0.0000
# 5 0.0000 0.0000 0.0000 0.0000 34.9951 0.0000
# 6 0.0000 0.0000 0.0000 0.0000 0.0000 26.6390
#
#
#
# Elastic Compliance Matrix: (Units=1/GPa)
#
#
# Indices 1 2 3 4 5 6 
#
# 1 0.020572 -0.005426 -0.013018 0.000000 0.000000 0.000000
# 2 -0.005426 0.012751 -0.002761 0.000000 0.000000 0.000000
# 3 -0.013018 -0.002761 0.025482 0.000000 0.000000 0.000000
# 4 0.000000 0.000000 0.000000 0.053244 0.000000 0.000000
# 5 0.000000 0.000000 0.000000 0.000000 0.028575 0.000000
# 6 0.000000 0.000000 0.000000 0.000000 0.000000 0.037539
#
#
# Mechanical properties :
#
#
# Convention : Reuss Voigt Hill
#
# Bulk Modulus (GPa) = 60.99359 64.40585 62.69972
# Shear Modulus (GPa) = 22.11997 24.80918 23.46458
#
# Velocity S-wave (km/s) = 3.59367 3.80585 3.70128
# Velocity P-wave (km/s) = 7.26840 7.54422 7.40759
#
# Compressibility (1/GPa) = 0.01639516
#
# Stress axis : x y z
#
# Youngs Moduli (GPa) = 48.60920 78.42260 39.24291
#
# Poissons Ratio (x) = 0.42552 0.51087
# Poissons Ratio (y) = 0.26375 0.10835
# Poissons Ratio (z) = 0.63281 0.21653
#
# Static dielectric constant tensor:
#      x y z
#    x 3.278780 0.000000 0.000000 
#    y 0.000000 3.390260 0.000000 
#    z 0.000000 0.000000 3.035800 
# 
# 
# High freq. dielectric constant tensor:
#      x y z
#    x 1.655230 0.000000 0.000000 
#    y 0.000000 1.664080 0.000000 
#    z 0.000000 0.000000 1.658310 
# 
# From -- ./inp_files/8786.got.cif
#   From: 2010.03.12/outbox.cif.g09.slc.cpg/sg59_5_cif.got.tgz:8786.got - 2010.04.16 16:29:54.
