data_PCOD8242426
_publ_section_title
;
Structure prediction by ZEFSAII (Michael W. Deem and Ramdas Pophale) SiO2 
 PCOD8242426
Probable space group: P M M N
;
_chemical_formula_sum "Si O2"
_cell_formula_units_Z 56
_cell_length_a 23.025809
_cell_length_b 9.220188
_cell_length_c 15.272317
_cell_angle_alpha 90.000000
_cell_angle_beta 90.000000
_cell_angle_gamma 90.000000
_cell_volume 3242.347840
_symmetry_space_group_name_H-M "P M M N"
_symmetry_group_IT_number 59
_space_group.IT_coordinate_system_code '2'
_symmetry_cell_setting 'orthorhombic'
loop_
_space_group_symop_operation_xyz
x,y,z
1/2-x,1/2-y,z
1/2+x,-y,-z
-x,1/2+y,-z
-x,-y,-z
1/2+x,1/2+y,-z
1/2-x,y,z
x,1/2-y,z
loop_
_atom_site_type_symbol
_atom_site_label
_atom_site_fract_x
_atom_site_fract_y
_atom_site_fract_z
Si Si1 0.683746 0.585042 0.486918
Si Si2 0.627522 0.420635 0.334478
Si Si3 0.317528 0.579507 0.187851
Si Si4 0.682497 0.081096 0.154332
Si Si5 0.994306 0.417926 0.409132
Si Si6 0.117884 0.081717 0.340551
Si Si7 0.681063 0.913505 0.984240
O O1 0.750000 0.567580 0.516406
O O2 0.668314 0.750000 0.462808
O O3 0.672353 0.489225 0.402222
O O4 0.644453 0.531409 0.567087
O O5 0.634802 0.250000 0.342567
O O6 0.644826 0.471199 0.237224
O O7 0.562124 0.472024 0.355944
O O8 0.250000 0.543376 0.205507
O O9 0.327618 0.750000 0.178041
O O10 0.355755 0.519321 0.266533
O O11 0.340509 0.502773 0.099864
O O12 0.750000 0.047634 0.173230
O O13 0.673362 0.250000 0.133606
O O14 0.658219 0.991282 0.071856
O O15 0.989139 0.250000 0.433752
O O16 0.000000 0.500000 0.500000
O O17 0.048999 0.445479 0.345707
O O18 0.133012 0.250000 0.321077
O O19 0.750000 0.913045 0.985832
O O20 0.656300 0.750000 0.979765
#
# Coordination Sequence:
#
# PCOD8242426 Si02
#       7
#     8   8   8   8   8   8   8
#     4  10  20  32  47  70 101 135 167 203 251 303
#     4  10  20  33  51  74 100 132 170 212 254 297
#     4  10  20  33  51  77 105 132 164 204 252 303
#     4   9  17  30  48  72 103 134 162 198 248 301
#     4  10  20  35  54  73  96 131 176 217 253 295
#     4  10  20  34  51  71  99 135 171 209 252 298
#     4   9  17  30  50  75 102 132 164 199 243 299
#
# _framework density 17.271435
#
# number of rings (size 3 to 8) (size 9 to 14) (size 15 to 20)
#    0.000    2.286    1.429    1.714    0.000    5.714 
#    0.000    1.429    0.000    0.857    0.000    0.000 
#    0.000    0.000    0.000    0.000    0.000    0.000 
#
# Total GULP energy -694514.892489 kJ/mol
# GULP energy per Si atom -12402.051652 kJ/mol
# Density = 1.723212 g / cm^3
# Si number density = 17.271435 Si / 1000 Ang^3
#
#
#
# Elastic Constant Matrix: (Units=GPa)
#
#
# Indices 1 2 3 4 5 6 
#
# 1 66.0743 28.8892 38.9142 0.0000 0.0000 0.0000
# 2 28.8892 71.4618 61.6343 0.0000 0.0000 0.0000
# 3 38.9142 61.6343 131.1763 0.0000 0.0000 0.0000
# 4 0.0000 0.0000 0.0000 36.9855 0.0000 0.0000
# 5 0.0000 0.0000 0.0000 0.0000 12.5742 0.0000
# 6 0.0000 0.0000 0.0000 0.0000 0.0000 20.4838
#
#
#
# Elastic Compliance Matrix: (Units=1/GPa)
#
#
# Indices 1 2 3 4 5 6 
#
# 1 0.019274 -0.004809 -0.003458 0.000000 0.000000 0.000000
# 2 -0.004809 0.024728 -0.010192 0.000000 0.000000 0.000000
# 3 -0.003458 -0.010192 0.013438 0.000000 0.000000 0.000000
# 4 0.000000 0.000000 0.000000 0.027038 0.000000 0.000000
# 5 0.000000 0.000000 0.000000 0.000000 0.079528 0.000000
# 6 0.000000 0.000000 0.000000 0.000000 0.000000 0.048819
#
#
# Mechanical properties :
#
#
# Convention : Reuss Voigt Hill
#
# Bulk Modulus (GPa) = 48.72967 58.62084 53.67526
# Shear Modulus (GPa) = 19.48686 23.29368 21.39027
#
# Velocity S-wave (km/s) = 3.36262 3.67642 3.52302
# Velocity P-wave (km/s) = 6.58419 7.21360 6.90607
#
# Compressibility (1/GPa) = 0.02052138
#
# Stress axis : x y z
#
# Youngs Moduli (GPa) = 51.88403 40.43992 74.41584
#
# Poissons Ratio (x) = 0.19448 0.25734
# Poissons Ratio (y) = 0.24952 0.75845
# Poissons Ratio (z) = 0.17942 0.41216
#
# Static dielectric constant tensor:
#      x y z
#    x 3.177460 0.000000 0.000000 
#    y 0.000000 3.250840 0.000000 
#    z 0.000000 0.000000 3.281030 
# 
# 
# High freq. dielectric constant tensor:
#      x y z
#    x 1.645560 0.000000 0.000000 
#    y 0.000000 1.668400 0.000000 
#    z 0.000000 0.000000 1.669120 
# 
# From -- ./inp_files/24199.got.cif
#   From: 2010.03.12/outbox.cif.g09.slc.cpg/sg59_13_cif.got.tgz:24199.got - 2010.04.16 16:29:54.
