data_PCOD8242322
_publ_section_title
;
Structure prediction by ZEFSAII (Michael W. Deem and Ramdas Pophale) SiO2 
 PCOD8242322
Probable space group: P M M N
;
_chemical_formula_sum "Si O2"
_cell_formula_units_Z 64
_cell_length_a 17.891599
_cell_length_b 9.280270
_cell_length_c 21.537558
_cell_angle_alpha 90.000000
_cell_angle_beta 90.000000
_cell_angle_gamma 90.000000
_cell_volume 3576.071781
_symmetry_space_group_name_H-M "P M M N"
_symmetry_group_IT_number 59
_space_group.IT_coordinate_system_code '2'
_symmetry_cell_setting 'orthorhombic'
loop_
_space_group_symop_operation_xyz
x,y,z
1/2-x,1/2-y,z
1/2+x,-y,-z
-x,1/2+y,-z
-x,-y,-z
1/2+x,1/2+y,-z
1/2-x,y,z
x,1/2-y,z
loop_
_atom_site_type_symbol
_atom_site_label
_atom_site_fract_x
_atom_site_fract_y
_atom_site_fract_z
Si Si1 0.833404 0.414362 0.632472
Si Si2 0.950839 0.083550 0.324431
Si Si3 0.396361 0.084743 0.256355
Si Si4 0.161388 0.091172 0.893580
Si Si5 0.836126 0.080198 0.856355
Si Si6 0.838748 0.408800 0.993884
Si Si7 0.662440 0.916298 0.244491
Si Si8 0.018958 0.580128 0.437069
O O1 0.750000 0.438787 0.605035
O O2 0.844316 0.250000 0.654974
O O3 0.842933 0.514289 0.692276
O O4 0.893996 0.450591 0.579319
O O5 0.938470 0.250000 0.343746
O O6 0.017932 0.068257 0.275846
O O7 0.876927 0.021109 0.293020
O O8 0.966296 0.988046 0.384845
O O9 0.372249 0.250000 0.249355
O O10 0.388285 0.005212 0.190928
O O11 0.250000 0.097713 0.900716
O O12 0.127189 0.250000 0.900076
O O13 0.141646 0.030078 0.825261
O O14 0.125624 0.999310 0.949590
O O15 0.750000 0.043216 0.842136
O O16 0.850065 0.250000 0.849645
O O17 0.858388 0.027708 0.925859
O O18 0.750000 0.401456 0.000316
O O19 0.873050 0.250000 0.000002
O O20 0.750000 0.930686 0.256544
O O21 0.637288 0.750000 0.253411
O O22 0.002442 0.750000 0.443003
O O23 0.000000 0.500000 0.500000
#
# Coordination Sequence:
#
# PCOD8242322 Si02
#       8
#     8   8   8   8   8   8   8   8
#     4   9  18  33  53  76 101 131 168 206 243 286
#     4  10  21  36  53  75 102 131 164 200 240 291
#     4  10  20  31  45  69  99 129 163 204 246 288
#     4   8  14  25  42  65  92 120 151 193 246 298
#     4   9  17  28  42  63  93 128 165 204 246 293
#     4   8  14  24  38  59  88 121 158 199 241 289
#     4   9  18  33  53  77 102 126 158 203 252 300
#     4  10  20  36  58  80 105 138 171 204 244 292
#
# _framework density 17.896733999999999
#
# number of rings (size 3 to 8) (size 9 to 14) (size 15 to 20)
#    0.000    2.875    0.000    3.000    0.000    5.250 
#    0.000    3.125    0.000    3.000    0.000    0.000 
#    0.000    0.000    0.000    0.000    0.000    0.000 
#
# Total GULP energy -793370.885248 kJ/mol
# GULP energy per Si atom -12396.420082 kJ/mol
# Density = 1.785600 g / cm^3
# Si number density = 17.896734 Si / 1000 Ang^3
#
#
#
# Elastic Constant Matrix: (Units=GPa)
#
#
# Indices 1 2 3 4 5 6 
#
# 1 51.5119 37.7783 47.0303 0.0000 0.0000 0.0000
# 2 37.7783 101.7490 73.6159 0.0000 0.0000 0.0000
# 3 47.0303 73.6159 137.6162 0.0000 0.0000 0.0000
# 4 0.0000 0.0000 0.0000 39.0398 0.0000 0.0000
# 5 0.0000 0.0000 0.0000 0.0000 20.2406 0.0000
# 6 0.0000 0.0000 0.0000 0.0000 0.0000 23.1752
#
#
#
# Elastic Compliance Matrix: (Units=1/GPa)
#
#
# Indices 1 2 3 4 5 6 
#
# 1 0.030408 -0.006153 -0.007101 0.000000 0.000000 0.000000
# 2 -0.006153 0.017279 -0.007140 0.000000 0.000000 0.000000
# 3 -0.007101 -0.007140 0.013513 0.000000 0.000000 0.000000
# 4 0.000000 0.000000 0.000000 0.025615 0.000000 0.000000
# 5 0.000000 0.000000 0.000000 0.000000 0.049406 0.000000
# 6 0.000000 0.000000 0.000000 0.000000 0.000000 0.043150
#
#
# Mechanical properties :
#
#
# Convention : Reuss Voigt Hill
#
# Bulk Modulus (GPa) = 48.99026 67.52513 58.25769
# Shear Modulus (GPa) = 22.03017 25.32127 23.67572
#
# Velocity S-wave (km/s) = 3.51231 3.76554 3.64113
# Velocity P-wave (km/s) = 6.62433 7.53114 7.09224
#
# Compressibility (1/GPa) = 0.02041222
#
# Stress axis : x y z
#
# Youngs Moduli (GPa) = 32.88568 57.87512 74.00409
#
# Poissons Ratio (x) = 0.35610 0.52548
# Poissons Ratio (y) = 0.20234 0.52840
# Poissons Ratio (z) = 0.23351 0.41324
#
# Static dielectric constant tensor:
#      x y z
#    x 3.009710 0.000000 0.000000 
#    y 0.000000 3.500250 0.000000 
#    z 0.000000 0.000000 3.343250 
# 
# 
# High freq. dielectric constant tensor:
#      x y z
#    x 1.660510 0.000000 0.000000 
#    y 0.000000 1.695250 0.000000 
#    z 0.000000 0.000000 1.691900 
# 
# From -- ./inp_files/30848.got.cif
#   From: 2010.03.12/outbox.cif.g09.slc.cpg/sg59_16_cif.got.tgz:30848.got - 2010.04.16 16:29:54.
