data_PCOD8242944
_publ_section_title
;
Structure prediction by ZEFSAII (Michael W. Deem and Ramdas Pophale) SiO2 
 PCOD8242944
Probable space group: P M M N
;
_chemical_formula_sum "Si O2"
_cell_formula_units_Z 56
_cell_length_a 22.986833
_cell_length_b 8.823089
_cell_length_c 15.336870
_cell_angle_alpha 90.000000
_cell_angle_beta 90.000000
_cell_angle_gamma 90.000000
_cell_volume 3110.545347
_symmetry_space_group_name_H-M "P M M N"
_symmetry_group_IT_number 59
_space_group.IT_coordinate_system_code '2'
_symmetry_cell_setting 'orthorhombic'
loop_
_space_group_symop_operation_xyz
x,y,z
1/2-x,1/2-y,z
1/2+x,-y,-z
-x,1/2+y,-z
-x,-y,-z
1/2+x,1/2+y,-z
1/2-x,y,z
x,1/2-y,z
loop_
_atom_site_type_symbol
_atom_site_label
_atom_site_fract_x
_atom_site_fract_y
_atom_site_fract_z
Si Si1 0.180936 0.081704 0.007059
Si Si2 0.814918 0.569526 0.183461
Si Si3 0.367601 0.426252 0.345887
Si Si4 0.683053 0.074936 0.490975
Si Si5 0.608581 0.929400 0.342625
Si Si6 0.681614 0.424186 0.819791
Si Si7 0.003722 0.427064 0.405585
O O1 0.250000 0.091592 0.003923
O O2 0.155442 0.250000 0.024755
O O3 0.160012 0.969540 0.083296
O O4 0.160703 0.019703 0.911897
O O5 0.750000 0.503612 0.200131
O O6 0.812121 0.750000 0.187063
O O7 0.857557 0.506545 0.258139
O O8 0.354202 0.250000 0.360566
O O9 0.327027 0.523672 0.409861
O O10 0.352817 0.471827 0.247631
O O11 0.434758 0.464604 0.362388
O O12 0.750000 0.048860 0.466014
O O13 0.665362 0.250000 0.480803
O O14 0.643199 0.972942 0.429556
O O15 0.601933 0.750000 0.340264
O O16 0.545068 0.003339 0.342459
O O17 0.750000 0.455061 0.809478
O O18 0.665950 0.250000 0.803467
O O19 0.992956 0.250000 0.416101
O O20 0.000000 0.500000 0.500000
#
# Coordination Sequence:
#
# PCOD8242944 Si02
#       7
#     8   8   8   8   8   8   8
#     4   8  14  28  51  76 104 139 175 210 250 304
#     4   8  15  29  51  80 110 139 174 214 256 307
#     4  11  23  37  55  76  99 135 180 221 262 313
#     4  11  23  36  51  75 108 141 171 212 265 314
#     4  11  21  34  55  80 106 140 178 218 262 314
#     4  10  20  33  51  79 112 140 167 208 265 320
#     4  11  23  39  57  76 100 135 181 227 268 311
#
# _framework density 18.003273
#
# number of rings (size 3 to 8) (size 9 to 14) (size 15 to 20)
#    0.000    2.000    1.429    3.857    0.000    6.000 
#    0.000    1.429    0.000    4.286    0.000    0.000 
#    0.000    0.000    0.000    0.000    0.000    0.000 
#
# Total GULP energy -694470.786255 kJ/mol
# GULP energy per Si atom -12401.264040 kJ/mol
# Density = 1.796230 g / cm^3
# Si number density = 18.003273 Si / 1000 Ang^3
#
#
#
# Elastic Constant Matrix: (Units=GPa)
#
#
# Indices 1 2 3 4 5 6 
#
# 1 72.8000 38.4567 36.8212 0.0000 0.0000 0.0000
# 2 38.4567 68.3748 26.6360 0.0000 0.0000 0.0000
# 3 36.8212 26.6360 116.7657 0.0000 0.0000 0.0000
# 4 0.0000 0.0000 0.0000 22.7791 0.0000 0.0000
# 5 0.0000 0.0000 0.0000 0.0000 14.2510 0.0000
# 6 0.0000 0.0000 0.0000 0.0000 0.0000 26.0130
#
#
#
# Elastic Compliance Matrix: (Units=1/GPa)
#
#
# Indices 1 2 3 4 5 6 
#
# 1 0.021419 -0.010334 -0.004397 0.000000 0.000000 0.000000
# 2 -0.010334 0.021038 -0.001540 0.000000 0.000000 0.000000
# 3 -0.004397 -0.001540 0.010302 0.000000 0.000000 0.000000
# 4 0.000000 0.000000 0.000000 0.043900 0.000000 0.000000
# 5 0.000000 0.000000 0.000000 0.000000 0.070171 0.000000
# 6 0.000000 0.000000 0.000000 0.000000 0.000000 0.038442
#
#
# Mechanical properties :
#
#
# Convention : Reuss Voigt Hill
#
# Bulk Modulus (GPa) = 49.46529 51.30758 50.38644
# Shear Modulus (GPa) = 20.44546 23.01041 21.72793
#
# Velocity S-wave (km/s) = 3.37360 3.57896 3.47780
# Velocity P-wave (km/s) = 6.53531 6.75570 6.64642
#
# Compressibility (1/GPa) = 0.02021619
#
# Stress axis : x y z
#
# Youngs Moduli (GPa) = 46.68703 47.53393 97.06792
#
# Poissons Ratio (x) = 0.49122 0.42681
# Poissons Ratio (y) = 0.48247 0.14950
# Poissons Ratio (z) = 0.20528 0.07321
#
# Static dielectric constant tensor:
#      x y z
#    x 3.201750 0.000000 0.000000 
#    y 0.000000 3.280290 0.000000 
#    z 0.000000 0.000000 3.636650 
# 
# 
# High freq. dielectric constant tensor:
#      x y z
#    x 1.673760 0.000000 0.000000 
#    y 0.000000 1.694330 0.000000 
#    z 0.000000 0.000000 1.703510 
# 
# From -- ./inp_files/24234.got.cif
#   From: 2010.03.12/outbox.cif.g09.slc.cpg/sg59_13_cif.got.tgz:24234.got - 2010.04.16 16:29:54.
