data_PCOD8242634
_publ_section_title
;
Structure prediction by ZEFSAII (Michael W. Deem and Ramdas Pophale) SiO2 
 PCOD8242634
Probable space group: P M M N
;
_chemical_formula_sum "Si O2"
_cell_formula_units_Z 48
_cell_length_a 9.176330
_cell_length_b 8.777526
_cell_length_c 31.178661
_cell_angle_alpha 90.000000
_cell_angle_beta 90.000000
_cell_angle_gamma 90.000000
_cell_volume 2511.300065
_symmetry_space_group_name_H-M "P M M N"
_symmetry_group_IT_number 59
_space_group.IT_coordinate_system_code '2'
_symmetry_cell_setting 'orthorhombic'
loop_
_space_group_symop_operation_xyz
x,y,z
1/2-x,1/2-y,z
1/2+x,-y,-z
-x,1/2+y,-z
-x,-y,-z
1/2+x,1/2+y,-z
1/2-x,y,z
x,1/2-y,z
loop_
_atom_site_type_symbol
_atom_site_label
_atom_site_fract_x
_atom_site_fract_y
_atom_site_fract_z
Si Si1 0.413087 0.569129 0.201505
Si Si2 0.582536 0.570127 0.960028
Si Si3 0.916366 0.069409 0.539768
Si Si4 0.917539 0.930340 0.119217
Si Si5 0.086378 0.068366 0.623091
Si Si6 0.086011 0.568801 0.296028
O O1 0.250000 0.507694 0.191683
O O2 0.409797 0.750000 0.201497
O O3 0.524348 0.510782 0.165293
O O4 0.464862 0.512184 0.248691
O O5 0.750000 0.516751 0.961196
O O6 0.569317 0.750000 0.962751
O O7 0.510947 0.512859 0.916574
O O8 0.500000 0.500000 0.000000
O O9 0.750000 0.012560 0.539424
O O10 0.925718 0.250000 0.536949
O O11 0.991269 0.008917 0.583241
O O12 0.000000 0.000000 0.500000
O O13 0.750000 0.979000 0.114805
O O14 0.936825 0.750000 0.114051
O O15 0.250000 0.005167 0.618308
O O16 0.085690 0.250000 0.624168
O O17 0.019196 0.001731 0.667260
O O18 0.250000 0.511675 0.305057
O O19 0.082229 0.750000 0.297633
#
# Coordination Sequence:
#
# PCOD8242634 Si02
#       6
#     8   8   8   8   8   8
#     4   8  14  25  42  65  95 131 166 200 241 286
#     4  11  24  40  58  80 104 132 168 207 248 295
#     4  10  20  33  49  69  94 125 161 202 248 297
#     4  10  20  33  51  77 107 137 169 204 243 289
#     4   9  16  25  39  61  90 123 158 198 244 291
#     4   8  13  22  37  59  89 124 160 197 239 287
#
# _framework density 19.113606000000001
#
# number of rings (size 3 to 8) (size 9 to 14) (size 15 to 20)
#    0.000    2.667    0.000    3.500    0.000    8.000 
#    0.000    3.333    0.000    0.000    0.000    1.167 
#    0.000    1.333    0.000    0.000    0.000    0.000 
#
# Total GULP energy -595057.298227 kJ/mol
# GULP energy per Si atom -12397.027046 kJ/mol
# Density = 1.907010 g / cm^3
# Si number density = 19.113606 Si / 1000 Ang^3
#
#
#
# Elastic Constant Matrix: (Units=GPa)
#
#
# Indices 1 2 3 4 5 6 
#
# 1 180.8200 30.5142 113.0002 0.0000 0.0000 0.0000
# 2 30.5142 18.0324 25.9602 0.0000 0.0000 0.0000
# 3 113.0002 25.9602 191.4282 0.0000 0.0000 0.0000
# 4 0.0000 0.0000 0.0000 20.0962 0.0000 0.0000
# 5 0.0000 0.0000 0.0000 0.0000 46.0980 0.0000
# 6 0.0000 0.0000 0.0000 0.0000 0.0000 18.1087
#
#
#
# Elastic Compliance Matrix: (Units=1/GPa)
#
#
# Indices 1 2 3 4 5 6 
#
# 1 0.010182 -0.010657 -0.004565 0.000000 0.000000 0.000000
# 2 -0.010657 0.080064 -0.004567 0.000000 0.000000 0.000000
# 3 -0.004565 -0.004567 0.008538 0.000000 0.000000 0.000000
# 4 0.000000 0.000000 0.000000 0.049761 0.000000 0.000000
# 5 0.000000 0.000000 0.000000 0.000000 0.021693 0.000000
# 6 0.000000 0.000000 0.000000 0.000000 0.000000 0.055222
#
#
# Mechanical properties :
#
#
# Convention : Reuss Voigt Hill
#
# Bulk Modulus (GPa) = 16.89022 81.02553 48.95788
# Shear Modulus (GPa) = 17.55786 31.58098 24.56942
#
# Velocity S-wave (km/s) = 3.03414 4.06923 3.58919
# Velocity P-wave (km/s) = 4.59680 8.03503 6.54570
#
# Compressibility (1/GPa) = 0.05920585
#
# Stress axis : x y z
#
# Youngs Moduli (GPa) = 98.21619 12.48995 117.12489
#
# Poissons Ratio (x) = 0.13311 0.53467
# Poissons Ratio (y) = 1.04672 0.53488
# Poissons Ratio (z) = 0.44835 0.05704
#
# Static dielectric constant tensor:
#      x y z
#    x 3.797320 0.000000 0.000000 
#    y 0.000000 2.944430 0.000000 
#    z 0.000000 0.000000 3.882400 
# 
# 
# High freq. dielectric constant tensor:
#      x y z
#    x 1.752920 0.000000 0.000000 
#    y 0.000000 1.680280 0.000000 
#    z 0.000000 0.000000 1.765460 
# 
# From -- ./inp_files/32903.got.cif
#   From: 2010.03.12/outbox.cif.g09.slc.cpg/sg59_17_cif.got.tgz:32903.got - 2010.04.16 16:29:54.
