data_PCOD8242754
_publ_section_title
;
Structure prediction by ZEFSAII (Michael W. Deem and Ramdas Pophale) SiO2 
 PCOD8242754
Probable space group: P M M N
;
_chemical_formula_sum "Si O2"
_cell_formula_units_Z 48
_cell_length_a 9.030740
_cell_length_b 18.097990
_cell_length_c 16.468276
_cell_angle_alpha 90.000000
_cell_angle_beta 90.000000
_cell_angle_gamma 90.000000
_cell_volume 2691.546082
_symmetry_space_group_name_H-M "P M M N"
_symmetry_group_IT_number 59
_space_group.IT_coordinate_system_code '2'
_symmetry_cell_setting 'orthorhombic'
loop_
_space_group_symop_operation_xyz
x,y,z
1/2-x,1/2-y,z
1/2+x,-y,-z
-x,1/2+y,-z
-x,-y,-z
1/2+x,1/2+y,-z
1/2-x,y,z
x,1/2-y,z
loop_
_atom_site_type_symbol
_atom_site_label
_atom_site_fract_x
_atom_site_fract_y
_atom_site_fract_z
Si Si1 0.577204 0.099437 0.179959
Si Si2 0.574090 0.167979 0.016867
Si Si3 0.422052 0.332459 0.327703
Si Si4 0.923033 0.951109 0.267227
Si Si5 0.425110 0.478763 0.416453
Si Si6 0.580828 0.337246 0.837824
O O1 0.750000 0.116174 0.184320
O O2 0.503506 0.155792 0.242652
O O3 0.540272 0.015316 0.202472
O O4 0.516667 0.114321 0.088705
O O5 0.750000 0.171528 0.014522
O O6 0.511031 0.250000 0.033883
O O7 0.521960 0.140162 0.927954
O O8 0.250000 0.341378 0.309129
O O9 0.459413 0.250000 0.360944
O O10 0.470421 0.394241 0.393609
O O11 0.750000 0.947166 0.288448
O O12 0.976181 0.874590 0.228775
O O13 0.013377 0.965195 0.349218
O O14 0.500000 0.500000 0.500000
O O15 0.250000 0.488422 0.423739
O O16 0.750000 0.363563 0.825037
O O17 0.568418 0.250000 0.826083
#
# Coordination Sequence:
#
# PCOD8242754 Si02
#       6
#     8   8   8   8   8   8
#     4   9  17  29  47  72 100 131 167 202 238 288
#     4   8  14  26  45  68  95 130 170 208 244 282
#     4   9  18  32  50  74 103 131 158 193 242 294
#     4  10  20  33  50  74 101 128 161 202 249 299
#     4  10  20  36  57  77 100 130 162 200 246 298
#     4   9  18  33  51  69  93 130 174 213 248 290
#
# _framework density 17.833617
#
# number of rings (size 3 to 8) (size 9 to 14) (size 15 to 20)
#    0.000    2.833    0.000    2.500    0.000    3.333 
#    0.000    1.667    0.000    4.000    0.000    0.000 
#    0.000    0.000    0.000    0.000    0.000    0.000 
#
# Total GULP energy -595054.935444 kJ/mol
# GULP energy per Si atom -12396.977822 kJ/mol
# Density = 1.779303 g / cm^3
# Si number density = 17.833617 Si / 1000 Ang^3
#
#
#
# Elastic Constant Matrix: (Units=GPa)
#
#
# Indices 1 2 3 4 5 6 
#
# 1 55.0807 33.7410 47.1969 0.0000 0.0000 0.0000
# 2 33.7410 76.7106 64.9456 0.0000 0.0000 0.0000
# 3 47.1969 64.9456 140.5862 0.0000 0.0000 0.0000
# 4 0.0000 0.0000 0.0000 23.8727 0.0000 0.0000
# 5 0.0000 0.0000 0.0000 0.0000 26.6615 0.0000
# 6 0.0000 0.0000 0.0000 0.0000 0.0000 23.8828
#
#
#
# Elastic Compliance Matrix: (Units=1/GPa)
#
#
# Indices 1 2 3 4 5 6 
#
# 1 0.027636 -0.007063 -0.006015 0.000000 0.000000 0.000000
# 2 -0.007063 0.023215 -0.008353 0.000000 0.000000 0.000000
# 3 -0.006015 -0.008353 0.012991 0.000000 0.000000 0.000000
# 4 0.000000 0.000000 0.000000 0.041889 0.000000 0.000000
# 5 0.000000 0.000000 0.000000 0.000000 0.037507 0.000000
# 6 0.000000 0.000000 0.000000 0.000000 0.000000 0.041871
#
#
# Mechanical properties :
#
#
# Convention : Reuss Voigt Hill
#
# Bulk Modulus (GPa) = 47.66575 62.68272 55.17424
# Shear Modulus (GPa) = 21.27982 23.31634 22.29808
#
# Velocity S-wave (km/s) = 3.45808 3.61977 3.53985
# Velocity P-wave (km/s) = 6.53686 7.25915 6.90745
#
# Compressibility (1/GPa) = 0.02097942
#
# Stress axis : x y z
#
# Youngs Moduli (GPa) = 36.18495 43.07606 76.97536
#
# Poissons Ratio (x) = 0.30426 0.46299
# Poissons Ratio (y) = 0.25558 0.64298
# Poissons Ratio (z) = 0.21765 0.35982
#
# Static dielectric constant tensor:
#      x y z
#    x 3.150040 0.000000 0.000000 
#    y 0.000000 3.318340 0.000000 
#    z 0.000000 0.000000 3.439100 
# 
# 
# High freq. dielectric constant tensor:
#      x y z
#    x 1.675950 0.000000 0.000000 
#    y 0.000000 1.684600 0.000000 
#    z 0.000000 0.000000 1.684990 
# 
# From -- ./inp_files/20366.got.cif
#   From: 2010.03.12/outbox.cif.g09.slc.cpg/sg59_11_cif.got.tgz:20366.got - 2010.04.16 16:29:54.
