data_PCOD8242480
_publ_section_title
;
Structure prediction by ZEFSAII (Michael W. Deem and Ramdas Pophale) SiO2 
 PCOD8242480
Probable space group: P M M N
;
_chemical_formula_sum "Si O2"
_cell_formula_units_Z 64
_cell_length_a 29.313711
_cell_length_b 8.705144
_cell_length_c 14.999994
_cell_angle_alpha 90.000000
_cell_angle_beta 90.000000
_cell_angle_gamma 90.000000
_cell_volume 3827.699600
_symmetry_space_group_name_H-M "P M M N"
_symmetry_group_IT_number 59
_space_group.IT_coordinate_system_code '2'
_symmetry_cell_setting 'orthorhombic'
loop_
_space_group_symop_operation_xyz
x,y,z
1/2-x,1/2-y,z
1/2+x,-y,-z
-x,1/2+y,-z
-x,-y,-z
1/2+x,1/2+y,-z
1/2-x,y,z
x,1/2-y,z
loop_
_atom_site_type_symbol
_atom_site_label
_atom_site_fract_x
_atom_site_fract_y
_atom_site_fract_z
Si Si1 0.938133 0.928102 0.454957
Si Si2 0.396122 0.071643 0.043258
Si Si3 0.966577 0.069374 0.623381
Si Si4 0.698543 0.426155 0.211261
Si Si5 0.057595 0.930790 0.871521
Si Si6 0.199535 0.074623 0.975713
Si Si7 0.613582 0.927750 0.284401
Si Si8 0.536999 0.068579 0.823511
O O1 0.943125 0.750000 0.475313
O O2 0.896711 0.964289 0.387943
O O3 0.983781 0.990967 0.406715
O O4 0.929932 0.009722 0.550439
O O5 0.407584 0.250000 0.058002
O O6 0.417329 0.972443 0.122886
O O7 0.341234 0.042285 0.045527
O O8 0.415932 0.020069 0.948617
O O9 0.964385 0.250000 0.625919
O O10 0.956338 0.006966 0.722521
O O11 0.750000 0.458267 0.242772
O O12 0.684550 0.250000 0.225552
O O13 0.692518 0.462867 0.107461
O O14 0.666443 0.533707 0.270550
O O15 0.059796 0.750000 0.890246
O O16 0.081529 0.969508 0.778112
O O17 0.005246 0.983996 0.870365
O O18 0.250000 0.046192 0.018906
O O19 0.195787 0.250000 0.940989
O O20 0.603159 0.750000 0.262851
O O21 0.527899 0.250000 0.825926
#
# Coordination Sequence:
#
# PCOD8242480 Si02
#       8
#     8   8   8   8   8   8   8   8
#     4   9  18  32  50  72  97 125 160 201 244 289
#     4  11  22  35  51  73 100 132 171 209 248 298
#     4   9  18  33  50  70  96 127 162 203 246 287
#     4  10  20  32  48  73 102 130 165 207 247 293
#     4  12  23  34  49  71 100 136 174 208 245 289
#     4   9  18  33  52  71  95 129 165 204 250 296
#     4  11  20  33  51  73 102 135 168 203 247 300
#     4  11  22  37  52  69 100 136 172 209 248 294
#
# _framework density 16.720224999999999
#
# number of rings (size 3 to 8) (size 9 to 14) (size 15 to 20)
#    0.000    1.750    2.500    3.000    0.000    3.250 
#    0.000    0.000    0.000    0.000    0.000    0.875 
#    0.000    3.000    0.000    0.000    0.000    0.000 
#
# Total GULP energy -793583.169025 kJ/mol
# GULP energy per Si atom -12399.737016 kJ/mol
# Density = 1.668217 g / cm^3
# Si number density = 16.720225 Si / 1000 Ang^3
#
#
#
# Elastic Constant Matrix: (Units=GPa)
#
#
# Indices 1 2 3 4 5 6 
#
# 1 99.9102 20.1913 41.6226 0.0000 0.0000 0.0000
# 2 20.1913 41.7586 16.4951 0.0000 0.0000 0.0000
# 3 41.6226 16.4951 80.0572 0.0000 0.0000 0.0000
# 4 0.0000 0.0000 0.0000 26.3545 0.0000 0.0000
# 5 0.0000 0.0000 0.0000 0.0000 21.3678 0.0000
# 6 0.0000 0.0000 0.0000 0.0000 0.0000 23.4091
#
#
#
# Elastic Compliance Matrix: (Units=1/GPa)
#
#
# Indices 1 2 3 4 5 6 
#
# 1 0.013377 -0.004051 -0.006120 0.000000 0.000000 0.000000
# 2 -0.004051 0.027295 -0.003518 0.000000 0.000000 0.000000
# 3 -0.006120 -0.003518 0.016398 0.000000 0.000000 0.000000
# 4 0.000000 0.000000 0.000000 0.037944 0.000000 0.000000
# 5 0.000000 0.000000 0.000000 0.000000 0.046799 0.000000
# 6 0.000000 0.000000 0.000000 0.000000 0.000000 0.042718
#
#
# Mechanical properties :
#
#
# Convention : Reuss Voigt Hill
#
# Bulk Modulus (GPa) = 33.67842 42.03822 37.85832
# Shear Modulus (GPa) = 22.54196 23.78741 23.16468
#
# Velocity S-wave (km/s) = 3.67575 3.77593 3.72617
# Velocity P-wave (km/s) = 6.18069 6.64882 6.41902
#
# Compressibility (1/GPa) = 0.02969261
#
# Stress axis : x y z
#
# Youngs Moduli (GPa) = 74.75303 36.63620 60.98301
#
# Poissons Ratio (x) = 0.14840 0.37324
# Poissons Ratio (y) = 0.30280 0.21454
# Poissons Ratio (z) = 0.45752 0.12889
#
# Static dielectric constant tensor:
#      x y z
#    x 3.240530 0.000000 0.000000 
#    y 0.000000 3.189460 0.000000 
#    z 0.000000 0.000000 3.098030 
# 
# 
# High freq. dielectric constant tensor:
#      x y z
#    x 1.630780 0.000000 0.000000 
#    y 0.000000 1.653150 0.000000 
#    z 0.000000 0.000000 1.621730 
# 
# From -- ./inp_files/25050.got.cif
#   From: 2010.03.12/outbox.cif.g09.slc.cpg/sg59_13_cif.got.tgz:25050.got - 2010.04.16 16:29:54.
