data_PCOD8242543
_publ_section_title
;
Structure prediction by ZEFSAII (Michael W. Deem and Ramdas Pophale) SiO2 
 PCOD8242543
Probable space group: P M M N
;
_chemical_formula_sum "Si O2"
_cell_formula_units_Z 64
_cell_length_a 19.605662
_cell_length_b 9.244205
_cell_length_c 19.992325
_cell_angle_alpha 90.000000
_cell_angle_beta 90.000000
_cell_angle_gamma 90.000000
_cell_volume 3623.384166
_symmetry_space_group_name_H-M "P M M N"
_symmetry_group_IT_number 59
_space_group.IT_coordinate_system_code '2'
_symmetry_cell_setting 'orthorhombic'
loop_
_space_group_symop_operation_xyz
x,y,z
1/2-x,1/2-y,z
1/2+x,-y,-z
-x,1/2+y,-z
-x,-y,-z
1/2+x,1/2+y,-z
1/2-x,y,z
x,1/2-y,z
loop_
_atom_site_type_symbol
_atom_site_label
_atom_site_fract_x
_atom_site_fract_y
_atom_site_fract_z
Si Si1 0.670189 0.416225 0.597367
Si Si2 0.927620 0.920717 0.695898
Si Si3 0.449539 0.914575 0.175053
Si Si4 0.432926 0.580368 0.024331
Si Si5 0.825588 0.078204 0.447356
Si Si6 0.918298 0.420708 0.328157
Si Si7 0.894731 0.584916 0.199544
Si Si8 0.828999 0.915384 0.063992
O O1 0.750000 0.433987 0.612666
O O2 0.647732 0.250000 0.607260
O O3 0.628697 0.517183 0.646806
O O4 0.653603 0.470155 0.522078
O O5 0.919960 0.750000 0.698693
O O6 0.002580 0.968435 0.669901
O O7 0.914765 0.982172 0.770189
O O8 0.433933 0.750000 0.196161
O O9 0.418978 0.950460 0.102513
O O10 0.530093 0.942876 0.170650
O O11 0.442593 0.750000 0.010751
O O12 0.500000 0.500000 0.000000
O O13 0.367599 0.522227 0.985465
O O14 0.750000 0.018076 0.429403
O O15 0.823078 0.250000 0.445599
O O16 0.881117 0.018678 0.394663
O O17 0.911157 0.250000 0.322739
O O18 0.880257 0.486851 0.264013
O O19 0.884464 0.750000 0.221903
O O20 0.842634 0.540626 0.140979
O O21 0.750000 0.932638 0.048144
O O22 0.853992 0.750000 0.052808
#
# Coordination Sequence:
#
# PCOD8242543 Si02
#       8
#     8   8   8   8   8   8   8   8
#     4   9  18  34  55  74  94 130 177 215 254 310
#     4  10  20  32  49  77 108 133 162 210 264 308
#     4   9  18  34  54  75 100 134 175 212 248 304
#     4  11  21  35  58  83 106 136 179 222 264 316
#     4   8  15  30  51  72  97 133 174 212 251 302
#     4   9  18  31  48  75 106 134 168 212 256 299
#     4   9  17  32  50  71 101 138 175 207 251 308
#     4  10  21  37  54  76 110 146 179 219 267 316
#
# _framework density 17.663045
#
# number of rings (size 3 to 8) (size 9 to 14) (size 15 to 20)
#    0.000    2.625    1.250    1.500    0.000    3.500 
#    0.000    1.250    0.000    1.500    0.000    0.000 
#    0.000    0.000    0.000    0.000    0.000    0.000 
#
# Total GULP energy -793602.885255 kJ/mol
# GULP energy per Si atom -12400.045082 kJ/mol
# Density = 1.762284 g / cm^3
# Si number density = 17.663045 Si / 1000 Ang^3
#
#
#
# Elastic Constant Matrix: (Units=GPa)
#
#
# Indices 1 2 3 4 5 6 
#
# 1 71.5959 41.9332 63.8906 0.0000 0.0000 0.0000
# 2 41.9332 69.4720 62.8452 0.0000 0.0000 0.0000
# 3 63.8906 62.8452 134.9975 0.0000 0.0000 0.0000
# 4 0.0000 0.0000 0.0000 29.4761 0.0000 0.0000
# 5 0.0000 0.0000 0.0000 0.0000 30.7455 0.0000
# 6 0.0000 0.0000 0.0000 0.0000 0.0000 23.0767
#
#
#
# Elastic Compliance Matrix: (Units=1/GPa)
#
#
# Indices 1 2 3 4 5 6 
#
# 1 0.026551 -0.008048 -0.008819 0.000000 0.000000 0.000000
# 2 -0.008048 0.027305 -0.008902 0.000000 0.000000 0.000000
# 3 -0.008819 -0.008902 0.015726 0.000000 0.000000 0.000000
# 4 0.000000 0.000000 0.000000 0.033926 0.000000 0.000000
# 5 0.000000 0.000000 0.000000 0.000000 0.032525 0.000000
# 6 0.000000 0.000000 0.000000 0.000000 0.000000 0.043334
#
#
# Mechanical properties :
#
#
# Convention : Reuss Voigt Hill
#
# Bulk Modulus (GPa) = 55.42462 68.15593 61.79028
# Shear Modulus (GPa) = 21.10406 23.81942 22.46174
#
# Velocity S-wave (km/s) = 3.46036 3.67624 3.56993
# Velocity P-wave (km/s) = 6.88567 7.52929 7.21466
#
# Compressibility (1/GPa) = 0.01804252
#
# Stress axis : x y z
#
# Youngs Moduli (GPa) = 37.66298 36.62273 63.58973
#
# Poissons Ratio (x) = 0.29475 0.56082
# Poissons Ratio (y) = 0.30312 0.56610
# Poissons Ratio (z) = 0.33216 0.32603
#
# Static dielectric constant tensor:
#      x y z
#    x 3.207140 0.000000 0.000000 
#    y 0.000000 3.172270 0.000000 
#    z 0.000000 0.000000 3.453180 
# 
# 
# High freq. dielectric constant tensor:
#      x y z
#    x 1.669010 0.000000 0.000000 
#    y 0.000000 1.670610 0.000000 
#    z 0.000000 0.000000 1.690580 
# 
# From -- ./inp_files/28289.got.cif
#   From: 2010.03.12/outbox.cif.g09.slc.cpg/sg59_15_cif.got.tgz:28289.got - 2010.04.16 16:29:54.
