data_PCOD8242260
_publ_section_title
;
Structure prediction by ZEFSAII (Michael W. Deem and Ramdas Pophale) SiO2 
 PCOD8242260
Probable space group: P M M N
;
_chemical_formula_sum "Si O2"
_cell_formula_units_Z 48
_cell_length_a 8.779722
_cell_length_b 16.072128
_cell_length_c 16.978311
_cell_angle_alpha 90.000000
_cell_angle_beta 90.000000
_cell_angle_gamma 90.000000
_cell_volume 2395.789359
_symmetry_space_group_name_H-M "P M M N"
_symmetry_group_IT_number 59
_space_group.IT_coordinate_system_code '2'
_symmetry_cell_setting 'orthorhombic'
loop_
_space_group_symop_operation_xyz
x,y,z
1/2-x,1/2-y,z
1/2+x,-y,-z
-x,1/2+y,-z
-x,-y,-z
1/2+x,1/2+y,-z
1/2-x,y,z
x,1/2-y,z
loop_
_atom_site_type_symbol
_atom_site_label
_atom_site_fract_x
_atom_site_fract_y
_atom_site_fract_z
Si Si1 0.568619 0.843298 0.510005
Si Si2 0.922374 0.344466 0.191291
Si Si3 0.430566 0.400609 0.658547
Si Si4 0.569154 0.750000 0.236908
Si Si5 0.428171 0.427335 0.331812
Si Si6 0.931477 0.750000 0.057245
Si Si7 0.428690 0.587853 0.975765
O O1 0.750000 0.840913 0.510637
O O2 0.503655 0.750000 0.514733
O O3 0.507246 0.885350 0.429973
O O4 0.506378 0.893857 0.585120
O O5 0.750000 0.358627 0.221021
O O6 0.947188 0.250000 0.163039
O O7 0.036498 0.362351 0.262754
O O8 0.957941 0.403530 0.117434
O O9 0.250000 0.399834 0.658593
O O10 0.494659 0.330664 0.717537
O O11 0.489840 0.487574 0.690823
O O12 0.750000 0.750000 0.240172
O O13 0.511985 0.750000 0.147527
O O14 0.250000 0.442173 0.337768
O O15 0.750000 0.750000 0.049873
O O16 0.994088 0.834396 0.019136
O O17 0.250000 0.588642 0.995662
O O18 0.500000 0.500000 0.000000
#
# Coordination Sequence:
#
# PCOD8242260 Si02
#       7
#     8   8   8   4   8   4   8
#     4   9  17  33  57  82 112 153 198 242 289 344
#     4  10  22  43  65  85 116 158 201 242 291 356
#     4  10  19  37  61  82 110 155 203 242 287 350
#     4   9  20  37  61  86 109 148 200 243 287 349
#     4  11  23  35  54  89 124 152 190 243 299 348
#     4  11  23  41  65  96 127 160 206 259 311 371
#     4  11  24  44  67  94 125 164 207 255 313 375
#
# _framework density 20.035150999999999
#
# number of rings (size 3 to 8) (size 9 to 14) (size 15 to 20)
#    0.000    1.833    1.667    2.250    2.333    2.333 
#    0.000    2.083    0.000    2.000    0.000    0.000 
#    0.000    0.000    0.000    0.000    0.000    0.000 
#
# Total GULP energy -595292.668710 kJ/mol
# GULP energy per Si atom -12401.930598 kJ/mol
# Density = 1.998955 g / cm^3
# Si number density = 20.035151 Si / 1000 Ang^3
#
#
#
# Elastic Constant Matrix: (Units=GPa)
#
#
# Indices 1 2 3 4 5 6 
#
# 1 48.5051 32.6117 37.1796 0.0000 0.0000 0.0000
# 2 32.6117 132.8954 48.5942 0.0000 0.0000 0.0000
# 3 37.1796 48.5942 127.3718 0.0000 0.0000 0.0000
# 4 0.0000 0.0000 0.0000 35.9785 0.0000 0.0000
# 5 0.0000 0.0000 0.0000 0.0000 27.8733 0.0000
# 6 0.0000 0.0000 0.0000 0.0000 0.0000 32.7414
#
#
#
# Elastic Compliance Matrix: (Units=1/GPa)
#
#
# Indices 1 2 3 4 5 6 
#
# 1 0.028832 -0.004646 -0.006644 0.000000 0.000000 0.000000
# 2 -0.004646 0.009493 -0.002266 0.000000 0.000000 0.000000
# 3 -0.006644 -0.002266 0.010655 0.000000 0.000000 0.000000
# 4 0.000000 0.000000 0.000000 0.027794 0.000000 0.000000
# 5 0.000000 0.000000 0.000000 0.000000 0.035877 0.000000
# 6 0.000000 0.000000 0.000000 0.000000 0.000000 0.030542
#
#
# Mechanical properties :
#
#
# Convention : Reuss Voigt Hill
#
# Bulk Modulus (GPa) = 45.72510 60.61592 53.17051
# Shear Modulus (GPa) = 28.15405 32.01109 30.08257
#
# Velocity S-wave (km/s) = 3.75271 4.00152 3.87911
# Velocity P-wave (km/s) = 6.45361 7.18818 6.83078
#
# Compressibility (1/GPa) = 0.02186983
#
# Stress axis : x y z
#
# Youngs Moduli (GPa) = 34.68310 105.33767 93.85561
#
# Poissons Ratio (x) = 0.48940 0.62354
# Poissons Ratio (y) = 0.16114 0.21264
# Poissons Ratio (z) = 0.23042 0.23866
#
# Static dielectric constant tensor:
#      x y z
#    x 3.326320 0.000000 0.000000 
#    y 0.000000 3.740930 0.000000 
#    z 0.000000 0.000000 3.811700 
# 
# 
# High freq. dielectric constant tensor:
#      x y z
#    x 1.753700 0.000000 0.000000 
#    y 0.000000 1.795800 0.000000 
#    z 0.000000 0.000000 1.794020 
# 
# From -- ./inp_files/25616.got.cif
#   From: 2010.03.12/outbox.cif.g09.slc.cpg/sg59_13_cif.got.tgz:25616.got - 2010.04.16 16:29:54.
