data_PCOD8242840
_publ_section_title
;
Structure prediction by ZEFSAII (Michael W. Deem and Ramdas Pophale) SiO2 
 PCOD8242840
Probable space group: P M M N
;
_chemical_formula_sum "Si O2"
_cell_formula_units_Z 64
_cell_length_a 9.011231
_cell_length_b 15.994261
_cell_length_c 23.163786
_cell_angle_alpha 90.000000
_cell_angle_beta 90.000000
_cell_angle_gamma 90.000000
_cell_volume 3338.549698
_symmetry_space_group_name_H-M "P M M N"
_symmetry_group_IT_number 59
_space_group.IT_coordinate_system_code '2'
_symmetry_cell_setting 'orthorhombic'
loop_
_space_group_symop_operation_xyz
x,y,z
1/2-x,1/2-y,z
1/2+x,-y,-z
-x,1/2+y,-z
-x,-y,-z
1/2+x,1/2+y,-z
1/2-x,y,z
x,1/2-y,z
loop_
_atom_site_type_symbol
_atom_site_label
_atom_site_fract_x
_atom_site_fract_y
_atom_site_fract_z
Si Si1 0.073927 0.587755 0.573459
Si Si2 0.425291 0.491343 0.864690
Si Si3 0.920555 0.000490 0.746392
Si Si4 0.076124 0.155610 0.948569
Si Si5 0.422872 0.927658 0.373354
Si Si6 0.580147 0.842041 0.676835
Si Si7 0.582629 0.655691 0.464467
Si Si8 0.575084 0.343942 0.070113
O O1 0.250000 0.590066 0.569978
O O2 0.014713 0.500341 0.596033
O O3 0.017383 0.657326 0.618817
O O4 0.008193 0.601644 0.510243
O O5 0.250000 0.490189 0.862527
O O6 0.483390 0.473590 0.800857
O O7 0.483285 0.414484 0.904081
O O8 0.481761 0.582530 0.887031
O O9 0.750000 0.996780 0.765591
O O10 0.945629 0.069130 0.695809
O O11 0.974979 0.909748 0.723495
O O12 0.250000 0.144805 0.959152
O O13 0.040187 0.250000 0.925960
O O14 0.996483 0.138460 0.008616
O O15 0.250000 0.934702 0.388536
O O16 0.497018 0.846128 0.402321
O O17 0.750000 0.864147 0.659560
O O18 0.567577 0.750000 0.704854
O O19 0.750000 0.620485 0.458547
O O20 0.586123 0.750000 0.486441
O O21 0.750000 0.350643 0.062129
O O22 0.531453 0.250000 0.092665
#
# Coordination Sequence:
#
# PCOD8242840 Si02
#       8
#     8   8   8   8   8   8   8   8
#     4  11  21  33  53  80 107 134 168 208 253 311
#     4  10  20  33  51  75 104 137 170 210 257 302
#     4   9  20  36  53  74  99 132 174 214 252 299
#     4   9  18  33  52  75 102 133 172 214 254 298
#     4  10  21  39  58  74  99 135 173 214 259 305
#     4   9  18  34  53  73 102 137 171 212 260 307
#     4  11  23  37  54  78 106 133 164 207 260 315
#     4   9  18  32  50  76 109 139 166 201 250 305
#
# _framework density 19.170000000000002
#
# number of rings (size 3 to 8) (size 9 to 14) (size 15 to 20)
#    0.000    2.250    0.000    3.750    0.000    6.750 
#    0.000    0.625    0.000    2.250    0.000    0.000 
#    0.000    0.000    0.000    0.000    0.000    0.000 
#
# Total GULP energy -793352.022570 kJ/mol
# GULP energy per Si atom -12396.125353 kJ/mol
# Density = 1.912637 g / cm^3
# Si number density = 19.170000 Si / 1000 Ang^3
#
#
#
# Elastic Constant Matrix: (Units=GPa)
#
#
# Indices 1 2 3 4 5 6 
#
# 1 68.3395 23.6862 39.0883 0.0000 0.0000 0.0000
# 2 23.6862 72.9414 39.3730 0.0000 0.0000 0.0000
# 3 39.0883 39.3730 109.3238 0.0000 0.0000 0.0000
# 4 0.0000 0.0000 0.0000 21.7141 0.0000 0.0000
# 5 0.0000 0.0000 0.0000 0.0000 35.3567 0.0000
# 6 0.0000 0.0000 0.0000 0.0000 0.0000 20.6106
#
#
#
# Elastic Compliance Matrix: (Units=1/GPa)
#
#
# Indices 1 2 3 4 5 6 
#
# 1 0.018942 -0.003097 -0.005657 0.000000 0.000000 0.000000
# 2 -0.003097 0.017525 -0.005204 0.000000 0.000000 0.000000
# 3 -0.005657 -0.005204 0.013044 0.000000 0.000000 0.000000
# 4 0.000000 0.000000 0.000000 0.046053 0.000000 0.000000
# 5 0.000000 0.000000 0.000000 0.000000 0.028283 0.000000
# 6 0.000000 0.000000 0.000000 0.000000 0.000000 0.048519
#
#
# Mechanical properties :
#
#
# Convention : Reuss Voigt Hill
#
# Bulk Modulus (GPa) = 46.31001 50.54441 48.42721
# Shear Modulus (GPa) = 24.09863 25.43341 24.76602
#
# Velocity S-wave (km/s) = 3.54941 3.64638 3.59822
# Velocity P-wave (km/s) = 6.40373 6.64468 6.52532
#
# Compressibility (1/GPa) = 0.02159361
#
# Stress axis : x y z
#
# Youngs Moduli (GPa) = 52.79241 57.06296 76.66324
#
# Poissons Ratio (x) = 0.17674 0.43370
# Poissons Ratio (y) = 0.16352 0.39896
# Poissons Ratio (z) = 0.29866 0.29696
#
# Static dielectric constant tensor:
#      x y z
#    x 3.524770 0.000000 0.000000 
#    y 0.000000 3.778580 0.000000 
#    z 0.000000 0.000000 3.460000 
# 
# 
# High freq. dielectric constant tensor:
#      x y z
#    x 1.743730 0.000000 0.000000 
#    y 0.000000 1.746470 0.000000 
#    z 0.000000 0.000000 1.732140 
# 
# From -- ./inp_files/29432.got.cif
#   From: 2010.03.12/outbox.cif.g09.slc.cpg/sg59_15_cif.got.tgz:29432.got - 2010.04.16 16:29:54.
