data_PCOD8242517
_publ_section_title
;
Structure prediction by ZEFSAII (Michael W. Deem and Ramdas Pophale) SiO2 
 PCOD8242517
Probable space group: P M M N
;
_chemical_formula_sum "Si O2"
_cell_formula_units_Z 48
_cell_length_a 9.112224
_cell_length_b 7.850579
_cell_length_c 34.823637
_cell_angle_alpha 90.000000
_cell_angle_beta 90.000000
_cell_angle_gamma 90.000000
_cell_volume 2491.151858
_symmetry_space_group_name_H-M "P M M N"
_symmetry_group_IT_number 59
_space_group.IT_coordinate_system_code '2'
_symmetry_cell_setting 'orthorhombic'
loop_
_space_group_symop_operation_xyz
x,y,z
1/2-x,1/2-y,z
1/2+x,-y,-z
-x,1/2+y,-z
-x,-y,-z
1/2+x,1/2+y,-z
1/2-x,y,z
x,1/2-y,z
loop_
_atom_site_type_symbol
_atom_site_label
_atom_site_fract_x
_atom_site_fract_y
_atom_site_fract_z
Si Si1 0.912874 0.050208 0.037577
Si Si2 0.423602 0.940969 0.615222
Si Si3 0.591719 0.942952 0.464127
Si Si4 0.923672 0.450597 0.300063
Si Si5 0.925297 0.250000 0.745459
Si Si6 0.923273 0.250000 0.832700
Si Si7 0.576868 0.554257 0.886207
O O1 0.750000 0.967209 0.036918
O O2 0.898082 0.250000 0.039216
O O3 0.000154 0.988229 0.075023
O O4 0.000000 0.000000 0.000000
O O5 0.250000 0.958819 0.615151
O O6 0.477709 0.750000 0.610893
O O7 0.475765 0.007623 0.656918
O O8 0.488660 0.034717 0.577446
O O9 0.750000 0.040388 0.464002
O O10 0.624332 0.750000 0.470851
O O11 0.500000 0.000000 0.500000
O O12 0.750000 0.478826 0.294696
O O13 0.961327 0.250000 0.292604
O O14 0.011801 0.575200 0.272148
O O15 0.750000 0.250000 0.741373
O O16 0.980400 0.250000 0.789295
O O17 0.750000 0.250000 0.833202
O O18 0.978222 0.424293 0.853191
O O19 0.750000 0.540839 0.892894
O O20 0.533317 0.750000 0.875433
#
# Coordination Sequence:
#
# PCOD8242517 Si02
#       7
#     8   8   8   8   4   4   8
#     4  10  21  35  52  78 111 145 181 226 277 328
#     4   8  15  30  53  77  99 130 175 223 270 320
#     4  10  20  32  49  74 101 134 175 218 265 317
#     4   9  19  37  61  86 112 147 192 239 285 337
#     4  11  23  37  57  89 123 153 187 233 293 359
#     4   9  20  37  57  81 109 147 191 227 275 345
#     4   9  18  35  57  78 104 141 186 233 275 321
#
# _framework density 19.268194000000001
#
# number of rings (size 3 to 8) (size 9 to 14) (size 15 to 20)
#    0.000    2.667    0.000    2.250    2.333    3.000 
#    0.000    4.167    0.000    3.000    0.000    0.000 
#    0.000    0.000    0.000    0.000    0.000    0.000 
#
# Total GULP energy -594634.904202 kJ/mol
# GULP energy per Si atom -12388.227171 kJ/mol
# Density = 1.922434 g / cm^3
# Si number density = 19.268194 Si / 1000 Ang^3
#
#
#
# Elastic Constant Matrix: (Units=GPa)
#
#
# Indices 1 2 3 4 5 6 
#
# 1 53.5259 40.0484 65.4951 0.0000 0.0000 0.0000
# 2 40.0484 94.4689 77.3067 0.0000 0.0000 0.0000
# 3 65.4951 77.3067 193.5688 0.0000 0.0000 0.0000
# 4 0.0000 0.0000 0.0000 39.0187 0.0000 0.0000
# 5 0.0000 0.0000 0.0000 0.0000 29.2856 0.0000
# 6 0.0000 0.0000 0.0000 0.0000 0.0000 22.4440
#
#
#
# Elastic Compliance Matrix: (Units=1/GPa)
#
#
# Indices 1 2 3 4 5 6 
#
# 1 0.035297 -0.007710 -0.008864 0.000000 0.000000 0.000000
# 2 -0.007710 0.017409 -0.004344 0.000000 0.000000 0.000000
# 3 -0.008864 -0.004344 0.009900 0.000000 0.000000 0.000000
# 4 0.000000 0.000000 0.000000 0.025629 0.000000 0.000000
# 5 0.000000 0.000000 0.000000 0.000000 0.034146 0.000000
# 6 0.000000 0.000000 0.000000 0.000000 0.000000 0.044555
#
#
# Mechanical properties :
#
#
# Convention : Reuss Voigt Hill
#
# Bulk Modulus (GPa) = 48.14532 78.58489 63.36510
# Shear Modulus (GPa) = 23.18083 28.73055 25.95569
#
# Velocity S-wave (km/s) = 3.47228 3.86565 3.67423
# Velocity P-wave (km/s) = 6.41224 7.79728 7.13843
#
# Compressibility (1/GPa) = 0.02077045
#
# Stress axis : x y z
#
# Youngs Moduli (GPa) = 28.33095 57.44218 101.00948
#
# Poissons Ratio (x) = 0.44289 0.89532
# Poissons Ratio (y) = 0.21844 0.43877
# Poissons Ratio (z) = 0.25112 0.24952
#
# Static dielectric constant tensor:
#      x y z
#    x 3.271480 0.000000 0.000000 
#    y 0.000000 3.482330 0.000000 
#    z 0.000000 0.000000 6.041510 
# 
# 
# High freq. dielectric constant tensor:
#      x y z
#    x 1.716430 0.000000 0.000000 
#    y 0.000000 1.752360 0.000000 
#    z 0.000000 0.000000 1.759480 
# 
# From -- ./inp_files/33015.got.cif
#   From: 2010.03.12/outbox.cif.g09.slc.cpg/sg59_17_cif.got.tgz:33015.got - 2010.04.16 16:29:54.
