data_PCOD8242417
_publ_section_title
;
Structure prediction by ZEFSAII (Michael W. Deem and Ramdas Pophale) SiO2 
 PCOD8242417
Probable space group: P M M N
;
_chemical_formula_sum "Si O2"
_cell_formula_units_Z 56
_cell_length_a 14.683929
_cell_length_b 13.407730
_cell_length_c 15.346409
_cell_angle_alpha 90.000000
_cell_angle_beta 90.000000
_cell_angle_gamma 90.000000
_cell_volume 3021.372695
_symmetry_space_group_name_H-M "P M M N"
_symmetry_group_IT_number 59
_space_group.IT_coordinate_system_code '2'
_symmetry_cell_setting 'orthorhombic'
loop_
_space_group_symop_operation_xyz
x,y,z
1/2-x,1/2-y,z
1/2+x,-y,-z
-x,1/2+y,-z
-x,-y,-z
1/2+x,1/2+y,-z
1/2-x,y,z
x,1/2-y,z
loop_
_atom_site_type_symbol
_atom_site_label
_atom_site_fract_x
_atom_site_fract_y
_atom_site_fract_z
Si Si1 0.647275 0.363246 0.598911
Si Si2 0.968776 0.136742 0.272429
Si Si3 0.464482 0.563161 0.244062
Si Si4 0.356041 0.866094 0.084515
Si Si5 0.645382 0.051035 0.421771
Si Si6 0.150717 0.632421 0.891546
Si Si7 0.353504 0.364804 0.689557
O O1 0.750000 0.394581 0.624295
O O2 0.643791 0.250000 0.565561
O O3 0.586130 0.370841 0.684392
O O4 0.609011 0.432660 0.520267
O O5 0.006645 0.250000 0.267096
O O6 0.904456 0.126343 0.355893
O O7 0.917137 0.102483 0.184555
O O8 0.047125 0.052618 0.275472
O O9 0.419320 0.572948 0.150120
O O10 0.570680 0.599936 0.240029
O O11 0.250000 0.888094 0.103221
O O12 0.377193 0.750000 0.097686
O O13 0.382727 0.903124 0.987194
O O14 0.750000 0.084005 0.418931
O O15 0.632200 0.934947 0.395550
O O16 0.250000 0.585481 0.870922
O O17 0.161567 0.750000 0.896043
O O18 0.250000 0.379153 0.726591
O O19 0.368957 0.250000 0.661826
#
# Coordination Sequence:
#
# PCOD8242417 Si02
#       7
#     8   8   8   8   8   8   8
#     4  10  20  34  53  77 101 123 156 206 255 295
#     4  10  20  32  47  69  98 131 166 204 245 289
#     4  11  21  32  50  72  99 133 167 200 242 291
#     4   9  17  31  53  79 101 122 155 201 251 298
#     4   9  18  32  51  74  97 126 164 204 250 297
#     4   8  15  29  50  75 100 124 155 201 252 294
#     4   9  18  32  48  69 100 135 168 200 236 286
#
# _framework density 18.534621999999999
#
# number of rings (size 3 to 8) (size 9 to 14) (size 15 to 20)
#    0.000    2.571    0.000    3.429    0.000    6.000 
#    0.000    2.143    0.000    2.571    0.000    0.000 
#    0.000    5.714    0.000    0.000    0.000    0.714 
#
# Total GULP energy -694011.599370 kJ/mol
# GULP energy per Si atom -12393.064274 kJ/mol
# Density = 1.849244 g / cm^3
# Si number density = 18.534622 Si / 1000 Ang^3
#
#
#
# Elastic Constant Matrix: (Units=GPa)
#
#
# Indices 1 2 3 4 5 6 
#
# 1 54.8411 15.4669 23.4776 0.0000 0.0000 0.0000
# 2 15.4669 85.5063 5.5387 0.0000 0.0000 0.0000
# 3 23.4776 5.5387 83.4369 0.0000 0.0000 0.0000
# 4 0.0000 0.0000 0.0000 22.2755 0.0000 0.0000
# 5 0.0000 0.0000 0.0000 0.0000 10.1566 0.0000
# 6 0.0000 0.0000 0.0000 0.0000 0.0000 19.4310
#
#
#
# Elastic Compliance Matrix: (Units=1/GPa)
#
#
# Indices 1 2 3 4 5 6 
#
# 1 0.021757 -0.003554 -0.005886 0.000000 0.000000 0.000000
# 2 -0.003554 0.012326 0.000182 0.000000 0.000000 0.000000
# 3 -0.005886 0.000182 0.013629 0.000000 0.000000 0.000000
# 4 0.000000 0.000000 0.000000 0.044892 0.000000 0.000000
# 5 0.000000 0.000000 0.000000 0.000000 0.098459 0.000000
# 6 0.000000 0.000000 0.000000 0.000000 0.000000 0.051464
#
#
# Mechanical properties :
#
#
# Convention : Reuss Voigt Hill
#
# Bulk Modulus (GPa) = 34.25197 34.75008 34.50102
# Shear Modulus (GPa) = 18.46545 22.32600 20.39572
#
# Velocity S-wave (km/s) = 3.15980 3.47444 3.32084
# Velocity P-wave (km/s) = 5.64203 5.90636 5.77571
#
# Compressibility (1/GPa) = 0.02919540
#
# Stress axis : x y z
#
# Youngs Moduli (GPa) = 45.96282 81.12811 73.37168
#
# Poissons Ratio (x) = 0.28835 0.43187
# Poissons Ratio (y) = 0.16336 -0.01334
# Poissons Ratio (z) = 0.27054 -0.01475
#
# Static dielectric constant tensor:
#      x y z
#    x 3.515920 0.000000 0.000000 
#    y 0.000000 3.301460 0.000000 
#    z 0.000000 0.000000 3.505100 
# 
# 
# High freq. dielectric constant tensor:
#      x y z
#    x 1.702070 0.000000 0.000000 
#    y 0.000000 1.709390 0.000000 
#    z 0.000000 0.000000 1.714260 
# 
# From -- ./inp_files/23349.got.cif
#   From: 2010.03.12/outbox.cif.g09.slc.cpg/sg59_12_cif.got.tgz:23349.got - 2010.04.16 16:29:54.
