data_PCOD8242599
_publ_section_title
;
Structure prediction by ZEFSAII (Michael W. Deem and Ramdas Pophale) SiO2 
 PCOD8242599
Probable space group: P M M N
;
_chemical_formula_sum "Si O2"
_cell_formula_units_Z 64
_cell_length_a 29.255686
_cell_length_b 8.934972
_cell_length_c 14.771191
_cell_angle_alpha 90.000000
_cell_angle_beta 90.000000
_cell_angle_gamma 90.000000
_cell_volume 3861.170646
_symmetry_space_group_name_H-M "P M M N"
_symmetry_group_IT_number 59
_space_group.IT_coordinate_system_code '2'
_symmetry_cell_setting 'orthorhombic'
loop_
_space_group_symop_operation_xyz
x,y,z
1/2-x,1/2-y,z
1/2+x,-y,-z
-x,1/2+y,-z
-x,-y,-z
1/2+x,1/2+y,-z
1/2-x,y,z
x,1/2-y,z
loop_
_atom_site_type_symbol
_atom_site_label
_atom_site_fract_x
_atom_site_fract_y
_atom_site_fract_z
Si Si1 0.302218 0.420617 0.799725
Si Si2 0.433749 0.424024 0.549152
Si Si3 0.122602 0.576162 0.696343
Si Si4 0.537511 0.575424 0.812351
Si Si5 0.966431 0.076110 0.622872
Si Si6 0.801398 0.073355 0.011123
Si Si7 0.562620 0.422373 0.129874
Si Si8 0.389536 0.075027 0.037110
O O1 0.250000 0.431672 0.769147
O O2 0.316252 0.250000 0.821299
O O3 0.331340 0.486341 0.717710
O O4 0.312110 0.519679 0.887736
O O5 0.421355 0.250000 0.548094
O O6 0.394863 0.515239 0.600872
O O7 0.480966 0.456229 0.600639
O O8 0.435134 0.483898 0.446754
O O9 0.134078 0.750000 0.687198
O O10 0.085047 0.544596 0.773264
O O11 0.536843 0.750000 0.785849
O O12 0.544680 0.478272 0.723194
O O13 0.490524 0.532629 0.863067
O O14 0.578939 0.532887 0.878212
O O15 0.954495 0.250000 0.613541
O O16 0.750000 0.023517 0.981483
O O17 0.806272 0.250000 0.008338
O O18 0.839943 0.001503 0.946666
O O19 0.568750 0.250000 0.101453
O O20 0.586563 0.522689 0.054842
O O21 0.381540 0.250000 0.029868
#
# Coordination Sequence:
#
# PCOD8242599 Si02
#       8
#     8   8   8   8   8   8   8   8
#     4  10  20  33  50  72  99 130 165 207 252 300
#     4  10  20  33  51  73 100 131 164 205 249 295
#     4  11  20  31  51  75 101 134 170 207 246 296
#     4  10  21  36  50  69 100 137 173 210 251 293
#     4  10  20  33  51  74  97 128 168 209 249 291
#     4  10  20  34  51  70  95 128 165 207 254 300
#     4  10  20  33  48  68 100 139 174 206 241 289
#     4  11  22  33  50  73  99 133 171 210 251 298
#
# _framework density 16.575284
#
# number of rings (size 3 to 8) (size 9 to 14) (size 15 to 20)
#    0.000    1.750    2.500    2.625    0.000    4.500 
#    0.000    0.000    0.000    0.000    0.000    0.875 
#    0.000    3.000    0.000    0.000    0.000    0.000 
#
# Total GULP energy -793839.760713 kJ/mol
# GULP energy per Si atom -12403.746261 kJ/mol
# Density = 1.653756 g / cm^3
# Si number density = 16.575284 Si / 1000 Ang^3
#
#
#
# Elastic Constant Matrix: (Units=GPa)
#
#
# Indices 1 2 3 4 5 6 
#
# 1 104.4597 45.1068 40.3361 0.0000 0.0000 0.0000
# 2 45.1068 71.2221 32.4319 0.0000 0.0000 0.0000
# 3 40.3361 32.4319 64.0708 0.0000 0.0000 0.0000
# 4 0.0000 0.0000 0.0000 29.6404 0.0000 0.0000
# 5 0.0000 0.0000 0.0000 0.0000 19.8005 0.0000
# 6 0.0000 0.0000 0.0000 0.0000 0.0000 27.8748
#
#
#
# Elastic Compliance Matrix: (Units=1/GPa)
#
#
# Indices 1 2 3 4 5 6 
#
# 1 0.014718 -0.006630 -0.005910 0.000000 0.000000 0.000000
# 2 -0.006630 0.021233 -0.006574 0.000000 0.000000 0.000000
# 3 -0.005910 -0.006574 0.022656 0.000000 0.000000 0.000000
# 4 0.000000 0.000000 0.000000 0.033738 0.000000 0.000000
# 5 0.000000 0.000000 0.000000 0.000000 0.050504 0.000000
# 6 0.000000 0.000000 0.000000 0.000000 0.000000 0.035875
#
#
# Mechanical properties :
#
#
# Convention : Reuss Voigt Hill
#
# Bulk Modulus (GPa) = 49.06903 52.83356 50.95129
# Shear Modulus (GPa) = 22.34695 23.58831 22.96763
#
# Velocity S-wave (km/s) = 3.67578 3.77649 3.72648
# Velocity P-wave (km/s) = 6.90530 7.13863 7.02293
#
# Compressibility (1/GPa) = 0.02037945
#
# Stress axis : x y z
#
# Youngs Moduli (GPa) = 67.94375 47.09596 44.13880
#
# Poissons Ratio (x) = 0.31226 0.26084
# Poissons Ratio (y) = 0.45049 0.29016
# Poissons Ratio (z) = 0.40152 0.30960
#
# Static dielectric constant tensor:
#      x y z
#    x 3.207480 0.000000 0.000000 
#    y 0.000000 3.205380 0.000000 
#    z 0.000000 0.000000 2.908080 
# 
# 
# High freq. dielectric constant tensor:
#      x y z
#    x 1.630170 0.000000 0.000000 
#    y 0.000000 1.653900 0.000000 
#    z 0.000000 0.000000 1.613610 
# 
# From -- ./inp_files/25059.got.cif
#   From: 2010.03.12/outbox.cif.g09.slc.cpg/sg59_13_cif.got.tgz:25059.got - 2010.04.16 16:29:54.
