data_PCOD8242557
_publ_section_title
;
Structure prediction by ZEFSAII (Michael W. Deem and Ramdas Pophale) SiO2 
 PCOD8242557
Probable space group: P M M N
;
_chemical_formula_sum "Si O2"
_cell_formula_units_Z 56
_cell_length_a 13.636405
_cell_length_b 9.192263
_cell_length_c 25.189052
_cell_angle_alpha 90.000000
_cell_angle_beta 90.000000
_cell_angle_gamma 90.000000
_cell_volume 3157.433087
_symmetry_space_group_name_H-M "P M M N"
_symmetry_group_IT_number 59
_space_group.IT_coordinate_system_code '2'
_symmetry_cell_setting 'orthorhombic'
loop_
_space_group_symop_operation_xyz
x,y,z
1/2-x,1/2-y,z
1/2+x,-y,-z
-x,1/2+y,-z
-x,-y,-z
1/2+x,1/2+y,-z
1/2-x,y,z
x,1/2-y,z
loop_
_atom_site_type_symbol
_atom_site_label
_atom_site_fract_x
_atom_site_fract_y
_atom_site_fract_z
Si Si1 0.636816 0.420785 0.679160
Si Si2 0.982946 0.410959 0.052629
Si Si3 0.480623 0.920239 0.216431
Si Si4 0.137388 0.577690 0.847395
Si Si5 0.639538 0.417020 0.477601
Si Si6 0.640560 0.589093 0.863862
Si Si7 0.557944 0.919744 0.576467
O O1 0.750000 0.466727 0.690896
O O2 0.631790 0.250000 0.668140
O O3 0.564829 0.465571 0.727081
O O4 0.594598 0.502917 0.628870
O O5 0.947225 0.250000 0.036267
O O6 0.905394 0.477182 0.095683
O O7 0.088224 0.407549 0.079810
O O8 0.000000 0.500000 0.000000
O O9 0.502067 0.750000 0.213495
O O10 0.581367 0.004771 0.202504
O O11 0.400075 0.963509 0.173451
O O12 0.250000 0.532051 0.843525
O O13 0.120730 0.750000 0.843081
O O14 0.750000 0.446158 0.455648
O O15 0.628606 0.250000 0.496552
O O16 0.558683 0.450326 0.432082
O O17 0.620598 0.520012 0.527491
O O18 0.750000 0.546161 0.877011
O O19 0.630712 0.750000 0.836928
O O20 0.579901 0.750000 0.581600
#
# Coordination Sequence:
#
# PCOD8242557 Si02
#       7
#     8   8   8   8   8   8   8
#     4  10  21  36  52  72 103 138 164 195 250 309
#     4   9  18  31  47  71 101 130 162 201 245 293
#     4  10  20  34  53  77 102 127 163 210 252 295
#     4   9  19  37  57  74  98 135 173 207 249 302
#     4   9  18  34  53  71  99 138 170 201 250 304
#     4   9  18  33  51  70  96 130 163 197 243 297
#     4  10  20  32  50  78 104 128 169 216 248 288
#
# _framework density 17.735927
#
# number of rings (size 3 to 8) (size 9 to 14) (size 15 to 20)
#    0.000    2.571    0.000    2.571    0.000    8.000 
#    0.000    0.714    0.000    2.571    0.000    0.000 
#    0.000    0.000    0.000    0.000    0.000    0.000 
#
# Total GULP energy -694089.717483 kJ/mol
# GULP energy per Si atom -12394.459241 kJ/mol
# Density = 1.769556 g / cm^3
# Si number density = 17.735927 Si / 1000 Ang^3
#
#
#
# Elastic Constant Matrix: (Units=GPa)
#
#
# Indices 1 2 3 4 5 6 
#
# 1 161.1015 41.7791 58.1073 0.0000 0.0000 0.0000
# 2 41.7791 46.4603 51.1985 0.0000 0.0000 0.0000
# 3 58.1073 51.1985 109.3226 0.0000 0.0000 0.0000
# 4 0.0000 0.0000 0.0000 31.1480 0.0000 0.0000
# 5 0.0000 0.0000 0.0000 0.0000 15.9626 0.0000
# 6 0.0000 0.0000 0.0000 0.0000 0.0000 26.7900
#
#
#
# Elastic Compliance Matrix: (Units=1/GPa)
#
#
# Indices 1 2 3 4 5 6 
#
# 1 0.008280 -0.005364 -0.001889 0.000000 0.000000 0.000000
# 2 -0.005364 0.047954 -0.019607 0.000000 0.000000 0.000000
# 3 -0.001889 -0.019607 0.019333 0.000000 0.000000 0.000000
# 4 0.000000 0.000000 0.000000 0.032105 0.000000 0.000000
# 5 0.000000 0.000000 0.000000 0.000000 0.062647 0.000000
# 6 0.000000 0.000000 0.000000 0.000000 0.000000 0.037327
#
#
# Mechanical properties :
#
#
# Convention : Reuss Voigt Hill
#
# Bulk Modulus (GPa) = 45.77138 68.78382 57.27760
# Shear Modulus (GPa) = 18.61175 25.83340 22.22258
#
# Velocity S-wave (km/s) = 3.24293 3.82063 3.54357
# Velocity P-wave (km/s) = 6.31548 7.63736 7.00766
#
# Compressibility (1/GPa) = 0.02184771
#
# Stress axis : x y z
#
# Youngs Moduli (GPa) = 120.77928 20.85336 51.72380
#
# Poissons Ratio (x) = 0.11186 0.09769
# Poissons Ratio (y) = 0.64788 1.01414
# Poissons Ratio (z) = 0.22810 0.40887
#
# Static dielectric constant tensor:
#      x y z
#    x 3.650250 0.000000 0.000000 
#    y 0.000000 3.301280 0.000000 
#    z 0.000000 0.000000 3.138000 
# 
# 
# High freq. dielectric constant tensor:
#      x y z
#    x 1.695750 0.000000 0.000000 
#    y 0.000000 1.685770 0.000000 
#    z 0.000000 0.000000 1.668800 
# 
# From -- ./inp_files/30363.got.cif
#   From: 2010.03.12/outbox.cif.g09.slc.cpg/sg59_16_cif.got.tgz:30363.got - 2010.04.16 16:29:54.
