data_PCOD8242746
_publ_section_title
;
Structure prediction by ZEFSAII (Michael W. Deem and Ramdas Pophale) SiO2 
 PCOD8242746
Probable space group: P M M N
;
_chemical_formula_sum "Si O2"
_cell_formula_units_Z 64
_cell_length_a 9.240058
_cell_length_b 13.844482
_cell_length_c 26.435484
_cell_angle_alpha 90.000000
_cell_angle_beta 90.000000
_cell_angle_gamma 90.000000
_cell_volume 3381.728009
_symmetry_space_group_name_H-M "P M M N"
_symmetry_group_IT_number 59
_space_group.IT_coordinate_system_code '2'
_symmetry_cell_setting 'orthorhombic'
loop_
_space_group_symop_operation_xyz
x,y,z
1/2-x,1/2-y,z
1/2+x,-y,-z
-x,1/2+y,-z
-x,-y,-z
1/2+x,1/2+y,-z
1/2-x,y,z
x,1/2-y,z
loop_
_atom_site_type_symbol
_atom_site_label
_atom_site_fract_x
_atom_site_fract_y
_atom_site_fract_z
Si Si1 0.422235 0.640192 0.726603
Si Si2 0.085899 0.635990 0.523824
Si Si3 0.418727 0.357326 0.574508
Si Si4 0.417589 0.548177 0.830067
Si Si5 0.412691 0.135595 0.078302
Si Si6 0.416048 0.358737 0.883934
Si Si7 0.913685 0.134944 0.982519
Si Si8 0.580362 0.455406 0.374184
O O1 0.250000 0.639521 0.724231
O O2 0.480262 0.750000 0.729908
O O3 0.475574 0.578922 0.774960
O O4 0.489605 0.588483 0.676789
O O5 0.250000 0.598492 0.517085
O O6 0.079411 0.750000 0.527305
O O7 0.016544 0.595411 0.575670
O O8 0.994609 0.600320 0.475618
O O9 0.250000 0.354859 0.562150
O O10 0.475712 0.250000 0.588872
O O11 0.451339 0.429426 0.621387
O O12 0.250000 0.577094 0.836579
O O13 0.506644 0.607735 0.870736
O O14 0.439334 0.432547 0.837278
O O15 0.250000 0.093747 0.078698
O O16 0.409915 0.250000 0.074202
O O17 0.496334 0.091172 0.029698
O O18 0.250000 0.359766 0.902434
O O19 0.460296 0.250000 0.866811
O O20 0.513754 0.397719 0.929931
O O21 0.750000 0.095526 0.984847
O O22 0.916446 0.250000 0.985464
O O23 0.750000 0.433561 0.372216
#
# Coordination Sequence:
#
# PCOD8242746 Si02
#       8
#     8   8   8   8   8   8   8   8
#     4   9  17  30  49  72  95 118 151 198 242 276
#     4   9  16  26  43  67  92 120 156 194 230 272
#     4   9  17  28  42  64  96 128 154 185 229 279
#     4  10  20  33  51  73  94 122 161 201 240 282
#     4  10  20  33  50  73 102 133 160 191 238 291
#     4   9  18  33  50  69  97 128 156 191 237 286
#     4   9  17  30  50  75 100 127 161 198 233 276
#     4   9  16  27  44  66  92 122 156 193 234 277
#
# _framework density 18.925235000000001
#
# number of rings (size 3 to 8) (size 9 to 14) (size 15 to 20)
#    0.000    2.750    0.000    1.875    0.000    5.250 
#    0.000    0.625    0.000    5.250    0.000    1.750 
#    0.000    4.000    0.000    0.000    0.000    0.000 
#
# Total GULP energy -793420.487186 kJ/mol
# GULP energy per Si atom -12397.195112 kJ/mol
# Density = 1.888216 g / cm^3
# Si number density = 18.925235 Si / 1000 Ang^3
#
#
#
# Elastic Constant Matrix: (Units=GPa)
#
#
# Indices 1 2 3 4 5 6 
#
# 1 60.1038 25.7119 41.6029 0.0000 0.0000 0.0000
# 2 25.7119 76.9207 75.3955 0.0000 0.0000 0.0000
# 3 41.6029 75.3955 151.9436 0.0000 0.0000 0.0000
# 4 0.0000 0.0000 0.0000 34.5326 0.0000 0.0000
# 5 0.0000 0.0000 0.0000 0.0000 19.4924 0.0000
# 6 0.0000 0.0000 0.0000 0.0000 0.0000 14.8919
#
#
#
# Elastic Compliance Matrix: (Units=1/GPa)
#
#
# Indices 1 2 3 4 5 6 
#
# 1 0.020806 -0.002669 -0.004372 0.000000 0.000000 0.000000
# 2 -0.002669 0.025653 -0.011998 0.000000 0.000000 0.000000
# 3 -0.004372 -0.011998 0.013732 0.000000 0.000000 0.000000
# 4 0.000000 0.000000 0.000000 0.028958 0.000000 0.000000
# 5 0.000000 0.000000 0.000000 0.000000 0.051302 0.000000
# 6 0.000000 0.000000 0.000000 0.000000 0.000000 0.067151
#
#
# Mechanical properties :
#
#
# Convention : Reuss Voigt Hill
#
# Bulk Modulus (GPa) = 45.22482 63.82097 54.52289
# Shear Modulus (GPa) = 19.75869 23.53388 21.64628
#
# Velocity S-wave (km/s) = 3.23467 3.53018 3.38565
# Velocity P-wave (km/s) = 6.15623 7.10015 6.64497
#
# Compressibility (1/GPa) = 0.02211175
#
# Stress axis : x y z
#
# Youngs Moduli (GPa) = 48.06254 38.98161 72.82092
#
# Poissons Ratio (x) = 0.10404 0.31841
# Poissons Ratio (y) = 0.12828 0.87374
# Poissons Ratio (z) = 0.21015 0.46772
#
# Static dielectric constant tensor:
#      x y z
#    x 3.347470 0.000000 0.000000 
#    y 0.000000 3.639070 0.000000 
#    z 0.000000 0.000000 3.500100 
# 
# 
# High freq. dielectric constant tensor:
#      x y z
#    x 1.701860 0.000000 0.000000 
#    y 0.000000 1.749890 0.000000 
#    z 0.000000 0.000000 1.718160 
# 
# From -- ./inp_files/31671.got.cif
#   From: 2010.03.12/outbox.cif.g09.slc.cpg/sg59_16_cif.got.tgz:31671.got - 2010.04.16 16:29:54.
