data_PCOD8242093
_publ_section_title
;
Structure prediction by ZEFSAII (Michael W. Deem and Ramdas Pophale) SiO2 
 PCOD8242093
Probable space group: P M M N
;
_chemical_formula_sum "Si O2"
_cell_formula_units_Z 48
_cell_length_a 9.805843
_cell_length_b 8.711286
_cell_length_c 29.061656
_cell_angle_alpha 90.000000
_cell_angle_beta 90.000000
_cell_angle_gamma 90.000000
_cell_volume 2482.490331
_symmetry_space_group_name_H-M "P M M N"
_symmetry_group_IT_number 59
_space_group.IT_coordinate_system_code '2'
_symmetry_cell_setting 'orthorhombic'
loop_
_space_group_symop_operation_xyz
x,y,z
1/2-x,1/2-y,z
1/2+x,-y,-z
-x,1/2+y,-z
-x,-y,-z
1/2+x,1/2+y,-z
1/2-x,y,z
x,1/2-y,z
loop_
_atom_site_type_symbol
_atom_site_label
_atom_site_fract_x
_atom_site_fract_y
_atom_site_fract_z
Si Si1 0.529976 0.431831 0.104370
Si Si2 0.906919 0.072145 0.461157
Si Si3 0.250000 0.430745 0.063520
Si Si4 0.594903 0.930818 0.363067
Si Si5 0.594144 0.567547 0.713894
Si Si6 0.097924 0.932200 0.794420
Si Si7 0.750000 0.931720 0.039465
O O1 0.552429 0.250000 0.102340
O O2 0.377457 0.484388 0.093580
O O3 0.567926 0.496817 0.154667
O O4 0.617687 0.508877 0.065042
O O5 0.750000 0.050588 0.475810
O O6 0.943393 0.250000 0.454127
O O7 0.938905 0.982683 0.414450
O O8 0.000000 0.000000 0.500000
O O9 0.250000 0.250000 0.057501
O O10 0.250000 0.501567 0.012201
O O11 0.750000 0.980269 0.349793
O O12 0.576926 0.750000 0.359160
O O13 0.484971 0.011440 0.330858
O O14 0.750000 0.505445 0.714381
O O15 0.594049 0.750000 0.713965
O O16 0.513586 0.502698 0.758597
O O17 0.250000 0.984813 0.779270
O O18 0.088158 0.750000 0.795551
O O19 0.750000 0.750000 0.038973
#
# Coordination Sequence:
#
# PCOD8242093 Si02
#       7
#     8   8   4   8   8   8   4
#     4  10  19  35  57  80 104 139 182 224 270 325
#     4  10  21  37  59  87 118 154 195 239 285 331
#     4   9  20  33  53  81 109 139 177 225 274 321
#     4  10  21  38  59  82 111 151 195 233 274 329
#     4  10  21  35  55  84 113 140 174 225 284 334
#     4   9  17  31  54  81 104 133 178 225 269 322
#     4  11  21  35  51  77 111 143 179 221 268 325
#
# _framework density 19.335421
#
# number of rings (size 3 to 8) (size 9 to 14) (size 15 to 20)
#    0.000    2.167    0.833    2.250    1.167    3.667 
#    0.000    2.083    0.000    0.000    0.000    0.000 
#    0.000    0.000    0.000    0.000    0.000    0.000 
#
# Total GULP energy -595188.045944 kJ/mol
# GULP energy per Si atom -12399.750957 kJ/mol
# Density = 1.929141 g / cm^3
# Si number density = 19.335421 Si / 1000 Ang^3
#
#
#
# Elastic Constant Matrix: (Units=GPa)
#
#
# Indices 1 2 3 4 5 6 
#
# 1 161.3078 21.0281 75.9177 0.0000 0.0000 0.0000
# 2 21.0281 20.9017 7.5950 0.0000 0.0000 0.0000
# 3 75.9177 7.5950 115.6901 0.0000 0.0000 0.0000
# 4 0.0000 0.0000 0.0000 25.9022 0.0000 0.0000
# 5 0.0000 0.0000 0.0000 0.0000 42.2409 0.0000
# 6 0.0000 0.0000 0.0000 0.0000 0.0000 25.9199
#
#
#
# Elastic Compliance Matrix: (Units=1/GPa)
#
#
# Indices 1 2 3 4 5 6 
#
# 1 0.010114 -0.007953 -0.006115 0.000000 0.000000 0.000000
# 2 -0.007953 0.055266 0.001591 0.000000 0.000000 0.000000
# 3 -0.006115 0.001591 0.012552 0.000000 0.000000 0.000000
# 4 0.000000 0.000000 0.000000 0.038607 0.000000 0.000000
# 5 0.000000 0.000000 0.000000 0.000000 0.023674 0.000000
# 6 0.000000 0.000000 0.000000 0.000000 0.000000 0.038580
#
#
# Mechanical properties :
#
#
# Convention : Reuss Voigt Hill
#
# Bulk Modulus (GPa) = 18.87579 56.33124 37.60352
# Shear Modulus (GPa) = 22.58284 31.70318 27.14301
#
# Velocity S-wave (km/s) = 3.42124 4.05364 3.75079
# Velocity P-wave (km/s) = 5.03885 7.14887 6.18451
#
# Compressibility (1/GPa) = 0.05297791
#
# Stress axis : x y z
#
# Youngs Moduli (GPa) = 98.87281 18.09417 79.66853
#
# Poissons Ratio (x) = 0.14391 0.48716
# Poissons Ratio (y) = 0.78636 -0.12674
# Poissons Ratio (z) = 0.60459 -0.02879
#
# Static dielectric constant tensor:
#      x y z
#    x 3.732310 0.000000 0.000000 
#    y 0.000000 3.274970 0.000000 
#    z 0.000000 0.000000 3.679620 
# 
# 
# High freq. dielectric constant tensor:
#      x y z
#    x 1.764570 0.000000 0.000000 
#    y 0.000000 1.723220 0.000000 
#    z 0.000000 0.000000 1.764180 
# 
# From -- ./inp_files/33082.got.cif
#   From: 2010.03.12/outbox.cif.g09.slc.cpg/sg59_17_cif.got.tgz:33082.got - 2010.04.16 16:29:54.
