data_PCOD8242024
_publ_section_title
;
Structure prediction by ZEFSAII (Michael W. Deem and Ramdas Pophale) SiO2 
 PCOD8242024
Probable space group: P M M N
;
_chemical_formula_sum "Si O2"
_cell_formula_units_Z 48
_cell_length_a 8.761639
_cell_length_b 15.833890
_cell_length_c 16.826392
_cell_angle_alpha 90.000000
_cell_angle_beta 90.000000
_cell_angle_gamma 90.000000
_cell_volume 2334.339297
_symmetry_space_group_name_H-M "P M M N"
_symmetry_group_IT_number 59
_space_group.IT_coordinate_system_code '2'
_symmetry_cell_setting 'orthorhombic'
loop_
_space_group_symop_operation_xyz
x,y,z
1/2-x,1/2-y,z
1/2+x,-y,-z
-x,1/2+y,-z
-x,-y,-z
1/2+x,1/2+y,-z
1/2-x,y,z
x,1/2-y,z
loop_
_atom_site_type_symbol
_atom_site_label
_atom_site_fract_x
_atom_site_fract_y
_atom_site_fract_z
Si Si1 0.570240 0.001038 0.413524
Si Si2 0.575071 0.155229 0.674057
Si Si3 0.925387 0.076396 0.836893
Si Si4 0.573374 0.655200 0.680247
Si Si5 0.431392 0.843766 0.001483
Si Si6 0.571014 0.095426 0.168303
O O1 0.750000 0.004005 0.420432
O O2 0.525542 0.915142 0.368734
O O3 0.500000 0.000000 0.500000
O O4 0.517979 0.086107 0.369639
O O5 0.750000 0.141280 0.647899
O O6 0.520708 0.250000 0.650584
O O7 0.560744 0.147938 0.769630
O O8 0.750000 0.046573 0.846284
O O9 0.993410 0.108915 0.920510
O O10 0.029701 0.999579 0.807535
O O11 0.750000 0.629355 0.678535
O O12 0.549376 0.750000 0.645307
O O13 0.514520 0.657259 0.771008
O O14 0.250000 0.840580 0.005213
O O15 0.499815 0.750000 0.001348
O O16 0.488139 0.889353 0.921438
O O17 0.750000 0.112300 0.175842
#
# Coordination Sequence:
#
# PCOD8242024 Si02
#       6
#     8   8   8   8   8   8
#     4  12  26  45  70  97 129 164 201 252 310 374
#     4  10  21  39  65  95 128 168 212 256 307 369
#     4  10  19  34  58  84 118 164 212 258 305 363
#     4  11  24  43  67  94 126 165 211 261 313 371
#     4   9  18  32  51  80 117 160 212 262 307 361
#     4  11  21  34  56  86 123 165 208 258 314 369
#
# _framework density 20.562563999999998
#
# number of rings (size 3 to 8) (size 9 to 14) (size 15 to 20)
#    0.000    1.500    1.667    4.000    0.000    5.000 
#    0.000    0.833    0.000    3.500    0.000    0.000 
#    0.000    0.000    0.000    0.000    0.000    0.000 
#
# Total GULP energy -595237.086345 kJ/mol
# GULP energy per Si atom -12400.772632 kJ/mol
# Density = 2.051576 g / cm^3
# Si number density = 20.562564 Si / 1000 Ang^3
#
#
#
# Elastic Constant Matrix: (Units=GPa)
#
#
# Indices 1 2 3 4 5 6 
#
# 1 105.7645 52.6551 49.1262 0.0000 0.0000 0.0000
# 2 52.6551 137.6295 49.8421 0.0000 0.0000 0.0000
# 3 49.1262 49.8421 129.5115 0.0000 0.0000 0.0000
# 4 0.0000 0.0000 0.0000 20.2476 0.0000 0.0000
# 5 0.0000 0.0000 0.0000 0.0000 31.2147 0.0000
# 6 0.0000 0.0000 0.0000 0.0000 0.0000 18.6627
#
#
#
# Elastic Compliance Matrix: (Units=1/GPa)
#
#
# Indices 1 2 3 4 5 6 
#
# 1 0.012901 -0.003676 -0.003479 0.000000 0.000000 0.000000
# 2 -0.003676 0.009490 -0.002258 0.000000 0.000000 0.000000
# 3 -0.003479 -0.002258 0.009910 0.000000 0.000000 0.000000
# 4 0.000000 0.000000 0.000000 0.049389 0.000000 0.000000
# 5 0.000000 0.000000 0.000000 0.000000 0.032036 0.000000
# 6 0.000000 0.000000 0.000000 0.000000 0.000000 0.053583
#
#
# Mechanical properties :
#
#
# Convention : Reuss Voigt Hill
#
# Bulk Modulus (GPa) = 74.20895 75.12804 74.66849
# Shear Modulus (GPa) = 26.22947 28.77713 27.50330
#
# Velocity S-wave (km/s) = 3.57542 3.74504 3.66121
# Velocity P-wave (km/s) = 7.29469 7.43747 7.36643
#
# Compressibility (1/GPa) = 0.01347546
#
# Stress axis : x y z
#
# Youngs Moduli (GPa) = 77.51396 105.37551 100.90952
#
# Poissons Ratio (x) = 0.38734 0.35106
# Poissons Ratio (y) = 0.28493 0.22784
# Poissons Ratio (z) = 0.26967 0.23792
#
# Static dielectric constant tensor:
#      x y z
#    x 3.524290 0.000000 0.000000 
#    y 0.000000 3.737750 0.000000 
#    z 0.000000 0.000000 4.142650 
# 
# 
# High freq. dielectric constant tensor:
#      x y z
#    x 1.784400 0.000000 0.000000 
#    y 0.000000 1.813780 0.000000 
#    z 0.000000 0.000000 1.810230 
# 
# From -- ./inp_files/25502.got.cif
#   From: 2010.03.12/outbox.cif.g09.slc.cpg/sg59_13_cif.got.tgz:25502.got - 2010.04.16 16:29:54.
