data_PCOD8242815
_publ_section_title
;
Structure prediction by ZEFSAII (Michael W. Deem and Ramdas Pophale) SiO2 
 PCOD8242815
Probable space group: P M M N
;
_chemical_formula_sum "Si O2"
_cell_formula_units_Z 64
_cell_length_a 18.168127
_cell_length_b 9.182217
_cell_length_c 20.759177
_cell_angle_alpha 90.000000
_cell_angle_beta 90.000000
_cell_angle_gamma 90.000000
_cell_volume 3463.122396
_symmetry_space_group_name_H-M "P M M N"
_symmetry_group_IT_number 59
_space_group.IT_coordinate_system_code '2'
_symmetry_cell_setting 'orthorhombic'
loop_
_space_group_symop_operation_xyz
x,y,z
1/2-x,1/2-y,z
1/2+x,-y,-z
-x,1/2+y,-z
-x,-y,-z
1/2+x,1/2+y,-z
1/2-x,y,z
x,1/2-y,z
loop_
_atom_site_type_symbol
_atom_site_label
_atom_site_fract_x
_atom_site_fract_y
_atom_site_fract_z
Si Si1 0.332429 0.923024 1.000000
Si Si2 0.662149 0.085197 0.500000
Si Si3 0.835079 0.080951 0.250153
Si Si4 0.422627 0.921927 0.123241
Si Si5 0.835079 0.080951 0.749847
Si Si6 0.837647 0.585550 0.624146
Si Si7 0.577373 0.078074 0.123241
Si Si8 0.337646 0.414450 0.624146
O O1 0.250000 0.988457 0.000000
O O2 0.328159 0.750000 1.000000
O O3 0.374700 0.978898 0.936772
O O4 0.374701 0.978898 0.063228
O O5 0.750000 0.084407 0.500000
O O6 0.632165 0.250000 0.500000
O O7 0.631339 0.002796 0.562964
O O8 0.631339 0.002796 0.437036
O O9 0.750000 0.045665 0.236093
O O10 0.845775 0.250000 0.266588
O O11 0.880648 0.032701 0.188006
O O12 0.865839 0.989899 0.310533
O O13 0.434970 0.750000 0.119345
O O14 0.380648 0.967300 0.188006
O O15 0.500000 1.000000 0.121333
O O16 0.750000 0.045665 0.763907
O O17 0.845775 0.250000 0.733413
O O18 0.865839 0.989899 0.689467
O O19 0.750000 0.583564 0.622554
O O20 0.867957 0.750000 0.621355
O O21 0.565030 0.250000 0.119344
O O22 0.250000 0.416437 0.622554
O O23 0.367956 0.250000 0.621355
#
# Coordination Sequence:
#
# PCOD8242815 Si02
#       8
#     8   8   8   8   8   8   8   8
#     4   9  17  32  55  79 100 127 166 206 242 285
#     4   9  15  23  37  59  90 127 162 197 240 291
#     4   9  17  30  47  67  92 125 166 206 243 288
#     4  10  20  33  51  74 100 130 163 202 246 292
#     4   9  17  30  47  67  92 125 166 206 243 288
#     4   9  16  25  39  62  92 124 158 200 249 294
#     4  10  20  33  51  74 100 130 163 202 246 292
#     4   9  16  25  39  62  92 124 158 200 249 294
#
# _framework density 18.480432
#
# number of rings (size 3 to 8) (size 9 to 14) (size 15 to 20)
#    0.000    2.750    0.000    2.250    0.000    8.500 
#    0.000    0.000    0.000    3.000    0.000    0.875 
#    0.000    0.000    0.000    0.000    0.000    0.000 
#
# Total GULP energy -793632.881502 kJ/mol
# GULP energy per Si atom -12400.513773 kJ/mol
# Density = 1.843837 g / cm^3
# Si number density = 18.480432 Si / 1000 Ang^3
#
#
#
# Elastic Constant Matrix: (Units=GPa)
#
#
# Indices 1 2 3 4 5 6 
#
# 1 83.5095 38.1469 68.4188 0.0000 0.0000 0.0000
# 2 38.1469 93.3592 83.2532 0.0000 0.0000 0.0000
# 3 68.4188 83.2532 208.2590 0.0000 0.0000 0.0000
# 4 0.0000 0.0000 0.0000 21.0219 0.0000 0.0000
# 5 0.0000 0.0000 0.0000 0.0000 2.9799 0.0000
# 6 0.0000 0.0000 0.0000 0.0000 0.0000 21.5076
#
#
#
# Elastic Compliance Matrix: (Units=1/GPa)
#
#
# Indices 1 2 3 4 5 6 
#
# 1 0.016923 -0.003041 -0.004344 0.000000 0.000000 0.000000
# 2 -0.003041 0.017191 -0.005873 0.000000 0.000000 0.000000
# 3 -0.004344 -0.005873 0.008577 0.000000 0.000000 0.000000
# 4 0.000000 0.000000 0.000000 0.047569 0.000000 0.000000
# 5 0.000000 0.000000 0.000000 0.000000 0.335580 0.000000
# 6 0.000000 0.000000 0.000000 0.000000 0.000000 0.046495
#
#
# Mechanical properties :
#
#
# Convention : Reuss Voigt Hill
#
# Bulk Modulus (GPa) = 61.82618 84.97395 73.40007
# Shear Modulus (GPa) = 9.91584 22.12246 16.01915
#
# Velocity S-wave (km/s) = 2.31889 3.46363 2.94737
# Velocity P-wave (km/s) = 6.37944 7.87883 7.16844
#
# Compressibility (1/GPa) = 0.01617438
#
# Stress axis : x y z
#
# Youngs Moduli (GPa) = 59.09202 58.16836 116.59430
#
# Poissons Ratio (x) = 0.17689 0.50648
# Poissons Ratio (y) = 0.17970 0.68480
# Poissons Ratio (z) = 0.25669 0.34165
#
# Static dielectric constant tensor:
#      x y z
#    x 2.992160 0.000000 0.000000 
#    y 0.000000 3.328470 0.000000 
#    z 0.000000 0.000000 3.668400 
# 
# 
# High freq. dielectric constant tensor:
#      x y z
#    x 1.672780 0.000000 0.000000 
#    y 0.000000 1.704680 0.000000 
#    z 0.000000 0.000000 1.737620 
# 
# From -- ./inp_files/30642.got.cif
#   From: 2010.03.12/outbox.cif.g09.slc.cpg/sg59_16_cif.got.tgz:30642.got - 2010.04.16 16:29:54.
