data_PCOD8242745
_publ_section_title
;
Structure prediction by ZEFSAII (Michael W. Deem and Ramdas Pophale) SiO2 
 PCOD8242745
Probable space group: P M M N
;
_chemical_formula_sum "Si O2"
_cell_formula_units_Z 48
_cell_length_a 8.937762
_cell_length_b 8.911267
_cell_length_c 31.052643
_cell_angle_alpha 90.000000
_cell_angle_beta 90.000000
_cell_angle_gamma 90.000000
_cell_volume 2473.243136
_symmetry_space_group_name_H-M "P M M N"
_symmetry_group_IT_number 59
_space_group.IT_coordinate_system_code '2'
_symmetry_cell_setting 'orthorhombic'
loop_
_space_group_symop_operation_xyz
x,y,z
1/2-x,1/2-y,z
1/2+x,-y,-z
-x,1/2+y,-z
-x,-y,-z
1/2+x,1/2+y,-z
1/2-x,y,z
x,1/2-y,z
loop_
_atom_site_type_symbol
_atom_site_label
_atom_site_fract_x
_atom_site_fract_y
_atom_site_fract_z
Si Si1 0.428330 0.919267 0.626767
Si Si2 0.927608 0.581527 0.288451
Si Si3 0.074186 0.576304 0.121240
Si Si4 0.574432 0.075570 0.201246
Si Si5 0.422281 0.573316 0.959389
Si Si6 0.573309 0.922064 0.459525
O O1 0.250000 0.920437 0.627946
O O2 0.490063 0.750000 0.627300
O O3 0.492980 0.006142 0.668319
O O4 0.487331 0.000312 0.583852
O O5 0.750000 0.586730 0.291245
O O6 0.992134 0.750000 0.283985
O O7 0.977817 0.482023 0.247904
O O8 0.250000 0.550510 0.117938
O O9 0.031685 0.750000 0.115730
O O10 0.017236 0.519219 0.166932
O O11 0.996113 0.481485 0.084312
O O12 0.750000 0.047783 0.193776
O O13 0.533957 0.250000 0.197080
O O14 0.250000 0.525359 0.959183
O O15 0.441985 0.750000 0.962830
O O16 0.500000 0.500000 0.000000
O O17 0.750000 0.939851 0.463265
O O18 0.523474 0.750000 0.458228
O O19 0.500000 0.000000 0.500000
#
# Coordination Sequence:
#
# PCOD8242745 Si02
#       6
#     8   8   8   8   8   8
#     4   9  16  27  45  70 100 133 170 214 262 312
#     4   9  16  27  46  73 104 136 171 214 263 313
#     4  11  24  40  58  82 112 147 187 227 268 318
#     4  10  20  34  54  81 110 140 177 220 266 317
#     4  11  24  41  62  89 118 148 185 227 271 321
#     4  10  20  33  50  73 101 134 173 216 263 317
#
# _framework density 19.407716000000001
#
# number of rings (size 3 to 8) (size 9 to 14) (size 15 to 20)
#    0.000    2.000    0.000    4.000    0.000   12.667 
#    0.000    0.000    0.000    1.000    0.000    0.000 
#    0.000    0.000    0.000    0.000    0.000    0.000 
#
# Total GULP energy -595348.973471 kJ/mol
# GULP energy per Si atom -12403.103614 kJ/mol
# Density = 1.936354 g / cm^3
# Si number density = 19.407716 Si / 1000 Ang^3
#
#
#
# Elastic Constant Matrix: (Units=GPa)
#
#
# Indices 1 2 3 4 5 6 
#
# 1 49.6792 37.6295 39.3682 0.0000 0.0000 0.0000
# 2 37.6295 77.6151 30.7936 0.0000 0.0000 0.0000
# 3 39.3682 30.7936 144.1554 0.0000 0.0000 0.0000
# 4 0.0000 0.0000 0.0000 47.8613 0.0000 0.0000
# 5 0.0000 0.0000 0.0000 0.0000 26.8718 0.0000
# 6 0.0000 0.0000 0.0000 0.0000 0.0000 23.8267
#
#
#
# Elastic Compliance Matrix: (Units=1/GPa)
#
#
# Indices 1 2 3 4 5 6 
#
# 1 0.037163 -0.015286 -0.006884 0.000000 0.000000 0.000000
# 2 -0.015286 0.020365 -0.000176 0.000000 0.000000 0.000000
# 3 -0.006884 -0.000176 0.008854 0.000000 0.000000 0.000000
# 4 0.000000 0.000000 0.000000 0.020894 0.000000 0.000000
# 5 0.000000 0.000000 0.000000 0.000000 0.037214 0.000000
# 6 0.000000 0.000000 0.000000 0.000000 0.000000 0.041970
#
#
# Mechanical properties :
#
#
# Convention : Reuss Voigt Hill
#
# Bulk Modulus (GPa) = 46.10215 54.11472 50.10843
# Shear Modulus (GPa) = 22.89586 30.62253 26.75919
#
# Velocity S-wave (km/s) = 3.43845 3.97653 3.71724
# Velocity P-wave (km/s) = 6.29047 7.00195 6.65572
#
# Compressibility (1/GPa) = 0.02169096
#
# Stress axis : x y z
#
# Youngs Moduli (GPa) = 26.90878 49.10416 112.93874
#
# Poissons Ratio (x) = 0.75062 0.77743
# Poissons Ratio (y) = 0.41133 0.01984
# Poissons Ratio (z) = 0.18523 0.00862
#
# Static dielectric constant tensor:
#      x y z
#    x 3.228490 0.000000 0.000000 
#    y 0.000000 3.443890 0.000000 
#    z 0.000000 0.000000 3.433830 
# 
# 
# High freq. dielectric constant tensor:
#      x y z
#    x 1.714640 0.000000 0.000000 
#    y 0.000000 1.776360 0.000000 
#    z 0.000000 0.000000 1.776960 
# 
# From -- ./inp_files/32861.got.cif
#   From: 2010.03.12/outbox.cif.g09.slc.cpg/sg59_17_cif.got.tgz:32861.got - 2010.04.16 16:29:54.
