data_PCOD8242845
_publ_section_title
;
Structure prediction by ZEFSAII (Michael W. Deem and Ramdas Pophale) SiO2 
 PCOD8242845
Probable space group: P M M N
;
_chemical_formula_sum "Si O2"
_cell_formula_units_Z 64
_cell_length_a 9.448006
_cell_length_b 27.773721
_cell_length_c 13.725795
_cell_angle_alpha 90.000000
_cell_angle_beta 90.000000
_cell_angle_gamma 90.000000
_cell_volume 3601.734842
_symmetry_space_group_name_H-M "P M M N"
_symmetry_group_IT_number 59
_space_group.IT_coordinate_system_code '2'
_symmetry_cell_setting 'orthorhombic'
loop_
_space_group_symop_operation_xyz
x,y,z
1/2-x,1/2-y,z
1/2+x,-y,-z
-x,1/2+y,-z
-x,-y,-z
1/2+x,1/2+y,-z
1/2-x,y,z
x,1/2-y,z
loop_
_atom_site_type_symbol
_atom_site_label
_atom_site_fract_x
_atom_site_fract_y
_atom_site_fract_z
Si Si1 0.413261 0.303938 0.561750
Si Si2 0.412141 0.021726 0.202102
Si Si3 0.914385 0.612134 0.920694
Si Si4 0.083116 0.805009 0.833394
Si Si5 0.087820 0.395134 0.678066
Si Si6 0.094370 0.692966 0.616869
Si Si7 0.417078 0.980109 0.407691
Si Si8 0.086708 0.062515 0.882100
O O1 0.250000 0.302382 0.533640
O O2 0.467037 0.250000 0.589146
O O3 0.442628 0.339355 0.652207
O O4 0.490108 0.325880 0.466719
O O5 0.250000 0.008023 0.181520
O O6 0.443929 0.076338 0.169936
O O7 0.447154 0.015806 0.316608
O O8 0.503737 0.986711 0.134963
O O9 0.750000 0.625697 0.928486
O O10 0.001261 0.661099 0.908319
O O11 0.968702 0.587675 0.020147
O O12 0.250000 0.811127 0.847608
O O13 0.037739 0.750000 0.853766
O O14 0.038793 0.821265 0.724066
O O15 0.250000 0.409334 0.651170
O O16 0.061060 0.400699 0.792922
O O17 0.979842 0.427870 0.617269
O O18 0.250000 0.670609 0.598451
O O19 0.104853 0.750000 0.612679
O O20 0.250000 0.975794 0.430106
O O21 0.500000 0.000000 0.500000
O O22 0.250000 0.048231 0.892850
#
# Coordination Sequence:
#
# PCOD8242845 Si02
#       8
#     8   8   8   8   8   8   8   8
#     4   9  17  29  47  71  96 125 162 199 236 280
#     4   9  19  34  51  73 100 127 158 200 245 288
#     4  10  20  33  51  76 100 123 159 204 246 288
#     4   9  19  35  51  69  97 131 163 195 236 287
#     4   9  18  33  50  69  98 132 162 197 241 287
#     4   8  15  29  47  66  91 122 156 197 240 279
#     4  10  20  34  51  72 100 132 162 194 238 291
#     4   9  18  33  52  73  97 126 161 200 243 289
#
# _framework density 17.769214999999999
#
# number of rings (size 3 to 8) (size 9 to 14) (size 15 to 20)
#    0.000    2.875    0.000    1.500    0.000    3.750 
#    0.000    5.625    0.000    2.250    0.000    1.750 
#    0.000    0.000    0.000    0.000    0.000    0.000 
#
# Total GULP energy -793464.958689 kJ/mol
# GULP energy per Si atom -12397.889980 kJ/mol
# Density = 1.772877 g / cm^3
# Si number density = 17.769215 Si / 1000 Ang^3
#
#
#
# Elastic Constant Matrix: (Units=GPa)
#
#
# Indices 1 2 3 4 5 6 
#
# 1 63.5682 45.8407 43.0694 0.0000 0.0000 0.0000
# 2 45.8407 91.6233 52.2381 0.0000 0.0000 0.0000
# 3 43.0694 52.2381 94.3053 0.0000 0.0000 0.0000
# 4 0.0000 0.0000 0.0000 27.2905 0.0000 0.0000
# 5 0.0000 0.0000 0.0000 0.0000 26.1614 0.0000
# 6 0.0000 0.0000 0.0000 0.0000 0.0000 28.7830
#
#
#
# Elastic Compliance Matrix: (Units=1/GPa)
#
#
# Indices 1 2 3 4 5 6 
#
# 1 0.027633 -0.009690 -0.007252 0.000000 0.000000 0.000000
# 2 -0.009690 0.019350 -0.006293 0.000000 0.000000 0.000000
# 3 -0.007252 -0.006293 0.017402 0.000000 0.000000 0.000000
# 4 0.000000 0.000000 0.000000 0.036643 0.000000 0.000000
# 5 0.000000 0.000000 0.000000 0.000000 0.038224 0.000000
# 6 0.000000 0.000000 0.000000 0.000000 0.000000 0.034743
#
#
# Mechanical properties :
#
#
# Convention : Reuss Voigt Hill
#
# Bulk Modulus (GPa) = 55.82311 59.08813 57.45562
# Shear Modulus (GPa) = 22.08118 23.67021 22.87570
#
# Velocity S-wave (km/s) = 3.52897 3.65374 3.59190
# Velocity P-wave (km/s) = 6.93460 7.15018 7.04321
#
# Compressibility (1/GPa) = 0.01791373
#
# Stress axis : x y z
#
# Youngs Moduli (GPa) = 36.18911 51.67837 57.46519
#
# Poissons Ratio (x) = 0.50078 0.41675
# Poissons Ratio (y) = 0.35068 0.36164
# Poissons Ratio (z) = 0.26245 0.32522
#
# Static dielectric constant tensor:
#      x y z
#    x 3.364100 0.000000 0.000000 
#    y 0.000000 3.167550 0.000000 
#    z 0.000000 0.000000 3.395020 
# 
# 
# High freq. dielectric constant tensor:
#      x y z
#    x 1.686450 0.000000 0.000000 
#    y 0.000000 1.672710 0.000000 
#    z 0.000000 0.000000 1.684600 
# 
# From -- ./inp_files/14984.got.cif
#   From: 2010.03.12/outbox.cif.g09.slc.cpg/sg59_8_cif.got.tgz:14984.got - 2010.04.16 16:29:54.
