data_PCOD8242817
_publ_section_title
;
Structure prediction by ZEFSAII (Michael W. Deem and Ramdas Pophale) SiO2 
 PCOD8242817
Probable space group: P M M N
;
_chemical_formula_sum "Si O2"
_cell_formula_units_Z 64
_cell_length_a 28.123925
_cell_length_b 8.790037
_cell_length_c 15.462835
_cell_angle_alpha 90.000000
_cell_angle_beta 90.000000
_cell_angle_gamma 90.000000
_cell_volume 3822.572718
_symmetry_space_group_name_H-M "P M M N"
_symmetry_group_IT_number 59
_space_group.IT_coordinate_system_code '2'
_symmetry_cell_setting 'orthorhombic'
loop_
_space_group_symop_operation_xyz
x,y,z
1/2-x,1/2-y,z
1/2+x,-y,-z
-x,1/2+y,-z
-x,-y,-z
1/2+x,1/2+y,-z
1/2-x,y,z
x,1/2-y,z
loop_
_atom_site_type_symbol
_atom_site_label
_atom_site_fract_x
_atom_site_fract_y
_atom_site_fract_z
Si Si1 0.696028 0.925806 0.083078
Si Si2 0.449204 0.573737 0.508832
Si Si3 0.110583 0.571075 0.837839
Si Si4 0.303977 0.928179 0.100351
Si Si5 0.557150 0.926940 0.320547
Si Si6 0.893819 0.927601 0.835909
Si Si7 0.948507 0.429167 0.994751
Si Si8 0.054920 0.923102 0.317588
O O1 0.750000 0.950124 0.114850
O O2 0.685761 0.750000 0.062462
O O3 0.661560 0.987024 0.158247
O O4 0.685367 0.022185 0.997365
O O5 0.500000 0.500000 0.500000
O O6 0.454412 0.750000 0.533434
O O7 0.422453 0.486537 0.586907
O O8 0.424275 0.554878 0.415012
O O9 0.119036 0.750000 0.835393
O O10 0.083373 0.520491 0.752848
O O11 0.080382 0.519251 0.920929
O O12 0.250000 0.969256 0.126704
O O13 0.314009 0.750000 0.107405
O O14 0.339064 0.017039 0.164851
O O15 0.568863 0.750000 0.311037
O O16 0.501070 0.960637 0.313669
O O17 0.896514 0.750000 0.854504
O O18 0.916728 0.962289 0.743266
O O19 0.922306 0.015242 0.909442
O O20 0.953886 0.250000 0.989997
O O21 0.000000 0.500000 0.000000
O O22 0.063356 0.750000 0.286742
#
# Coordination Sequence:
#
# PCOD8242817 Si02
#       8
#     8   8   8   8   8   8   8   8
#     4  10  20  34  53  75  98 126 164 210 256 300
#     4   9  17  31  51  73  98 130 167 209 253 297
#     4  11  22  34  50  72  99 135 172 206 248 299
#     4  10  20  35  54  73  96 128 166 209 254 299
#     4  10  20  33  51  74 102 135 169 211 253 294
#     4  12  23  33  50  74 101 133 168 208 251 297
#     4  11  23  36  49  67  97 136 174 208 244 291
#     4   9  19  34  51  72 101 135 170 207 248 296
#
# _framework density 16.742650999999999
#
# number of rings (size 3 to 8) (size 9 to 14) (size 15 to 20)
#    0.000    1.750    1.250    4.875    0.000    8.000 
#    0.000    0.000    0.000    0.000    0.000    0.875 
#    0.000    1.000    0.000    0.000    0.000    0.000 
#
# Total GULP energy -793655.611811 kJ/mol
# GULP energy per Si atom -12400.868935 kJ/mol
# Density = 1.670454 g / cm^3
# Si number density = 16.742651 Si / 1000 Ang^3
#
#
#
# Elastic Constant Matrix: (Units=GPa)
#
#
# Indices 1 2 3 4 5 6 
#
# 1 82.2320 30.9024 37.0437 0.0000 0.0000 0.0000
# 2 30.9024 51.4238 25.3238 0.0000 0.0000 0.0000
# 3 37.0437 25.3238 96.1231 0.0000 0.0000 0.0000
# 4 0.0000 0.0000 0.0000 29.3027 0.0000 0.0000
# 5 0.0000 0.0000 0.0000 0.0000 5.9746 0.0000
# 6 0.0000 0.0000 0.0000 0.0000 0.0000 27.6091
#
#
#
# Elastic Compliance Matrix: (Units=1/GPa)
#
#
# Indices 1 2 3 4 5 6 
#
# 1 0.017251 -0.008150 -0.004501 0.000000 0.000000 0.000000
# 2 -0.008150 0.026196 -0.003760 0.000000 0.000000 0.000000
# 3 -0.004501 -0.003760 0.013129 0.000000 0.000000 0.000000
# 4 0.000000 0.000000 0.000000 0.034127 0.000000 0.000000
# 5 0.000000 0.000000 0.000000 0.000000 0.167376 0.000000
# 6 0.000000 0.000000 0.000000 0.000000 0.000000 0.036220
#
#
# Mechanical properties :
#
#
# Convention : Reuss Voigt Hill
#
# Bulk Modulus (GPa) = 42.10133 46.25765 44.17949
# Shear Modulus (GPa) = 14.92364 21.67787 18.30076
#
# Velocity S-wave (km/s) = 2.98880 3.60219 3.30974
# Velocity P-wave (km/s) = 6.09190 6.70743 6.40706
#
# Compressibility (1/GPa) = 0.02375222
#
# Stress axis : x y z
#
# Youngs Moduli (GPa) = 57.96707 38.17388 76.16966
#
# Poissons Ratio (x) = 0.31113 0.34284
# Poissons Ratio (y) = 0.47245 0.28643
# Poissons Ratio (z) = 0.26091 0.14355
#
# Static dielectric constant tensor:
#      x y z
#    x 3.567090 0.000000 0.000000 
#    y 0.000000 3.304580 0.000000 
#    z 0.000000 0.000000 3.307640 
# 
# 
# High freq. dielectric constant tensor:
#      x y z
#    x 1.624160 0.000000 0.000000 
#    y 0.000000 1.664200 0.000000 
#    z 0.000000 0.000000 1.634660 
# 
# From -- ./inp_files/25037.got.cif
#   From: 2010.03.12/outbox.cif.g09.slc.cpg/sg59_13_cif.got.tgz:25037.got - 2010.04.16 16:29:54.
