data_PCOD8242027
_publ_section_title
;
Structure prediction by ZEFSAII (Michael W. Deem and Ramdas Pophale) SiO2 
 PCOD8242027
Probable space group: P M M N
;
_chemical_formula_sum "Si O2"
_cell_formula_units_Z 64
_cell_length_a 8.826501
_cell_length_b 19.550245
_cell_length_c 18.905045
_cell_angle_alpha 90.000000
_cell_angle_beta 90.000000
_cell_angle_gamma 90.000000
_cell_volume 3262.259425
_symmetry_space_group_name_H-M "P M M N"
_symmetry_group_IT_number 59
_space_group.IT_coordinate_system_code '2'
_symmetry_cell_setting 'orthorhombic'
loop_
_space_group_symop_operation_xyz
x,y,z
1/2-x,1/2-y,z
1/2+x,-y,-z
-x,1/2+y,-z
-x,-y,-z
1/2+x,1/2+y,-z
1/2-x,y,z
x,1/2-y,z
loop_
_atom_site_type_symbol
_atom_site_label
_atom_site_fract_x
_atom_site_fract_y
_atom_site_fract_z
Si Si1 0.427635 0.474643 0.702889
Si Si2 0.571268 0.925740 0.924202
Si Si3 0.574084 0.438742 0.849900
Si Si4 0.424782 0.178350 0.185754
Si Si5 0.922297 0.612507 0.674678
Si Si6 0.079100 0.827322 0.543410
Si Si7 0.574336 0.171271 0.959589
Si Si8 0.923162 0.052003 0.555489
O O1 0.250000 0.462162 0.700151
O O2 0.488966 0.440796 0.775039
O O3 0.464937 0.554409 0.701492
O O4 0.499797 0.443538 0.631899
O O5 0.750000 0.924965 0.935793
O O6 0.508154 0.886239 0.854897
O O7 0.516551 0.003904 0.908183
O O8 0.501163 0.884031 0.988908
O O9 0.750000 0.454470 0.834560
O O10 0.550186 0.362567 0.881941
O O11 0.250000 0.181628 0.164431
O O12 0.503043 0.250000 0.162052
O O13 0.443045 0.173534 0.269910
O O14 0.750000 0.584690 0.673805
O O15 0.962973 0.640319 0.598325
O O16 0.250000 0.830897 0.574255
O O17 0.031605 0.750000 0.525594
O O18 0.066791 0.870607 0.472045
O O19 0.750000 0.174603 0.978864
O O20 0.508165 0.250000 0.961896
O O21 0.750000 0.027616 0.563887
O O22 0.000000 0.000000 0.500000
#
# Coordination Sequence:
#
# PCOD8242027 Si02
#       8
#     8   8   8   8   8   8   8   8
#     4  12  24  38  59  88 118 150 195 249 299 348
#     4  10  19  34  58  85 114 151 192 237 284 340
#     4  10  21  40  62  84 114 153 198 243 291 350
#     4   9  17  29  47  76 113 150 187 225 273 336
#     4  11  20  34  56  81 116 157 195 236 286 351
#     4  10  22  39  58  85 120 154 192 240 293 349
#     4  10  22  39  59  86 119 153 191 240 299 357
#     4  11  22  38  62  88 118 156 197 240 288 347
#
# _framework density 19.618304999999999
#
# number of rings (size 3 to 8) (size 9 to 14) (size 15 to 20)
#    0.000    1.625    2.500    3.000    0.000    3.000 
#    0.000    0.625    0.000    6.000    0.000    0.000 
#    0.000    0.000    0.000    0.000    0.000    0.000 
#
# Total GULP energy -792981.791202 kJ/mol
# GULP energy per Si atom -12390.340488 kJ/mol
# Density = 1.957365 g / cm^3
# Si number density = 19.618305 Si / 1000 Ang^3
#
#
#
# Elastic Constant Matrix: (Units=GPa)
#
#
# Indices 1 2 3 4 5 6 
#
# 1 84.3425 27.2994 50.8882 0.0000 0.0000 0.0000
# 2 27.2994 95.1722 53.9237 0.0000 0.0000 0.0000
# 3 50.8882 53.9237 118.0798 0.0000 0.0000 0.0000
# 4 0.0000 0.0000 0.0000 16.8630 0.0000 0.0000
# 5 0.0000 0.0000 0.0000 0.0000 32.4628 0.0000
# 6 0.0000 0.0000 0.0000 0.0000 0.0000 20.1812
#
#
#
# Elastic Compliance Matrix: (Units=1/GPa)
#
#
# Indices 1 2 3 4 5 6 
#
# 1 0.016083 -0.000926 -0.006508 0.000000 0.000000 0.000000
# 2 -0.000926 0.014228 -0.006099 0.000000 0.000000 0.000000
# 3 -0.006508 -0.006099 0.014059 0.000000 0.000000 0.000000
# 4 0.000000 0.000000 0.000000 0.059301 0.000000 0.000000
# 5 0.000000 0.000000 0.000000 0.000000 0.030805 0.000000
# 6 0.000000 0.000000 0.000000 0.000000 0.000000 0.049551
#
#
# Mechanical properties :
#
#
# Convention : Reuss Voigt Hill
#
# Bulk Modulus (GPa) = 57.78871 62.42414 60.10643
# Shear Modulus (GPa) = 23.05628 24.93362 23.99495
#
# Velocity S-wave (km/s) = 3.43190 3.56889 3.50106
# Velocity P-wave (km/s) = 6.72491 6.99078 6.85913
#
# Compressibility (1/GPa) = 0.01730442
#
# Stress axis : x y z
#
# Youngs Moduli (GPa) = 62.17782 70.28265 71.12944
#
# Poissons Ratio (x) = 0.06506 0.46294
# Poissons Ratio (y) = 0.05755 0.43380
# Poissons Ratio (z) = 0.40468 0.42863
#
# Static dielectric constant tensor:
#      x y z
#    x 3.523990 0.000000 0.000000 
#    y 0.000000 3.863720 0.000000 
#    z 0.000000 0.000000 3.607440 
# 
# 
# High freq. dielectric constant tensor:
#      x y z
#    x 1.747250 0.000000 0.000000 
#    y 0.000000 1.767230 0.000000 
#    z 0.000000 0.000000 1.765780 
# 
# From -- ./inp_files/26209.got.cif
#   From: 2010.03.12/outbox.cif.g09.slc.cpg/sg59_14_cif.got.tgz:26209.got - 2010.04.16 16:29:54.
