data_PCOD8242799
_publ_section_title
;
Structure prediction by ZEFSAII (Michael W. Deem and Ramdas Pophale) SiO2 
 PCOD8242799
Probable space group: P M M N
;
_chemical_formula_sum "Si O2"
_cell_formula_units_Z 56
_cell_length_a 18.105589
_cell_length_b 9.237198
_cell_length_c 15.816636
_cell_angle_alpha 90.000000
_cell_angle_beta 90.000000
_cell_angle_gamma 90.000000
_cell_volume 2645.251872
_symmetry_space_group_name_H-M "P M M N"
_symmetry_group_IT_number 59
_space_group.IT_coordinate_system_code '2'
_symmetry_cell_setting 'orthorhombic'
loop_
_space_group_symop_operation_xyz
x,y,z
1/2-x,1/2-y,z
1/2+x,-y,-z
-x,1/2+y,-z
-x,-y,-z
1/2+x,1/2+y,-z
1/2-x,y,z
x,1/2-y,z
loop_
_atom_site_type_symbol
_atom_site_label
_atom_site_fract_x
_atom_site_fract_y
_atom_site_fract_z
Si Si1 0.336072 0.417113 0.922427
Si Si2 0.667279 0.092993 0.627662
Si Si3 0.033255 0.414750 0.805287
Si Si4 0.894932 0.584406 0.497859
Si Si5 0.834588 0.591645 0.775927
Si Si6 0.524146 0.416876 0.364632
Si Si7 0.603623 0.081137 0.920784
O O1 0.250000 0.465237 0.911015
O O2 0.339433 0.250000 0.952450
O O3 0.381502 0.436437 0.834788
O O4 0.381748 0.515995 0.987253
O O5 0.750000 0.121080 0.658483
O O6 0.626885 0.250000 0.618817
O O7 0.671230 0.008702 0.538327
O O8 0.626042 0.998113 0.700174
O O9 0.020906 0.250000 0.774425
O O10 0.011803 0.522880 0.729737
O O11 0.979020 0.447484 0.885234
O O12 0.872410 0.750000 0.483687
O O13 0.912408 0.515066 0.407272
O O14 0.956354 0.565269 0.571035
O O15 0.750000 0.617809 0.752689
O O16 0.873642 0.750000 0.782518
O O17 0.838571 0.501783 0.861523
O O18 0.548547 0.250000 0.358368
O O19 0.622747 0.250000 0.922667
#
# Coordination Sequence:
#
# PCOD8242799 Si02
#       7
#     8   8   8   8   8   8   8
#     4  10  22  41  62  82 109 147 188 228 272 327
#     4  10  20  33  50  75 109 146 184 229 278 327
#     4  10  22  39  58  83 113 145 183 228 279 333
#     4  10  20  35  56  81 110 146 186 227 274 332
#     4  10  20  33  50  75 110 151 191 229 275 336
#     4  10  21  36  57  84 111 142 182 229 279 328
#     4  11  22  35  56  85 114 143 179 228 282 334
#
# _framework density 21.170007999999999
#
# number of rings (size 3 to 8) (size 9 to 14) (size 15 to 20)
#    0.000    1.857    0.000    3.857    0.000    9.429 
#    0.000    0.714    0.000    2.571    0.000    0.000 
#    0.000    0.000    0.000    0.000    0.000    0.000 
#
# Total GULP energy -694002.922198 kJ/mol
# GULP energy per Si atom -12392.909325 kJ/mol
# Density = 2.112182 g / cm^3
# Si number density = 21.170008 Si / 1000 Ang^3
#
#
#
# Elastic Constant Matrix: (Units=GPa)
#
#
# Indices 1 2 3 4 5 6 
#
# 1 63.0118 38.5715 27.1655 0.0000 0.0000 0.0000
# 2 38.5715 166.8271 56.4510 0.0000 0.0000 0.0000
# 3 27.1655 56.4510 74.9372 0.0000 0.0000 0.0000
# 4 0.0000 0.0000 0.0000 40.7143 0.0000 0.0000
# 5 0.0000 0.0000 0.0000 0.0000 30.2333 0.0000
# 6 0.0000 0.0000 0.0000 0.0000 0.0000 20.7829
#
#
#
# Elastic Compliance Matrix: (Units=1/GPa)
#
#
# Indices 1 2 3 4 5 6 
#
# 1 0.019792 -0.002883 -0.005003 0.000000 0.000000 0.000000
# 2 -0.002883 0.008465 -0.005332 0.000000 0.000000 0.000000
# 3 -0.005003 -0.005332 0.019174 0.000000 0.000000 0.000000
# 4 0.000000 0.000000 0.000000 0.024561 0.000000 0.000000
# 5 0.000000 0.000000 0.000000 0.000000 0.033076 0.000000
# 6 0.000000 0.000000 0.000000 0.000000 0.000000 0.048116
#
#
# Mechanical properties :
#
#
# Convention : Reuss Voigt Hill
#
# Bulk Modulus (GPa) = 47.62801 61.01690 54.32246
# Shear Modulus (GPa) = 26.79261 30.51864 28.65563
#
# Velocity S-wave (km/s) = 3.56138 3.80096 3.68312
# Velocity P-wave (km/s) = 6.28155 6.93887 6.61838
#
# Compressibility (1/GPa) = 0.02099605
#
# Stress axis : x y z
#
# Youngs Moduli (GPa) = 50.52627 118.13464 52.15286
#
# Poissons Ratio (x) = 0.34059 0.26091
# Poissons Ratio (y) = 0.14567 0.27806
# Poissons Ratio (z) = 0.25277 0.62984
#
# Static dielectric constant tensor:
#      x y z
#    x 3.654060 0.000000 0.000000 
#    y 0.000000 4.163330 0.000000 
#    z 0.000000 0.000000 3.669830 
# 
# 
# High freq. dielectric constant tensor:
#      x y z
#    x 1.808370 0.000000 0.000000 
#    y 0.000000 1.844980 0.000000 
#    z 0.000000 0.000000 1.816120 
# 
# From -- ./inp_files/24227.got.cif
#   From: 2010.03.12/outbox.cif.g09.slc.cpg/sg59_13_cif.got.tgz:24227.got - 2010.04.16 16:29:54.
