data_PCOD8242184
_publ_section_title
;
Structure prediction by ZEFSAII (Michael W. Deem and Ramdas Pophale) SiO2 
 PCOD8242184
Probable space group: P M M N
;
_chemical_formula_sum "Si O2"
_cell_formula_units_Z 64
_cell_length_a 8.596800
_cell_length_b 23.642979
_cell_length_c 15.326591
_cell_angle_alpha 90.000000
_cell_angle_beta 90.000000
_cell_angle_gamma 90.000000
_cell_volume 3115.190343
_symmetry_space_group_name_H-M "P M M N"
_symmetry_group_IT_number 59
_space_group.IT_coordinate_system_code '2'
_symmetry_cell_setting 'orthorhombic'
loop_
_space_group_symop_operation_xyz
x,y,z
1/2-x,1/2-y,z
1/2+x,-y,-z
-x,1/2+y,-z
-x,-y,-z
1/2+x,1/2+y,-z
1/2-x,y,z
x,1/2-y,z
loop_
_atom_site_type_symbol
_atom_site_label
_atom_site_fract_x
_atom_site_fract_y
_atom_site_fract_z
Si Si1 0.570141 0.885819 0.912712
Si Si2 0.927625 0.000428 0.142381
Si Si3 0.569272 0.116688 0.909664
Si Si4 0.429559 0.508648 0.653081
Si Si5 0.569872 0.315373 0.241377
Si Si6 0.068197 0.184355 0.755452
Si Si7 0.065790 0.111971 0.593971
Si Si8 0.431488 0.124510 0.400364
O O1 0.750000 0.877433 0.933522
O O2 0.535397 0.952024 0.900250
O O3 0.529131 0.852143 0.825352
O O4 0.471765 0.860633 0.993566
O O5 0.750000 0.014328 0.117792
O O6 0.951721 0.998314 0.245109
O O7 0.971461 0.939977 0.104196
O O8 0.750000 0.103138 0.901150
O O9 0.523002 0.164618 0.840880
O O10 0.250000 0.522216 0.630521
O O11 0.492563 0.452499 0.604856
O O12 0.537952 0.559543 0.623208
O O13 0.750000 0.328369 0.224998
O O14 0.529497 0.250000 0.227973
O O15 0.527896 0.333201 0.339611
O O16 0.250000 0.171240 0.768920
O O17 0.036221 0.250000 0.740245
O O18 0.000026 0.151759 0.670821
O O19 0.250000 0.111418 0.600884
O O20 0.013303 0.135672 0.499879
O O21 0.250000 0.137326 0.388463
#
# Coordination Sequence:
#
# PCOD8242184 Si02
#       8
#     8   8   8   8   8   8   8   8
#     4  12  25  42  66  94 124 157 201 251 305 367
#     4  11  21  38  65  93 126 163 202 246 301 365
#     4  12  25  41  63  92 128 163 201 249 304 366
#     4  10  19  35  61  87 124 165 200 244 304 365
#     4  11  25  45  65  86 119 163 208 254 306 361
#     4  10  21  41  66  88 117 161 212 260 307 360
#     4   9  19  37  60  91 124 162 204 250 303 358
#     4  11  22  36  61  94 127 158 202 252 302 363
#
# _framework density 20.54449
#
# number of rings (size 3 to 8) (size 9 to 14) (size 15 to 20)
#    0.000    1.250    2.500    4.125    0.000    2.750 
#    0.000    3.125    0.000    0.000    0.000    0.000 
#    0.000    0.000    0.000    0.000    0.000    0.000 
#
# Total GULP energy -793945.143542 kJ/mol
# GULP energy per Si atom -12405.392868 kJ/mol
# Density = 2.049773 g / cm^3
# Si number density = 20.544490 Si / 1000 Ang^3
#
#
#
# Elastic Constant Matrix: (Units=GPa)
#
#
# Indices 1 2 3 4 5 6 
#
# 1 53.7313 24.2528 26.6122 0.0000 0.0000 0.0000
# 2 24.2528 66.1317 18.5632 0.0000 0.0000 0.0000
# 3 26.6122 18.5632 105.9262 0.0000 0.0000 0.0000
# 4 0.0000 0.0000 0.0000 13.9159 0.0000 0.0000
# 5 0.0000 0.0000 0.0000 0.0000 26.5245 0.0000
# 6 0.0000 0.0000 0.0000 0.0000 0.0000 -14.8154
#
#
#
# Elastic Compliance Matrix: (Units=1/GPa)
#
#
# Indices 1 2 3 4 5 6 
#
# 1 0.024424 -0.007609 -0.004803 0.000000 0.000000 0.000000
# 2 -0.007609 0.018274 -0.001291 0.000000 0.000000 0.000000
# 3 -0.004803 -0.001291 0.010873 0.000000 0.000000 0.000000
# 4 0.000000 0.000000 0.000000 0.071860 0.000000 0.000000
# 5 0.000000 0.000000 0.000000 0.000000 0.037701 0.000000
# 6 0.000000 0.000000 0.000000 0.000000 0.000000 -0.067497
#
#
# Mechanical properties :
#
#
# Convention : Reuss Voigt Hill
#
# Bulk Modulus (GPa) = 38.21674 40.51617 39.36645
# Shear Modulus (GPa) = 37.94680 15.54908 26.74794
#
# Velocity S-wave (km/s) = 4.30240 2.75407 3.61217
# Velocity P-wave (km/s) = 6.58204 5.46601 6.04981
#
# Compressibility (1/GPa) = 0.02616654
#
# Stress axis : x y z
#
# Youngs Moduli (GPa) = 40.94265 54.72184 91.96798
#
# Poissons Ratio (x) = 0.41639 0.44170
# Poissons Ratio (y) = 0.31154 0.11871
# Poissons Ratio (z) = 0.19664 0.07064
#
# Static dielectric constant tensor:
#      x y z
#    x 3.583540 0.000000 0.000000 
#    y 0.000000 3.649370 0.000000 
#    z 0.000000 0.000000 4.075640 
# 
# 
# High freq. dielectric constant tensor:
#      x y z
#    x 1.791630 0.000000 0.000000 
#    y 0.000000 1.797420 0.000000 
#    z 0.000000 0.000000 1.821700 
# 
# From -- ./inp_files/21449.got.cif
#   From: 2010.03.12/outbox.cif.g09.slc.cpg/sg59_11_cif.got.tgz:21449.got - 2010.04.16 16:29:54.
