data_PCOD8242443
_publ_section_title
;
Structure prediction by ZEFSAII (Michael W. Deem and Ramdas Pophale) SiO2 
 PCOD8242443
Probable space group: P M M N
;
_chemical_formula_sum "Si O2"
_cell_formula_units_Z 40
_cell_length_a 9.017730
_cell_length_b 20.244113
_cell_length_c 13.909992
_cell_angle_alpha 90.000000
_cell_angle_beta 90.000000
_cell_angle_gamma 90.000000
_cell_volume 2539.351736
_symmetry_space_group_name_H-M "P M M N"
_symmetry_group_IT_number 59
_space_group.IT_coordinate_system_code '2'
_symmetry_cell_setting 'orthorhombic'
loop_
_space_group_symop_operation_xyz
x,y,z
1/2-x,1/2-y,z
1/2+x,-y,-z
-x,1/2+y,-z
-x,-y,-z
1/2+x,1/2+y,-z
1/2-x,y,z
x,1/2-y,z
loop_
_atom_site_type_symbol
_atom_site_label
_atom_site_fract_x
_atom_site_fract_y
_atom_site_fract_z
Si Si1 0.421764 0.174708 0.416659
Si Si2 0.917583 0.012555 0.098475
Si Si3 0.575252 0.563744 0.731482
Si Si4 0.076362 0.674018 0.387773
Si Si5 0.582304 0.936359 0.278994
O O1 0.250000 0.165582 0.443624
O O2 0.457858 0.250000 0.387613
O O3 0.466848 0.129458 0.326727
O O4 0.516654 0.152188 0.508252
O O5 0.750000 0.036181 0.077629
O O6 0.002622 0.068883 0.161521
O O7 0.917954 0.945032 0.162487
O O8 0.000000 0.000000 0.000000
O O9 0.750000 0.554187 0.741482
O O10 0.505758 0.499687 0.676476
O O11 0.250000 0.661089 0.384659
O O12 0.035920 0.750000 0.367373
O O13 0.998558 0.631449 0.305109
O O14 0.750000 0.935807 0.319300
#
# Coordination Sequence:
#
# PCOD8242443 Si02
#       5
#     8   8   8   8   8
#     4   9  18  32  49  69  96 131 164 193 231 279
#     4   9  18  31  50  73  95 121 154 193 242 288
#     4   9  17  30  49  72  96 124 158 198 237 277
#     4  10  20  32  48  70  96 128 162 196 236 279
#     4   9  19  32  48  71  95 124 160 195 235 283
#
# _framework density 15.752052000000001
#
# number of rings (size 3 to 8) (size 9 to 14) (size 15 to 20)
#    1.200    1.600    0.000    1.800    0.000    3.600 
#    0.000    0.000    0.000    1.200    0.000    2.800 
#    0.000    0.000    0.000    0.000    0.000    0.000 
#
# Total GULP energy -495670.485337 kJ/mol
# GULP energy per Si atom -12391.762133 kJ/mol
# Density = 1.571620 g / cm^3
# Si number density = 15.752052 Si / 1000 Ang^3
#
#
#
# Elastic Constant Matrix: (Units=GPa)
#
#
# Indices 1 2 3 4 5 6 
#
# 1 108.8647 46.8571 50.3085 0.0000 0.0000 0.0000
# 2 46.8571 76.5965 48.5630 0.0000 0.0000 0.0000
# 3 50.3085 48.5630 87.0138 0.0000 0.0000 0.0000
# 4 0.0000 0.0000 0.0000 13.7438 0.0000 0.0000
# 5 0.0000 0.0000 0.0000 0.0000 30.6814 0.0000
# 6 0.0000 0.0000 0.0000 0.0000 0.0000 23.0894
#
#
#
# Elastic Compliance Matrix: (Units=1/GPa)
#
#
# Indices 1 2 3 4 5 6 
#
# 1 0.013764 -0.005223 -0.005043 0.000000 0.000000 0.000000
# 2 -0.005223 0.022186 -0.009363 0.000000 0.000000 0.000000
# 3 -0.005043 -0.009363 0.019634 0.000000 0.000000 0.000000
# 4 0.000000 0.000000 0.000000 0.072760 0.000000 0.000000
# 5 0.000000 0.000000 0.000000 0.000000 0.032593 0.000000
# 6 0.000000 0.000000 0.000000 0.000000 0.000000 0.043310
#
#
# Mechanical properties :
#
#
# Convention : Reuss Voigt Hill
#
# Bulk Modulus (GPa) = 61.24840 62.65914 61.95377
# Shear Modulus (GPa) = 20.08457 21.95268 21.01863
#
# Velocity S-wave (km/s) = 3.57465 3.73720 3.65683
# Velocity P-wave (km/s) = 7.48363 7.64768 7.56610
#
# Compressibility (1/GPa) = 0.01632696
#
# Stress axis : x y z
#
# Youngs Moduli (GPa) = 72.65234 45.07253 50.93271
#
# Poissons Ratio (x) = 0.23540 0.25686
# Poissons Ratio (y) = 0.37944 0.47688
# Poissons Ratio (z) = 0.36640 0.42201
#
# Static dielectric constant tensor:
#      x y z
#    x 3.135370 0.000000 0.000000 
#    y 0.000000 2.865860 0.000000 
#    z 0.000000 0.000000 2.782660 
# 
# 
# High freq. dielectric constant tensor:
#      x y z
#    x 1.624510 0.000000 0.000000 
#    y 0.000000 1.584520 0.000000 
#    z 0.000000 0.000000 1.584010 
# 
# From -- ./inp_files/20129.got.cif
#   From: 2010.03.12/outbox.cif.g09.slc.cpg/sg59_11_cif.got.tgz:20129.got - 2010.04.16 16:29:54.
