data_PCOD8242354
_publ_section_title
;
Structure prediction by ZEFSAII (Michael W. Deem and Ramdas Pophale) SiO2 
 PCOD8242354
Probable space group: P M M N
;
_chemical_formula_sum "Si O2"
_cell_formula_units_Z 56
_cell_length_a 9.497587
_cell_length_b 18.366121
_cell_length_c 19.097808
_cell_angle_alpha 90.000000
_cell_angle_beta 90.000000
_cell_angle_gamma 90.000000
_cell_volume 3331.303833
_symmetry_space_group_name_H-M "P M M N"
_symmetry_group_IT_number 59
_space_group.IT_coordinate_system_code '2'
_symmetry_cell_setting 'orthorhombic'
loop_
_space_group_symop_operation_xyz
x,y,z
1/2-x,1/2-y,z
1/2+x,-y,-z
-x,1/2+y,-z
-x,-y,-z
1/2+x,1/2+y,-z
1/2-x,y,z
x,1/2-y,z
loop_
_atom_site_type_symbol
_atom_site_label
_atom_site_fract_x
_atom_site_fract_y
_atom_site_fract_z
Si Si1 0.917714 0.829539 0.639085
Si Si2 0.584609 0.833510 0.209820
Si Si3 0.586762 0.052071 0.709834
Si Si4 0.586710 0.974588 0.565992
Si Si5 0.584867 0.903593 0.773969
Si Si6 0.412667 0.066950 0.077798
Si Si7 0.412889 0.421274 0.924700
O O1 0.750000 0.828205 0.640107
O O2 0.976209 0.750000 0.615824
O O3 0.967778 0.893579 0.587189
O O4 0.977340 0.846267 0.717824
O O5 0.750000 0.842869 0.222661
O O6 0.537857 0.750000 0.214916
O O7 0.503882 0.877259 0.270366
O O8 0.541288 0.861337 0.132089
O O9 0.750000 0.069693 0.723857
O O10 0.561668 0.031400 0.628867
O O11 0.530983 0.985412 0.757754
O O12 0.750000 0.971713 0.545488
O O13 0.500000 0.000000 0.500000
O O14 0.750000 0.905095 0.760028
O O15 0.547724 0.882578 0.854676
O O16 0.250000 0.043785 0.083245
O O17 0.500458 0.994020 0.085085
O O18 0.441532 0.108556 0.004273
O O19 0.250000 0.441562 0.915315
#
# Coordination Sequence:
#
# PCOD8242354 Si02
#       7
#     8   8   8   8   8   8   8
#     4   8  14  26  45  70  97 121 146 180 225 273
#     4  10  20  32  44  62  93 128 160 199 244 283
#     4   9  17  31  49  68  90 118 155 194 227 268
#     4   9  18  32  52  76  99 123 151 186 225 268
#     4   8  13  23  42  66  89 113 146 189 226 262
#     4   9  15  25  43  64  86 114 150 192 232 274
#     4   9  17  27  40  61  88 118 153 191 234 278
#
# _framework density 16.810236
#
# number of rings (size 3 to 8) (size 9 to 14) (size 15 to 20)
#    0.000    3.143    1.429    1.714    0.000    0.857 
#    0.000    1.429    0.000    7.286    0.000    0.000 
#    0.000    1.143    0.000    0.000    0.000    0.000 
#
# Total GULP energy -693777.774691 kJ/mol
# GULP energy per Si atom -12388.888834 kJ/mol
# Density = 1.677198 g / cm^3
# Si number density = 16.810236 Si / 1000 Ang^3
#
#
#
# Elastic Constant Matrix: (Units=GPa)
#
#
# Indices 1 2 3 4 5 6 
#
# 1 32.2593 31.0989 36.2960 0.0000 0.0000 0.0000
# 2 31.0989 115.5056 61.9005 0.0000 0.0000 0.0000
# 3 36.2960 61.9005 125.7419 0.0000 0.0000 0.0000
# 4 0.0000 0.0000 0.0000 20.7658 0.0000 0.0000
# 5 0.0000 0.0000 0.0000 0.0000 24.3357 0.0000
# 6 0.0000 0.0000 0.0000 0.0000 0.0000 17.2103
#
#
#
# Elastic Compliance Matrix: (Units=1/GPa)
#
#
# Indices 1 2 3 4 5 6 
#
# 1 0.050701 -0.007889 -0.010751 0.000000 0.000000 0.000000
# 2 -0.007889 0.012988 -0.004116 0.000000 0.000000 0.000000
# 3 -0.010751 -0.004116 0.013083 0.000000 0.000000 0.000000
# 4 0.000000 0.000000 0.000000 0.048156 0.000000 0.000000
# 5 0.000000 0.000000 0.000000 0.000000 0.041092 0.000000
# 6 0.000000 0.000000 0.000000 0.000000 0.000000 0.058105
#
#
# Mechanical properties :
#
#
# Convention : Reuss Voigt Hill
#
# Bulk Modulus (GPa) = 31.99226 59.12196 45.55711
# Shear Modulus (GPa) = 17.85353 22.07644 19.96498
#
# Velocity S-wave (km/s) = 3.26247 3.62784 3.45000
# Velocity P-wave (km/s) = 5.76752 7.26601 6.55970
#
# Compressibility (1/GPa) = 0.03125756
#
# Stress axis : x y z
#
# Youngs Moduli (GPa) = 19.72353 76.99625 76.43684
#
# Poissons Ratio (x) = 0.60742 0.82181
# Poissons Ratio (y) = 0.15560 0.31464
# Poissons Ratio (z) = 0.21206 0.31695
#
# Static dielectric constant tensor:
#      x y z
#    x 2.858420 0.000000 0.000000 
#    y 0.000000 3.178190 0.000000 
#    z 0.000000 0.000000 3.353020 
# 
# 
# High freq. dielectric constant tensor:
#      x y z
#    x 1.615240 0.000000 0.000000 
#    y 0.000000 1.623260 0.000000 
#    z 0.000000 0.000000 1.657610 
# 
# From -- ./inp_files/29316.got.cif
#   From: 2010.03.12/outbox.cif.g09.slc.cpg/sg59_15_cif.got.tgz:29316.got - 2010.04.16 16:29:54.
