data_PCOD8242349
_publ_section_title
;
Structure prediction by ZEFSAII (Michael W. Deem and Ramdas Pophale) SiO2 
 PCOD8242349
Probable space group: P M M N
;
_chemical_formula_sum "Si O2"
_cell_formula_units_Z 64
_cell_length_a 30.511035
_cell_length_b 9.176356
_cell_length_c 15.029700
_cell_angle_alpha 90.000000
_cell_angle_beta 90.000000
_cell_angle_gamma 90.000000
_cell_volume 4208.017196
_symmetry_space_group_name_H-M "P M M N"
_symmetry_group_IT_number 59
_space_group.IT_coordinate_system_code '2'
_symmetry_cell_setting 'orthorhombic'
loop_
_space_group_symop_operation_xyz
x,y,z
1/2-x,1/2-y,z
1/2+x,-y,-z
-x,1/2+y,-z
-x,-y,-z
1/2+x,1/2+y,-z
1/2-x,y,z
x,1/2-y,z
loop_
_atom_site_type_symbol
_atom_site_label
_atom_site_fract_x
_atom_site_fract_y
_atom_site_fract_z
Si Si1 0.948049 0.416662 0.906415
Si Si2 0.364198 0.081367 0.099193
Si Si3 0.197819 0.086524 0.400236
Si Si4 0.457784 0.083898 0.916151
Si Si5 0.197930 0.912121 0.567718
Si Si6 0.863433 0.586591 0.111107
Si Si7 0.798981 0.077215 0.236109
Si Si8 0.301580 0.581357 0.225860
O O1 0.931984 0.250000 0.901362
O O2 0.910341 0.517149 0.863099
O O3 0.996543 0.435376 0.860533
O O4 0.955848 0.461520 0.008321
O O5 0.361466 0.250000 0.125109
O O6 0.323903 0.996724 0.142562
O O7 0.361200 0.054833 0.993981
O O8 0.250000 0.087408 0.403300
O O9 0.179301 0.250000 0.391095
O O10 0.178793 0.017086 0.491203
O O11 0.181415 0.991835 0.316875
O O12 0.456345 0.250000 0.956796
O O13 0.413974 0.064213 0.856109
O O14 0.250000 0.903353 0.560894
O O15 0.178440 0.750000 0.553342
O O16 0.185319 0.974089 0.665481
O O17 0.847354 0.750000 0.131624
O O18 0.832062 0.477207 0.161775
O O19 0.750000 0.017530 0.215825
O O20 0.798320 0.250000 0.234194
O O21 0.250000 0.559955 0.213806
O O22 0.314771 0.750000 0.228516
#
# Coordination Sequence:
#
# PCOD8242349 Si02
#       8
#     8   8   8   8   8   8   8   8
#     4   9  15  25  43  62  79 102 134 171 212 256
#     4  10  20  32  43  58  84 114 144 178 213 248
#     4   9  16  26  42  63  83 103 130 167 211 253
#     4   8  15  27  41  59  82 105 131 169 216 258
#     4   8  14  26  42  58  78 104 133 168 210 249
#     4   9  18  30  42  58  82 112 143 174 209 247
#     4   9  18  30  42  58  82 112 145 179 210 240
#     4  10  20  32  45  61  82 111 146 178 207 244
#
# _framework density 15.209063
#
# number of rings (size 3 to 8) (size 9 to 14) (size 15 to 20)
#    0.000    3.000    0.000    3.000    0.000    6.500 
#    0.000    3.750    0.000    0.000    0.000    0.000 
#    0.000    1.000    0.000    3.000    0.000    4.875 
#
# Total GULP energy -793044.027475 kJ/mol
# GULP energy per Si atom -12391.312929 kJ/mol
# Density = 1.517445 g / cm^3
# Si number density = 15.209063 Si / 1000 Ang^3
#
#
#
# Elastic Constant Matrix: (Units=GPa)
#
#
# Indices 1 2 3 4 5 6 
#
# 1 65.7047 40.9346 36.1518 0.0000 0.0000 0.0000
# 2 40.9346 89.8038 38.1116 0.0000 0.0000 0.0000
# 3 36.1518 38.1116 59.0961 0.0000 0.0000 0.0000
# 4 0.0000 0.0000 0.0000 23.4046 0.0000 0.0000
# 5 0.0000 0.0000 0.0000 0.0000 0.6223 0.0000
# 6 0.0000 0.0000 0.0000 0.0000 0.0000 22.6131
#
#
#
# Elastic Compliance Matrix: (Units=1/GPa)
#
#
# Indices 1 2 3 4 5 6 
#
# 1 0.025754 -0.006957 -0.011268 0.000000 0.000000 0.000000
# 2 -0.006957 0.017211 -0.006843 0.000000 0.000000 0.000000
# 3 -0.011268 -0.006843 0.028228 0.000000 0.000000 0.000000
# 4 0.000000 0.000000 0.000000 0.042727 0.000000 0.000000
# 5 0.000000 0.000000 0.000000 0.000000 1.606896 0.000000
# 6 0.000000 0.000000 0.000000 0.000000 0.000000 0.044222
#
#
# Mechanical properties :
#
#
# Convention : Reuss Voigt Hill
#
# Bulk Modulus (GPa) = 47.49337 49.44452 48.46895
# Shear Modulus (GPa) = 2.74395 15.95510 9.34952
#
# Velocity S-wave (km/s) = 1.34464 3.24242 2.48207
# Velocity P-wave (km/s) = 5.80565 6.82629 6.33655
#
# Compressibility (1/GPa) = 0.02105557
#
# Stress axis : x y z
#
# Youngs Moduli (GPa) = 38.82908 58.10272 35.42550
#
# Poissons Ratio (x) = 0.40423 0.39918
# Poissons Ratio (y) = 0.27014 0.24243
# Poissons Ratio (z) = 0.43753 0.39762
#
# Static dielectric constant tensor:
#      x y z
#    x 2.961500 0.000000 0.000000 
#    y 0.000000 3.056690 0.000000 
#    z 0.000000 0.000000 2.757970 
# 
# 
# High freq. dielectric constant tensor:
#      x y z
#    x 1.560700 0.000000 0.000000 
#    y 0.000000 1.595970 0.000000 
#    z 0.000000 0.000000 1.545830 
# 
# From -- ./inp_files/25095.got.cif
#   From: 2010.03.12/outbox.cif.g09.slc.cpg/sg59_13_cif.got.tgz:25095.got - 2010.04.16 16:29:54.
