data_PCOD8242157
_publ_section_title
;
Structure prediction by ZEFSAII (Michael W. Deem and Ramdas Pophale) SiO2 
 PCOD8242157
Probable space group: P M M N
;
_chemical_formula_sum "Si O2"
_cell_formula_units_Z 40
_cell_length_a 8.935196
_cell_length_b 15.251892
_cell_length_c 15.369841
_cell_angle_alpha 90.000000
_cell_angle_beta 90.000000
_cell_angle_gamma 90.000000
_cell_volume 2094.581096
_symmetry_space_group_name_H-M "P M M N"
_symmetry_group_IT_number 59
_space_group.IT_coordinate_system_code '2'
_symmetry_cell_setting 'orthorhombic'
loop_
_space_group_symop_operation_xyz
x,y,z
1/2-x,1/2-y,z
1/2+x,-y,-z
-x,1/2+y,-z
-x,-y,-z
1/2+x,1/2+y,-z
1/2-x,y,z
x,1/2-y,z
loop_
_atom_site_type_symbol
_atom_site_label
_atom_site_fract_x
_atom_site_fract_y
_atom_site_fract_z
Si Si1 0.926913 0.250000 0.461187
Si Si2 0.912723 0.653215 0.837349
Si Si3 0.925442 0.935251 0.272640
Si Si4 0.079319 0.100039 0.353385
Si Si5 0.423628 0.250000 0.643447
Si Si6 0.079741 0.994804 0.908731
O O1 0.750000 0.250000 0.446891
O O2 0.992603 0.159059 0.423465
O O3 0.966492 0.250000 0.562350
O O4 0.750000 0.610754 0.862050
O O5 0.919371 0.750000 0.875559
O O6 0.927545 0.656370 0.733946
O O7 0.053597 0.604407 0.878324
O O8 0.750000 0.957442 0.276709
O O9 0.960327 0.835930 0.299589
O O10 0.982230 0.945578 0.171806
O O11 0.006776 0.003814 0.337618
O O12 0.250000 0.086103 0.385530
O O13 0.250000 0.250000 0.613658
O O14 0.250000 0.017059 0.925860
O O15 0.000000 0.000000 0.000000
#
# Coordination Sequence:
#
# PCOD8242157 Si02
#       6
#     4   8   8   8   4   8
#     4  12  24  36  56  87 120 149 190 237 282 341
#     4   9  17  32  54  80 109 141 178 222 278 334
#     4   9  20  39  61  84 111 150 195 240 288 338
#     4  10  19  35  59  86 115 149 186 231 287 338
#     4  10  22  42  62  79 110 153 198 239 282 335
#     4  10  20  35  55  82 113 144 185 229 278 335
#
# _framework density 19.096897999999999
#
# number of rings (size 3 to 8) (size 9 to 14) (size 15 to 20)
#    0.000    2.200    1.000    2.100    0.000    3.600 
#    1.800    0.000    0.000    0.000    0.000    0.000 
#    0.000    0.000    0.000    0.000    0.000    0.000 
#
# Total GULP energy -495658.851063 kJ/mol
# GULP energy per Si atom -12391.471277 kJ/mol
# Density = 1.905343 g / cm^3
# Si number density = 19.096898 Si / 1000 Ang^3
#
#
#
# Elastic Constant Matrix: (Units=GPa)
#
#
# Indices 1 2 3 4 5 6 
#
# 1 87.2631 50.1835 47.9909 0.0000 0.0000 0.0000
# 2 50.1835 137.8271 58.2425 0.0000 0.0000 0.0000
# 3 47.9909 58.2425 112.4774 0.0000 0.0000 0.0000
# 4 0.0000 0.0000 0.0000 12.0776 0.0000 0.0000
# 5 0.0000 0.0000 0.0000 0.0000 31.2358 0.0000
# 6 0.0000 0.0000 0.0000 0.0000 0.0000 30.5607
#
#
#
# Elastic Compliance Matrix: (Units=1/GPa)
#
#
# Indices 1 2 3 4 5 6 
#
# 1 0.016440 -0.003868 -0.005012 0.000000 0.000000 0.000000
# 2 -0.003868 0.010198 -0.003630 0.000000 0.000000 0.000000
# 3 -0.005012 -0.003630 0.012909 0.000000 0.000000 0.000000
# 4 0.000000 0.000000 0.000000 0.082798 0.000000 0.000000
# 5 0.000000 0.000000 0.000000 0.000000 0.032015 0.000000
# 6 0.000000 0.000000 0.000000 0.000000 0.000000 0.032722
#
#
# Mechanical properties :
#
#
# Convention : Reuss Voigt Hill
#
# Bulk Modulus (GPa) = 68.83734 72.26680 70.55207
# Shear Modulus (GPa) = 23.04749 26.85153 24.94951
#
# Velocity S-wave (km/s) = 3.47777 3.75382 3.61843
# Velocity P-wave (km/s) = 7.22850 7.53078 7.38118
#
# Compressibility (1/GPa) = 0.01452700
#
# Stress axis : x y z
#
# Youngs Moduli (GPa) = 60.82614 98.05913 77.46681
#
# Poissons Ratio (x) = 0.37931 0.38823
# Poissons Ratio (y) = 0.23529 0.28122
# Poissons Ratio (z) = 0.30484 0.35597
#
# Static dielectric constant tensor:
#      x y z
#    x 3.504330 0.000000 0.000000 
#    y 0.000000 3.054610 0.000000 
#    z 0.000000 0.000000 3.609770 
# 
# 
# High freq. dielectric constant tensor:
#      x y z
#    x 1.742410 0.000000 0.000000 
#    y 0.000000 1.738690 0.000000 
#    z 0.000000 0.000000 1.734660 
# 
# From -- ./inp_files/19927.got.cif
#   From: 2010.03.12/outbox.cif.g09.slc.cpg/sg59_10_cif.got.tgz:19927.got - 2010.04.16 16:29:54.
