data_PCOD8242025
_publ_section_title
;
Structure prediction by ZEFSAII (Michael W. Deem and Ramdas Pophale) SiO2 
 PCOD8242025
Probable space group: P M M N
;
_chemical_formula_sum "Si O2"
_cell_formula_units_Z 40
_cell_length_a 7.805613
_cell_length_b 9.228861
_cell_length_c 28.995259
_cell_angle_alpha 90.000000
_cell_angle_beta 90.000000
_cell_angle_gamma 90.000000
_cell_volume 2088.729077
_symmetry_space_group_name_H-M "P M M N"
_symmetry_group_IT_number 59
_space_group.IT_coordinate_system_code '2'
_symmetry_cell_setting 'orthorhombic'
loop_
_space_group_symop_operation_xyz
x,y,z
1/2-x,1/2-y,z
1/2+x,-y,-z
-x,1/2+y,-z
-x,-y,-z
1/2+x,1/2+y,-z
1/2-x,y,z
x,1/2-y,z
loop_
_atom_site_type_symbol
_atom_site_label
_atom_site_fract_x
_atom_site_fract_y
_atom_site_fract_z
Si Si1 0.750000 0.919386 0.886625
Si Si2 0.945499 0.411201 0.632657
Si Si3 0.438215 0.078447 0.729476
Si Si4 0.250000 0.922956 0.209551
Si Si5 0.049677 0.914499 0.545403
Si Si6 0.445378 0.581154 0.954248
O O1 0.750000 0.750000 0.874497
O O2 0.577690 0.962988 0.914145
O O3 0.750000 0.012632 0.840922
O O4 0.750000 0.398808 0.647865
O O5 0.016047 0.250000 0.619921
O O6 0.042371 0.479068 0.676948
O O7 0.959473 0.515306 0.589178
O O8 0.250000 0.032744 0.747914
O O9 0.459853 0.250000 0.727082
O O10 0.582112 0.016539 0.763841
O O11 0.250000 0.750000 0.205983
O O12 0.250000 0.921676 0.553650
O O13 0.985002 0.750000 0.540087
O O14 0.000000 0.000000 0.500000
O O15 0.250000 0.540117 0.939787
O O16 0.461116 0.750000 0.965140
O O17 0.500000 0.500000 0.000000
#
# Coordination Sequence:
#
# PCOD8242025 Si02
#       6
#     4   8   8   4   8   8
#     4  10  22  38  54  80 118 154 184 230 293 340
#     4  10  19  34  58  85 109 138 179 226 277 334
#     4   9  17  32  56  83 111 142 180 232 284 325
#     4  10  20  36  56  82 112 146 194 238 271 330
#     4  11  24  39  54  77 109 143 181 225 273 332
#     4  10  20  35  57  83 112 148 191 236 282 337
#
# _framework density 19.150402
#
# number of rings (size 3 to 8) (size 9 to 14) (size 15 to 20)
#    0.000    2.000    2.000    1.800    0.000    6.800 
#    0.000    1.000    0.000    1.200    0.000    0.000 
#    0.000    0.000    0.000    0.000    0.000    0.000 
#
# Total GULP energy -495962.439750 kJ/mol
# GULP energy per Si atom -12399.060994 kJ/mol
# Density = 1.910682 g / cm^3
# Si number density = 19.150402 Si / 1000 Ang^3
#
#
#
# Elastic Constant Matrix: (Units=GPa)
#
#
# Indices 1 2 3 4 5 6 
#
# 1 149.0698 31.9872 72.5808 0.0000 0.0000 0.0000
# 2 31.9872 64.0720 48.5404 0.0000 0.0000 0.0000
# 3 72.5808 48.5404 149.9114 0.0000 0.0000 0.0000
# 4 0.0000 0.0000 0.0000 32.9926 0.0000 0.0000
# 5 0.0000 0.0000 0.0000 0.0000 30.4125 0.0000
# 6 0.0000 0.0000 0.0000 0.0000 0.0000 19.9326
#
#
#
# Elastic Compliance Matrix: (Units=1/GPa)
#
#
# Indices 1 2 3 4 5 6 
#
# 1 0.008894 -0.001561 -0.003801 0.000000 0.000000 0.000000
# 2 -0.001561 0.020954 -0.006029 0.000000 0.000000 0.000000
# 3 -0.003801 -0.006029 0.010463 0.000000 0.000000 0.000000
# 4 0.000000 0.000000 0.000000 0.030310 0.000000 0.000000
# 5 0.000000 0.000000 0.000000 0.000000 0.032881 0.000000
# 6 0.000000 0.000000 0.000000 0.000000 0.000000 0.050169
#
#
# Mechanical properties :
#
#
# Convention : Reuss Voigt Hill
#
# Bulk Modulus (GPa) = 57.04585 74.36332 65.70459
# Shear Modulus (GPa) = 27.42802 30.66386 29.04594
#
# Velocity S-wave (km/s) = 3.78860 4.00586 3.89874
# Velocity P-wave (km/s) = 6.99936 7.76604 7.39264
#
# Compressibility (1/GPa) = 0.01752976
#
# Stress axis : x y z
#
# Youngs Moduli (GPa) = 112.43999 47.72287 95.57582
#
# Poissons Ratio (x) = 0.07448 0.36324
# Poissons Ratio (y) = 0.17549 0.57625
# Poissons Ratio (z) = 0.42733 0.28773
#
# Static dielectric constant tensor:
#      x y z
#    x 4.006700 0.000000 0.000000 
#    y 0.000000 3.310790 0.000000 
#    z 0.000000 0.000000 3.402190 
# 
# 
# High freq. dielectric constant tensor:
#      x y z
#    x 1.765100 0.000000 0.000000 
#    y 0.000000 1.715780 0.000000 
#    z 0.000000 0.000000 1.742180 
# 
# From -- ./inp_files/32399.got.cif
#   From: 2010.03.12/outbox.cif.g09.slc.cpg/sg59_17_cif.got.tgz:32399.got - 2010.04.16 16:29:54.
