data_PCOD8242428
_publ_section_title
;
Structure prediction by ZEFSAII (Michael W. Deem and Ramdas Pophale) SiO2 
 PCOD8242428
Probable space group: P M M N
;
_chemical_formula_sum "Si O2"
_cell_formula_units_Z 64
_cell_length_a 20.914297
_cell_length_b 17.242289
_cell_length_c 9.491182
_cell_angle_alpha 90.000000
_cell_angle_beta 90.000000
_cell_angle_gamma 90.000000
_cell_volume 3422.618492
_symmetry_space_group_name_H-M "P M M N"
_symmetry_group_IT_number 59
_space_group.IT_coordinate_system_code '2'
_symmetry_cell_setting 'orthorhombic'
loop_
_space_group_symop_operation_xyz
x,y,z
1/2-x,1/2-y,z
1/2+x,-y,-z
-x,1/2+y,-z
-x,-y,-z
1/2+x,1/2+y,-z
1/2-x,y,z
x,1/2-y,z
loop_
_atom_site_type_symbol
_atom_site_label
_atom_site_fract_x
_atom_site_fract_y
_atom_site_fract_z
Si Si1 0.182783 0.160528 0.211313
Si Si2 0.931491 0.341816 0.036194
Si Si3 0.453600 0.157326 0.221941
Si Si4 0.319678 0.095034 0.511042
Si Si5 0.677030 0.160038 0.243743
Si Si6 0.551679 0.658382 0.456076
Si Si7 0.822829 0.416568 0.533636
Si Si8 0.429704 0.842256 0.281416
O O1 0.250000 0.121464 0.154146
O O2 0.185430 0.250000 0.170467
O O3 0.114770 0.126247 0.157260
O O4 0.181629 0.153502 0.379979
O O5 0.938619 0.250000 0.032217
O O6 0.865535 0.366319 0.111240
O O7 0.990348 0.377661 0.125677
O O8 0.932960 0.374225 0.878035
O O9 0.454440 0.250000 0.219730
O O10 0.462044 0.130134 0.383850
O O11 0.250000 0.100699 0.590835
O O12 0.381515 0.120907 0.602886
O O13 0.329831 0.008368 0.454985
O O14 0.750000 0.143117 0.201532
O O15 0.665595 0.250000 0.280753
O O16 0.655349 0.111254 0.379069
O O17 0.557718 0.750000 0.444032
O O18 0.493292 0.628134 0.360730
O O19 0.750000 0.389565 0.561748
O O20 0.866605 0.377724 0.650685
O O21 0.423895 0.750000 0.288181
#
# Coordination Sequence:
#
# PCOD8242428 Si02
#       8
#     8   8   8   8   8   8   8   8
#     4   8  13  23  43  70  93 113 145 192 237 273
#     4   9  17  29  46  67  91 119 152 193 235 274
#     4   8  13  23  42  66  89 114 145 182 224 268
#     4   9  17  29  47  72  99 124 155 194 235 280
#     4   9  17  30  48  68  88 115 156 198 231 270
#     4   9  17  30  51  75  96 122 156 195 237 278
#     4  10  20  32  48  70  96 127 158 192 236 281
#     4  10  20  32  47  70  98 125 155 192 235 282
#
# _framework density 18.699133
#
# number of rings (size 3 to 8) (size 9 to 14) (size 15 to 20)
#    0.000    3.000    0.000    2.250    0.000    4.500 
#    0.000    1.250    0.000    7.500    0.000    8.750 
#    0.000    0.000    0.000    0.000    0.000    0.000 
#
# Total GULP energy -792903.173600 kJ/mol
# GULP energy per Si atom -12389.112088 kJ/mol
# Density = 1.865657 g / cm^3
# Si number density = 18.699133 Si / 1000 Ang^3
#
#
#
# Elastic Constant Matrix: (Units=GPa)
#
#
# Indices 1 2 3 4 5 6 
#
# 1 167.7067 21.7336 82.2602 0.0000 0.0000 0.0000
# 2 21.7336 19.3108 15.1999 0.0000 0.0000 0.0000
# 3 82.2602 15.1999 108.1733 0.0000 0.0000 0.0000
# 4 0.0000 0.0000 0.0000 5.7200 0.0000 0.0000
# 5 0.0000 0.0000 0.0000 0.0000 8.3062 0.0000
# 6 0.0000 0.0000 0.0000 0.0000 0.0000 20.2196
#
#
#
# Elastic Compliance Matrix: (Units=1/GPa)
#
#
# Indices 1 2 3 4 5 6 
#
# 1 0.010088 -0.005977 -0.006832 0.000000 0.000000 0.000000
# 2 -0.005977 0.061765 -0.004134 0.000000 0.000000 0.000000
# 3 -0.006832 -0.004134 0.015021 0.000000 0.000000 0.000000
# 4 0.000000 0.000000 0.000000 0.174824 0.000000 0.000000
# 5 0.000000 0.000000 0.000000 0.000000 0.120392 0.000000
# 6 0.000000 0.000000 0.000000 0.000000 0.000000 0.049457
#
#
# Mechanical properties :
#
#
# Convention : Reuss Voigt Hill
#
# Bulk Modulus (GPa) = 18.87191 59.28645 39.07918
# Shear Modulus (GPa) = 10.34993 18.58231 14.46612
#
# Velocity S-wave (km/s) = 2.35521 3.15580 2.78443
# Velocity P-wave (km/s) = 4.18453 6.71216 5.59300
#
# Compressibility (1/GPa) = 0.05298881
#
# Stress axis : x y z
#
# Youngs Moduli (GPa) = 99.12435 16.19049 66.57525
#
# Poissons Ratio (x) = 0.09676 0.45483
# Poissons Ratio (y) = 0.59242 0.27522
# Poissons Ratio (z) = 0.67720 0.06693
#
# Static dielectric constant tensor:
#      x y z
#    x 4.062810 0.000000 0.000000 
#    y 0.000000 3.053180 0.000000 
#    z 0.000000 0.000000 3.230440 
# 
# 
# High freq. dielectric constant tensor:
#      x y z
#    x 1.757070 0.000000 0.000000 
#    y 0.000000 1.686760 0.000000 
#    z 0.000000 0.000000 1.681550 
# 
# From -- ./inp_files/11621.got.cif
#   From: 2010.03.12/outbox.cif.g09.slc.cpg/sg59_6_cif.got.tgz:11621.got - 2010.04.16 16:29:54.
