data_PCOD8242328
_publ_section_title
;
Structure prediction by ZEFSAII (Michael W. Deem and Ramdas Pophale) SiO2 
 PCOD8242328
Probable space group: P M M N
;
_chemical_formula_sum "Si O2"
_cell_formula_units_Z 56
_cell_length_a 9.258419
_cell_length_b 23.078672
_cell_length_c 15.600716
_cell_angle_alpha 90.000000
_cell_angle_beta 90.000000
_cell_angle_gamma 90.000000
_cell_volume 3333.436428
_symmetry_space_group_name_H-M "P M M N"
_symmetry_group_IT_number 59
_space_group.IT_coordinate_system_code '2'
_symmetry_cell_setting 'orthorhombic'
loop_
_space_group_symop_operation_xyz
x,y,z
1/2-x,1/2-y,z
1/2+x,-y,-z
-x,1/2+y,-z
-x,-y,-z
1/2+x,1/2+y,-z
1/2-x,y,z
x,1/2-y,z
loop_
_atom_site_type_symbol
_atom_site_label
_atom_site_fract_x
_atom_site_fract_y
_atom_site_fract_z
Si Si1 0.584506 0.940996 0.002264
Si Si2 0.421011 0.750000 0.090971
Si Si3 0.082844 0.359761 0.840004
Si Si4 0.421710 0.750000 0.891945
Si Si5 0.081515 0.444297 0.311015
Si Si6 0.581438 0.934436 0.318054
Si Si7 0.914961 0.558147 0.503273
Si Si8 0.420802 0.363494 0.156164
O O1 0.750000 0.956778 0.987381
O O2 0.556583 0.910597 0.092368
O O3 0.530527 0.899035 0.927193
O O4 0.500000 0.000000 0.000000
O O5 0.250000 0.750000 0.100168
O O6 0.483249 0.694242 0.138467
O O7 0.468821 0.750000 0.991672
O O8 0.250000 0.339820 0.840049
O O9 0.032420 0.385009 0.748310
O O10 0.250000 0.750000 0.881743
O O11 0.488957 0.804760 0.843713
O O12 0.250000 0.457993 0.298689
O O13 0.050459 0.412793 0.404057
O O14 0.029431 0.399428 0.239372
O O15 0.000358 0.505317 0.301591
O O16 0.750000 0.947876 0.304267
O O17 0.549665 0.907915 0.414262
O O18 0.750000 0.539668 0.501689
O O19 0.000000 0.500000 0.500000
O O20 0.250000 0.349732 0.155998
#
# Coordination Sequence:
#
# PCOD8242328 Si02
#       8
#     8   4   8   4   8   8   8   8
#     4  10  20  31  46  69  97 126 154 188 233 282
#     4  11  23  37  53  72  91 120 164 209 247 282
#     4  10  20  34  51  70  95 129 163 196 237 286
#     4  11  23  37  53  72  91 120 164 209 247 282
#     4   9  17  29  48  74 102 131 161 194 237 284
#     4   9  17  29  48  74 102 131 161 194 237 284
#     4   8  14  26  44  69 100 129 159 194 230 278
#     4  10  20  34  51  70  95 129 163 196 237 286
#
# _framework density 16.799479999999999
#
# number of rings (size 3 to 8) (size 9 to 14) (size 15 to 20)
#    0.000    2.429    1.429    1.286    0.000    2.857 
#    0.000    0.000    0.000    0.857    0.000    6.000 
#    0.000    0.000    0.000    0.000    0.000    0.000 
#
# Total GULP energy -693997.054660 kJ/mol
# GULP energy per Si atom -12392.804547 kJ/mol
# Density = 1.676124 g / cm^3
# Si number density = 16.799480 Si / 1000 Ang^3
#
#
#
# Elastic Constant Matrix: (Units=GPa)
#
#
# Indices 1 2 3 4 5 6 
#
# 1 44.2328 35.1612 25.0711 0.0000 0.0000 0.0000
# 2 35.1612 73.0628 20.9772 0.0000 0.0000 0.0000
# 3 25.0711 20.9772 107.6609 0.0000 0.0000 0.0000
# 4 0.0000 0.0000 0.0000 12.9634 0.0000 0.0000
# 5 0.0000 0.0000 0.0000 0.0000 16.4913 0.0000
# 6 0.0000 0.0000 0.0000 0.0000 0.0000 31.4696
#
#
#
# Elastic Compliance Matrix: (Units=1/GPa)
#
#
# Indices 1 2 3 4 5 6 
#
# 1 0.039833 -0.017484 -0.005869 0.000000 0.000000 0.000000
# 2 -0.017484 0.022172 -0.000249 0.000000 0.000000 0.000000
# 3 -0.005869 -0.000249 0.010704 0.000000 0.000000 0.000000
# 4 0.000000 0.000000 0.000000 0.077140 0.000000 0.000000
# 5 0.000000 0.000000 0.000000 0.000000 0.060638 0.000000
# 6 0.000000 0.000000 0.000000 0.000000 0.000000 0.031777
#
#
# Mechanical properties :
#
#
# Convention : Reuss Voigt Hill
#
# Bulk Modulus (GPa) = 39.20839 43.04172 41.12506
# Shear Modulus (GPa) = 16.78024 21.76799 19.27412
#
# Velocity S-wave (km/s) = 3.16389 3.60356 3.39086
# Velocity P-wave (km/s) = 6.06108 6.55673 6.31377
#
# Compressibility (1/GPa) = 0.02550475
#
# Stress axis : x y z
#
# Youngs Moduli (GPa) = 25.10501 45.10098 93.42634
#
# Poissons Ratio (x) = 0.78856 0.54833
# Poissons Ratio (y) = 0.43894 0.02323
# Poissons Ratio (z) = 0.14735 0.01121
#
# Static dielectric constant tensor:
#      x y z
#    x 3.050870 0.000000 0.000000 
#    y 0.000000 2.868250 0.000000 
#    z 0.000000 0.000000 3.969840 
# 
# 
# High freq. dielectric constant tensor:
#      x y z
#    x 1.646410 0.000000 0.000000 
#    y 0.000000 1.617290 0.000000 
#    z 0.000000 0.000000 1.666640 
# 
# From -- ./inp_files/21174.got.cif
#   From: 2010.03.12/outbox.cif.g09.slc.cpg/sg59_11_cif.got.tgz:21174.got - 2010.04.16 16:29:54.
