data_PCOD8242979
_publ_section_title
;
Structure prediction by ZEFSAII (Michael W. Deem and Ramdas Pophale) SiO2 
 PCOD8242979
Probable space group: P M M N
;
_chemical_formula_sum "Si O2"
_cell_formula_units_Z 64
_cell_length_a 18.308200
_cell_length_b 9.184092
_cell_length_c 20.388637
_cell_angle_alpha 90.000000
_cell_angle_beta 90.000000
_cell_angle_gamma 90.000000
_cell_volume 3428.230918
_symmetry_space_group_name_H-M "P M M N"
_symmetry_group_IT_number 59
_space_group.IT_coordinate_system_code '2'
_symmetry_cell_setting 'orthorhombic'
loop_
_space_group_symop_operation_xyz
x,y,z
1/2-x,1/2-y,z
1/2+x,-y,-z
-x,1/2+y,-z
-x,-y,-z
1/2+x,1/2+y,-z
1/2-x,y,z
x,1/2-y,z
loop_
_atom_site_type_symbol
_atom_site_label
_atom_site_fract_x
_atom_site_fract_y
_atom_site_fract_z
Si Si1 0.336747 0.586908 0.639069
Si Si2 0.836738 0.911180 0.483911
Si Si3 0.081803 0.580776 0.257211
Si Si4 0.912448 0.919076 0.246255
Si Si5 0.165609 0.917160 0.009732
Si Si6 0.664868 0.919006 0.630717
Si Si7 0.406339 0.420253 0.125941
Si Si8 0.425410 0.919330 0.884082
O O1 0.250000 0.587586 0.638155
O O2 0.367986 0.750000 0.646331
O O3 0.367670 0.521527 0.570716
O O4 0.361862 0.489746 0.699245
O O5 0.750000 0.904896 0.481141
O O6 0.867989 0.750000 0.468783
O O7 0.860088 0.960598 0.556854
O O8 0.099730 0.750000 0.248057
O O9 0.119547 0.522134 0.322116
O O10 0.113259 0.495948 0.194556
O O11 0.996074 0.551803 0.264888
O O12 0.893625 0.750000 0.241699
O O13 0.893452 0.990629 0.176584
O O14 0.250000 0.936257 0.990980
O O15 0.146953 0.750000 0.027064
O O16 0.117621 0.970656 0.948404
O O17 0.147526 0.016636 0.071595
O O18 0.750000 0.951248 0.641141
O O19 0.647745 0.750000 0.645090
O O20 0.391645 0.250000 0.133740
O O21 0.489379 0.454256 0.104925
O O22 0.412318 0.750000 0.869074
#
# Coordination Sequence:
#
# PCOD8242979 Si02
#       8
#     8   8   8   8   8   8   8   8
#     4  10  20  33  52  78 105 135 173 215 258 307
#     4   8  15  30  51  74 102 135 170 210 257 308
#     4  10  21  36  54  77 105 137 174 215 258 306
#     4  10  21  36  54  77 105 137 174 215 258 306
#     4  10  21  36  54  78 108 136 163 205 258 305
#     4   9  18  33  54  79 105 135 172 214 261 311
#     4  10  20  35  56  77 100 135 175 212 250 300
#     4   9  19  36  56  77 102 135 173 210 253 305
#
# _framework density 18.668520999999998
#
# number of rings (size 3 to 8) (size 9 to 14) (size 15 to 20)
#    0.000    2.500    0.000    2.625    0.000    5.250 
#    0.000    3.125    0.000    0.000    0.000    0.000 
#    0.000    0.000    0.000    0.000    0.000    0.000 
#
# Total GULP energy -793742.896494 kJ/mol
# GULP energy per Si atom -12402.232758 kJ/mol
# Density = 1.862603 g / cm^3
# Si number density = 18.668521 Si / 1000 Ang^3
#
#
#
# Elastic Constant Matrix: (Units=GPa)
#
#
# Indices 1 2 3 4 5 6 
#
# 1 29.4419 23.8809 26.4795 0.0000 0.0000 0.0000
# 2 23.8809 96.9465 61.4972 0.0000 0.0000 0.0000
# 3 26.4795 61.4972 122.5677 0.0000 0.0000 0.0000
# 4 0.0000 0.0000 0.0000 38.9080 0.0000 0.0000
# 5 0.0000 0.0000 0.0000 0.0000 29.9640 0.0000
# 6 0.0000 0.0000 0.0000 0.0000 0.0000 26.6146
#
#
#
# Elastic Compliance Matrix: (Units=1/GPa)
#
#
# Indices 1 2 3 4 5 6 
#
# 1 0.045407 -0.007279 -0.006158 0.000000 0.000000 0.000000
# 2 -0.007279 0.016298 -0.006605 0.000000 0.000000 0.000000
# 3 -0.006158 -0.006605 0.012803 0.000000 0.000000 0.000000
# 4 0.000000 0.000000 0.000000 0.025702 0.000000 0.000000
# 5 0.000000 0.000000 0.000000 0.000000 0.033373 0.000000
# 6 0.000000 0.000000 0.000000 0.000000 0.000000 0.037573
#
#
# Mechanical properties :
#
#
# Convention : Reuss Voigt Hill
#
# Bulk Modulus (GPa) = 29.04850 52.51904 40.78377
# Shear Modulus (GPa) = 22.45030 28.23722 25.34376
#
# Velocity S-wave (km/s) = 3.47158 3.89338 3.68851
# Velocity P-wave (km/s) = 5.62700 6.95735 6.32723
#
# Compressibility (1/GPa) = 0.03442518
#
# Stress axis : x y z
#
# Youngs Moduli (GPa) = 22.02280 61.35865 78.10793
#
# Poissons Ratio (x) = 0.44665 0.48095
# Poissons Ratio (y) = 0.16031 0.51587
# Poissons Ratio (z) = 0.13561 0.40525
#
# Static dielectric constant tensor:
#      x y z
#    x 3.184900 0.000000 0.000000 
#    y 0.000000 3.595630 0.000000 
#    z 0.000000 0.000000 3.542160 
# 
# 
# High freq. dielectric constant tensor:
#      x y z
#    x 1.701080 0.000000 0.000000 
#    y 0.000000 1.730450 0.000000 
#    z 0.000000 0.000000 1.736050 
# 
# From -- ./inp_files/28257.got.cif
#   From: 2010.03.12/outbox.cif.g09.slc.cpg/sg59_15_cif.got.tgz:28257.got - 2010.04.16 16:29:54.
