data_PCOD8242357
_publ_section_title
;
Structure prediction by ZEFSAII (Michael W. Deem and Ramdas Pophale) SiO2 
 PCOD8242357
Probable space group: P M M N
;
_chemical_formula_sum "Si O2"
_cell_formula_units_Z 64
_cell_length_a 9.008850
_cell_length_b 30.337146
_cell_length_c 12.167421
_cell_angle_alpha 90.000000
_cell_angle_beta 90.000000
_cell_angle_gamma 90.000000
_cell_volume 3325.390201
_symmetry_space_group_name_H-M "P M M N"
_symmetry_group_IT_number 59
_space_group.IT_coordinate_system_code '2'
_symmetry_cell_setting 'orthorhombic'
loop_
_space_group_symop_operation_xyz
x,y,z
1/2-x,1/2-y,z
1/2+x,-y,-z
-x,1/2+y,-z
-x,-y,-z
1/2+x,1/2+y,-z
1/2-x,y,z
x,1/2-y,z
loop_
_atom_site_type_symbol
_atom_site_label
_atom_site_fract_x
_atom_site_fract_y
_atom_site_fract_z
Si Si1 0.912112 0.115988 0.904346
Si Si2 0.426310 0.110930 0.683130
Si Si3 0.927083 0.482068 0.659908
Si Si4 0.420012 0.651524 0.511421
Si Si5 0.926993 0.130094 0.151617
Si Si6 0.092721 0.986445 0.100981
Si Si7 0.920901 0.698897 0.698604
Si Si8 0.082527 0.933603 0.660628
O O1 0.750000 0.139256 0.886958
O O2 0.881187 0.064931 0.901162
O O3 0.024754 0.126846 0.805103
O O4 0.978849 0.127542 0.024462
O O5 0.250000 0.107188 0.679665
O O6 0.496129 0.064726 0.639876
O O7 0.486249 0.148289 0.600914
O O8 0.750000 0.476759 0.643307
O O9 0.977200 0.498292 0.782107
O O10 0.991728 0.525890 0.600419
O O11 0.250000 0.664110 0.484803
O O12 0.493196 0.689479 0.585198
O O13 0.428906 0.605496 0.574298
O O14 0.750000 0.135712 0.162336
O O15 0.974325 0.086133 0.221223
O O16 0.006062 0.172863 0.200557
O O17 0.250000 0.010985 0.089798
O O18 0.000000 0.000000 0.000000
O O19 0.750000 0.684385 0.685219
O O20 0.935460 0.750000 0.727304
O O21 0.250000 0.950790 0.672735
#
# Coordination Sequence:
#
# PCOD8242357 Si02
#       8
#     8   8   8   8   8   8   8   8
#     4   9  18  33  50  71 102 138 175 215 258 305
#     4  11  22  35  52  74 102 140 185 228 269 314
#     4  10  20  32  45  65  97 138 181 223 267 314
#     4  10  21  38  58  78 104 138 176 219 265 317
#     4   9  18  33  55  81 109 141 175 213 259 314
#     4   9  17  27  40  60  89 127 170 214 256 296
#     4  10  21  37  59  88 117 139 163 203 255 310
#     4   9  18  32  50  74 101 132 175 225 272 313
#
# _framework density 19.245861999999999
#
# number of rings (size 3 to 8) (size 9 to 14) (size 15 to 20)
#    0.000    2.375    0.000    4.500    0.000    8.000 
#    0.000    0.000    0.000    0.750    0.000    3.500 
#    0.000    0.000    0.000    0.000    0.000    0.000 
#
# Total GULP energy -792967.115958 kJ/mol
# GULP energy per Si atom -12390.111187 kJ/mol
# Density = 1.920206 g / cm^3
# Si number density = 19.245862 Si / 1000 Ang^3
#
#
#
# Elastic Constant Matrix: (Units=GPa)
#
#
# Indices 1 2 3 4 5 6 
#
# 1 104.6516 25.3144 27.3749 0.0000 0.0000 0.0000
# 2 25.3144 52.6911 10.7071 0.0000 0.0000 0.0000
# 3 27.3749 10.7071 64.2657 0.0000 0.0000 0.0000
# 4 0.0000 0.0000 0.0000 18.5268 0.0000 0.0000
# 5 0.0000 0.0000 0.0000 0.0000 30.8788 0.0000
# 6 0.0000 0.0000 0.0000 0.0000 0.0000 26.8291
#
#
#
# Elastic Compliance Matrix: (Units=1/GPa)
#
#
# Indices 1 2 3 4 5 6 
#
# 1 0.011830 -0.004823 -0.004236 0.000000 0.000000 0.000000
# 2 -0.004823 0.021610 -0.001546 0.000000 0.000000 0.000000
# 3 -0.004236 -0.001546 0.017622 0.000000 0.000000 0.000000
# 4 0.000000 0.000000 0.000000 0.053976 0.000000 0.000000
# 5 0.000000 0.000000 0.000000 0.000000 0.032385 0.000000
# 6 0.000000 0.000000 0.000000 0.000000 0.000000 0.037273
#
#
# Mechanical properties :
#
#
# Convention : Reuss Voigt Hill
#
# Bulk Modulus (GPa) = 33.49739 38.71125 36.10432
# Shear Modulus (GPa) = 24.28888 25.79441 25.04165
#
# Velocity S-wave (km/s) = 3.55636 3.66492 3.61105
# Velocity P-wave (km/s) = 5.85717 6.16982 6.01552
#
# Compressibility (1/GPa) = 0.02985307
#
# Stress axis : x y z
#
# Youngs Moduli (GPa) = 84.53017 46.27546 56.74651
#
# Poissons Ratio (x) = 0.22318 0.24036
# Poissons Ratio (y) = 0.40767 0.08773
# Poissons Ratio (z) = 0.35804 0.07154
#
# Static dielectric constant tensor:
#      x y z
#    x 4.377560 0.000000 0.000000 
#    y 0.000000 3.177260 0.000000 
#    z 0.000000 0.000000 3.695160 
# 
# 
# High freq. dielectric constant tensor:
#      x y z
#    x 1.751710 0.000000 0.000000 
#    y 0.000000 1.708680 0.000000 
#    z 0.000000 0.000000 1.758210 
# 
# From -- ./inp_files/14874.got.cif
#   From: 2010.03.12/outbox.cif.g09.slc.cpg/sg59_8_cif.got.tgz:14874.got - 2010.04.16 16:29:54.
