data_PCOD8242033
_publ_section_title
;
Structure prediction by ZEFSAII (Michael W. Deem and Ramdas Pophale) SiO2 
 PCOD8242033
Probable space group: P M M N
;
_chemical_formula_sum "Si O2"
_cell_formula_units_Z 40
_cell_length_a 14.444712
_cell_length_b 14.078345
_cell_length_c 9.844665
_cell_angle_alpha 90.000000
_cell_angle_beta 90.000000
_cell_angle_gamma 90.000000
_cell_volume 2001.987831
_symmetry_space_group_name_H-M "P M M N"
_symmetry_group_IT_number 59
_space_group.IT_coordinate_system_code '2'
_symmetry_cell_setting 'orthorhombic'
loop_
_space_group_symop_operation_xyz
x,y,z
1/2-x,1/2-y,z
1/2+x,-y,-z
-x,1/2+y,-z
-x,-y,-z
1/2+x,1/2+y,-z
1/2-x,y,z
x,1/2-y,z
loop_
_atom_site_type_symbol
_atom_site_label
_atom_site_fract_x
_atom_site_fract_y
_atom_site_fract_z
Si Si1 0.852767 0.358272 0.731529
Si Si2 0.535619 0.861178 0.401895
Si Si3 0.906953 0.979881 0.918502
Si Si4 0.850960 0.643415 0.152644
Si Si5 0.641114 0.862535 0.665863
O O1 0.750000 0.373918 0.670954
O O2 0.868386 0.250000 0.778424
O O3 0.864864 0.420443 0.867783
O O4 0.925739 0.384388 0.610857
O O5 0.556313 0.750000 0.405083
O O6 0.579953 0.902290 0.263225
O O7 0.585856 0.903547 0.534341
O O8 0.914610 0.911157 0.788191
O O9 0.841313 0.924692 0.022979
O O10 0.000000 0.000000 0.000000
O O11 0.750000 0.649328 0.221085
O O12 0.883112 0.750000 0.108288
O O13 0.750000 0.892919 0.661257
O O14 0.632240 0.750000 0.680248
#
# Coordination Sequence:
#
# PCOD8242033 Si02
#       5
#     8   8   8   8   8
#     4  10  21  38  58  79 112 158 203 242 280 336
#     4   9  18  35  59  88 115 147 189 231 288 350
#     4  12  23  36  55  83 116 156 194 239 283 341
#     4  10  19  34  58  86 117 148 184 237 296 350
#     4  10  21  38  62  92 123 149 181 237 301 353
#
# _framework density 19.980141
#
# number of rings (size 3 to 8) (size 9 to 14) (size 15 to 20)
#    0.000    1.800    2.000    3.000    0.000    5.600 
#    0.000    0.000    0.000    2.400    0.000    2.800 
#    0.000    0.000    0.000    0.000    0.000    0.000 
#
# Total GULP energy -495648.858316 kJ/mol
# GULP energy per Si atom -12391.221458 kJ/mol
# Density = 1.993467 g / cm^3
# Si number density = 19.980141 Si / 1000 Ang^3
#
#
#
# Elastic Constant Matrix: (Units=GPa)
#
#
# Indices 1 2 3 4 5 6 
#
# 1 150.3445 35.7680 70.4873 0.0000 0.0000 0.0000
# 2 35.7680 81.5008 42.3043 0.0000 0.0000 0.0000
# 3 70.4873 42.3043 141.2411 0.0000 0.0000 0.0000
# 4 0.0000 0.0000 0.0000 27.8994 0.0000 0.0000
# 5 0.0000 0.0000 0.0000 0.0000 33.1578 0.0000
# 6 0.0000 0.0000 0.0000 0.0000 0.0000 14.0808
#
#
#
# Elastic Compliance Matrix: (Units=1/GPa)
#
#
# Indices 1 2 3 4 5 6 
#
# 1 0.008925 -0.001900 -0.003885 0.000000 0.000000 0.000000
# 2 -0.001900 0.014933 -0.003524 0.000000 0.000000 0.000000
# 3 -0.003885 -0.003524 0.010074 0.000000 0.000000 0.000000
# 4 0.000000 0.000000 0.000000 0.035843 0.000000 0.000000
# 5 0.000000 0.000000 0.000000 0.000000 0.030159 0.000000
# 6 0.000000 0.000000 0.000000 0.000000 0.000000 0.071019
#
#
# Mechanical properties :
#
#
# Convention : Reuss Voigt Hill
#
# Bulk Modulus (GPa) = 65.30227 74.46729 69.88478
# Shear Modulus (GPa) = 25.68362 29.99606 27.83984
#
# Velocity S-wave (km/s) = 3.58922 3.87886 3.73684
# Velocity P-wave (km/s) = 7.06620 7.57709 7.32610
#
# Compressibility (1/GPa) = 0.01531340
#
# Stress axis : x y z
#
# Youngs Moduli (GPa) = 112.04667 66.96490 99.26095
#
# Poissons Ratio (x) = 0.12726 0.38561
# Poissons Ratio (y) = 0.21293 0.34983
# Poissons Ratio (z) = 0.43528 0.23601
#
# Static dielectric constant tensor:
#      x y z
#    x 3.800760 0.000000 0.000000 
#    y 0.000000 3.719090 0.000000 
#    z 0.000000 0.000000 3.674090 
# 
# 
# High freq. dielectric constant tensor:
#      x y z
#    x 1.787540 0.000000 0.000000 
#    y 0.000000 1.777250 0.000000 
#    z 0.000000 0.000000 1.763830 
# 
# From -- ./inp_files/8605.got.cif
#   From: 2010.03.12/outbox.cif.g09.slc.cpg/sg59_5_cif.got.tgz:8605.got - 2010.04.16 16:29:54.
