data_PCOD8242596
_publ_section_title
;
Structure prediction by ZEFSAII (Michael W. Deem and Ramdas Pophale) SiO2 
 PCOD8242596
Probable space group: P M M N
;
_chemical_formula_sum "Si O2"
_cell_formula_units_Z 64
_cell_length_a 9.085187
_cell_length_b 13.936752
_cell_length_c 31.348923
_cell_angle_alpha 90.000000
_cell_angle_beta 90.000000
_cell_angle_gamma 90.000000
_cell_volume 3969.337873
_symmetry_space_group_name_H-M "P M M N"
_symmetry_group_IT_number 59
_space_group.IT_coordinate_system_code '2'
_symmetry_cell_setting 'orthorhombic'
loop_
_space_group_symop_operation_xyz
x,y,z
1/2-x,1/2-y,z
1/2+x,-y,-z
-x,1/2+y,-z
-x,-y,-z
1/2+x,1/2+y,-z
1/2-x,y,z
x,1/2-y,z
loop_
_atom_site_type_symbol
_atom_site_label
_atom_site_fract_x
_atom_site_fract_y
_atom_site_fract_z
Si Si1 0.578474 0.362751 0.317200
Si Si2 0.924747 0.644159 0.525546
Si Si3 0.077990 0.142581 0.984234
Si Si4 0.078304 0.861164 0.851355
Si Si5 0.415776 0.363934 0.232692
Si Si6 0.424475 0.027624 0.393402
Si Si7 0.920032 0.638235 0.430640
Si Si8 0.077442 0.547101 0.938808
O O1 0.750000 0.388095 0.317697
O O2 0.550616 0.250000 0.323419
O O3 0.510784 0.400189 0.272751
O O4 0.495916 0.417810 0.354335
O O5 0.750000 0.648433 0.525419
O O6 0.988051 0.750000 0.535307
O O7 0.982507 0.575175 0.562652
O O8 0.976808 0.611395 0.478445
O O9 0.250000 0.136632 0.993628
O O10 0.033262 0.250000 0.968823
O O11 0.033451 0.063975 0.948288
O O12 0.998327 0.119119 0.028331
O O13 0.250000 0.874317 0.841550
O O14 0.041592 0.750000 0.860856
O O15 0.026135 0.925158 0.891368
O O16 0.989656 0.901483 0.810786
O O17 0.250000 0.404448 0.236173
O O18 0.415789 0.250000 0.232085
O O19 0.250000 0.031277 0.388199
O O20 0.482176 0.918542 0.395963
O O21 0.750000 0.609572 0.424912
O O22 0.943471 0.750000 0.421711
O O23 0.250000 0.563958 0.943750
#
# Coordination Sequence:
#
# PCOD8242596 Si02
#       8
#     8   8   8   8   8   8   8   8
#     4  10  20  33  48  67  93 122 149 177 213 264
#     4   8  15  28  45  65  90 120 150 180 217 260
#     4   9  17  28  41  59  86 118 151 189 228 260
#     4   9  16  26  41  61  85 113 144 177 214 259
#     4   9  17  29  45  65  89 115 141 173 217 265
#     4  11  20  29  46  70  94 119 148 184 224 265
#     4   9  18  33  49  63  85 119 156 191 224 259
#     4   9  17  28  42  61  85 116 153 187 221 264
#
# _framework density 16.123595000000002
#
# number of rings (size 3 to 8) (size 9 to 14) (size 15 to 20)
#    0.000    2.750    0.000    3.000    0.000    4.250 
#    0.000    1.875    0.000    1.500    0.000    0.875 
#    0.000    5.000    0.000    0.000    0.000    0.000 
#
# Total GULP energy -793421.049396 kJ/mol
# GULP energy per Si atom -12397.203897 kJ/mol
# Density = 1.608690 g / cm^3
# Si number density = 16.123595 Si / 1000 Ang^3
#
#
#
# Elastic Constant Matrix: (Units=GPa)
#
#
# Indices 1 2 3 4 5 6 
#
# 1 73.0859 39.7301 59.7554 0.0000 0.0000 0.0000
# 2 39.7301 75.6253 57.3702 0.0000 0.0000 0.0000
# 3 59.7554 57.3702 117.6319 0.0000 0.0000 0.0000
# 4 0.0000 0.0000 0.0000 22.7383 0.0000 0.0000
# 5 0.0000 0.0000 0.0000 0.0000 28.8721 0.0000
# 6 0.0000 0.0000 0.0000 0.0000 0.0000 19.4251
#
#
#
# Elastic Compliance Matrix: (Units=1/GPa)
#
#
# Indices 1 2 3 4 5 6 
#
# 1 0.024766 -0.005503 -0.009897 0.000000 0.000000 0.000000
# 2 -0.005503 0.022211 -0.008037 0.000000 0.000000 0.000000
# 3 -0.009897 -0.008037 0.017448 0.000000 0.000000 0.000000
# 4 0.000000 0.000000 0.000000 0.043979 0.000000 0.000000
# 5 0.000000 0.000000 0.000000 0.000000 0.034635 0.000000
# 6 0.000000 0.000000 0.000000 0.000000 0.000000 0.051480
#
#
# Mechanical properties :
#
#
# Convention : Reuss Voigt Hill
#
# Bulk Modulus (GPa) = 56.97568 64.45050 60.71309
# Shear Modulus (GPa) = 20.22299 21.50626 20.86463
#
# Velocity S-wave (km/s) = 3.54538 3.65614 3.60118
# Velocity P-wave (km/s) = 7.22310 7.60807 7.41808
#
# Compressibility (1/GPa) = 0.01755135
#
# Stress axis : x y z
#
# Youngs Moduli (GPa) = 40.37855 45.02236 57.31211
#
# Poissons Ratio (x) = 0.24776 0.56720
# Poissons Ratio (y) = 0.22220 0.46063
# Poissons Ratio (z) = 0.39962 0.36185
#
# Static dielectric constant tensor:
#      x y z
#    x 3.006640 0.000000 0.000000 
#    y 0.000000 3.002810 0.000000 
#    z 0.000000 0.000000 3.098480 
# 
# 
# High freq. dielectric constant tensor:
#      x y z
#    x 1.617540 0.000000 0.000000 
#    y 0.000000 1.596890 0.000000 
#    z 0.000000 0.000000 1.611270 
# 
# From -- ./inp_files/33192.got.cif
#   From: 2010.03.12/outbox.cif.g09.slc.cpg/sg59_17_cif.got.tgz:33192.got - 2010.04.16 16:29:54.
