data_PCOD8242075
_publ_section_title
;
Structure prediction by ZEFSAII (Michael W. Deem and Ramdas Pophale) SiO2 
 PCOD8242075
Probable space group: P M M N
;
_chemical_formula_sum "Si O2"
_cell_formula_units_Z 48
_cell_length_a 9.805588
_cell_length_b 8.660037
_cell_length_c 29.062456
_cell_angle_alpha 90.000000
_cell_angle_beta 90.000000
_cell_angle_gamma 90.000000
_cell_volume 2467.889453
_symmetry_space_group_name_H-M "P M M N"
_symmetry_group_IT_number 59
_space_group.IT_coordinate_system_code '2'
_symmetry_cell_setting 'orthorhombic'
loop_
_space_group_symop_operation_xyz
x,y,z
1/2-x,1/2-y,z
1/2+x,-y,-z
-x,1/2+y,-z
-x,-y,-z
1/2+x,1/2+y,-z
1/2-x,y,z
x,1/2-y,z
loop_
_atom_site_type_symbol
_atom_site_label
_atom_site_fract_x
_atom_site_fract_y
_atom_site_fract_z
Si Si1 0.907865 0.432260 0.459587
Si Si2 0.750000 0.932644 0.040192
Si Si3 0.594146 0.572340 0.714084
Si Si4 0.094288 0.930703 0.383390
Si Si5 0.402817 0.932461 0.794305
Si Si6 0.750000 0.568063 0.937256
Si Si7 0.528024 0.066979 0.105040
O O1 0.750000 0.493140 0.461181
O O2 0.906606 0.250000 0.464645
O O3 0.000000 0.500000 0.500000
O O4 0.981016 0.478445 0.412256
O O5 0.750000 0.750000 0.039259
O O6 0.618078 0.991893 0.065960
O O7 0.750000 0.003344 0.988559
O O8 0.750000 0.559418 0.730109
O O9 0.555775 0.750000 0.702865
O O10 0.565754 0.469366 0.669520
O O11 0.503598 0.502028 0.755333
O O12 0.250000 0.980372 0.396764
O O13 0.075101 0.750000 0.392104
O O14 0.250000 0.980212 0.780506
O O15 0.421453 0.750000 0.796723
O O16 0.437124 0.000861 0.844567
O O17 0.750000 0.750000 0.943100
O O18 0.623102 0.513407 0.907137
O O19 0.550455 0.250000 0.103942
#
# Coordination Sequence:
#
# PCOD8242075 Si02
#       7
#     8   4   8   8   8   4   8
#     4  11  24  40  60  88 120 155 196 241 286 332
#     4  11  21  35  51  75 109 141 175 219 270 327
#     4   9  18  32  53  80 108 139 176 225 281 331
#     4  10  21  38  59  84 116 153 192 232 276 332
#     4   9  17  30  51  78 102 129 173 225 273 323
#     4   9  20  33  53  81 105 133 177 227 270 321
#     4  10  19  35  56  78 103 138 179 222 271 326
#
# _framework density 19.449819000000002
#
# number of rings (size 3 to 8) (size 9 to 14) (size 15 to 20)
#    0.000    2.167    0.833    2.250    1.167    5.000 
#    0.000    3.750    0.000    0.000    0.000    0.000 
#    0.000    0.000    0.000    0.000    0.000    0.000 
#
# Total GULP energy -595146.503972 kJ/mol
# GULP energy per Si atom -12398.885499 kJ/mol
# Density = 1.940555 g / cm^3
# Si number density = 19.449819 Si / 1000 Ang^3
#
#
#
# Elastic Constant Matrix: (Units=GPa)
#
#
# Indices 1 2 3 4 5 6 
#
# 1 153.3143 27.2127 73.3375 0.0000 0.0000 0.0000
# 2 27.2127 37.6310 17.9024 0.0000 0.0000 0.0000
# 3 73.3375 17.9024 118.7703 0.0000 0.0000 0.0000
# 4 0.0000 0.0000 0.0000 26.7550 0.0000 0.0000
# 5 0.0000 0.0000 0.0000 0.0000 43.1154 0.0000
# 6 0.0000 0.0000 0.0000 0.0000 0.0000 23.2774
#
#
#
# Elastic Compliance Matrix: (Units=1/GPa)
#
#
# Indices 1 2 3 4 5 6 
#
# 1 0.009945 -0.004600 -0.005447 0.000000 0.000000 0.000000
# 2 -0.004600 0.030754 -0.001795 0.000000 0.000000 0.000000
# 3 -0.005447 -0.001795 0.012054 0.000000 0.000000 0.000000
# 4 0.000000 0.000000 0.000000 0.037376 0.000000 0.000000
# 5 0.000000 0.000000 0.000000 0.000000 0.023194 0.000000
# 6 0.000000 0.000000 0.000000 0.000000 0.000000 0.042960
#
#
# Mechanical properties :
#
#
# Convention : Reuss Voigt Hill
#
# Bulk Modulus (GPa) = 34.40232 60.73565 47.56898
# Shear Modulus (GPa) = 26.36339 31.38044 28.87192
#
# Velocity S-wave (km/s) = 3.68565 4.02108 3.85701
# Velocity P-wave (km/s) = 5.98650 7.27003 6.65926
#
# Compressibility (1/GPa) = 0.02906781
#
# Stress axis : x y z
#
# Youngs Moduli (GPa) = 100.55618 32.51569 82.96196
#
# Poissons Ratio (x) = 0.14957 0.45191
# Poissons Ratio (y) = 0.46256 0.14894
# Poissons Ratio (z) = 0.54775 0.05837
#
# Static dielectric constant tensor:
#      x y z
#    x 3.853470 0.000000 0.000000 
#    y 0.000000 3.278960 0.000000 
#    z 0.000000 0.000000 3.737570 
# 
# 
# High freq. dielectric constant tensor:
#      x y z
#    x 1.769340 0.000000 0.000000 
#    y 0.000000 1.725120 0.000000 
#    z 0.000000 0.000000 1.769160 
# 
# From -- ./inp_files/33081.got.cif
#   From: 2010.03.12/outbox.cif.g09.slc.cpg/sg59_17_cif.got.tgz:33081.got - 2010.04.16 16:29:54.
