data_PCOD8242339
_publ_section_title
;
Structure prediction by ZEFSAII (Michael W. Deem and Ramdas Pophale) SiO2 
 PCOD8242339
Probable space group: P M M N
;
_chemical_formula_sum "Si O2"
_cell_formula_units_Z 56
_cell_length_a 9.240411
_cell_length_b 23.444876
_cell_length_c 13.971927
_cell_angle_alpha 90.000000
_cell_angle_beta 90.000000
_cell_angle_gamma 90.000000
_cell_volume 3026.882318
_symmetry_space_group_name_H-M "P M M N"
_symmetry_group_IT_number 59
_space_group.IT_coordinate_system_code '2'
_symmetry_cell_setting 'orthorhombic'
loop_
_space_group_symop_operation_xyz
x,y,z
1/2-x,1/2-y,z
1/2+x,-y,-z
-x,1/2+y,-z
-x,-y,-z
1/2+x,1/2+y,-z
1/2-x,y,z
x,1/2-y,z
loop_
_atom_site_type_symbol
_atom_site_label
_atom_site_fract_x
_atom_site_fract_y
_atom_site_fract_z
Si Si1 0.414600 0.315797 0.155200
Si Si2 0.915772 0.403103 0.041580
Si Si3 0.582218 0.368793 0.323771
Si Si4 0.916260 0.315644 0.521365
Si Si5 0.919196 0.816202 0.287800
Si Si6 0.583915 0.018682 0.216631
Si Si7 0.581506 0.410277 0.821993
O O1 0.250000 0.336192 0.165558
O O2 0.425865 0.250000 0.128888
O O3 0.486458 0.349038 0.067188
O O4 0.492694 0.327421 0.255418
O O5 0.750000 0.384407 0.056068
O O6 0.953034 0.455034 0.112654
O O7 0.947323 0.421803 0.933695
O O8 0.750000 0.354669 0.305839
O O9 0.538821 0.355935 0.432929
O O10 0.549750 0.434851 0.299039
O O11 0.750000 0.325932 0.551608
O O12 0.940971 0.250000 0.491399
O O13 0.018341 0.333280 0.608790
O O14 0.750000 0.830332 0.286412
O O15 0.949788 0.750000 0.265630
O O16 0.000455 0.852453 0.207162
O O17 0.750000 0.998677 0.221304
O O18 0.483140 0.964094 0.235536
O O19 0.750000 0.404222 0.797581
#
# Coordination Sequence:
#
# PCOD8242339 Si02
#       7
#     8   8   8   8   8   8   8
#     4  10  20  31  46  74 109 140 172 213 259 308
#     4   9  20  36  53  74 101 137 178 218 259 306
#     4   9  18  33  54  79 107 140 174 209 255 310
#     4   9  17  32  56  82 106 135 172 213 256 304
#     4  10  22  39  57  78 105 136 171 214 262 309
#     4   9  18  34  54  78 108 137 169 210 256 308
#     4  11  22  36  56  79 102 134 176 217 260 308
#
# _framework density 18.500883000000002
#
# number of rings (size 3 to 8) (size 9 to 14) (size 15 to 20)
#    0.000    2.429    0.000    3.000    0.000    7.143 
#    0.000    5.000    0.000    0.000    0.000    0.000 
#    0.000    0.000    0.000    0.000    0.000    0.000 
#
# Total GULP energy -694538.706029 kJ/mol
# GULP energy per Si atom -12402.476893 kJ/mol
# Density = 1.845877 g / cm^3
# Si number density = 18.500883 Si / 1000 Ang^3
#
#
#
# Elastic Constant Matrix: (Units=GPa)
#
#
# Indices 1 2 3 4 5 6 
#
# 1 98.2110 54.0054 33.7561 0.0000 0.0000 0.0000
# 2 54.0054 88.3237 36.0422 0.0000 0.0000 0.0000
# 3 33.7561 36.0422 68.6435 0.0000 0.0000 0.0000
# 4 0.0000 0.0000 0.0000 23.3375 0.0000 0.0000
# 5 0.0000 0.0000 0.0000 0.0000 21.4477 0.0000
# 6 0.0000 0.0000 0.0000 0.0000 0.0000 33.7350
#
#
#
# Elastic Compliance Matrix: (Units=1/GPa)
#
#
# Indices 1 2 3 4 5 6 
#
# 1 0.015963 -0.008345 -0.003468 0.000000 0.000000 0.000000
# 2 -0.008345 0.018772 -0.005753 0.000000 0.000000 0.000000
# 3 -0.003468 -0.005753 0.019294 0.000000 0.000000 0.000000
# 4 0.000000 0.000000 0.000000 0.042850 0.000000 0.000000
# 5 0.000000 0.000000 0.000000 0.000000 0.046625 0.000000
# 6 0.000000 0.000000 0.000000 0.000000 0.000000 0.029643
#
#
# Mechanical properties :
#
#
# Convention : Reuss Voigt Hill
#
# Bulk Modulus (GPa) = 52.91857 55.86507 54.39182
# Shear Modulus (GPa) = 23.30145 24.46232 23.88188
#
# Velocity S-wave (km/s) = 3.55276 3.64019 3.59674
# Velocity P-wave (km/s) = 6.74499 6.92310 6.83463
#
# Compressibility (1/GPa) = 0.01889696
#
# Stress axis : x y z
#
# Youngs Moduli (GPa) = 62.64361 53.26996 51.82936
#
# Poissons Ratio (x) = 0.44456 0.17976
# Poissons Ratio (y) = 0.52279 0.29816
# Poissons Ratio (z) = 0.21726 0.30644
#
# Static dielectric constant tensor:
#      x y z
#    x 3.446270 0.000000 0.000000 
#    y 0.000000 3.276250 0.000000 
#    z 0.000000 0.000000 3.357430 
# 
# 
# High freq. dielectric constant tensor:
#      x y z
#    x 1.722870 0.000000 0.000000 
#    y 0.000000 1.712520 0.000000 
#    z 0.000000 0.000000 1.707070 
# 
# From -- ./inp_files/21030.got.cif
#   From: 2010.03.12/outbox.cif.g09.slc.cpg/sg59_11_cif.got.tgz:21030.got - 2010.04.16 16:29:54.
