data_PCOD8242606
_publ_section_title
;
Structure prediction by ZEFSAII (Michael W. Deem and Ramdas Pophale) SiO2 
 PCOD8242606
Probable space group: P M M N
;
_chemical_formula_sum "Si O2"
_cell_formula_units_Z 56
_cell_length_a 8.903022
_cell_length_b 25.337984
_cell_length_c 14.806081
_cell_angle_alpha 90.000000
_cell_angle_beta 90.000000
_cell_angle_gamma 90.000000
_cell_volume 3340.024289
_symmetry_space_group_name_H-M "P M M N"
_symmetry_group_IT_number 59
_space_group.IT_coordinate_system_code '2'
_symmetry_cell_setting 'orthorhombic'
loop_
_space_group_symop_operation_xyz
x,y,z
1/2-x,1/2-y,z
1/2+x,-y,-z
-x,1/2+y,-z
-x,-y,-z
1/2+x,1/2+y,-z
1/2-x,y,z
x,1/2-y,z
loop_
_atom_site_type_symbol
_atom_site_label
_atom_site_fract_x
_atom_site_fract_y
_atom_site_fract_z
Si Si1 0.080526 0.750000 0.602546
Si Si2 0.083943 0.563877 0.917272
Si Si3 0.427749 0.556005 0.272593
Si Si4 0.080097 0.750000 0.387810
Si Si5 0.422360 0.143909 0.611930
Si Si6 0.416394 0.061449 0.909856
Si Si7 0.571454 0.443256 0.281005
Si Si8 0.078029 0.355845 0.397740
O O1 0.250000 0.750000 0.641028
O O2 0.082320 0.750000 0.495221
O O3 0.993908 0.801518 0.638423
O O4 0.250000 0.587040 0.933365
O O5 0.089392 0.500949 0.920619
O O6 0.024319 0.579878 0.817653
O O7 0.979171 0.586584 0.996906
O O8 0.250000 0.551084 0.273804
O O9 0.481466 0.596406 0.348314
O O10 0.479370 0.576973 0.174430
O O11 0.498033 0.499874 0.297574
O O12 0.250000 0.750000 0.349630
O O13 0.992279 0.801328 0.352213
O O14 0.250000 0.140423 0.643980
O O15 0.434648 0.140159 0.504731
O O16 0.250000 0.084364 0.893190
O O17 0.750000 0.450315 0.286374
O O18 0.514368 0.404278 0.357542
O O19 0.250000 0.358280 0.365460
#
# Coordination Sequence:
#
# PCOD8242606 Si02
#       8
#     4   8   8   4   8   8   8   8
#     4   9  17  31  51  71  92 119 154 197 239 277
#     4   8  15  27  43  64  89 119 154 191 230 273
#     4  11  21  32  47  68  96 128 161 196 234 281
#     4   9  17  31  51  73  92 115 154 199 239 277
#     4  10  20  34  50  69  95 126 159 196 237 279
#     4   9  16  27  44  65  90 120 153 191 233 276
#     4  10  20  33  48  68  97 129 160 194 234 283
#     4  10  20  33  50  71  95 124 159 198 237 278
#
# _framework density 16.766344
#
# number of rings (size 3 to 8) (size 9 to 14) (size 15 to 20)
#    0.000    2.429    0.000    4.286    0.000    8.000 
#    0.000    0.000    0.000    0.000    0.000    1.000 
#    0.000    5.714    0.000    0.000    0.000    0.000 
#
# Total GULP energy -694317.800186 kJ/mol
# GULP energy per Si atom -12398.532146 kJ/mol
# Density = 1.672818 g / cm^3
# Si number density = 16.766344 Si / 1000 Ang^3
#
#
#
# Elastic Constant Matrix: (Units=GPa)
#
#
# Indices 1 2 3 4 5 6 
#
# 1 135.3476 53.8059 38.6560 0.0000 0.0000 0.0000
# 2 53.8059 86.0247 34.6862 0.0000 0.0000 0.0000
# 3 38.6560 34.6862 46.1488 0.0000 0.0000 0.0000
# 4 0.0000 0.0000 0.0000 0.0102 0.0000 0.0000
# 5 0.0000 0.0000 0.0000 0.0000 27.6280 0.0000
# 6 0.0000 0.0000 0.0000 0.0000 0.0000 27.9414
#
#
#
# Elastic Compliance Matrix: (Units=1/GPa)
#
#
# Indices 1 2 3 4 5 6 
#
# 1 0.010782 -0.004451 -0.005686 0.000000 0.000000 0.000000
# 2 -0.004451 0.018517 -0.010189 0.000000 0.000000 0.000000
# 3 -0.005686 -0.010189 0.034090 0.000000 0.000000 0.000000
# 4 0.000000 0.000000 0.000000 97.567992 0.000000 0.000000
# 5 0.000000 0.000000 0.000000 0.000000 0.036195 0.000000
# 6 0.000000 0.000000 0.000000 0.000000 0.000000 0.035789
#
#
# Mechanical properties :
#
#
# Convention : Reuss Voigt Hill
#
# Bulk Modulus (GPa) = 43.98185 57.97970 50.98078
# Shear Modulus (GPa) = 0.05115 20.47412 10.26264
#
# Velocity S-wave (km/s) = 0.17485 3.49828 2.47674
# Velocity P-wave (km/s) = 5.13127 7.13956 6.21704
#
# Compressibility (1/GPa) = 0.02273665
#
# Stress axis : x y z
#
# Youngs Moduli (GPa) = 92.74947 54.00422 29.33411
#
# Poissons Ratio (x) = 0.24038 0.16678
# Poissons Ratio (y) = 0.41284 0.29889
# Poissons Ratio (z) = 0.52734 0.55027
#
# Static dielectric constant tensor:
#      x y z
#    x 3.411790 0.000000 0.000000 
#    y 0.000000 2.911290 0.000000 
#    z 0.000000 0.000000 3.156060 
# 
# 
# High freq. dielectric constant tensor:
#      x y z
#    x 1.666390 0.000000 0.000000 
#    y 0.000000 1.610690 0.000000 
#    z 0.000000 0.000000 1.631000 
# 
# From -- ./inp_files/21205.got.cif
#   From: 2010.03.12/outbox.cif.g09.slc.cpg/sg59_11_cif.got.tgz:21205.got - 2010.04.16 16:29:54.
