data_PCOD8242777
_publ_section_title
;
Structure prediction by ZEFSAII (Michael W. Deem and Ramdas Pophale) SiO2 
 PCOD8242777
Probable space group: P M M N
;
_chemical_formula_sum "Si O2"
_cell_formula_units_Z 56
_cell_length_a 8.931708
_cell_length_b 18.947602
_cell_length_c 17.876094
_cell_angle_alpha 90.000000
_cell_angle_beta 90.000000
_cell_angle_gamma 90.000000
_cell_volume 3025.250907
_symmetry_space_group_name_H-M "P M M N"
_symmetry_group_IT_number 59
_space_group.IT_coordinate_system_code '2'
_symmetry_cell_setting 'orthorhombic'
loop_
_space_group_symop_operation_xyz
x,y,z
1/2-x,1/2-y,z
1/2+x,-y,-z
-x,1/2+y,-z
-x,-y,-z
1/2+x,1/2+y,-z
1/2-x,y,z
x,1/2-y,z
loop_
_atom_site_type_symbol
_atom_site_label
_atom_site_fract_x
_atom_site_fract_y
_atom_site_fract_z
Si Si1 0.573990 0.420857 0.078165
Si Si2 0.428101 0.923589 0.500676
Si Si3 0.422472 0.668614 0.781427
Si Si4 0.924634 0.831810 0.627166
Si Si5 0.080135 0.833150 0.199173
Si Si6 0.572412 0.171931 0.634063
Si Si7 0.074952 0.418249 0.927337
O O1 0.750000 0.412348 0.069472
O O2 0.516252 0.377080 0.149369
O O3 0.523914 0.501728 0.089333
O O4 0.501462 0.389557 0.002890
O O5 0.250000 0.930352 0.501517
O O6 0.479820 0.879994 0.572292
O O7 0.487867 0.883377 0.426713
O O8 0.500000 0.000000 0.500000
O O9 0.250000 0.650384 0.762527
O O10 0.440043 0.750000 0.803819
O O11 0.524307 0.649287 0.710738
O O12 0.750000 0.849285 0.618591
O O13 0.959025 0.750000 0.609262
O O14 0.250000 0.859315 0.186154
O O15 0.069880 0.750000 0.186956
O O16 0.024704 0.852848 0.282906
O O17 0.970479 0.870807 0.142212
O O18 0.750000 0.176871 0.630733
O O19 0.506064 0.250000 0.616612
O O20 0.250000 0.413030 0.939299
#
# Coordination Sequence:
#
# PCOD8242777 Si02
#       7
#     8   8   8   8   8   8   8
#     4   9  19  35  52  73 103 139 178 215 254 304
#     4  11  22  36  55  80 110 141 177 220 265 313
#     4   9  18  34  56  79 102 133 175 218 259 306
#     4  10  21  37  56  79 108 140 175 216 264 318
#     4   9  18  34  55  76  98 127 167 213 257 304
#     4   8  16  33  56  78  99 131 176 217 253 301
#     4  10  20  33  50  74 105 138 171 210 257 308
#
# _framework density 18.510860999999998
#
# number of rings (size 3 to 8) (size 9 to 14) (size 15 to 20)
#    0.000    2.571    0.000    2.571    0.000    4.571 
#    0.000    5.714    0.000    1.714    0.000    0.000 
#    0.000    0.000    0.000    0.000    0.000    0.000 
#
# Total GULP energy -694462.155437 kJ/mol
# GULP energy per Si atom -12401.109919 kJ/mol
# Density = 1.846873 g / cm^3
# Si number density = 18.510861 Si / 1000 Ang^3
#
#
#
# Elastic Constant Matrix: (Units=GPa)
#
#
# Indices 1 2 3 4 5 6 
#
# 1 50.1743 33.0153 39.9053 0.0000 0.0000 0.0000
# 2 33.0153 83.5796 75.0864 0.0000 0.0000 0.0000
# 3 39.9053 75.0864 145.9148 0.0000 0.0000 0.0000
# 4 0.0000 0.0000 0.0000 15.0612 0.0000 0.0000
# 5 0.0000 0.0000 0.0000 0.0000 26.3092 0.0000
# 6 0.0000 0.0000 0.0000 0.0000 0.0000 27.9140
#
#
#
# Elastic Compliance Matrix: (Units=1/GPa)
#
#
# Indices 1 2 3 4 5 6 
#
# 1 0.027937 -0.007758 -0.003648 0.000000 0.000000 0.000000
# 2 -0.007758 0.024406 -0.010437 0.000000 0.000000 0.000000
# 3 -0.003648 -0.010437 0.013222 0.000000 0.000000 0.000000
# 4 0.000000 0.000000 0.000000 0.066396 0.000000 0.000000
# 5 0.000000 0.000000 0.000000 0.000000 0.038010 0.000000
# 6 0.000000 0.000000 0.000000 0.000000 0.000000 0.035824
#
#
# Mechanical properties :
#
#
# Convention : Reuss Voigt Hill
#
# Bulk Modulus (GPa) = 45.70865 63.96475 54.83670
# Shear Modulus (GPa) = 19.47235 22.63431 21.05333
#
# Velocity S-wave (km/s) = 3.24688 3.50059 3.37612
# Velocity P-wave (km/s) = 6.22919 7.13927 6.69970
#
# Compressibility (1/GPa) = 0.02187770
#
# Stress axis : x y z
#
# Youngs Moduli (GPa) = 35.79490 40.97343 75.63185
#
# Poissons Ratio (x) = 0.31789 0.27590
# Poissons Ratio (y) = 0.27771 0.78940
# Poissons Ratio (z) = 0.13058 0.42765
#
# Static dielectric constant tensor:
#      x y z
#    x 3.235360 0.000000 0.000000 
#    y 0.000000 3.315260 0.000000 
#    z 0.000000 0.000000 3.576000 
# 
# 
# High freq. dielectric constant tensor:
#      x y z
#    x 1.705060 0.000000 0.000000 
#    y 0.000000 1.713400 0.000000 
#    z 0.000000 0.000000 1.729920 
# 
# From -- ./inp_files/21072.got.cif
#   From: 2010.03.12/outbox.cif.g09.slc.cpg/sg59_11_cif.got.tgz:21072.got - 2010.04.16 16:29:54.
