data_PCOD8242736
_publ_section_title
;
Structure prediction by ZEFSAII (Michael W. Deem and Ramdas Pophale) SiO2 
 PCOD8242736
Probable space group: P M M N
;
_chemical_formula_sum "Si O2"
_cell_formula_units_Z 48
_cell_length_a 8.817563
_cell_length_b 9.106530
_cell_length_c 31.049229
_cell_angle_alpha 90.000000
_cell_angle_beta 90.000000
_cell_angle_gamma 90.000000
_cell_volume 2493.172422
_symmetry_space_group_name_H-M "P M M N"
_symmetry_group_IT_number 59
_space_group.IT_coordinate_system_code '2'
_symmetry_cell_setting 'orthorhombic'
loop_
_space_group_symop_operation_xyz
x,y,z
1/2-x,1/2-y,z
1/2+x,-y,-z
-x,1/2+y,-z
-x,-y,-z
1/2+x,1/2+y,-z
1/2-x,y,z
x,1/2-y,z
loop_
_atom_site_type_symbol
_atom_site_label
_atom_site_fract_x
_atom_site_fract_y
_atom_site_fract_z
Si Si1 0.074999 0.422248 0.197785
Si Si2 0.929700 0.583231 0.460163
Si Si3 0.929011 0.917983 0.959846
Si Si4 0.073046 0.079031 0.880301
Si Si5 0.081524 0.575751 0.716223
Si Si6 0.069374 0.586375 0.622578
O O1 0.250000 0.458945 0.189237
O O2 0.041655 0.250000 0.191102
O O3 0.970660 0.514260 0.165813
O O4 0.032244 0.473598 0.246054
O O5 0.750000 0.568486 0.462406
O O6 0.984458 0.750000 0.462130
O O7 0.993146 0.516046 0.415530
O O8 0.000000 0.500000 0.500000
O O9 0.750000 0.925874 0.964123
O O10 0.985658 0.750000 0.959439
O O11 0.977806 0.994961 0.916069
O O12 0.000000 0.000000 0.000000
O O13 0.250000 0.053672 0.888905
O O14 0.030866 0.250000 0.881879
O O15 0.250000 0.511823 0.725703
O O16 0.092038 0.750000 0.713747
O O17 0.019461 0.521751 0.669473
O O18 0.250000 0.592261 0.622011
O O19 0.003205 0.750000 0.615276
#
# Coordination Sequence:
#
# PCOD8242736 Si02
#       6
#     8   8   8   8   8   8
#     4  10  20  34  54  81 111 143 179 218 263 316
#     4  10  20  33  50  73 100 132 170 211 258 311
#     4  11  24  41  62  89 118 148 184 224 268 320
#     4  11  24  40  58  82 111 145 187 230 271 317
#     4   8  14  27  49  74  99 132 174 216 258 306
#     4   8  14  27  48  71  96 130 171 213 257 306
#
# _framework density 19.252580999999999
#
# number of rings (size 3 to 8) (size 9 to 14) (size 15 to 20)
#    0.000    2.333    0.000    4.000    0.000    8.667 
#    0.000    1.667    0.000    6.000    0.000    0.000 
#    0.000    0.000    0.000    0.000    0.000    0.000 
#
# Total GULP energy -595154.924872 kJ/mol
# GULP energy per Si atom -12399.060935 kJ/mol
# Density = 1.920876 g / cm^3
# Si number density = 19.252581 Si / 1000 Ang^3
#
#
#
# Elastic Constant Matrix: (Units=GPa)
#
#
# Indices 1 2 3 4 5 6 
#
# 1 42.6341 34.5786 25.6614 0.0000 0.0000 0.0000
# 2 34.5786 114.3223 67.9629 0.0000 0.0000 0.0000
# 3 25.6614 67.9629 157.4136 0.0000 0.0000 0.0000
# 4 0.0000 0.0000 0.0000 33.4362 0.0000 0.0000
# 5 0.0000 0.0000 0.0000 0.0000 34.9800 0.0000
# 6 0.0000 0.0000 0.0000 0.0000 0.0000 23.4794
#
#
#
# Elastic Compliance Matrix: (Units=1/GPa)
#
#
# Indices 1 2 3 4 5 6 
#
# 1 0.031296 -0.008654 -0.001365 0.000000 0.000000 0.000000
# 2 -0.008654 0.014161 -0.004703 0.000000 0.000000 0.000000
# 3 -0.001365 -0.004703 0.008606 0.000000 0.000000 0.000000
# 4 0.000000 0.000000 0.000000 0.029908 0.000000 0.000000
# 5 0.000000 0.000000 0.000000 0.000000 0.028588 0.000000
# 6 0.000000 0.000000 0.000000 0.000000 0.000000 0.042591
#
#
# Mechanical properties :
#
#
# Convention : Reuss Voigt Hill
#
# Bulk Modulus (GPa) = 40.62181 63.41953 52.02067
# Shear Modulus (GPa) = 25.93356 30.79025 28.36191
#
# Velocity S-wave (km/s) = 3.67415 4.00344 3.84233
# Velocity P-wave (km/s) = 6.25655 7.37444 6.83838
#
# Compressibility (1/GPa) = 0.02461732
#
# Stress axis : x y z
#
# Youngs Moduli (GPa) = 31.95253 70.61779 116.20067
#
# Poissons Ratio (x) = 0.61115 0.15866
# Poissons Ratio (y) = 0.27653 0.54650
# Poissons Ratio (z) = 0.04363 0.33212
#
# Static dielectric constant tensor:
#      x y z
#    x 3.290010 0.000000 0.000000 
#    y 0.000000 3.503080 0.000000 
#    z 0.000000 0.000000 4.088180 
# 
# 
# High freq. dielectric constant tensor:
#      x y z
#    x 1.730040 0.000000 0.000000 
#    y 0.000000 1.732920 0.000000 
#    z 0.000000 0.000000 1.771350 
# 
# From -- ./inp_files/32914.got.cif
#   From: 2010.03.12/outbox.cif.g09.slc.cpg/sg59_17_cif.got.tgz:32914.got - 2010.04.16 16:29:54.
