data_PCOD8242553
_publ_section_title
;
Structure prediction by ZEFSAII (Michael W. Deem and Ramdas Pophale) SiO2 
 PCOD8242553
Probable space group: P M M N
;
_chemical_formula_sum "Si O2"
_cell_formula_units_Z 64
_cell_length_a 8.949799
_cell_length_b 27.696077
_cell_length_c 14.504330
_cell_angle_alpha 90.000000
_cell_angle_beta 90.000000
_cell_angle_gamma 90.000000
_cell_volume 3595.250968
_symmetry_space_group_name_H-M "P M M N"
_symmetry_group_IT_number 59
_space_group.IT_coordinate_system_code '2'
_symmetry_cell_setting 'orthorhombic'
loop_
_space_group_symop_operation_xyz
x,y,z
1/2-x,1/2-y,z
1/2+x,-y,-z
-x,1/2+y,-z
-x,-y,-z
1/2+x,1/2+y,-z
1/2-x,y,z
x,1/2-y,z
loop_
_atom_site_type_symbol
_atom_site_label
_atom_site_fract_x
_atom_site_fract_y
_atom_site_fract_z
Si Si1 0.926554 0.303836 0.355031
Si Si2 0.422742 0.425906 0.662028
Si Si3 0.421802 0.115550 0.469738
Si Si4 0.577841 0.193491 0.147634
Si Si5 0.072103 0.921090 0.148903
Si Si6 0.427549 0.383709 0.025106
Si Si7 0.075448 0.024896 0.354687
Si Si8 0.576278 0.970774 0.853821
O O1 0.750000 0.304189 0.361166
O O2 0.987195 0.250000 0.375431
O O3 0.974425 0.319534 0.251666
O O4 0.989912 0.338787 0.432492
O O5 0.250000 0.431017 0.690020
O O6 0.443787 0.387401 0.579700
O O7 0.516689 0.406888 0.749066
O O8 0.480538 0.477236 0.624709
O O9 0.250000 0.122206 0.442008
O O10 0.481519 0.066356 0.423184
O O11 0.750000 0.178780 0.132714
O O12 0.555331 0.250000 0.128912
O O13 0.474976 0.165007 0.076132
O O14 0.250000 0.917341 0.147053
O O15 0.013571 0.975468 0.125805
O O16 0.999950 0.884284 0.076310
O O17 0.250000 0.384834 0.016951
O O18 0.494989 0.429988 0.080516
O O19 0.250000 0.012330 0.367724
O O20 0.042837 0.043513 0.251402
O O21 0.750000 0.971670 0.874008
#
# Coordination Sequence:
#
# PCOD8242553 Si02
#       8
#     8   8   8   8   8   8   8   8
#     4   9  19  35  54  77 104 132 164 202 243 293
#     4  10  20  33  48  71 101 132 170 213 253 292
#     4  10  20  32  50  75 102 132 167 208 251 297
#     4   9  19  36  54  74 103 134 162 196 241 294
#     4  10  20  35  51  68  97 137 174 207 247 293
#     4  11  20  31  51  77 102 129 165 207 249 294
#     4   9  17  31  48  70 102 136 168 200 241 296
#     4   8  16  29  46  70 100 131 162 198 238 286
#
# _framework density 17.801259999999999
#
# number of rings (size 3 to 8) (size 9 to 14) (size 15 to 20)
#    0.000    2.500    0.000    4.125    0.000    3.500 
#    0.000    8.125    0.000    0.750    0.000    3.500 
#    0.000    0.000    0.000    0.000    0.000    0.000 
#
# Total GULP energy -793582.057931 kJ/mol
# GULP energy per Si atom -12399.719655 kJ/mol
# Density = 1.776074 g / cm^3
# Si number density = 17.801260 Si / 1000 Ang^3
#
#
#
# Elastic Constant Matrix: (Units=GPa)
#
#
# Indices 1 2 3 4 5 6 
#
# 1 66.7879 36.2662 43.3368 0.0000 0.0000 0.0000
# 2 36.2662 73.0049 56.7022 0.0000 0.0000 0.0000
# 3 43.3368 56.7022 105.2294 0.0000 0.0000 0.0000
# 4 0.0000 0.0000 0.0000 26.6090 0.0000 0.0000
# 5 0.0000 0.0000 0.0000 0.0000 28.9344 0.0000
# 6 0.0000 0.0000 0.0000 0.0000 0.0000 28.3569
#
#
#
# Elastic Compliance Matrix: (Units=1/GPa)
#
#
# Indices 1 2 3 4 5 6 
#
# 1 0.022216 -0.006759 -0.005508 0.000000 0.000000 0.000000
# 2 -0.006759 0.025613 -0.011018 0.000000 0.000000 0.000000
# 3 -0.005508 -0.011018 0.017708 0.000000 0.000000 0.000000
# 4 0.000000 0.000000 0.000000 0.037581 0.000000 0.000000
# 5 0.000000 0.000000 0.000000 0.000000 0.034561 0.000000
# 6 0.000000 0.000000 0.000000 0.000000 0.000000 0.035265
#
#
# Mechanical properties :
#
#
# Convention : Reuss Voigt Hill
#
# Bulk Modulus (GPa) = 52.71716 57.51472 55.11594
# Shear Modulus (GPa) = 22.14005 24.02785 23.08395
#
# Velocity S-wave (km/s) = 3.53049 3.67793 3.60496
# Velocity P-wave (km/s) = 6.80424 7.10040 6.95390
#
# Compressibility (1/GPa) = 0.01896916
#
# Stress axis : x y z
#
# Youngs Moduli (GPa) = 45.01162 39.04342 56.47150
#
# Poissons Ratio (x) = 0.26388 0.31102
# Poissons Ratio (y) = 0.30422 0.62219
# Poissons Ratio (z) = 0.24790 0.43017
#
# Static dielectric constant tensor:
#      x y z
#    x 3.130660 0.000000 0.000000 
#    y 0.000000 3.187800 0.000000 
#    z 0.000000 0.000000 3.326000 
# 
# 
# High freq. dielectric constant tensor:
#      x y z
#    x 1.680810 0.000000 0.000000 
#    y 0.000000 1.665680 0.000000 
#    z 0.000000 0.000000 1.691620 
# 
# From -- ./inp_files/21600.got.cif
#   From: 2010.03.12/outbox.cif.g09.slc.cpg/sg59_11_cif.got.tgz:21600.got - 2010.04.16 16:29:54.
