data_PCOD8242223
_publ_section_title
;
Structure prediction by ZEFSAII (Michael W. Deem and Ramdas Pophale) SiO2 
 PCOD8242223
Probable space group: P M M N
;
_chemical_formula_sum "Si O2"
_cell_formula_units_Z 64
_cell_length_a 14.543774
_cell_length_b 22.744662
_cell_length_c 9.879436
_cell_angle_alpha 90.000000
_cell_angle_beta 90.000000
_cell_angle_gamma 90.000000
_cell_volume 3268.050484
_symmetry_space_group_name_H-M "P M M N"
_symmetry_group_IT_number 59
_space_group.IT_coordinate_system_code '2'
_symmetry_cell_setting 'orthorhombic'
loop_
_space_group_symop_operation_xyz
x,y,z
1/2-x,1/2-y,z
1/2+x,-y,-z
-x,1/2+y,-z
-x,-y,-z
1/2+x,1/2+y,-z
1/2-x,y,z
x,1/2-y,z
loop_
_atom_site_type_symbol
_atom_site_label
_atom_site_fract_x
_atom_site_fract_y
_atom_site_fract_z
Si Si1 0.853733 0.885681 0.970297
Si Si2 0.975289 0.316980 0.719432
Si Si3 0.851209 0.083887 0.648188
Si Si4 0.032676 0.682887 0.964962
Si Si5 0.908534 0.489602 0.413938
Si Si6 0.641284 0.489095 0.893342
Si Si7 0.648692 0.890367 0.281601
Si Si8 0.639217 0.420651 0.156208
O O1 0.750000 0.864031 0.934067
O O2 0.925975 0.834307 0.938757
O O3 0.884484 0.942268 0.882720
O O4 0.856897 0.908411 0.124670
O O5 0.965497 0.250000 0.672106
O O6 0.909520 0.356884 0.626334
O O7 0.079272 0.337174 0.689960
O O8 0.945857 0.324822 0.875867
O O9 0.750000 0.103409 0.694872
O O10 0.840568 0.045247 0.513677
O O11 0.902166 0.045093 0.764990
O O12 0.045169 0.750000 0.919451
O O13 0.103919 0.645328 0.874911
O O14 0.869409 0.552626 0.372560
O O15 0.915839 0.447363 0.283364
O O16 0.000000 0.500000 0.500000
O O17 0.750000 0.482491 0.887453
O O18 0.605012 0.459985 0.030626
O O19 0.750000 0.866402 0.317300
O O20 0.750000 0.421373 0.177886
#
# Coordination Sequence:
#
# PCOD8242223 Si02
#       8
#     8   8   8   8   8   8   8   8
#     4   9  18  33  58  89 122 156 192 243 304 363
#     4  10  21  37  56  87 122 157 205 251 293 350
#     4  11  22  37  57  89 124 155 193 246 308 362
#     4  10  22  36  58  89 120 160 207 248 291 346
#     4  12  24  38  60  90 122 156 194 248 312 367
#     4   9  18  33  57  88 115 147 195 241 300 367
#     4  10  19  36  59  85 118 156 197 246 305 366
#     4  11  22  39  62  87 121 161 200 249 303 364
#
# _framework density 19.583539999999999
#
# number of rings (size 3 to 8) (size 9 to 14) (size 15 to 20)
#    0.000    1.750    3.750    1.125    1.750    1.500 
#    0.000    4.375    0.000    1.500    0.000    0.000 
#    0.000    0.000    0.000    0.000    0.000    0.000 
#
# Total GULP energy -793415.696672 kJ/mol
# GULP energy per Si atom -12397.120260 kJ/mol
# Density = 1.953897 g / cm^3
# Si number density = 19.583540 Si / 1000 Ang^3
#
#
#
# Elastic Constant Matrix: (Units=GPa)
#
#
# Indices 1 2 3 4 5 6 
#
# 1 68.9876 26.3962 18.0702 0.0000 0.0000 0.0000
# 2 26.3962 109.1131 35.9436 0.0000 0.0000 0.0000
# 3 18.0702 35.9436 82.4344 0.0000 0.0000 0.0000
# 4 0.0000 0.0000 0.0000 26.4470 0.0000 0.0000
# 5 0.0000 0.0000 0.0000 0.0000 22.4068 0.0000
# 6 0.0000 0.0000 0.0000 0.0000 0.0000 23.3241
#
#
#
# Elastic Compliance Matrix: (Units=1/GPa)
#
#
# Indices 1 2 3 4 5 6 
#
# 1 0.016298 -0.003230 -0.002164 0.000000 0.000000 0.000000
# 2 -0.003230 0.011342 -0.004237 0.000000 0.000000 0.000000
# 3 -0.002164 -0.004237 0.014453 0.000000 0.000000 0.000000
# 4 0.000000 0.000000 0.000000 0.037811 0.000000 0.000000
# 5 0.000000 0.000000 0.000000 0.000000 0.044629 0.000000
# 6 0.000000 0.000000 0.000000 0.000000 0.000000 0.042874
#
#
# Mechanical properties :
#
#
# Convention : Reuss Voigt Hill
#
# Bulk Modulus (GPa) = 43.80232 46.81723 45.30978
# Shear Modulus (GPa) = 25.73592 26.44393 26.08992
#
# Velocity S-wave (km/s) = 3.62907 3.67865 3.65394
# Velocity P-wave (km/s) = 6.32263 6.48086 6.40224
#
# Compressibility (1/GPa) = 0.02282984
#
# Stress axis : x y z
#
# Youngs Moduli (GPa) = 61.35692 88.16774 69.19013
#
# Poissons Ratio (x) = 0.28476 0.14975
# Poissons Ratio (y) = 0.19817 0.29319
# Poissons Ratio (z) = 0.13280 0.37360
#
# Static dielectric constant tensor:
#      x y z
#    x 3.620580 0.000000 0.000000 
#    y 0.000000 3.455530 0.000000 
#    z 0.000000 0.000000 3.565910 
# 
# 
# High freq. dielectric constant tensor:
#      x y z
#    x 1.771140 0.000000 0.000000 
#    y 0.000000 1.751830 0.000000 
#    z 0.000000 0.000000 1.737570 
# 
# From -- ./inp_files/9625.got.cif
#   From: 2010.03.12/outbox.cif.g09.slc.cpg/sg59_5_cif.got.tgz:9625.got - 2010.04.16 16:29:54.
