data_PCOD8242154
_publ_section_title
;
Structure prediction by ZEFSAII (Michael W. Deem and Ramdas Pophale) SiO2 
 PCOD8242154
Probable space group: P M M N
;
_chemical_formula_sum "Si O2"
_cell_formula_units_Z 56
_cell_length_a 13.470010
_cell_length_b 31.873408
_cell_length_c 6.643890
_cell_angle_alpha 90.000000
_cell_angle_beta 90.000000
_cell_angle_gamma 90.000000
_cell_volume 2852.455340
_symmetry_space_group_name_H-M "P M M N"
_symmetry_group_IT_number 59
_space_group.IT_coordinate_system_code '2'
_symmetry_cell_setting 'orthorhombic'
loop_
_space_group_symop_operation_xyz
x,y,z
1/2-x,1/2-y,z
1/2+x,-y,-z
-x,1/2+y,-z
-x,-y,-z
1/2+x,1/2+y,-z
1/2-x,y,z
x,1/2-y,z
loop_
_atom_site_type_symbol
_atom_site_label
_atom_site_fract_x
_atom_site_fract_y
_atom_site_fract_z
Si Si1 0.980379 0.153194 0.611450
Si Si2 0.136483 0.137468 0.947055
Si Si3 0.966463 0.010823 0.281841
Si Si4 0.637140 0.170685 0.994551
Si Si5 0.863945 0.542700 0.985403
Si Si6 0.635220 0.098327 0.302853
Si Si7 0.966928 0.703106 0.768237
O O1 0.933677 0.115476 0.482615
O O2 0.018473 0.189650 0.463150
O O3 0.895821 0.170140 0.762169
O O4 0.074205 0.138563 0.741827
O O5 0.250000 0.144926 0.885153
O O6 0.121201 0.092211 0.048783
O O7 0.105691 0.171984 0.111312
O O8 0.896991 0.051295 0.257419
O O9 0.070451 0.016265 0.168356
O O10 0.000000 0.000000 0.500000
O O11 0.902139 0.971202 0.205571
O O12 0.750000 0.185472 0.005835
O O13 0.619802 0.125100 0.098114
O O14 0.573298 0.204120 0.120261
O O15 0.750000 0.529835 0.954054
O O16 0.750000 0.099933 0.371053
O O17 0.921987 0.750000 0.770663
#
# Coordination Sequence:
#
# PCOD8242154 Si02
#       7
#     8   8   8   8   8   8   8
#     4  10  19  35  59  85 111 142 184 229 278 336
#     4  10  22  41  62  80 106 147 189 230 278 331
#     4  11  22  36  56  84 116 150 191 237 282 331
#     4   9  19  36  58  83 114 152 187 221 270 334
#     4  10  22  39  57  81 113 149 190 234 280 330
#     4  10  20  35  56  84 118 153 188 231 282 335
#     4  10  22  38  56  82 114 143 177 227 281 333
#
# _framework density 19.632209
#
# number of rings (size 3 to 8) (size 9 to 14) (size 15 to 20)
#    0.000    2.000    0.000    4.286    0.000    6.286 
#    0.000    3.571    0.000    0.000    0.000    0.000 
#    0.000    0.000    0.000    0.000    0.000    0.000 
#
# Total GULP energy -694393.132643 kJ/mol
# GULP energy per Si atom -12399.877369 kJ/mol
# Density = 1.958753 g / cm^3
# Si number density = 19.632209 Si / 1000 Ang^3
#
#
#
# Elastic Constant Matrix: (Units=GPa)
#
#
# Indices 1 2 3 4 5 6 
#
# 1 124.4327 37.7108 34.1930 0.0000 0.0000 0.0000
# 2 37.7108 104.4506 29.4733 0.0000 0.0000 0.0000
# 3 34.1930 29.4733 107.2549 0.0000 0.0000 0.0000
# 4 0.0000 0.0000 0.0000 16.2199 0.0000 0.0000
# 5 0.0000 0.0000 0.0000 0.0000 23.2592 0.0000
# 6 0.0000 0.0000 0.0000 0.0000 0.0000 22.2106
#
#
#
# Elastic Compliance Matrix: (Units=1/GPa)
#
#
# Indices 1 2 3 4 5 6 
#
# 1 0.009505 -0.002793 -0.002263 0.000000 0.000000 0.000000
# 2 -0.002793 0.011199 -0.002187 0.000000 0.000000 0.000000
# 3 -0.002263 -0.002187 0.010646 0.000000 0.000000 0.000000
# 4 0.000000 0.000000 0.000000 0.061653 0.000000 0.000000
# 5 0.000000 0.000000 0.000000 0.000000 0.042994 0.000000
# 6 0.000000 0.000000 0.000000 0.000000 0.000000 0.045023
#
#
# Mechanical properties :
#
#
# Convention : Reuss Voigt Hill
#
# Bulk Modulus (GPa) = 59.29639 59.87695 59.58667
# Shear Modulus (GPa) = 24.85991 27.98868 26.42429
#
# Velocity S-wave (km/s) = 3.56235 3.77988 3.67272
# Velocity P-wave (km/s) = 6.86947 7.04383 6.95719
#
# Compressibility (1/GPa) = 0.01686443
#
# Stress axis : x y z
#
# Youngs Moduli (GPa) = 105.21106 89.28980 93.93284
#
# Poissons Ratio (x) = 0.24940 0.21253
# Poissons Ratio (y) = 0.29387 0.20544
# Poissons Ratio (z) = 0.23805 0.19529
#
# Static dielectric constant tensor:
#      x y z
#    x 3.697610 0.000000 0.000000 
#    y 0.000000 2.876110 0.000000 
#    z 0.000000 0.000000 3.574510 
# 
# 
# High freq. dielectric constant tensor:
#      x y z
#    x 1.775300 0.000000 0.000000 
#    y 0.000000 1.756530 0.000000 
#    z 0.000000 0.000000 1.766280 
# 
# From -- ./inp_files/2295.got.cif
#   From: 2010.03.12/outbox.cif.g09.slc.cpg/sg59_2_cif.got.tgz:2295.got - 2010.04.16 16:29:54.
