data_PCOD8242181
_publ_section_title
;
Structure prediction by ZEFSAII (Michael W. Deem and Ramdas Pophale) SiO2 
 PCOD8242181
Probable space group: P M M N
;
_chemical_formula_sum "Si O2"
_cell_formula_units_Z 48
_cell_length_a 14.361017
_cell_length_b 18.038246
_cell_length_c 9.405593
_cell_angle_alpha 90.000000
_cell_angle_beta 90.000000
_cell_angle_gamma 90.000000
_cell_volume 2436.495893
_symmetry_space_group_name_H-M "P M M N"
_symmetry_group_IT_number 59
_space_group.IT_coordinate_system_code '2'
_symmetry_cell_setting 'orthorhombic'
loop_
_space_group_symop_operation_xyz
x,y,z
1/2-x,1/2-y,z
1/2+x,-y,-z
-x,1/2+y,-z
-x,-y,-z
1/2+x,1/2+y,-z
1/2-x,y,z
x,1/2-y,z
loop_
_atom_site_type_symbol
_atom_site_label
_atom_site_fract_x
_atom_site_fract_y
_atom_site_fract_z
Si Si1 0.356845 0.663780 0.112357
Si Si2 0.951333 0.334801 0.591226
Si Si3 0.351360 0.110604 0.653824
Si Si4 0.427290 0.960912 0.602022
Si Si5 0.014861 0.575170 0.915596
Si Si6 0.354526 0.335109 0.967863
O O1 0.250000 0.641283 0.139834
O O2 0.365767 0.750000 0.074804
O O3 0.417557 0.643908 0.251132
O O4 0.395672 0.617234 0.980088
O O5 0.927741 0.250000 0.555243
O O6 0.894742 0.385603 0.478021
O O7 0.062817 0.348771 0.575119
O O8 0.250000 0.142987 0.605261
O O9 0.364405 0.121906 0.820738
O O10 0.347064 0.021860 0.626314
O O11 0.472527 0.939912 0.750854
O O12 0.500000 0.000000 0.500000
O O13 0.000000 0.500000 0.000000
O O14 0.923949 0.627185 0.921525
O O15 0.250000 0.340964 0.029100
O O16 0.383710 0.250000 0.942597
#
# Coordination Sequence:
#
# PCOD8242181 Si02
#       6
#     8   8   8   8   8   8
#     4  10  22  40  62  87 117 158 208 257 304 357
#     4  10  20  38  60  88 124 164 206 251 309 372
#     4  10  19  35  60  89 121 157 201 251 302 362
#     4  10  22  39  57  85 124 163 204 242 299 369
#     4  12  21  37  61  88 118 154 199 253 304 354
#     4  10  20  35  59  91 121 152 195 248 306 359
#
# _framework density 19.700424000000002
#
# number of rings (size 3 to 8) (size 9 to 14) (size 15 to 20)
#    0.000    1.667    3.333    2.000    0.000    4.333 
#    0.000    3.333    0.000    2.000    0.000    0.000 
#    0.000    0.000    0.000    0.000    0.000    0.000 
#
# Total GULP energy -595046.457192 kJ/mol
# GULP energy per Si atom -12396.801192 kJ/mol
# Density = 1.965558 g / cm^3
# Si number density = 19.700424 Si / 1000 Ang^3
#
#
#
# Elastic Constant Matrix: (Units=GPa)
#
#
# Indices 1 2 3 4 5 6 
#
# 1 101.8058 37.7400 21.2119 0.0000 0.0000 0.0000
# 2 37.7400 107.1282 53.8230 0.0000 0.0000 0.0000
# 3 21.2119 53.8230 106.1041 0.0000 0.0000 0.0000
# 4 0.0000 0.0000 0.0000 40.6158 0.0000 0.0000
# 5 0.0000 0.0000 0.0000 0.0000 5.7828 0.0000
# 6 0.0000 0.0000 0.0000 0.0000 0.0000 30.8150
#
#
#
# Elastic Compliance Matrix: (Units=1/GPa)
#
#
# Indices 1 2 3 4 5 6 
#
# 1 0.011306 -0.003821 -0.000322 0.000000 0.000000 0.000000
# 2 -0.003821 0.013819 -0.006246 0.000000 0.000000 0.000000
# 3 -0.000322 -0.006246 0.012657 0.000000 0.000000 0.000000
# 4 0.000000 0.000000 0.000000 0.024621 0.000000 0.000000
# 5 0.000000 0.000000 0.000000 0.000000 0.172927 0.000000
# 6 0.000000 0.000000 0.000000 0.000000 0.000000 0.032452
#
#
# Mechanical properties :
#
#
# Convention : Reuss Voigt Hill
#
# Bulk Modulus (GPa) = 58.80862 60.06532 59.43697
# Shear Modulus (GPa) = 16.99360 28.92693 22.96027
#
# Velocity S-wave (km/s) = 2.94019 3.83605 3.41760
# Velocity P-wave (km/s) = 6.43759 7.08350 6.76825
#
# Compressibility (1/GPa) = 0.01700431
#
# Stress axis : x y z
#
# Youngs Moduli (GPa) = 88.44634 72.36476 79.00532
#
# Poissons Ratio (x) = 0.27653 0.02543
# Poissons Ratio (y) = 0.33799 0.49346
# Poissons Ratio (z) = 0.02847 0.45198
#
# Static dielectric constant tensor:
#      x y z
#    x 3.705130 0.000000 0.000000 
#    y 0.000000 3.951700 0.000000 
#    z 0.000000 0.000000 3.506660 
# 
# 
# High freq. dielectric constant tensor:
#      x y z
#    x 1.764510 0.000000 0.000000 
#    y 0.000000 1.782770 0.000000 
#    z 0.000000 0.000000 1.745270 
# 
# From -- ./inp_files/8990.got.cif
#   From: 2010.03.12/outbox.cif.g09.slc.cpg/sg59_5_cif.got.tgz:8990.got - 2010.04.16 16:29:54.
