data_PCOD8242423
_publ_section_title
;
Structure prediction by ZEFSAII (Michael W. Deem and Ramdas Pophale) SiO2 
 PCOD8242423
Probable space group: P M M N
;
_chemical_formula_sum "Si O2"
_cell_formula_units_Z 64
_cell_length_a 18.562775
_cell_length_b 9.181361
_cell_length_c 20.773479
_cell_angle_alpha 90.000000
_cell_angle_beta 90.000000
_cell_angle_gamma 90.000000
_cell_volume 3540.455985
_symmetry_space_group_name_H-M "P M M N"
_symmetry_group_IT_number 59
_space_group.IT_coordinate_system_code '2'
_symmetry_cell_setting 'orthorhombic'
loop_
_space_group_symop_operation_xyz
x,y,z
1/2-x,1/2-y,z
1/2+x,-y,-z
-x,1/2+y,-z
-x,-y,-z
1/2+x,1/2+y,-z
1/2-x,y,z
x,1/2-y,z
loop_
_atom_site_type_symbol
_atom_site_label
_atom_site_fract_x
_atom_site_fract_y
_atom_site_fract_z
Si Si1 0.413609 0.580955 0.241656
Si Si2 0.579604 0.920405 0.250889
Si Si3 0.575206 0.580117 0.886380
Si Si4 0.333643 0.418265 0.990947
Si Si5 0.909707 0.078859 0.121743
Si Si6 0.835950 0.914664 0.648027
Si Si7 0.168082 0.077015 0.628573
Si Si8 0.670215 0.577280 0.509790
O O1 0.398324 0.750000 0.232470
O O2 0.495604 0.547981 0.260667
O O3 0.393210 0.503526 0.174999
O O4 0.363480 0.522731 0.297987
O O5 0.595039 0.750000 0.240058
O O6 0.619284 0.985094 0.313844
O O7 0.610058 0.006399 0.189682
O O8 0.585620 0.750000 0.872902
O O9 0.491638 0.540309 0.898152
O O10 0.620302 0.528434 0.947978
O O11 0.250000 0.442532 0.006656
O O12 0.350493 0.250000 0.975229
O O13 0.355471 0.515052 0.930485
O O14 0.897393 0.250000 0.127244
O O15 0.750000 0.919363 0.645881
O O16 0.862296 0.750000 0.662925
O O17 0.866840 0.969622 0.577669
O O18 0.250000 0.019981 0.636509
O O19 0.167464 0.250000 0.632486
O O20 0.134217 0.028062 0.558541
O O21 0.750000 0.510170 0.507780
O O22 0.675685 0.750000 0.511647
#
# Coordination Sequence:
#
# PCOD8242423 Si02
#       8
#     8   8   8   8   8   8   8   8
#     4  10  20  32  47  70 101 132 160 195 239 288
#     4   9  18  32  49  71 100 131 162 197 238 285
#     4   9  19  36  55  73  95 128 168 201 233 281
#     4  10  21  36  54  76 100 124 154 197 244 288
#     4  10  20  34  53  74  98 130 164 198 236 283
#     4   9  17  30  49  70  92 122 161 204 246 288
#     4   8  13  24  46  72  93 118 159 206 242 276
#     4   7  11  22  42  68  92 115 153 203 245 280
#
# _framework density 18.076768000000001
#
# number of rings (size 3 to 8) (size 9 to 14) (size 15 to 20)
#    0.000    3.000    0.000    2.625    0.000    3.000 
#    0.000    3.125    0.000    0.750    0.000    1.750 
#    0.000    0.000    0.000    0.000    0.000    0.000 
#
# Total GULP energy -793172.000313 kJ/mol
# GULP energy per Si atom -12393.312505 kJ/mol
# Density = 1.803562 g / cm^3
# Si number density = 18.076768 Si / 1000 Ang^3
#
#
#
# Elastic Constant Matrix: (Units=GPa)
#
#
# Indices 1 2 3 4 5 6 
#
# 1 39.0301 17.5154 37.6004 0.0000 0.0000 0.0000
# 2 17.5154 44.2392 42.2608 0.0000 0.0000 0.0000
# 3 37.6004 42.2608 144.8055 0.0000 0.0000 0.0000
# 4 0.0000 0.0000 0.0000 13.4413 0.0000 0.0000
# 5 0.0000 0.0000 0.0000 0.0000 30.8852 0.0000
# 6 0.0000 0.0000 0.0000 0.0000 0.0000 20.5749
#
#
#
# Elastic Compliance Matrix: (Units=1/GPa)
#
#
# Indices 1 2 3 4 5 6 
#
# 1 0.035810 -0.007342 -0.007156 0.000000 0.000000 0.000000
# 2 -0.007342 0.032848 -0.007680 0.000000 0.000000 0.000000
# 3 -0.007156 -0.007680 0.011005 0.000000 0.000000 0.000000
# 4 0.000000 0.000000 0.000000 0.074398 0.000000 0.000000
# 5 0.000000 0.000000 0.000000 0.000000 0.032378 0.000000
# 6 0.000000 0.000000 0.000000 0.000000 0.000000 0.048603
#
#
# Mechanical properties :
#
#
# Convention : Reuss Voigt Hill
#
# Bulk Modulus (GPa) = 28.32299 46.98087 37.65193
# Shear Modulus (GPa) = 17.17231 21.69348 19.43289
#
# Velocity S-wave (km/s) = 3.08550 3.46797 3.28231
# Velocity P-wave (km/s) = 5.32878 6.48705 5.93623
#
# Compressibility (1/GPa) = 0.03530700
#
# Stress axis : x y z
#
# Youngs Moduli (GPa) = 27.92536 30.44333 90.86613
#
# Poissons Ratio (x) = 0.22353 0.65020
# Poissons Ratio (y) = 0.20504 0.69785
# Poissons Ratio (z) = 0.19982 0.23380
#
# Static dielectric constant tensor:
#      x y z
#    x 3.160330 0.000000 0.000000 
#    y 0.000000 3.060170 0.000000 
#    z 0.000000 0.000000 3.750970 
# 
# 
# High freq. dielectric constant tensor:
#      x y z
#    x 1.674640 0.000000 0.000000 
#    y 0.000000 1.671530 0.000000 
#    z 0.000000 0.000000 1.721620 
# 
# From -- ./inp_files/30738.got.cif
#   From: 2010.03.12/outbox.cif.g09.slc.cpg/sg59_16_cif.got.tgz:30738.got - 2010.04.16 16:29:54.
