data_PCOD8242616
_publ_section_title
;
Structure prediction by ZEFSAII (Michael W. Deem and Ramdas Pophale) SiO2 
 PCOD8242616
Probable space group: P M M N
;
_chemical_formula_sum "Si O2"
_cell_formula_units_Z 64
_cell_length_a 18.684412
_cell_length_b 22.313208
_cell_length_c 9.409945
_cell_angle_alpha 90.000000
_cell_angle_beta 90.000000
_cell_angle_gamma 90.000000
_cell_volume 3923.092372
_symmetry_space_group_name_H-M "P M M N"
_symmetry_group_IT_number 59
_space_group.IT_coordinate_system_code '2'
_symmetry_cell_setting 'orthorhombic'
loop_
_space_group_symop_operation_xyz
x,y,z
1/2-x,1/2-y,z
1/2+x,-y,-z
-x,1/2+y,-z
-x,-y,-z
1/2+x,1/2+y,-z
1/2-x,y,z
x,1/2-y,z
loop_
_atom_site_type_symbol
_atom_site_label
_atom_site_fract_x
_atom_site_fract_y
_atom_site_fract_z
Si Si1 0.526517 0.046585 0.800145
Si Si2 0.423925 0.181104 0.178251
Si Si3 0.385317 0.085849 0.686964
Si Si4 0.170054 0.522148 0.869564
Si Si5 0.331008 0.386565 0.379342
Si Si6 0.667962 0.819705 0.098304
Si Si7 0.328608 0.503649 0.195711
Si Si8 0.528324 0.080978 0.113169
O O1 0.471278 0.074919 0.688090
O O2 0.609379 0.048832 0.746000
O O3 0.512094 0.976297 0.823647
O O4 0.516699 0.083924 0.944309
O O5 0.447787 0.250000 0.177759
O O6 0.377824 0.168531 0.320255
O O7 0.496013 0.141317 0.179979
O O8 0.375499 0.164333 0.043095
O O9 0.362602 0.089054 0.525154
O O10 0.365364 0.146782 0.766860
O O11 0.344139 0.030890 0.759401
O O12 0.250000 0.547758 0.846184
O O13 0.112969 0.575950 0.848478
O O14 0.160080 0.494546 0.026838
O O15 0.250000 0.364309 0.402911
O O16 0.335260 0.438893 0.264155
O O17 0.750000 0.839672 0.073423
O O18 0.662915 0.750000 0.134925
O O19 0.250000 0.531659 0.228212
#
# Coordination Sequence:
#
# PCOD8242616 Si02
#       8
#     8   8   8   8   8   8   8   8
#     4   9  16  30  51  72  97 123 156 200 245 290
#     4  11  21  35  51  67  91 128 171 204 234 278
#     4  11  20  31  49  71 101 129 159 199 242 282
#     4   9  17  30  52  74  96 126 155 193 243 298
#     4  11  22  32  44  68 101 130 162 198 236 280
#     4  10  20  33  49  67  89 123 167 201 231 280
#     4   9  17  30  48  70  99 130 158 190 234 292
#     4   9  16  30  50  75  94 118 160 203 242 284
#
# _framework density 16.313661
#
# number of rings (size 3 to 8) (size 9 to 14) (size 15 to 20)
#    0.000    2.125    2.500    3.000    0.000    2.750 
#    0.000    0.000    0.000    0.375    0.000    0.000 
#    0.000    0.500    0.000    0.000    0.000    0.000 
#
# Total GULP energy -793457.014548 kJ/mol
# GULP energy per Si atom -12397.765852 kJ/mol
# Density = 1.627653 g / cm^3
# Si number density = 16.313661 Si / 1000 Ang^3
#
#
#
# Elastic Constant Matrix: (Units=GPa)
#
#
# Indices 1 2 3 4 5 6 
#
# 1 140.8540 49.0752 37.8325 0.0000 0.0000 0.0000
# 2 49.0752 65.7925 30.5950 0.0000 0.0000 0.0000
# 3 37.8325 30.5950 61.7514 0.0000 0.0000 0.0000
# 4 0.0000 0.0000 0.0000 11.2098 0.0000 0.0000
# 5 0.0000 0.0000 0.0000 0.0000 21.0594 0.0000
# 6 0.0000 0.0000 0.0000 0.0000 0.0000 21.8024
#
#
#
# Elastic Compliance Matrix: (Units=1/GPa)
#
#
# Indices 1 2 3 4 5 6 
#
# 1 0.010050 -0.006020 -0.003174 0.000000 0.000000 0.000000
# 2 -0.006020 0.023356 -0.007883 0.000000 0.000000 0.000000
# 3 -0.003174 -0.007883 0.022045 0.000000 0.000000 0.000000
# 4 0.000000 0.000000 0.000000 0.089207 0.000000 0.000000
# 5 0.000000 0.000000 0.000000 0.000000 0.047485 0.000000
# 6 0.000000 0.000000 0.000000 0.000000 0.000000 0.045867
#
#
# Mechanical properties :
#
#
# Convention : Reuss Voigt Hill
#
# Bulk Modulus (GPa) = 46.96083 55.93367 51.44725
# Shear Modulus (GPa) = 17.90432 20.87400 19.38916
#
# Velocity S-wave (km/s) = 3.31645 3.58095 3.45124
# Velocity P-wave (km/s) = 6.59650 7.17345 6.89102
#
# Compressibility (1/GPa) = 0.02129434
#
# Stress axis : x y z
#
# Youngs Moduli (GPa) = 99.50680 42.81628 45.36246
#
# Poissons Ratio (x) = 0.25775 0.14400
# Poissons Ratio (y) = 0.59902 0.35761
# Poissons Ratio (z) = 0.31587 0.33754
#
# Static dielectric constant tensor:
#      x y z
#    x 3.478350 0.000000 0.000000 
#    y 0.000000 2.747670 0.000000 
#    z 0.000000 0.000000 2.929380 
# 
# 
# High freq. dielectric constant tensor:
#      x y z
#    x 1.641720 0.000000 0.000000 
#    y 0.000000 1.587040 0.000000 
#    z 0.000000 0.000000 1.613950 
# 
# From -- ./inp_files/11630.got.cif
#   From: 2010.03.12/outbox.cif.g09.slc.cpg/sg59_6_cif.got.tgz:11630.got - 2010.04.16 16:29:54.
