data_PCOD8242343
_publ_section_title
;
Structure prediction by ZEFSAII (Michael W. Deem and Ramdas Pophale) SiO2 
 PCOD8242343
Probable space group: P M M N
;
_chemical_formula_sum "Si O2"
_cell_formula_units_Z 64
_cell_length_a 8.953913
_cell_length_b 15.377020
_cell_length_c 24.526550
_cell_angle_alpha 90.000000
_cell_angle_beta 90.000000
_cell_angle_gamma 90.000000
_cell_volume 3376.925756
_symmetry_space_group_name_H-M "P M M N"
_symmetry_group_IT_number 59
_space_group.IT_coordinate_system_code '2'
_symmetry_cell_setting 'orthorhombic'
loop_
_space_group_symop_operation_xyz
x,y,z
1/2-x,1/2-y,z
1/2+x,-y,-z
-x,1/2+y,-z
-x,-y,-z
1/2+x,1/2+y,-z
1/2-x,y,z
x,1/2-y,z
loop_
_atom_site_type_symbol
_atom_site_label
_atom_site_fract_x
_atom_site_fract_y
_atom_site_fract_z
Si Si1 0.427736 0.504781 0.190821
Si Si2 0.920884 0.152579 0.607743
Si Si3 0.424904 0.352635 0.880671
Si Si4 0.927690 0.002190 0.686402
Si Si5 0.426715 0.346191 0.998589
Si Si6 0.072354 0.349166 0.116622
Si Si7 0.073573 0.093028 0.501550
Si Si8 0.927087 0.655167 0.615432
O O1 0.250000 0.506197 0.189329
O O2 0.484707 0.593164 0.163606
O O3 0.490717 0.503173 0.252329
O O4 0.489954 0.417593 0.160943
O O5 0.750000 0.128398 0.593134
O O6 0.933587 0.250000 0.631214
O O7 0.017767 0.146891 0.553249
O O8 0.982546 0.087893 0.654220
O O9 0.250000 0.369244 0.871903
O O10 0.461168 0.250000 0.874383
O O11 0.478242 0.388439 0.941000
O O12 0.750000 0.998749 0.688036
O O13 0.994956 0.918212 0.655160
O O14 0.250000 0.341181 0.996614
O O15 0.494000 0.250000 0.999560
O O16 0.477996 0.387391 0.056621
O O17 0.250000 0.345829 0.119541
O O18 0.012283 0.250000 0.126959
O O19 0.250000 0.082937 0.504732
O O20 0.022170 0.142040 0.446845
O O21 0.000000 0.000000 0.500000
O O22 0.750000 0.649797 0.618546
O O23 0.983846 0.750000 0.634953
#
# Coordination Sequence:
#
# PCOD8242343 Si02
#       8
#     8   8   8   8   8   8   8   8
#     4  10  20  31  49  76 101 128 166 212 254 292
#     4  10  20  35  54  74 100 137 174 207 249 301
#     4   9  18  33  51  69  93 130 170 205 247 304
#     4   9  18  33  48  69 102 135 167 201 246 302
#     4   7  11  23  44  67  93 127 162 195 242 305
#     4   8  14  26  45  72 103 129 158 202 252 301
#     4  11  20  33  55  81 109 135 163 203 253 302
#     4   9  17  30  51  76 100 127 160 199 242 290
#
# _framework density 18.95215
#
# number of rings (size 3 to 8) (size 9 to 14) (size 15 to 20)
#    0.000    2.875    1.250    2.250    0.000    2.500 
#    0.000    4.375    0.000    0.375    0.000    1.750 
#    0.000    0.000    0.000    0.000    0.000    0.000 
#
# Total GULP energy -792909.827672 kJ/mol
# GULP energy per Si atom -12389.216057 kJ/mol
# Density = 1.890901 g / cm^3
# Si number density = 18.952150 Si / 1000 Ang^3
#
#
#
# Elastic Constant Matrix: (Units=GPa)
#
#
# Indices 1 2 3 4 5 6 
#
# 1 22.0658 17.5057 22.9766 0.0000 0.0000 0.0000
# 2 17.5057 132.5556 81.1629 0.0000 0.0000 0.0000
# 3 22.9766 81.1629 183.4675 0.0000 0.0000 0.0000
# 4 0.0000 0.0000 0.0000 23.3215 0.0000 0.0000
# 5 0.0000 0.0000 0.0000 0.0000 16.5146 0.0000
# 6 0.0000 0.0000 0.0000 0.0000 0.0000 17.7703
#
#
#
# Elastic Compliance Matrix: (Units=1/GPa)
#
#
# Indices 1 2 3 4 5 6 
#
# 1 0.053675 -0.004077 -0.004918 0.000000 0.000000 0.000000
# 2 -0.004077 0.010656 -0.004204 0.000000 0.000000 0.000000
# 3 -0.004918 -0.004204 0.007926 0.000000 0.000000 0.000000
# 4 0.000000 0.000000 0.000000 0.042879 0.000000 0.000000
# 5 0.000000 0.000000 0.000000 0.000000 0.060552 0.000000
# 6 0.000000 0.000000 0.000000 0.000000 0.000000 0.056274
#
#
# Mechanical properties :
#
#
# Convention : Reuss Voigt Hill
#
# Bulk Modulus (GPa) = 21.80585 64.59769 43.20177
# Shear Modulus (GPa) = 18.27175 25.95085 22.11130
#
# Velocity S-wave (km/s) = 3.10836 3.70440 3.41939
# Velocity P-wave (km/s) = 4.94098 7.24261 6.19954
#
# Compressibility (1/GPa) = 0.04585925
#
# Stress axis : x y z
#
# Youngs Moduli (GPa) = 18.63074 93.84183 126.16547
#
# Poissons Ratio (x) = 0.38259 0.62053
# Poissons Ratio (y) = 0.07596 0.53034
# Poissons Ratio (z) = 0.09163 0.39447
#
# Static dielectric constant tensor:
#      x y z
#    x 2.967770 0.000000 0.000000 
#    y 0.000000 3.578210 0.000000 
#    z 0.000000 0.000000 3.901750 
# 
# 
# High freq. dielectric constant tensor:
#      x y z
#    x 1.675950 0.000000 0.000000 
#    y 0.000000 1.739870 0.000000 
#    z 0.000000 0.000000 1.745000 
# 
# From -- ./inp_files/31527.got.cif
#   From: 2010.03.12/outbox.cif.g09.slc.cpg/sg59_16_cif.got.tgz:31527.got - 2010.04.16 16:29:54.
