data_PCOD8242068
_publ_section_title
;
Structure prediction by ZEFSAII (Michael W. Deem and Ramdas Pophale) SiO2 
 PCOD8242068
Probable space group: P M M N
;
_chemical_formula_sum "Si O2"
_cell_formula_units_Z 48
_cell_length_a 30.276371
_cell_length_b 9.150633
_cell_length_c 9.362223
_cell_angle_alpha 90.000000
_cell_angle_beta 90.000000
_cell_angle_gamma 90.000000
_cell_volume 2593.784779
_symmetry_space_group_name_H-M "P M M N"
_symmetry_group_IT_number 59
_space_group.IT_coordinate_system_code '2'
_symmetry_cell_setting 'orthorhombic'
loop_
_space_group_symop_operation_xyz
x,y,z
1/2-x,1/2-y,z
1/2+x,-y,-z
-x,1/2+y,-z
-x,-y,-z
1/2+x,1/2+y,-z
1/2-x,y,z
x,1/2-y,z
loop_
_atom_site_type_symbol
_atom_site_label
_atom_site_fract_x
_atom_site_fract_y
_atom_site_fract_z
Si Si1 0.151292 0.081099 0.001247
Si Si2 0.121132 0.084776 0.692992
Si Si3 0.603756 0.087471 0.743271
Si Si4 0.824167 0.091360 0.504733
Si Si5 0.454555 0.420944 0.469982
Si Si6 0.250000 0.079303 0.352800
Si Si7 0.250000 0.077564 0.036253
O O1 0.153079 0.250000 0.051874
O O2 0.202473 0.027090 0.968056
O O3 0.128168 0.987737 0.124151
O O4 0.119446 0.063988 0.863728
O O5 0.136267 0.250000 0.656130
O O6 0.075249 0.052282 0.611649
O O7 0.157708 0.969436 0.643852
O O8 0.586345 0.250000 0.788547
O O9 0.637283 0.109563 0.616199
O O10 0.564923 0.987180 0.677776
O O11 0.801611 0.250000 0.478965
O O12 0.791998 0.969496 0.561087
O O13 0.500000 0.500000 0.500000
O O14 0.462278 0.250000 0.443496
O O15 0.250000 0.250000 0.339418
O O16 0.250000 0.010132 0.195425
O O17 0.250000 0.250000 0.034405
#
# Coordination Sequence:
#
# PCOD8242068 Si02
#       7
#     8   8   8   8   8   4   4
#     4  10  19  35  55  80 112 147 185 225 268 319
#     4   9  20  36  56  80 109 142 179 224 276 331
#     4  10  20  34  54  80 108 143 181 221 268 324
#     4  10  20  33  50  74 106 140 178 223 269 314
#     4  10  20  37  60  85 109 139 179 227 280 336
#     4  11  19  30  51  76 102 138 185 229 264 311
#     4   9  18  30  51  78 106 142 183 221 260 309
#
# _framework density 18.505777999999999
#
# number of rings (size 3 to 8) (size 9 to 14) (size 15 to 20)
#    0.000    2.167    1.667    1.750    0.000    3.333 
#    0.000    2.917    0.000    0.000    0.000    0.000 
#    0.000    0.000    0.000    0.000    0.000    0.000 
#
# Total GULP energy -594696.126373 kJ/mol
# GULP energy per Si atom -12389.502633 kJ/mol
# Density = 1.846366 g / cm^3
# Si number density = 18.505778 Si / 1000 Ang^3
#
#
#
# Elastic Constant Matrix: (Units=GPa)
#
#
# Indices 1 2 3 4 5 6 
#
# 1 87.9542 39.3122 37.7015 0.0000 0.0000 0.0000
# 2 39.3122 98.2381 42.8359 0.0000 0.0000 0.0000
# 3 37.7015 42.8359 89.3178 0.0000 0.0000 0.0000
# 4 0.0000 0.0000 0.0000 19.6946 0.0000 0.0000
# 5 0.0000 0.0000 0.0000 0.0000 26.6636 0.0000
# 6 0.0000 0.0000 0.0000 0.0000 0.0000 30.5064
#
#
#
# Elastic Compliance Matrix: (Units=1/GPa)
#
#
# Indices 1 2 3 4 5 6 
#
# 1 0.015097 -0.004125 -0.004394 0.000000 0.000000 0.000000
# 2 -0.004125 0.013998 -0.004972 0.000000 0.000000 0.000000
# 3 -0.004394 -0.004972 0.015435 0.000000 0.000000 0.000000
# 4 0.000000 0.000000 0.000000 0.050775 0.000000 0.000000
# 5 0.000000 0.000000 0.000000 0.000000 0.037504 0.000000
# 6 0.000000 0.000000 0.000000 0.000000 0.000000 0.032780
#
#
# Mechanical properties :
#
#
# Convention : Reuss Voigt Hill
#
# Bulk Modulus (GPa) = 56.98814 57.24549 57.11682
# Shear Modulus (GPa) = 25.19878 25.75028 25.47453
#
# Velocity S-wave (km/s) = 3.69409 3.73429 3.71424
# Velocity P-wave (km/s) = 7.00405 7.04232 7.02321
#
# Compressibility (1/GPa) = 0.01754751
#
# Stress axis : x y z
#
# Youngs Moduli (GPa) = 66.23862 71.43742 64.78675
#
# Poissons Ratio (x) = 0.29471 0.28467
# Poissons Ratio (y) = 0.27326 0.32212
# Poissons Ratio (z) = 0.29105 0.35519
#
# Static dielectric constant tensor:
#      x y z
#    x 3.316150 0.000000 0.000000 
#    y 0.000000 3.810050 0.000000 
#    z 0.000000 0.000000 3.379820 
# 
# 
# High freq. dielectric constant tensor:
#      x y z
#    x 1.704250 0.000000 0.000000 
#    y 0.000000 1.723220 0.000000 
#    z 0.000000 0.000000 1.707000 
# 
# From -- ./inp_files/6399.got.cif
#   From: 2010.03.12/outbox.cif.g09.slc.cpg/sg59_4_cif.got.tgz:6399.got - 2010.04.16 16:29:54.
