data_PCOD8242146
_publ_section_title
;
Structure prediction by ZEFSAII (Michael W. Deem and Ramdas Pophale) SiO2 
 PCOD8242146
Probable space group: P M M N
;
_chemical_formula_sum "Si O2"
_cell_formula_units_Z 56
_cell_length_a 25.847806
_cell_length_b 20.858120
_cell_length_c 5.207483
_cell_angle_alpha 90.000000
_cell_angle_beta 90.000000
_cell_angle_gamma 90.000000
_cell_volume 2807.544884
_symmetry_space_group_name_H-M "P M M N"
_symmetry_group_IT_number 59
_space_group.IT_coordinate_system_code '2'
_symmetry_cell_setting 'orthorhombic'
loop_
_space_group_symop_operation_xyz
x,y,z
1/2-x,1/2-y,z
1/2+x,-y,-z
-x,1/2+y,-z
-x,-y,-z
1/2+x,1/2+y,-z
1/2-x,y,z
x,1/2-y,z
loop_
_atom_site_type_symbol
_atom_site_label
_atom_site_fract_x
_atom_site_fract_y
_atom_site_fract_z
Si Si1 0.192174 0.146375 0.578224
Si Si2 0.190077 0.822621 0.864782
Si Si3 0.526967 0.675916 0.892740
Si Si4 0.038246 0.675621 0.390539
Si Si5 0.308576 0.479168 0.314407
Si Si6 0.853029 0.115754 0.632943
Si Si7 0.639746 0.866326 0.917109
O O1 0.250000 0.175154 0.589575
O O2 0.162150 0.173421 0.327258
O O3 0.194354 0.068437 0.560038
O O4 0.160470 0.168195 0.827292
O O5 0.250000 0.826659 0.933977
O O6 0.169607 0.750000 0.871827
O O7 0.181922 0.849361 0.579270
O O8 0.159175 0.861655 0.078930
O O9 0.543449 0.750000 0.912299
O O10 0.500215 0.660480 0.623170
O O11 0.577853 0.632460 0.914282
O O12 0.488797 0.657563 0.123517
O O13 0.055766 0.750000 0.394356
O O14 0.087401 0.630030 0.426964
O O15 0.250000 0.498303 0.226982
O O16 0.342275 0.540498 0.388233
O O17 0.338180 0.439490 0.089386
#
# Coordination Sequence:
#
# PCOD8242146 Si02
#       7
#     8   8   8   8   8   8   8
#     4   9  18  33  56  80 114 150 181 218 273 339
#     4  11  23  37  54  80 113 148 189 241 291 334
#     4  10  21  39  62  84 108 146 194 239 287 341
#     4  10  21  38  58  81 110 146 192 242 287 330
#     4   9  21  36  57  85 116 152 189 225 275 343
#     4  12  23  37  59  83 113 152 194 232 280 340
#     4  10  19  35  59  83 113 148 189 233 284 334
#
# _framework density 19.946252000000001
#
# number of rings (size 3 to 8) (size 9 to 14) (size 15 to 20)
#    0.857    1.000    0.000    5.143    2.000    2.286 
#    0.000    1.429    0.000    4.714    0.000    0.000 
#    0.000    0.000    0.000    0.000    0.000    0.000 
#
# Total GULP energy -694239.382493 kJ/mol
# GULP energy per Si atom -12397.131830 kJ/mol
# Density = 1.990085 g / cm^3
# Si number density = 19.946252 Si / 1000 Ang^3
#
#
#
# Elastic Constant Matrix: (Units=GPa)
#
#
# Indices 1 2 3 4 5 6 
#
# 1 103.6696 29.0991 17.7472 0.0000 0.0000 0.0000
# 2 29.0991 50.5668 9.7327 0.0000 0.0000 0.0000
# 3 17.7472 9.7327 113.3980 0.0000 0.0000 0.0000
# 4 0.0000 0.0000 0.0000 9.6458 0.0000 0.0000
# 5 0.0000 0.0000 0.0000 0.0000 34.9680 0.0000
# 6 0.0000 0.0000 0.0000 0.0000 0.0000 19.9250
#
#
#
# Elastic Compliance Matrix: (Units=1/GPa)
#
#
# Indices 1 2 3 4 5 6 
#
# 1 0.011682 -0.006478 -0.001272 0.000000 0.000000 0.000000
# 2 -0.006478 0.023700 -0.001020 0.000000 0.000000 0.000000
# 3 -0.001272 -0.001020 0.009105 0.000000 0.000000 0.000000
# 4 0.000000 0.000000 0.000000 0.103672 0.000000 0.000000
# 5 0.000000 0.000000 0.000000 0.000000 0.028598 0.000000
# 6 0.000000 0.000000 0.000000 0.000000 0.000000 0.050188
#
#
# Mechanical properties :
#
#
# Convention : Reuss Voigt Hill
#
# Bulk Modulus (GPa) = 37.11062 42.31027 39.71044
# Shear Modulus (GPa) = 19.72639 26.97812 23.35226
#
# Velocity S-wave (km/s) = 3.14821 3.68168 3.42535
# Velocity P-wave (km/s) = 5.64453 6.27146 5.96623
#
# Compressibility (1/GPa) = 0.02694647
#
# Stress axis : x y z
#
# Youngs Moduli (GPa) = 85.60139 42.19443 109.82745
#
# Poissons Ratio (x) = 0.27332 0.13974
# Poissons Ratio (y) = 0.55450 0.11206
# Poissons Ratio (z) = 0.10891 0.04305
#
# Static dielectric constant tensor:
#      x y z
#    x 3.520290 0.000000 0.000000 
#    y 0.000000 3.295940 0.000000 
#    z 0.000000 0.000000 3.625540 
# 
# 
# High freq. dielectric constant tensor:
#      x y z
#    x 1.782010 0.000000 0.000000 
#    y 0.000000 1.746920 0.000000 
#    z 0.000000 0.000000 1.788820 
# 
# From -- ./inp_files/3522.got.cif
#   From: 2010.03.12/outbox.cif.g09.slc.cpg/sg59_2_cif.got.tgz:3522.got - 2010.04.16 16:29:54.
