data_PCOD8242393
_publ_section_title
;
Structure prediction by ZEFSAII (Michael W. Deem and Ramdas Pophale) SiO2 
 PCOD8242393
Probable space group: P M M N
;
_chemical_formula_sum "Si O2"
_cell_formula_units_Z 56
_cell_length_a 14.874854
_cell_length_b 9.431368
_cell_length_c 20.664215
_cell_angle_alpha 90.000000
_cell_angle_beta 90.000000
_cell_angle_gamma 90.000000
_cell_volume 2898.987310
_symmetry_space_group_name_H-M "P M M N"
_symmetry_group_IT_number 59
_space_group.IT_coordinate_system_code '2'
_symmetry_cell_setting 'orthorhombic'
loop_
_space_group_symop_operation_xyz
x,y,z
1/2-x,1/2-y,z
1/2+x,-y,-z
-x,1/2+y,-z
-x,-y,-z
1/2+x,1/2+y,-z
1/2-x,y,z
x,1/2-y,z
loop_
_atom_site_type_symbol
_atom_site_label
_atom_site_fract_x
_atom_site_fract_y
_atom_site_fract_z
Si Si1 0.598197 0.095917 0.588655
Si Si2 0.650113 0.910111 0.476454
Si Si3 0.355746 0.583080 0.022068
Si Si4 0.006288 0.912503 0.911344
Si Si5 0.485001 0.585925 0.764377
Si Si6 0.908190 0.907145 0.343122
Si Si7 0.652132 0.086310 0.722430
O O1 0.626178 0.250000 0.561382
O O2 0.505404 0.102128 0.626076
O O3 0.665070 0.047529 0.645992
O O4 0.589180 0.994042 0.527104
O O5 0.750000 0.917210 0.504795
O O6 0.612140 0.750000 0.473827
O O7 0.651816 0.969099 0.402428
O O8 0.250000 0.533151 0.020157
O O9 0.358693 0.750000 0.036515
O O10 0.415418 0.504422 0.076898
O O11 0.407658 0.544799 0.955259
O O12 0.978591 0.750000 0.924040
O O13 0.042523 0.934618 0.838748
O O14 0.489601 0.750000 0.744248
O O15 0.409930 0.509900 0.719210
O O16 0.583152 0.517834 0.756977
O O17 0.874799 0.750000 0.321342
O O18 0.750000 0.066087 0.755306
O O19 0.619190 0.250000 0.729570
#
# Coordination Sequence:
#
# PCOD8242393 Si02
#       7
#     8   8   8   8   8   8   8
#     4   9  17  30  48  67  88 118 155 196 244 296
#     4  10  20  32  47  68  92 118 152 199 252 297
#     4   9  18  34  57  82 106 136 173 206 239 289
#     4   9  19  35  53  77 110 139 164 205 255 293
#     4  10  20  33  50  72  98 130 166 201 240 285
#     4   9  19  35  50  65  91 126 161 197 239 290
#     4   9  18  32  48  68  97 131 165 202 247 299
#
# _framework density 19.317088999999999
#
# number of rings (size 3 to 8) (size 9 to 14) (size 15 to 20)
#    0.000    2.714    0.000    2.143    0.000    6.000 
#    0.000    3.571    0.000    0.857    0.000    0.000 
#    0.000    0.000    0.000    0.000    0.000    0.000 
#
# Total GULP energy -693755.209359 kJ/mol
# GULP energy per Si atom -12388.485881 kJ/mol
# Density = 1.927312 g / cm^3
# Si number density = 19.317089 Si / 1000 Ang^3
#
#
#
# Elastic Constant Matrix: (Units=GPa)
#
#
# Indices 1 2 3 4 5 6 
#
# 1 49.8356 7.8761 5.3500 0.0000 0.0000 0.0000
# 2 7.8761 68.8591 41.9110 0.0000 0.0000 0.0000
# 3 5.3500 41.9110 93.4953 0.0000 0.0000 0.0000
# 4 0.0000 0.0000 0.0000 31.9851 0.0000 0.0000
# 5 0.0000 0.0000 0.0000 0.0000 41.0893 0.0000
# 6 0.0000 0.0000 0.0000 0.0000 0.0000 20.8405
#
#
#
# Elastic Compliance Matrix: (Units=1/GPa)
#
#
# Indices 1 2 3 4 5 6 
#
# 1 0.020437 -0.002236 -0.000167 0.000000 0.000000 0.000000
# 2 -0.002236 0.020216 -0.008934 0.000000 0.000000 0.000000
# 3 -0.000167 -0.008934 0.014710 0.000000 0.000000 0.000000
# 4 0.000000 0.000000 0.000000 0.031265 0.000000 0.000000
# 5 0.000000 0.000000 0.000000 0.000000 0.024337 0.000000
# 6 0.000000 0.000000 0.000000 0.000000 0.000000 0.047984
#
#
# Mechanical properties :
#
#
# Convention : Reuss Voigt Hill
#
# Bulk Modulus (GPa) = 30.59140 35.82933 33.21037
# Shear Modulus (GPa) = 25.97138 29.25317 27.61228
#
# Velocity S-wave (km/s) = 3.67069 3.89571 3.78487
# Velocity P-wave (km/s) = 5.81688 6.23086 6.02743
#
# Compressibility (1/GPa) = 0.03268892
#
# Stress axis : x y z
#
# Youngs Moduli (GPa) = 48.93014 49.46590 67.97998
#
# Poissons Ratio (x) = 0.11060 0.01137
# Poissons Ratio (y) = 0.10940 0.60735
# Poissons Ratio (z) = 0.00818 0.44194
#
# Static dielectric constant tensor:
#      x y z
#    x 3.782070 0.000000 0.000000 
#    y 0.000000 3.511240 0.000000 
#    z 0.000000 0.000000 3.618180 
# 
# 
# High freq. dielectric constant tensor:
#      x y z
#    x 1.740430 0.000000 0.000000 
#    y 0.000000 1.739740 0.000000 
#    z 0.000000 0.000000 1.746290 
# 
# From -- ./inp_files/30581.got.cif
#   From: 2010.03.12/outbox.cif.g09.slc.cpg/sg59_16_cif.got.tgz:30581.got - 2010.04.16 16:29:54.
