data_PCOD8242684
_publ_section_title
;
Structure prediction by ZEFSAII (Michael W. Deem and Ramdas Pophale) SiO2 
 PCOD8242684
Probable space group: P M M N
;
_chemical_formula_sum "Si O2"
_cell_formula_units_Z 64
_cell_length_a 9.059341
_cell_length_b 23.148083
_cell_length_c 18.900925
_cell_angle_alpha 90.000000
_cell_angle_beta 90.000000
_cell_angle_gamma 90.000000
_cell_volume 3963.644511
_symmetry_space_group_name_H-M "P M M N"
_symmetry_group_IT_number 59
_space_group.IT_coordinate_system_code '2'
_symmetry_cell_setting 'orthorhombic'
loop_
_space_group_symop_operation_xyz
x,y,z
1/2-x,1/2-y,z
1/2+x,-y,-z
-x,1/2+y,-z
-x,-y,-z
1/2+x,1/2+y,-z
1/2-x,y,z
x,1/2-y,z
loop_
_atom_site_type_symbol
_atom_site_label
_atom_site_fract_x
_atom_site_fract_y
_atom_site_fract_z
Si Si1 0.922595 0.127688 0.251753
Si Si2 0.420414 0.316332 0.122860
Si Si3 0.921059 0.316331 0.401900
Si Si4 0.577884 0.914079 0.981858
Si Si5 0.578705 0.983630 0.391442
Si Si6 0.078716 0.414982 0.471656
Si Si7 0.921849 0.027645 0.899877
Si Si8 0.075821 0.495565 0.254459
O O1 0.750000 0.115034 0.242167
O O2 0.956632 0.161309 0.323743
O O3 0.978076 0.168633 0.189175
O O4 0.010170 0.068212 0.251398
O O5 0.250000 0.329699 0.142541
O O6 0.444147 0.250000 0.101839
O O7 0.468726 0.354136 0.054945
O O8 0.750000 0.324780 0.420797
O O9 0.968882 0.250000 0.406926
O O10 0.018774 0.350595 0.459488
O O11 0.750000 0.916709 0.996127
O O12 0.500712 0.920256 0.058298
O O13 0.525481 0.965785 0.930276
O O14 0.750000 0.994655 0.375793
O O15 0.553734 0.931443 0.446295
O O16 0.513571 0.042970 0.421403
O O17 0.495659 0.968121 0.318704
O O18 0.250000 0.420029 0.451017
O O19 0.750000 0.035763 0.911594
O O20 0.963510 0.029971 0.817198
O O21 0.250000 0.490265 0.265181
#
# Coordination Sequence:
#
# PCOD8242684 Si02
#       8
#     8   8   8   8   8   8   8   8
#     4  11  21  32  47  69  99 133 168 200 234 278
#     4  10  20  34  50  68  95 131 167 202 237 278
#     4  10  21  35  49  68  98 133 168 205 241 280
#     4   9  17  31  47  67  93 123 160 198 237 282
#     4  10  20  33  49  72  99 126 160 200 244 291
#     4  10  20  33  50  71  96 128 165 203 241 285
#     4   9  18  31  47  68  95 122 155 197 239 284
#     4  11  20  32  50  73  99 128 162 197 241 292
#
# _framework density 16.146754999999999
#
# number of rings (size 3 to 8) (size 9 to 14) (size 15 to 20)
#    0.000    2.000    2.500    1.875    0.000    4.500 
#    0.000    0.000    0.000    0.000    0.000    0.875 
#    0.000    3.000    0.000    0.000    0.000    0.000 
#
# Total GULP energy -793716.853266 kJ/mol
# GULP energy per Si atom -12401.825832 kJ/mol
# Density = 1.611000 g / cm^3
# Si number density = 16.146755 Si / 1000 Ang^3
#
#
#
# Elastic Constant Matrix: (Units=GPa)
#
#
# Indices 1 2 3 4 5 6 
#
# 1 78.9370 42.9312 61.8731 0.0000 0.0000 0.0000
# 2 42.9312 85.3721 59.5962 0.0000 0.0000 0.0000
# 3 61.8731 59.5962 121.6686 0.0000 0.0000 0.0000
# 4 0.0000 0.0000 0.0000 19.8511 0.0000 0.0000
# 5 0.0000 0.0000 0.0000 0.0000 31.0639 0.0000
# 6 0.0000 0.0000 0.0000 0.0000 0.0000 23.1137
#
#
#
# Elastic Compliance Matrix: (Units=1/GPa)
#
#
# Indices 1 2 3 4 5 6 
#
# 1 0.022404 -0.005034 -0.008927 0.000000 0.000000 0.000000
# 2 -0.005034 0.018931 -0.006713 0.000000 0.000000 0.000000
# 3 -0.008927 -0.006713 0.016047 0.000000 0.000000 0.000000
# 4 0.000000 0.000000 0.000000 0.050375 0.000000 0.000000
# 5 0.000000 0.000000 0.000000 0.000000 0.032192 0.000000
# 6 0.000000 0.000000 0.000000 0.000000 0.000000 0.043264
#
#
# Mechanical properties :
#
#
# Convention : Reuss Voigt Hill
#
# Bulk Modulus (GPa) = 62.37073 68.30873 65.33973
# Shear Modulus (GPa) = 21.74803 22.91087 22.32945
#
# Velocity S-wave (km/s) = 3.67399 3.77094 3.72278
# Velocity P-wave (km/s) = 7.53053 7.83305 7.68328
#
# Compressibility (1/GPa) = 0.01603316
#
# Stress axis : x y z
#
# Youngs Moduli (GPa) = 44.63544 52.82336 62.31722
#
# Poissons Ratio (x) = 0.26593 0.55632
# Poissons Ratio (y) = 0.22471 0.41832
# Poissons Ratio (z) = 0.39847 0.35459
#
# Static dielectric constant tensor:
#      x y z
#    x 3.139020 0.000000 0.000000 
#    y 0.000000 2.918900 0.000000 
#    z 0.000000 0.000000 3.232230 
# 
# 
# High freq. dielectric constant tensor:
#      x y z
#    x 1.630780 0.000000 0.000000 
#    y 0.000000 1.592050 0.000000 
#    z 0.000000 0.000000 1.617440 
# 
# From -- ./inp_files/26545.got.cif
#   From: 2010.03.12/outbox.cif.g09.slc.cpg/sg59_14_cif.got.tgz:26545.got - 2010.04.16 16:29:54.
