data_PCOD8242866
_publ_section_title
;
Structure prediction by ZEFSAII (Michael W. Deem and Ramdas Pophale) SiO2 
 PCOD8242866
Probable space group: P M M N
;
_chemical_formula_sum "Si O2"
_cell_formula_units_Z 48
_cell_length_a 19.497262
_cell_length_b 9.131049
_cell_length_c 15.038480
_cell_angle_alpha 90.000000
_cell_angle_beta 90.000000
_cell_angle_gamma 90.000000
_cell_volume 2677.307432
_symmetry_space_group_name_H-M "P M M N"
_symmetry_group_IT_number 59
_space_group.IT_coordinate_system_code '2'
_symmetry_cell_setting 'orthorhombic'
loop_
_space_group_symop_operation_xyz
x,y,z
1/2-x,1/2-y,z
1/2+x,-y,-z
-x,1/2+y,-z
-x,-y,-z
1/2+x,1/2+y,-z
1/2-x,y,z
x,1/2-y,z
loop_
_atom_site_type_symbol
_atom_site_label
_atom_site_fract_x
_atom_site_fract_y
_atom_site_fract_z
Si Si1 0.330917 0.581060 0.231211
Si Si2 0.331539 0.587555 0.572966
Si Si3 0.571955 0.920366 0.898487
Si Si4 0.934077 0.919992 0.105563
Si Si5 0.829937 0.079675 0.228369
Si Si6 0.331680 0.086119 0.405514
O O1 0.250000 0.561553 0.221047
O O2 0.352779 0.750000 0.229932
O O3 0.364456 0.497086 0.149150
O O4 0.357606 0.511705 0.323475
O O5 0.250000 0.592711 0.568364
O O6 0.360448 0.750000 0.553759
O O7 0.353505 0.536276 0.671602
O O8 0.361256 0.479115 0.497858
O O9 0.570569 0.750000 0.874037
O O10 0.501434 0.991964 0.864644
O O11 0.582325 0.947769 0.002655
O O12 0.946430 0.750000 0.125740
O O13 0.869673 0.977700 0.160208
O O14 0.750000 0.047194 0.214888
O O15 0.845894 0.250000 0.210061
O O16 0.250000 0.086582 0.408403
O O17 0.360595 0.250000 0.394198
#
# Coordination Sequence:
#
# PCOD8242866 Si02
#       6
#     8   8   8   8   8   8
#     4  10  20  33  51  76 104 133 166 206 250 295
#     4   8  14  26  44  67  97 132 167 201 239 286
#     4  10  21  37  55  73  97 131 169 208 250 300
#     4  10  21  36  54  75  99 130 168 208 251 301
#     4   9  18  32  51  76 105 136 169 206 248 293
#     4   9  16  26  43  69 100 132 165 202 244 290
#
# _framework density 17.928460999999999
#
# number of rings (size 3 to 8) (size 9 to 14) (size 15 to 20)
#    0.000    2.667    0.000    3.000    0.000    6.667 
#    0.000    5.000    0.000    1.000    0.000    0.000 
#    0.000    0.000    0.000    0.000    0.000    0.000 
#
# Total GULP energy -595193.681780 kJ/mol
# GULP energy per Si atom -12399.868370 kJ/mol
# Density = 1.788765 g / cm^3
# Si number density = 17.928461 Si / 1000 Ang^3
#
#
#
# Elastic Constant Matrix: (Units=GPa)
#
#
# Indices 1 2 3 4 5 6 
#
# 1 43.5179 45.3125 42.5651 0.0000 0.0000 0.0000
# 2 45.3125 140.2177 73.2690 0.0000 0.0000 0.0000
# 3 42.5651 73.2690 98.7623 0.0000 0.0000 0.0000
# 4 0.0000 0.0000 0.0000 37.6994 0.0000 0.0000
# 5 0.0000 0.0000 0.0000 0.0000 2.7873 0.0000
# 6 0.0000 0.0000 0.0000 0.0000 0.0000 28.1252
#
#
#
# Elastic Compliance Matrix: (Units=1/GPa)
#
#
# Indices 1 2 3 4 5 6 
#
# 1 0.043524 -0.006962 -0.013593 0.000000 0.000000 0.000000
# 2 -0.006962 0.012760 -0.006466 0.000000 0.000000 0.000000
# 3 -0.013593 -0.006466 0.020781 0.000000 0.000000 0.000000
# 4 0.000000 0.000000 0.000000 0.026526 0.000000 0.000000
# 5 0.000000 0.000000 0.000000 0.000000 0.358773 0.000000
# 6 0.000000 0.000000 0.000000 0.000000 0.000000 0.035555
#
#
# Mechanical properties :
#
#
# Convention : Reuss Voigt Hill
#
# Bulk Modulus (GPa) = 43.43600 67.19900 55.31750
# Shear Modulus (GPa) = 8.93440 21.81246 15.37343
#
# Velocity S-wave (km/s) = 2.23477 3.49182 2.93147
# Velocity P-wave (km/s) = 5.56227 7.33622 6.50996
#
# Compressibility (1/GPa) = 0.02302238
#
# Stress axis : x y z
#
# Youngs Moduli (GPa) = 22.97599 78.36768 48.12173
#
# Poissons Ratio (x) = 0.54561 0.65412
# Poissons Ratio (y) = 0.15996 0.31115
# Poissons Ratio (z) = 0.31231 0.50672
#
# Static dielectric constant tensor:
#      x y z
#    x 2.915360 0.000000 0.000000 
#    y 0.000000 3.498960 0.000000 
#    z 0.000000 0.000000 3.441740 
# 
# 
# High freq. dielectric constant tensor:
#      x y z
#    x 1.651420 0.000000 0.000000 
#    y 0.000000 1.705830 0.000000 
#    z 0.000000 0.000000 1.702260 
# 
# From -- ./inp_files/20387.got.cif
#   From: 2010.03.12/outbox.cif.g09.slc.cpg/sg59_11_cif.got.tgz:20387.got - 2010.04.16 16:29:54.
