data_PCOD8242113
_publ_section_title
;
Structure prediction by ZEFSAII (Michael W. Deem and Ramdas Pophale) SiO2 
 PCOD8242113
Probable space group: P M M N
;
_chemical_formula_sum "Si O2"
_cell_formula_units_Z 56
_cell_length_a 14.868599
_cell_length_b 8.881896
_cell_length_c 22.000107
_cell_angle_alpha 90.000000
_cell_angle_beta 90.000000
_cell_angle_gamma 90.000000
_cell_volume 2905.363830
_symmetry_space_group_name_H-M "P M M N"
_symmetry_group_IT_number 59
_space_group.IT_coordinate_system_code '2'
_symmetry_cell_setting 'orthorhombic'
loop_
_space_group_symop_operation_xyz
x,y,z
1/2-x,1/2-y,z
1/2+x,-y,-z
-x,1/2+y,-z
-x,-y,-z
1/2+x,1/2+y,-z
1/2-x,y,z
x,1/2-y,z
loop_
_atom_site_type_symbol
_atom_site_label
_atom_site_fract_x
_atom_site_fract_y
_atom_site_fract_z
Si Si1 0.930776 0.572922 0.664612
Si Si2 0.148089 0.078601 0.867336
Si Si3 0.055283 0.927418 0.554059
Si Si4 0.503818 0.927731 0.796501
Si Si5 0.750000 0.071655 0.480229
Si Si6 0.348639 0.420705 0.107531
Si Si7 0.595988 0.427561 0.009262
Si Si8 0.250000 0.928638 0.381514
O O1 0.910968 0.750000 0.662690
O O2 0.966348 0.520143 0.729951
O O3 0.838380 0.488055 0.651846
O O4 0.008579 0.526517 0.617140
O O5 0.250000 0.069816 0.843970
O O6 0.118523 0.250000 0.880210
O O7 0.140051 0.984947 0.929024
O O8 0.088396 0.009458 0.813590
O O9 0.053387 0.750000 0.543723
O O10 0.159124 0.986405 0.553410
O O11 0.000000 0.000000 0.500000
O O12 0.488709 0.750000 0.799092
O O13 0.579704 0.981186 0.844058
O O14 0.750000 0.250000 0.480583
O O15 0.750000 0.011083 0.549321
O O16 0.250000 0.426522 0.138208
O O17 0.372987 0.250000 0.087967
O O18 0.344412 0.524981 0.048164
O O19 0.587768 0.250000 0.013307
O O20 0.500000 0.500000 0.000000
O O21 0.250000 0.750000 0.378911
#
# Coordination Sequence:
#
# PCOD8242113 Si02
#       8
#     8   8   8   8   4   8   8   4
#     4  10  22  38  59  88 120 156 197 245 295 349
#     4  11  24  42  64  88 116 154 197 245 300 354
#     4  10  19  35  57  83 116 152 192 241 294 345
#     4  10  22  40  61  86 116 156 198 240 289 345
#     4   9  18  33  55  83 117 153 192 239 294 349
#     4  10  21  37  58  84 116 152 188 234 294 353
#     4  12  23  37  60  88 118 152 192 244 298 350
#     4  11  21  35  59  89 119 159 196 235 290 355
#
# _framework density 19.274692999999999
#
# number of rings (size 3 to 8) (size 9 to 14) (size 15 to 20)
#    0.000    1.571    2.857    2.357    1.000    3.714 
#    1.286    0.357    0.000    0.000    0.000    0.000 
#    0.000    0.000    0.000    0.000    0.000    0.000 
#
# Total GULP energy -694502.985540 kJ/mol
# GULP energy per Si atom -12401.839028 kJ/mol
# Density = 1.923082 g / cm^3
# Si number density = 19.274693 Si / 1000 Ang^3
#
#
#
# Elastic Constant Matrix: (Units=GPa)
#
#
# Indices 1 2 3 4 5 6 
#
# 1 161.5579 46.1554 75.6530 0.0000 0.0000 0.0000
# 2 46.1554 76.0681 48.9780 0.0000 0.0000 0.0000
# 3 75.6530 48.9780 145.8731 0.0000 0.0000 0.0000
# 4 0.0000 0.0000 0.0000 26.0721 0.0000 0.0000
# 5 0.0000 0.0000 0.0000 0.0000 20.8245 0.0000
# 6 0.0000 0.0000 0.0000 0.0000 0.0000 28.3640
#
#
#
# Elastic Compliance Matrix: (Units=1/GPa)
#
#
# Indices 1 2 3 4 5 6 
#
# 1 0.008688 -0.003024 -0.003490 0.000000 0.000000 0.000000
# 2 -0.003024 0.017825 -0.004416 0.000000 0.000000 0.000000
# 3 -0.003490 -0.004416 0.010148 0.000000 0.000000 0.000000
# 4 0.000000 0.000000 0.000000 0.038355 0.000000 0.000000
# 5 0.000000 0.000000 0.000000 0.000000 0.048020 0.000000
# 6 0.000000 0.000000 0.000000 0.000000 0.000000 0.035256
#
#
# Mechanical properties :
#
#
# Convention : Reuss Voigt Hill
#
# Bulk Modulus (GPa) = 67.57177 80.56354 74.06765
# Shear Modulus (GPa) = 27.01420 29.23297 28.12358
#
# Velocity S-wave (km/s) = 3.74777 3.89864 3.82395
# Velocity P-wave (km/s) = 7.33901 7.88379 7.61628
#
# Compressibility (1/GPa) = 0.01479908
#
# Stress axis : x y z
#
# Youngs Moduli (GPa) = 115.09825 56.10199 98.53849
#
# Poissons Ratio (x) = 0.16967 0.34395
# Poissons Ratio (y) = 0.34809 0.43518
# Poissons Ratio (z) = 0.40175 0.24776
#
# Static dielectric constant tensor:
#      x y z
#    x 3.708310 0.000000 0.000000 
#    y 0.000000 3.476640 0.000000 
#    z 0.000000 0.000000 3.945880 
# 
# 
# High freq. dielectric constant tensor:
#      x y z
#    x 1.767160 0.000000 0.000000 
#    y 0.000000 1.739600 0.000000 
#    z 0.000000 0.000000 1.742380 
# 
# From -- ./inp_files/30423.got.cif
#   From: 2010.03.12/outbox.cif.g09.slc.cpg/sg59_16_cif.got.tgz:30423.got - 2010.04.16 16:29:54.
