data_PCOD8242335
_publ_section_title
;
Structure prediction by ZEFSAII (Michael W. Deem and Ramdas Pophale) SiO2 
 PCOD8242335
Probable space group: P M M N
;
_chemical_formula_sum "Si O2"
_cell_formula_units_Z 64
_cell_length_a 9.087958
_cell_length_b 23.858748
_cell_length_c 15.849042
_cell_angle_alpha 90.000000
_cell_angle_beta 90.000000
_cell_angle_gamma 90.000000
_cell_volume 3436.504981
_symmetry_space_group_name_H-M "P M M N"
_symmetry_group_IT_number 59
_space_group.IT_coordinate_system_code '2'
_symmetry_cell_setting 'orthorhombic'
loop_
_space_group_symop_operation_xyz
x,y,z
1/2-x,1/2-y,z
1/2+x,-y,-z
-x,1/2+y,-z
-x,-y,-z
1/2+x,1/2+y,-z
1/2-x,y,z
x,1/2-y,z
loop_
_atom_site_type_symbol
_atom_site_label
_atom_site_fract_x
_atom_site_fract_y
_atom_site_fract_z
Si Si1 0.916979 0.310679 0.635389
Si Si2 0.924709 0.077365 0.721868
Si Si3 0.088061 0.155580 0.481878
Si Si4 0.582926 0.184922 0.324209
Si Si5 0.423857 0.685662 0.867872
Si Si6 0.585911 0.536053 0.433849
Si Si7 0.420654 0.027426 0.879373
Si Si8 0.920863 0.579726 0.938621
O O1 0.750000 0.324695 0.611047
O O2 0.932253 0.250000 0.680922
O O3 0.972762 0.358880 0.698718
O O4 0.000472 0.305333 0.546502
O O5 0.750000 0.069068 0.726357
O O6 0.993042 0.035695 0.652517
O O7 0.996356 0.064647 0.811077
O O8 0.250000 0.180997 0.467969
O O9 0.097425 0.096388 0.526034
O O10 0.012692 0.149798 0.390408
O O11 0.750000 0.164761 0.333257
O O12 0.567370 0.250000 0.346833
O O13 0.528844 0.173960 0.228831
O O14 0.250000 0.676851 0.879565
O O15 0.465287 0.750000 0.892525
O O16 0.511070 0.641711 0.926270
O O17 0.500000 0.500000 0.500000
O O18 0.750000 0.512172 0.416193
O O19 0.250000 0.019759 0.856037
O O20 0.493435 0.965818 0.882026
O O21 0.441310 0.062085 0.964862
O O22 0.750000 0.580226 0.912274
#
# Coordination Sequence:
#
# PCOD8242335 Si02
#       8
#     8   8   8   8   8   8   8   8
#     4   9  18  33  52  73 100 136 175 214 259 312
#     4  10  20  35  56  80 106 137 176 222 268 316
#     4  10  20  31  46  71  99 129 169 215 258 301
#     4   9  18  32  49  70  98 133 171 207 245 296
#     4   9  19  36  56  79 110 147 183 219 265 321
#     4  10  21  36  51  70 101 138 175 215 261 313
#     4  10  21  38  59  82 109 140 175 217 267 322
#     4  10  21  37  59  85 110 138 175 219 266 318
#
# _framework density 18.623571999999999
#
# number of rings (size 3 to 8) (size 9 to 14) (size 15 to 20)
#    0.000    2.375    0.000    3.000    0.000    7.250 
#    0.000    4.375    0.000    2.250    0.000    0.000 
#    0.000    0.000    0.000    0.000    0.000    0.000 
#
# Total GULP energy -793457.242804 kJ/mol
# GULP energy per Si atom -12397.769419 kJ/mol
# Density = 1.858118 g / cm^3
# Si number density = 18.623572 Si / 1000 Ang^3
#
#
#
# Elastic Constant Matrix: (Units=GPa)
#
#
# Indices 1 2 3 4 5 6 
#
# 1 120.9832 50.8377 52.3763 0.0000 0.0000 0.0000
# 2 50.8377 85.3268 42.9073 0.0000 0.0000 0.0000
# 3 52.3763 42.9073 76.6240 0.0000 0.0000 0.0000
# 4 0.0000 0.0000 0.0000 21.7150 0.0000 0.0000
# 5 0.0000 0.0000 0.0000 0.0000 34.8464 0.0000
# 6 0.0000 0.0000 0.0000 0.0000 0.0000 26.7641
#
#
#
# Elastic Compliance Matrix: (Units=1/GPa)
#
#
# Indices 1 2 3 4 5 6 
#
# 1 0.012881 -0.004520 -0.006274 0.000000 0.000000 0.000000
# 2 -0.004520 0.017899 -0.006934 0.000000 0.000000 0.000000
# 3 -0.006274 -0.006934 0.021222 0.000000 0.000000 0.000000
# 4 0.000000 0.000000 0.000000 0.046051 0.000000 0.000000
# 5 0.000000 0.000000 0.000000 0.000000 0.028697 0.000000
# 6 0.000000 0.000000 0.000000 0.000000 0.000000 0.037363
#
#
# Mechanical properties :
#
#
# Convention : Reuss Voigt Hill
#
# Bulk Modulus (GPa) = 60.43149 63.90852 62.17000
# Shear Modulus (GPa) = 24.38028 25.78593 25.08311
#
# Velocity S-wave (km/s) = 3.62209 3.72504 3.67392
# Velocity P-wave (km/s) = 7.07192 7.27266 7.17299
#
# Compressibility (1/GPa) = 0.01654767
#
# Stress axis : x y z
#
# Youngs Moduli (GPa) = 77.63460 55.86898 47.12110
#
# Poissons Ratio (x) = 0.25250 0.29563
# Poissons Ratio (y) = 0.35087 0.32672
# Poissons Ratio (z) = 0.48707 0.38737
#
# Static dielectric constant tensor:
#      x y z
#    x 3.658010 0.000000 0.000000 
#    y 0.000000 3.275370 0.000000 
#    z 0.000000 0.000000 3.287480 
# 
# 
# High freq. dielectric constant tensor:
#      x y z
#    x 1.732290 0.000000 0.000000 
#    y 0.000000 1.720000 0.000000 
#    z 0.000000 0.000000 1.710100 
# 
# From -- ./inp_files/21535.got.cif
#   From: 2010.03.12/outbox.cif.g09.slc.cpg/sg59_11_cif.got.tgz:21535.got - 2010.04.16 16:29:54.
