data_PCOD8242052
_publ_section_title
;
Structure prediction by ZEFSAII (Michael W. Deem and Ramdas Pophale) SiO2 
 PCOD8242052
Probable space group: P M M N
;
_chemical_formula_sum "Si O2"
_cell_formula_units_Z 48
_cell_length_a 8.682908
_cell_length_b 9.934590
_cell_length_c 28.266327
_cell_angle_alpha 90.000000
_cell_angle_beta 90.000000
_cell_angle_gamma 90.000000
_cell_volume 2438.285336
_symmetry_space_group_name_H-M "P M M N"
_symmetry_group_IT_number 59
_space_group.IT_coordinate_system_code '2'
_symmetry_cell_setting 'orthorhombic'
loop_
_space_group_symop_operation_xyz
x,y,z
1/2-x,1/2-y,z
1/2+x,-y,-z
-x,1/2+y,-z
-x,-y,-z
1/2+x,1/2+y,-z
1/2-x,y,z
x,1/2-y,z
loop_
_atom_site_type_symbol
_atom_site_label
_atom_site_fract_x
_atom_site_fract_y
_atom_site_fract_z
Si Si1 0.931949 0.750000 0.105748
Si Si2 0.067188 0.495925 0.728929
Si Si3 0.068844 0.250000 0.220712
Si Si4 0.567190 0.750000 0.887602
Si Si5 0.932635 0.902977 0.373608
Si Si6 0.066995 0.250000 0.790352
Si Si7 0.432672 0.989432 0.948097
Si Si8 0.067128 0.907610 0.541295
O O1 0.750000 0.750000 0.110984
O O2 0.007194 0.750000 0.157654
O O3 0.989601 0.622920 0.077269
O O4 0.250000 0.515193 0.729524
O O5 0.008097 0.458217 0.676605
O O6 0.007726 0.380018 0.763325
O O7 0.987546 0.626817 0.748454
O O8 0.250000 0.250000 0.217380
O O9 0.003307 0.250000 0.166635
O O10 0.750000 0.750000 0.888333
O O11 0.504722 0.875192 0.916269
O O12 0.750000 0.894001 0.373444
O O13 0.996530 0.750000 0.383487
O O14 0.988879 0.014203 0.411540
O O15 0.250000 0.250000 0.791747
O O16 0.250000 0.971963 0.950632
O O17 0.500000 0.000000 0.000000
O O18 0.250000 0.907075 0.537363
O O19 0.008381 0.750000 0.540391
O O20 0.000000 0.000000 0.500000
#
# Coordination Sequence:
#
# PCOD8242052 Si02
#       8
#     4   8   4   4   8   4   8   8
#     4   9  19  33  53  82 114 141 175 230 286 337
#     4  10  19  34  60  87 110 143 189 236 288 351
#     4  11  25  40  54  79 119 159 194 239 292 343
#     4  11  24  42  59  80 116 159 201 242 284 339
#     4   9  17  32  56  87 116 144 185 241 296 344
#     4   9  16  31  56  87 111 131 176 237 282 329
#     4  11  22  38  61  88 117 150 189 236 294 354
#     4  10  21  36  57  85 118 154 195 241 290 345
#
# _framework density 19.685964999999999
#
# number of rings (size 3 to 8) (size 9 to 14) (size 15 to 20)
#    0.000    2.000    0.833    3.000    1.167    4.333 
#    0.000    2.500    0.000    5.000    0.000    0.000 
#    0.000    0.000    0.000    0.000    0.000    0.000 
#
# Total GULP energy -594936.295598 kJ/mol
# GULP energy per Si atom -12394.506158 kJ/mol
# Density = 1.964116 g / cm^3
# Si number density = 19.685965 Si / 1000 Ang^3
#
#
#
# Elastic Constant Matrix: (Units=GPa)
#
#
# Indices 1 2 3 4 5 6 
#
# 1 37.5481 32.3055 28.2410 0.0000 0.0000 0.0000
# 2 32.3055 214.0642 111.6158 0.0000 0.0000 0.0000
# 3 28.2410 111.6158 198.9087 0.0000 0.0000 0.0000
# 4 0.0000 0.0000 0.0000 47.7922 0.0000 0.0000
# 5 0.0000 0.0000 0.0000 0.0000 28.2427 0.0000
# 6 0.0000 0.0000 0.0000 0.0000 0.0000 36.7373
#
#
#
# Elastic Compliance Matrix: (Units=1/GPa)
#
#
# Indices 1 2 3 4 5 6 
#
# 1 0.031496 -0.003423 -0.002551 0.000000 0.000000 0.000000
# 2 -0.003423 0.006976 -0.003428 0.000000 0.000000 0.000000
# 3 -0.002551 -0.003428 0.007313 0.000000 0.000000 0.000000
# 4 0.000000 0.000000 0.000000 0.020924 0.000000 0.000000
# 5 0.000000 0.000000 0.000000 0.000000 0.035407 0.000000
# 6 0.000000 0.000000 0.000000 0.000000 0.000000 0.027220
#
#
# Mechanical properties :
#
#
# Convention : Reuss Voigt Hill
#
# Bulk Modulus (GPa) = 37.06379 88.31620 62.68999
# Shear Modulus (GPa) = 31.81970 41.11170 36.46570
#
# Velocity S-wave (km/s) = 4.02477 4.57483 4.30859
# Velocity P-wave (km/s) = 6.36135 8.53612 7.52769
#
# Compressibility (1/GPa) = 0.02698051
#
# Stress axis : x y z
#
# Youngs Moduli (GPa) = 31.74970 143.35542 136.73564
#
# Poissons Ratio (x) = 0.49073 0.34881
# Poissons Ratio (y) = 0.10868 0.46877
# Poissons Ratio (z) = 0.08099 0.49147
#
# Static dielectric constant tensor:
#      x y z
#    x 3.216560 0.000000 0.000000 
#    y 0.000000 3.218820 0.000000 
#    z 0.000000 0.000000 3.968820 
# 
# 
# High freq. dielectric constant tensor:
#      x y z
#    x 1.728280 0.000000 0.000000 
#    y 0.000000 1.789190 0.000000 
#    z 0.000000 0.000000 1.789100 
# 
# From -- ./inp_files/33109.got.cif
#   From: 2010.03.12/outbox.cif.g09.slc.cpg/sg59_17_cif.got.tgz:33109.got - 2010.04.16 16:29:54.
