data_PCOD8242605
_publ_section_title
;
Structure prediction by ZEFSAII (Michael W. Deem and Ramdas Pophale) SiO2 
 PCOD8242605
Probable space group: P M M N
;
_chemical_formula_sum "Si O2"
_cell_formula_units_Z 64
_cell_length_a 8.853107
_cell_length_b 19.443654
_cell_length_c 22.109619
_cell_angle_alpha 90.000000
_cell_angle_beta 90.000000
_cell_angle_gamma 90.000000
_cell_volume 3805.877944
_symmetry_space_group_name_H-M "P M M N"
_symmetry_group_IT_number 59
_space_group.IT_coordinate_system_code '2'
_symmetry_cell_setting 'orthorhombic'
loop_
_space_group_symop_operation_xyz
x,y,z
1/2-x,1/2-y,z
1/2+x,-y,-z
-x,1/2+y,-z
-x,-y,-z
1/2+x,1/2+y,-z
1/2-x,y,z
x,1/2-y,z
loop_
_atom_site_type_symbol
_atom_site_label
_atom_site_fract_x
_atom_site_fract_y
_atom_site_fract_z
Si Si1 0.923579 0.410731 0.976806
Si Si2 0.920137 0.325998 0.602767
Si Si3 0.578222 0.471950 0.094146
Si Si4 0.572131 0.461574 0.442753
Si Si5 0.424695 0.537880 0.333118
Si Si6 0.074610 0.675127 0.132039
Si Si7 0.426051 0.327847 0.478865
Si Si8 0.571560 0.039709 0.802116
O O1 0.750000 0.436456 0.966065
O O2 0.947534 0.339679 0.940123
O O3 0.042254 0.463708 0.948668
O O4 0.952027 0.405343 0.049971
O O5 0.750000 0.332845 0.576135
O O6 0.945949 0.250000 0.630534
O O7 0.945769 0.380698 0.655650
O O8 0.037024 0.340409 0.549135
O O9 0.750000 0.474201 0.116104
O O10 0.478371 0.475891 0.155096
O O11 0.500000 0.500000 0.500000
O O12 0.750000 0.465781 0.450416
O O13 0.524133 0.495467 0.379957
O O14 0.519543 0.382185 0.439268
O O15 0.250000 0.515867 0.340358
O O16 0.486820 0.524799 0.265583
O O17 0.250000 0.679820 0.147976
O O18 0.999413 0.750000 0.146280
O O19 0.004861 0.612405 0.172074
O O20 0.250000 0.341273 0.468848
O O21 0.471082 0.250000 0.459770
O O22 0.750000 0.043855 0.801924
#
# Coordination Sequence:
#
# PCOD8242605 Si02
#       8
#     8   8   8   8   8   8   8   8
#     4   8  14  24  39  61  85 110 143 184 226 267
#     4   9  17  29  46  68  94 125 160 198 239 287
#     4   9  15  24  40  60  83 111 145 186 229 269
#     4  12  23  35  53  75 100 129 162 206 257 303
#     4  10  20  33  48  68  96 129 165 206 248 296
#     4   8  13  23  41  64  90 120 154 189 223 265
#     4  10  20  34  53  76 100 125 154 192 243 302
#     4   9  18  30  43  62  90 123 158 193 231 279
#
# _framework density 16.816094
#
# number of rings (size 3 to 8) (size 9 to 14) (size 15 to 20)
#    0.000    2.625    1.250    2.625    0.000    2.250 
#    0.000    2.500    0.000    6.000    0.000    4.375 
#    0.000    3.000    0.000    0.000    0.000    0.000 
#
# Total GULP energy -792887.138449 kJ/mol
# GULP energy per Si atom -12388.861538 kJ/mol
# Density = 1.677782 g / cm^3
# Si number density = 16.816094 Si / 1000 Ang^3
#
#
#
# Elastic Constant Matrix: (Units=GPa)
#
#
# Indices 1 2 3 4 5 6 
#
# 1 54.6142 29.4674 34.6909 0.0000 0.0000 0.0000
# 2 29.4674 62.2658 48.1181 0.0000 0.0000 0.0000
# 3 34.6909 48.1181 125.8640 0.0000 0.0000 0.0000
# 4 0.0000 0.0000 0.0000 18.7709 0.0000 0.0000
# 5 0.0000 0.0000 0.0000 0.0000 23.7977 0.0000
# 6 0.0000 0.0000 0.0000 0.0000 0.0000 17.7736
#
#
#
# Elastic Compliance Matrix: (Units=1/GPa)
#
#
# Indices 1 2 3 4 5 6 
#
# 1 0.025597 -0.009455 -0.003440 0.000000 0.000000 0.000000
# 2 -0.009455 0.026287 -0.007444 0.000000 0.000000 0.000000
# 3 -0.003440 -0.007444 0.011739 0.000000 0.000000 0.000000
# 4 0.000000 0.000000 0.000000 0.053274 0.000000 0.000000
# 5 0.000000 0.000000 0.000000 0.000000 0.042021 0.000000
# 6 0.000000 0.000000 0.000000 0.000000 0.000000 0.056263
#
#
# Mechanical properties :
#
#
# Convention : Reuss Voigt Hill
#
# Bulk Modulus (GPa) = 43.58249 51.92186 47.75218
# Shear Modulus (GPa) = 18.97475 20.76630 19.87052
#
# Velocity S-wave (km/s) = 3.36276 3.51794 3.44122
# Velocity P-wave (km/s) = 6.40710 6.88800 6.65190
#
# Compressibility (1/GPa) = 0.02294499
#
# Stress axis : x y z
#
# Youngs Moduli (GPa) = 39.06673 38.04136 85.18592
#
# Poissons Ratio (x) = 0.35969 0.29307
# Poissons Ratio (y) = 0.36939 0.63409
# Poissons Ratio (z) = 0.13441 0.28316
#
# Static dielectric constant tensor:
#      x y z
#    x 3.058560 0.000000 0.000000 
#    y 0.000000 3.274160 0.000000 
#    z 0.000000 0.000000 3.223740 
# 
# 
# High freq. dielectric constant tensor:
#      x y z
#    x 1.636940 0.000000 0.000000 
#    y 0.000000 1.623260 0.000000 
#    z 0.000000 0.000000 1.632320 
# 
# From -- ./inp_files/29702.got.cif
#   From: 2010.03.12/outbox.cif.g09.slc.cpg/sg59_15_cif.got.tgz:29702.got - 2010.04.16 16:29:54.
