data_PCOD8242655
_publ_section_title
;
Structure prediction by ZEFSAII (Michael W. Deem and Ramdas Pophale) SiO2 
 PCOD8242655
Probable space group: P M M N
;
_chemical_formula_sum "Si O2"
_cell_formula_units_Z 56
_cell_length_a 14.954865
_cell_length_b 9.117670
_cell_length_c 20.932062
_cell_angle_alpha 90.000000
_cell_angle_beta 90.000000
_cell_angle_gamma 90.000000
_cell_volume 2854.160418
_symmetry_space_group_name_H-M "P M M N"
_symmetry_group_IT_number 59
_space_group.IT_coordinate_system_code '2'
_symmetry_cell_setting 'orthorhombic'
loop_
_space_group_symop_operation_xyz
x,y,z
1/2-x,1/2-y,z
1/2+x,-y,-z
-x,1/2+y,-z
-x,-y,-z
1/2+x,1/2+y,-z
1/2-x,y,z
x,1/2-y,z
loop_
_atom_site_type_symbol
_atom_site_label
_atom_site_fract_x
_atom_site_fract_y
_atom_site_fract_z
Si Si1 0.595909 0.917346 0.588825
Si Si2 0.651108 0.910989 0.456131
Si Si3 0.355442 0.420571 0.008029
Si Si4 0.023381 0.921494 0.906657
Si Si5 0.478672 0.424379 0.773179
Si Si6 0.907817 0.082254 0.343563
Si Si7 0.653264 0.083805 0.703882
O O1 0.627543 0.750000 0.585753
O O2 0.596691 0.981125 0.516290
O O3 0.498926 0.936062 0.618093
O O4 0.661520 0.001414 0.636561
O O5 0.750000 0.892469 0.483630
O O6 0.611480 0.750000 0.437131
O O7 0.660712 0.012511 0.393544
O O8 0.250000 0.462738 0.021574
O O9 0.360961 0.250000 0.988107
O O10 0.397970 0.519574 0.952570
O O11 0.421285 0.449229 0.068688
O O12 0.039977 0.750000 0.896155
O O13 0.038811 0.007387 0.841589
O O14 0.467232 0.250000 0.776799
O O15 0.408288 0.491593 0.722557
O O16 0.577840 0.477200 0.751712
O O17 0.883258 0.250000 0.327963
O O18 0.750000 0.070160 0.738248
O O19 0.628287 0.250000 0.687404
#
# Coordination Sequence:
#
# PCOD8242655 Si02
#       7
#     8   8   8   8   8   8   8
#     4   9  18  32  50  71  95 127 165 206 258 317
#     4  10  20  33  49  70  97 128 163 206 259 316
#     4   9  19  37  60  86 117 151 183 215 257 310
#     4  10  20  35  57  86 117 146 181 224 263 303
#     4  10  20  35  54  74 103 143 178 210 255 310
#     4  10  20  34  52  73  97 127 168 214 255 301
#     4   9  18  31  47  71 102 134 171 215 261 311
#
# _framework density 19.620481000000002
#
# number of rings (size 3 to 8) (size 9 to 14) (size 15 to 20)
#    0.000    2.429    0.000    2.143    0.000    4.286 
#    0.000    0.714    0.000    4.286    0.000    0.000 
#    0.000    0.000    0.000    0.000    0.000    0.000 
#
# Total GULP energy -693893.353065 kJ/mol
# GULP energy per Si atom -12390.952733 kJ/mol
# Density = 1.957582 g / cm^3
# Si number density = 19.620481 Si / 1000 Ang^3
#
#
#
# Elastic Constant Matrix: (Units=GPa)
#
#
# Indices 1 2 3 4 5 6 
#
# 1 57.3325 16.8403 10.5434 0.0000 0.0000 0.0000
# 2 16.8403 87.1575 53.8577 0.0000 0.0000 0.0000
# 3 10.5434 53.8577 123.4869 0.0000 0.0000 0.0000
# 4 0.0000 0.0000 0.0000 36.0035 0.0000 0.0000
# 5 0.0000 0.0000 0.0000 0.0000 17.4818 0.0000
# 6 0.0000 0.0000 0.0000 0.0000 0.0000 22.5760
#
#
#
# Elastic Compliance Matrix: (Units=1/GPa)
#
#
# Indices 1 2 3 4 5 6 
#
# 1 0.018492 -0.003556 -0.000028 0.000000 0.000000 0.000000
# 2 -0.003556 0.016390 -0.006845 0.000000 0.000000 0.000000
# 3 -0.000028 -0.006845 0.011086 0.000000 0.000000 0.000000
# 4 0.000000 0.000000 0.000000 0.027775 0.000000 0.000000
# 5 0.000000 0.000000 0.000000 0.000000 0.057202 0.000000
# 6 0.000000 0.000000 0.000000 0.000000 0.000000 0.044295
#
#
# Mechanical properties :
#
#
# Convention : Reuss Voigt Hill
#
# Bulk Modulus (GPa) = 39.82388 47.82887 43.82637
# Shear Modulus (GPa) = 24.45384 27.66129 26.05756
#
# Velocity S-wave (km/s) = 3.53419 3.75883 3.64824
# Velocity P-wave (km/s) = 6.08236 6.57786 6.33496
#
# Compressibility (1/GPa) = 0.02511056
#
# Stress axis : x y z
#
# Youngs Moduli (GPa) = 54.07843 61.01237 90.20601
#
# Poissons Ratio (x) = 0.21693 0.00254
# Poissons Ratio (y) = 0.19228 0.61744
# Poissons Ratio (z) = 0.00152 0.41762
#
# Static dielectric constant tensor:
#      x y z
#    x 3.578020 0.000000 0.000000 
#    y 0.000000 3.597220 0.000000 
#    z 0.000000 0.000000 3.498230 
# 
# 
# High freq. dielectric constant tensor:
#      x y z
#    x 1.757130 0.000000 0.000000 
#    y 0.000000 1.764410 0.000000 
#    z 0.000000 0.000000 1.755060 
# 
# From -- ./inp_files/30583.got.cif
#   From: 2010.03.12/outbox.cif.g09.slc.cpg/sg59_16_cif.got.tgz:30583.got - 2010.04.16 16:29:54.
