data_PCOD8242513
_publ_section_title
;
Structure prediction by ZEFSAII (Michael W. Deem and Ramdas Pophale) SiO2 
 PCOD8242513
Probable space group: P M M N
;
_chemical_formula_sum "Si O2"
_cell_formula_units_Z 64
_cell_length_a 29.962673
_cell_length_b 8.692352
_cell_length_c 14.375191
_cell_angle_alpha 90.000000
_cell_angle_beta 90.000000
_cell_angle_gamma 90.000000
_cell_volume 3743.962441
_symmetry_space_group_name_H-M "P M M N"
_symmetry_group_IT_number 59
_space_group.IT_coordinate_system_code '2'
_symmetry_cell_setting 'orthorhombic'
loop_
_space_group_symop_operation_xyz
x,y,z
1/2-x,1/2-y,z
1/2+x,-y,-z
-x,1/2+y,-z
-x,-y,-z
1/2+x,1/2+y,-z
1/2-x,y,z
x,1/2-y,z
loop_
_atom_site_type_symbol
_atom_site_label
_atom_site_fract_x
_atom_site_fract_y
_atom_site_fract_z
Si Si1 0.199194 0.071367 0.145809
Si Si2 0.118191 0.923249 0.064386
Si Si3 0.024782 0.570735 0.755839
Si Si4 0.958758 0.568902 0.442174
Si Si5 0.433893 0.922572 0.250442
Si Si6 0.384686 0.929465 0.438305
Si Si7 0.699459 0.930531 0.642521
Si Si8 0.542745 0.569096 0.052610
O O1 0.250000 0.042088 0.115466
O O2 0.186912 0.250000 0.141299
O O3 0.191815 0.011862 0.251548
O O4 0.168987 0.982081 0.070456
O O5 0.116500 0.750000 0.024279
O O6 0.101699 0.929523 0.169529
O O7 0.088270 0.033712 0.001377
O O8 0.035389 0.750000 0.746498
O O9 0.040590 0.483619 0.664097
O O10 0.049628 0.502486 0.845498
O O11 0.972229 0.544914 0.770926
O O12 0.963743 0.750000 0.448304
O O13 0.910645 0.517663 0.480393
O O14 0.000000 0.500000 0.500000
O O15 0.454241 0.750000 0.259444
O O16 0.409821 0.972899 0.343976
O O17 0.385560 0.750000 0.460660
O O18 0.333581 0.984323 0.429084
O O19 0.750000 0.969333 0.611580
O O20 0.690475 0.750000 0.636795
O O21 0.534867 0.750000 0.060508
O O22 0.500000 0.500000 0.000000
#
# Coordination Sequence:
#
# PCOD8242513 Si02
#       8
#     8   8   8   8   8   8   8   8
#     4   9  18  32  50  74 106 142 179 219 265 318
#     4  11  21  34  52  77 107 142 182 221 264 318
#     4  12  24  38  56  77 104 141 180 223 269 314
#     4  12  24  38  55  77 106 141 181 223 265 316
#     4  10  20  32  49  73 108 144 179 220 261 308
#     4  11  21  34  52  77 107 142 182 221 264 318
#     4   9  18  32  50  74 106 142 179 219 265 318
#     4  12  24  38  55  77 106 141 181 223 265 316
#
# _framework density 17.094187999999999
#
# number of rings (size 3 to 8) (size 9 to 14) (size 15 to 20)
#    0.000    1.250    3.750    4.875    0.000    1.500 
#    0.000    1.250    0.000    0.000    0.000    0.875 
#    0.000    7.000    0.000    0.000    0.000    0.000 
#
# Total GULP energy -793715.579194 kJ/mol
# GULP energy per Si atom -12401.805925 kJ/mol
# Density = 1.705528 g / cm^3
# Si number density = 17.094188 Si / 1000 Ang^3
#
#
#
# Elastic Constant Matrix: (Units=GPa)
#
#
# Indices 1 2 3 4 5 6 
#
# 1 102.2340 39.4559 36.4853 0.0000 0.0000 0.0000
# 2 39.4559 103.0665 29.6789 0.0000 0.0000 0.0000
# 3 36.4853 29.6789 78.3176 0.0000 0.0000 0.0000
# 4 0.0000 0.0000 0.0000 26.3546 0.0000 0.0000
# 5 0.0000 0.0000 0.0000 0.0000 25.2045 0.0000
# 6 0.0000 0.0000 0.0000 0.0000 0.0000 30.2766
#
#
#
# Elastic Compliance Matrix: (Units=1/GPa)
#
#
# Indices 1 2 3 4 5 6 
#
# 1 0.012807 -0.003575 -0.004612 0.000000 0.000000 0.000000
# 2 -0.003575 0.011889 -0.002840 0.000000 0.000000 0.000000
# 3 -0.004612 -0.002840 0.015993 0.000000 0.000000 0.000000
# 4 0.000000 0.000000 0.000000 0.037944 0.000000 0.000000
# 5 0.000000 0.000000 0.000000 0.000000 0.039676 0.000000
# 6 0.000000 0.000000 0.000000 0.000000 0.000000 0.033029
#
#
# Mechanical properties :
#
#
# Convention : Reuss Voigt Hill
#
# Bulk Modulus (GPa) = 53.65921 54.98425 54.32173
# Shear Modulus (GPa) = 27.83936 28.23367 28.03652
#
# Velocity S-wave (km/s) = 4.03995 4.06846 4.05423
# Velocity P-wave (km/s) = 7.29521 7.36920 7.33230
#
# Compressibility (1/GPa) = 0.01863613
#
# Stress axis : x y z
#
# Youngs Moduli (GPa) = 78.08287 84.11305 62.52695
#
# Poissons Ratio (x) = 0.30069 0.28835
# Poissons Ratio (y) = 0.27913 0.17757
# Poissons Ratio (z) = 0.36009 0.23888
#
# Static dielectric constant tensor:
#      x y z
#    x 3.178750 0.000000 0.000000 
#    y 0.000000 3.356720 0.000000 
#    z 0.000000 0.000000 3.120490 
# 
# 
# High freq. dielectric constant tensor:
#      x y z
#    x 1.650470 0.000000 0.000000 
#    y 0.000000 1.671190 0.000000 
#    z 0.000000 0.000000 1.636030 
# 
# From -- ./inp_files/25107.got.cif
#   From: 2010.03.12/outbox.cif.g09.slc.cpg/sg59_13_cif.got.tgz:25107.got - 2010.04.16 16:29:54.
