data_PCOD8242709
_publ_section_title
;
Structure prediction by ZEFSAII (Michael W. Deem and Ramdas Pophale) SiO2 
 PCOD8242709
Probable space group: P M M N
;
_chemical_formula_sum "Si O2"
_cell_formula_units_Z 48
_cell_length_a 9.628192
_cell_length_b 9.095577
_cell_length_c 31.036656
_cell_angle_alpha 90.000000
_cell_angle_beta 90.000000
_cell_angle_gamma 90.000000
_cell_volume 2718.002924
_symmetry_space_group_name_H-M "P M M N"
_symmetry_group_IT_number 59
_space_group.IT_coordinate_system_code '2'
_symmetry_cell_setting 'orthorhombic'
loop_
_space_group_symop_operation_xyz
x,y,z
1/2-x,1/2-y,z
1/2+x,-y,-z
-x,1/2+y,-z
-x,-y,-z
1/2+x,1/2+y,-z
1/2-x,y,z
x,1/2-y,z
loop_
_atom_site_type_symbol
_atom_site_label
_atom_site_fract_x
_atom_site_fract_y
_atom_site_fract_z
Si Si1 0.914957 0.085674 0.122232
Si Si2 0.404708 0.425166 0.701680
Si Si3 0.089240 0.920405 0.376502
Si Si4 0.584513 0.586041 0.204021
Si Si5 0.587834 0.922102 0.036566
Si Si6 0.588403 0.578262 0.536314
O O1 0.750000 0.089157 0.124926
O O2 0.974862 0.250000 0.116576
O O3 0.976194 0.017473 0.166398
O O4 0.962694 0.986644 0.082175
O O5 0.250000 0.486212 0.692437
O O6 0.402086 0.250000 0.702282
O O7 0.505903 0.483793 0.664430
O O8 0.458481 0.477745 0.748874
O O9 0.250000 0.943603 0.366026
O O10 0.054270 0.750000 0.385385
O O11 0.042533 0.012561 0.417903
O O12 0.750000 0.593085 0.201805
O O13 0.523982 0.750000 0.197145
O O14 0.750000 0.954899 0.028674
O O15 0.556002 0.750000 0.036328
O O16 0.500000 0.000000 0.000000
O O17 0.500000 0.500000 0.500000
O O18 0.750000 0.546172 0.527500
O O19 0.554973 0.750000 0.536117
#
# Coordination Sequence:
#
# PCOD8242709 Si02
#       6
#     8   8   8   8   8   8
#     4   9  16  26  42  65  92 121 154 193 236 282
#     4   8  14  25  43  67  92 118 150 188 229 273
#     4   9  17  30  48  69  94 124 156 190 230 279
#     4   8  13  23  40  61  85 114 150 191 231 272
#     4  10  20  33  50  72  97 126 160 198 241 289
#     4  10  21  36  53  73  97 126 160 198 240 285
#
# _framework density 17.660024
#
# number of rings (size 3 to 8) (size 9 to 14) (size 15 to 20)
#    0.000    3.000    0.000    2.500    0.000    4.667 
#    0.000    2.500    0.000    2.000    0.000    2.333 
#    0.000    0.000    0.000    0.000    0.000    0.000 
#
# Total GULP energy -595051.823489 kJ/mol
# GULP energy per Si atom -12396.912989 kJ/mol
# Density = 1.761983 g / cm^3
# Si number density = 17.660024 Si / 1000 Ang^3
#
#
#
# Elastic Constant Matrix: (Units=GPa)
#
#
# Indices 1 2 3 4 5 6 
#
# 1 43.4803 36.6038 64.4381 0.0000 0.0000 0.0000
# 2 36.6038 102.0774 82.4918 0.0000 0.0000 0.0000
# 3 64.4381 82.4918 196.9730 0.0000 0.0000 0.0000
# 4 0.0000 0.0000 0.0000 32.1813 0.0000 0.0000
# 5 0.0000 0.0000 0.0000 0.0000 27.3819 0.0000
# 6 0.0000 0.0000 0.0000 0.0000 0.0000 17.3133
#
#
#
# Elastic Compliance Matrix: (Units=1/GPa)
#
#
# Indices 1 2 3 4 5 6 
#
# 1 0.047550 -0.006772 -0.012720 0.000000 0.000000 0.000000
# 2 -0.006772 0.015773 -0.004390 0.000000 0.000000 0.000000
# 3 -0.012720 -0.004390 0.011077 0.000000 0.000000 0.000000
# 4 0.000000 0.000000 0.000000 0.031074 0.000000 0.000000
# 5 0.000000 0.000000 0.000000 0.000000 0.036520 0.000000
# 6 0.000000 0.000000 0.000000 0.000000 0.000000 0.057759
#
#
# Mechanical properties :
#
#
# Convention : Reuss Voigt Hill
#
# Bulk Modulus (GPa) = 37.54296 78.84423 58.19359
# Shear Modulus (GPa) = 19.50113 25.97511 22.73812
#
# Velocity S-wave (km/s) = 3.32664 3.83932 3.59213
# Velocity P-wave (km/s) = 6.00502 8.02473 7.08719
#
# Compressibility (1/GPa) = 0.02663615
#
# Stress axis : x y z
#
# Youngs Moduli (GPa) = 21.03031 63.40090 90.28062
#
# Poissons Ratio (x) = 0.42934 1.14834
# Poissons Ratio (y) = 0.14241 0.39635
# Poissons Ratio (z) = 0.26750 0.27834
#
# Static dielectric constant tensor:
#      x y z
#    x 2.890780 0.000000 0.000000 
#    y 0.000000 3.443160 0.000000 
#    z 0.000000 0.000000 3.645580 
# 
# 
# High freq. dielectric constant tensor:
#      x y z
#    x 1.638140 0.000000 0.000000 
#    y 0.000000 1.671540 0.000000 
#    z 0.000000 0.000000 1.700890 
# 
# From -- ./inp_files/31846.got.cif
#   From: 2010.03.12/outbox.cif.g09.slc.cpg/sg59_16_cif.got.tgz:31846.got - 2010.04.16 16:29:54.
