data_PCOD8242913
_publ_section_title
;
Structure prediction by ZEFSAII (Michael W. Deem and Ramdas Pophale) SiO2 
 PCOD8242913
Probable space group: P M M N
;
_chemical_formula_sum "Si O2"
_cell_formula_units_Z 48
_cell_length_a 17.781043
_cell_length_b 9.018268
_cell_length_c 15.460263
_cell_angle_alpha 90.000000
_cell_angle_beta 90.000000
_cell_angle_gamma 90.000000
_cell_volume 2479.118277
_symmetry_space_group_name_H-M "P M M N"
_symmetry_group_IT_number 59
_space_group.IT_coordinate_system_code '2'
_symmetry_cell_setting 'orthorhombic'
loop_
_space_group_symop_operation_xyz
x,y,z
1/2-x,1/2-y,z
1/2+x,-y,-z
-x,1/2+y,-z
-x,-y,-z
1/2+x,1/2+y,-z
1/2-x,y,z
x,1/2-y,z
loop_
_atom_site_type_symbol
_atom_site_label
_atom_site_fract_x
_atom_site_fract_y
_atom_site_fract_z
Si Si1 0.163371 0.920901 0.987276
Si Si2 0.165338 0.573598 0.321965
Si Si3 0.908354 0.925021 0.171569
Si Si4 0.422120 0.573357 0.155275
Si Si5 0.661787 0.579331 0.352198
Si Si6 0.419399 0.574319 0.493617
O O1 0.250000 0.942341 0.012092
O O2 0.143511 0.750000 0.971330
O O3 0.145687 0.008220 0.900454
O O4 0.114772 0.985912 0.066783
O O5 0.250000 0.509503 0.325793
O O6 0.167719 0.750000 0.319285
O O7 0.124217 0.509892 0.236825
O O8 0.119511 0.519168 0.405440
O O9 0.905212 0.750000 0.161692
O O10 0.878936 0.974357 0.265096
O O11 0.992808 0.986123 0.159894
O O12 0.419825 0.750000 0.158136
O O13 0.750000 0.557637 0.339686
O O14 0.641325 0.750000 0.373075
O O15 0.633664 0.474954 0.428421
O O16 0.500000 0.500000 0.500000
O O17 0.429214 0.750000 0.495190
#
# Coordination Sequence:
#
# PCOD8242913 Si02
#       6
#     8   8   8   8   8   8
#     4  10  20  33  51  77 106 135 171 218 268 313
#     4   9  17  31  53  79 104 132 170 215 261 313
#     4  10  20  35  55  77 104 141 180 216 261 320
#     4   9  17  31  52  77 105 135 169 213 264 317
#     4  10  21  37  56  79 109 144 181 223 272 323
#     4  11  22  36  56  82 111 143 181 223 268 320
#
# _framework density 19.361723000000001
#
# number of rings (size 3 to 8) (size 9 to 14) (size 15 to 20)
#    0.000    2.167    0.000    3.500    0.000    7.333 
#    0.000    0.000    0.000    2.000    0.000    0.000 
#    0.000    0.000    0.000    0.000    0.000    0.000 
#
# Total GULP energy -595357.211198 kJ/mol
# GULP energy per Si atom -12403.275233 kJ/mol
# Density = 1.931766 g / cm^3
# Si number density = 19.361723 Si / 1000 Ang^3
#
#
#
# Elastic Constant Matrix: (Units=GPa)
#
#
# Indices 1 2 3 4 5 6 
#
# 1 91.3218 18.2850 28.2049 0.0000 0.0000 0.0000
# 2 18.2850 30.9192 28.9517 0.0000 0.0000 0.0000
# 3 28.2049 28.9517 124.7068 0.0000 0.0000 0.0000
# 4 0.0000 0.0000 0.0000 26.8585 0.0000 0.0000
# 5 0.0000 0.0000 0.0000 0.0000 45.9538 0.0000
# 6 0.0000 0.0000 0.0000 0.0000 0.0000 26.6479
#
#
#
# Elastic Compliance Matrix: (Units=1/GPa)
#
#
# Indices 1 2 3 4 5 6 
#
# 1 0.012618 -0.006120 -0.001433 0.000000 0.000000 0.000000
# 2 -0.006120 0.044295 -0.008899 0.000000 0.000000 0.000000
# 3 -0.001433 -0.008899 0.010409 0.000000 0.000000 0.000000
# 4 0.000000 0.000000 0.000000 0.037232 0.000000 0.000000
# 5 0.000000 0.000000 0.000000 0.000000 0.021761 0.000000
# 6 0.000000 0.000000 0.000000 0.000000 0.000000 0.037526
#
#
# Mechanical properties :
#
#
# Convention : Reuss Voigt Hill
#
# Bulk Modulus (GPa) = 29.05547 44.20343 36.62945
# Shear Modulus (GPa) = 24.01318 31.32578 27.66948
#
# Velocity S-wave (km/s) = 3.52552 4.02671 3.78442
# Velocity P-wave (km/s) = 5.62243 6.67076 6.16890
#
# Compressibility (1/GPa) = 0.03441692
#
# Stress axis : x y z
#
# Youngs Moduli (GPa) = 79.24974 22.57602 96.07152
#
# Poissons Ratio (x) = 0.13818 0.13767
# Poissons Ratio (y) = 0.48504 0.85495
# Poissons Ratio (z) = 0.11356 0.20091
#
# Static dielectric constant tensor:
#      x y z
#    x 3.764340 0.000000 0.000000 
#    y 0.000000 3.249170 0.000000 
#    z 0.000000 0.000000 3.724320 
# 
# 
# High freq. dielectric constant tensor:
#      x y z
#    x 1.773950 0.000000 0.000000 
#    y 0.000000 1.709640 0.000000 
#    z 0.000000 0.000000 1.770740 
# 
# From -- ./inp_files/23651.got.cif
#   From: 2010.03.12/outbox.cif.g09.slc.cpg/sg59_12_cif.got.tgz:23651.got - 2010.04.16 16:29:54.
