data_PCOD8242861
_publ_section_title
;
Structure prediction by ZEFSAII (Michael W. Deem and Ramdas Pophale) SiO2 
 PCOD8242861
Probable space group: P M M N
;
_chemical_formula_sum "Si O2"
_cell_formula_units_Z 40
_cell_length_a 9.376809
_cell_length_b 9.018205
_cell_length_c 25.623815
_cell_angle_alpha 90.000000
_cell_angle_beta 90.000000
_cell_angle_gamma 90.000000
_cell_volume 2166.800680
_symmetry_space_group_name_H-M "P M M N"
_symmetry_group_IT_number 59
_space_group.IT_coordinate_system_code '2'
_symmetry_cell_setting 'orthorhombic'
loop_
_space_group_symop_operation_xyz
x,y,z
1/2-x,1/2-y,z
1/2+x,-y,-z
-x,1/2+y,-z
-x,-y,-z
1/2+x,1/2+y,-z
1/2-x,y,z
x,1/2-y,z
loop_
_atom_site_type_symbol
_atom_site_label
_atom_site_fract_x
_atom_site_fract_y
_atom_site_fract_z
Si Si1 0.583537 0.577620 0.046012
Si Si2 0.413475 0.074149 0.546132
Si Si3 0.418005 0.918775 0.240194
Si Si4 0.414555 0.922245 0.848544
Si Si5 0.092221 0.574120 0.356537
O O1 0.750000 0.546730 0.037590
O O2 0.546382 0.750000 0.046069
O O3 0.531307 0.510374 0.100782
O O4 0.500000 0.500000 0.000000
O O5 0.250000 0.021896 0.543823
O O6 0.427052 0.250000 0.541010
O O7 0.479536 0.016627 0.600790
O O8 0.500000 0.000000 0.500000
O O9 0.250000 0.928896 0.230925
O O10 0.470835 0.750000 0.231426
O O11 0.456559 0.974700 0.298645
O O12 0.496201 0.028040 0.201137
O O13 0.250000 0.957876 0.837174
O O14 0.440910 0.750000 0.859109
O O15 0.250000 0.509550 0.369471
O O16 0.101528 0.750000 0.357316
#
# Coordination Sequence:
#
# PCOD8242861 Si02
#       5
#     8   8   8   8   8
#     4  10  21  37  57  80 105 136 174 214 258 306
#     4  10  20  33  51  76 103 133 171 212 256 307
#     4   9  18  33  54  79 103 130 168 211 255 305
#     4  10  21  36  53  75 105 139 173 210 253 301
#     4   8  15  30  51  73  99 131 167 209 255 302
#
# _framework density 18.460398000000001
#
# number of rings (size 3 to 8) (size 9 to 14) (size 15 to 20)
#    0.000    2.600    0.000    3.000    0.000    5.600 
#    0.000    3.000    0.000    1.200    0.000    0.000 
#    0.000    0.000    0.000    0.000    0.000    0.000 
#
# Total GULP energy -496013.807083 kJ/mol
# GULP energy per Si atom -12400.345177 kJ/mol
# Density = 1.841838 g / cm^3
# Si number density = 18.460398 Si / 1000 Ang^3
#
#
#
# Elastic Constant Matrix: (Units=GPa)
#
#
# Indices 1 2 3 4 5 6 
#
# 1 93.8504 40.6764 84.4416 0.0000 0.0000 0.0000
# 2 40.6764 64.7598 55.4247 0.0000 0.0000 0.0000
# 3 84.4416 55.4247 172.1563 0.0000 0.0000 0.0000
# 4 0.0000 0.0000 0.0000 33.4856 0.0000 0.0000
# 5 0.0000 0.0000 0.0000 0.0000 39.1506 0.0000
# 6 0.0000 0.0000 0.0000 0.0000 0.0000 28.3194
#
#
#
# Elastic Compliance Matrix: (Units=1/GPa)
#
#
# Indices 1 2 3 4 5 6 
#
# 1 0.020596 -0.005922 -0.008196 0.000000 0.000000 0.000000
# 2 -0.005922 0.023018 -0.004505 0.000000 0.000000 0.000000
# 3 -0.008196 -0.004505 0.011279 0.000000 0.000000 0.000000
# 4 0.000000 0.000000 0.000000 0.029864 0.000000 0.000000
# 5 0.000000 0.000000 0.000000 0.000000 0.025542 0.000000
# 6 0.000000 0.000000 0.000000 0.000000 0.000000 0.035312
#
#
# Mechanical properties :
#
#
# Convention : Reuss Voigt Hill
#
# Bulk Modulus (GPa) = 56.67070 76.87245 66.77158
# Shear Modulus (GPa) = 26.49158 30.20603 28.34881
#
# Velocity S-wave (km/s) = 3.79231 4.04946 3.92299
# Velocity P-wave (km/s) = 7.06687 7.97473 7.53449
#
# Compressibility (1/GPa) = 0.01764580
#
# Stress axis : x y z
#
# Youngs Moduli (GPa) = 48.55297 43.44490 88.66003
#
# Poissons Ratio (x) = 0.25730 0.72662
# Poissons Ratio (y) = 0.28755 0.39945
# Poissons Ratio (z) = 0.39792 0.19574
#
# Static dielectric constant tensor:
#      x y z
#    x 3.290680 0.000000 0.000000 
#    y 0.000000 3.184540 0.000000 
#    z 0.000000 0.000000 3.654600 
# 
# 
# High freq. dielectric constant tensor:
#      x y z
#    x 1.713170 0.000000 0.000000 
#    y 0.000000 1.696720 0.000000 
#    z 0.000000 0.000000 1.730610 
# 
# From -- ./inp_files/31150.got.cif
#   From: 2010.03.12/outbox.cif.g09.slc.cpg/sg59_16_cif.got.tgz:31150.got - 2010.04.16 16:29:54.
