data_PCOD8242406
_publ_section_title
;
Structure prediction by ZEFSAII (Michael W. Deem and Ramdas Pophale) SiO2 
 PCOD8242406
Probable space group: P M M N
;
_chemical_formula_sum "Si O2"
_cell_formula_units_Z 64
_cell_length_a 9.163541
_cell_length_b 14.605761
_cell_length_c 26.091980
_cell_angle_alpha 90.000000
_cell_angle_beta 90.000000
_cell_angle_gamma 90.000000
_cell_volume 3492.163382
_symmetry_space_group_name_H-M "P M M N"
_symmetry_group_IT_number 59
_space_group.IT_coordinate_system_code '2'
_symmetry_cell_setting 'orthorhombic'
loop_
_space_group_symop_operation_xyz
x,y,z
1/2-x,1/2-y,z
1/2+x,-y,-z
-x,1/2+y,-z
-x,-y,-z
1/2+x,1/2+y,-z
1/2-x,y,z
x,1/2-y,z
loop_
_atom_site_type_symbol
_atom_site_label
_atom_site_fract_x
_atom_site_fract_y
_atom_site_fract_z
Si Si1 0.921115 0.499089 0.946311
Si Si2 0.079621 0.994699 0.422511
Si Si3 0.580778 0.643446 0.492733
Si Si4 0.083403 0.857788 0.247614
Si Si5 0.579884 0.353750 0.233979
Si Si6 0.080724 0.146508 0.134129
Si Si7 0.578062 0.503126 0.315953
Si Si8 0.423706 0.850991 0.133261
O O1 0.750000 0.487145 0.955923
O O2 0.959397 0.592812 0.917358
O O3 0.984023 0.417933 0.910561
O O4 0.000000 0.500000 0.000000
O O5 0.250000 0.977275 0.413657
O O6 0.014574 0.903032 0.448239
O O7 0.051196 0.086559 0.455415
O O8 0.000330 0.012009 0.369430
O O9 0.750000 0.636558 0.476906
O O10 0.534645 0.750000 0.500277
O O11 0.250000 0.890924 0.255613
O O12 0.072130 0.750000 0.256812
O O13 0.027526 0.882458 0.190170
O O14 0.978916 0.905723 0.288434
O O15 0.750000 0.358123 0.222882
O O16 0.527724 0.250000 0.245339
O O17 0.502044 0.393573 0.183423
O O18 0.536080 0.414964 0.282223
O O19 0.250000 0.136335 0.146943
O O20 0.032270 0.250000 0.123592
O O21 0.750000 0.512426 0.324721
O O22 0.250000 0.849907 0.133034
O O23 0.485427 0.750000 0.121084
#
# Coordination Sequence:
#
# PCOD8242406 Si02
#       8
#     8   8   8   8   8   8   8   8
#     4  10  20  32  47  69  96 124 157 199 246 297
#     4  10  21  36  55  81 109 138 176 215 252 301
#     4   9  19  38  61  81 104 136 174 218 264 303
#     4   9  18  34  56  78  99 129 171 214 255 303
#     4   9  19  35  53  75 103 135 172 210 250 302
#     4   9  18  33  52  72  95 126 164 206 252 300
#     4  11  22  34  51  77 111 144 169 205 256 302
#     4   8  15  30  51  71  91 120 160 202 242 288
#
# _framework density 18.326749
#
# number of rings (size 3 to 8) (size 9 to 14) (size 15 to 20)
#    0.000    2.625    0.000    2.250    0.000    5.000 
#    0.000    0.625    0.000    0.750    0.000    0.000 
#    0.000    0.000    0.000    0.000    0.000    0.000 
#
# Total GULP energy -793563.758823 kJ/mol
# GULP energy per Si atom -12399.433732 kJ/mol
# Density = 1.828504 g / cm^3
# Si number density = 18.326749 Si / 1000 Ang^3
#
#
#
# Elastic Constant Matrix: (Units=GPa)
#
#
# Indices 1 2 3 4 5 6 
#
# 1 68.2732 46.8978 66.6853 0.0000 0.0000 0.0000
# 2 46.8978 107.8984 65.2495 0.0000 0.0000 0.0000
# 3 66.6853 65.2495 151.5867 0.0000 0.0000 0.0000
# 4 0.0000 0.0000 0.0000 14.4080 0.0000 0.0000
# 5 0.0000 0.0000 0.0000 0.0000 35.4313 0.0000
# 6 0.0000 0.0000 0.0000 0.0000 0.0000 22.9865
#
#
#
# Elastic Compliance Matrix: (Units=1/GPa)
#
#
# Indices 1 2 3 4 5 6 
#
# 1 0.028744 -0.006552 -0.009824 0.000000 0.000000 0.000000
# 2 -0.006552 0.014023 -0.003154 0.000000 0.000000 0.000000
# 3 -0.009824 -0.003154 0.012276 0.000000 0.000000 0.000000
# 4 0.000000 0.000000 0.000000 0.069406 0.000000 0.000000
# 5 0.000000 0.000000 0.000000 0.000000 0.028224 0.000000
# 6 0.000000 0.000000 0.000000 0.000000 0.000000 0.043504
#
#
# Mechanical properties :
#
#
# Convention : Reuss Voigt Hill
#
# Bulk Modulus (GPa) = 62.56907 76.15815 69.36361
# Shear Modulus (GPa) = 20.78442 24.49353 22.63898
#
# Velocity S-wave (km/s) = 3.37130 3.65977 3.51849
# Velocity P-wave (km/s) = 7.02632 7.71392 7.37813
#
# Compressibility (1/GPa) = 0.01598234
#
# Stress axis : x y z
#
# Youngs Moduli (GPa) = 34.79001 71.31119 81.45773
#
# Poissons Ratio (x) = 0.46725 0.80028
# Poissons Ratio (y) = 0.22795 0.25689
# Poissons Ratio (z) = 0.34179 0.22489
#
# Static dielectric constant tensor:
#      x y z
#    x 3.345950 0.000000 0.000000 
#    y 0.000000 3.700190 0.000000 
#    z 0.000000 0.000000 3.374330 
# 
# 
# High freq. dielectric constant tensor:
#      x y z
#    x 1.695580 0.000000 0.000000 
#    y 0.000000 1.719130 0.000000 
#    z 0.000000 0.000000 1.710260 
# 
# From -- ./inp_files/31525.got.cif
#   From: 2010.03.12/outbox.cif.g09.slc.cpg/sg59_16_cif.got.tgz:31525.got - 2010.04.16 16:29:54.
