data_PCOD8242134
_publ_section_title
;
Structure prediction by ZEFSAII (Michael W. Deem and Ramdas Pophale) SiO2 
 PCOD8242134
Probable space group: P M M N
;
_chemical_formula_sum "Si O2"
_cell_formula_units_Z 48
_cell_length_a 8.717093
_cell_length_b 14.674441
_cell_length_c 20.193608
_cell_angle_alpha 90.000000
_cell_angle_beta 90.000000
_cell_angle_gamma 90.000000
_cell_volume 2583.135377
_symmetry_space_group_name_H-M "P M M N"
_symmetry_group_IT_number 59
_space_group.IT_coordinate_system_code '2'
_symmetry_cell_setting 'orthorhombic'
loop_
_space_group_symop_operation_xyz
x,y,z
1/2-x,1/2-y,z
1/2+x,-y,-z
-x,1/2+y,-z
-x,-y,-z
1/2+x,1/2+y,-z
1/2-x,y,z
x,1/2-y,z
loop_
_atom_site_type_symbol
_atom_site_label
_atom_site_fract_x
_atom_site_fract_y
_atom_site_fract_z
Si Si1 0.918443 0.250000 0.788471
Si Si2 0.068911 0.750000 0.485591
Si Si3 0.429690 0.250000 0.369302
Si Si4 0.915645 0.250000 0.943773
Si Si5 0.434323 0.942619 0.058832
Si Si6 0.069015 0.444942 0.313233
Si Si7 0.569190 0.056000 0.559399
Si Si8 0.431038 0.060291 0.798878
O O1 0.750000 0.250000 0.752969
O O2 0.890904 0.250000 0.865635
O O3 0.007591 0.343128 0.769664
O O4 0.250000 0.750000 0.490965
O O5 0.011823 0.839155 0.445391
O O6 0.007986 0.750000 0.559792
O O7 0.250000 0.250000 0.383103
O O8 0.477804 0.159663 0.328582
O O9 0.750000 0.250000 0.979249
O O10 0.001574 0.157132 0.961916
O O11 0.250000 0.944729 0.062055
O O12 0.499037 0.968980 0.130345
O O13 0.500000 0.000000 0.000000
O O14 0.250000 0.453538 0.300342
O O15 0.013979 0.510910 0.372440
O O16 0.977599 0.477620 0.248918
O O17 0.750000 0.049390 0.553165
O O18 0.500000 0.000000 0.500000
O O19 0.250000 0.067687 0.805841
#
# Coordination Sequence:
#
# PCOD8242134 Si02
#       8
#     4   4   4   4   8   8   8   8
#     4   9  17  34  58  80 109 147 180 221 280 337
#     4  10  20  33  53  83 112 140 177 228 286 342
#     4  10  20  36  58  80 104 145 194 232 274 338
#     4   7  14  29  51  77 105 140 177 213 266 329
#     4  10  19  35  58  84 114 150 190 233 284 338
#     4  10  21  37  56  79 109 147 190 234 286 340
#     4  10  20  34  54  79 108 140 182 228 278 335
#     4  11  22  36  56  85 116 148 190 235 283 341
#
# _framework density 18.582070000000002
#
# number of rings (size 3 to 8) (size 9 to 14) (size 15 to 20)
#    0.000    2.167    1.667    3.250    0.000    2.000 
#    0.000    3.750    0.000    0.000    0.000    0.000 
#    0.000    0.000    0.000    0.000    0.000    0.000 
#
# Total GULP energy -594860.547542 kJ/mol
# GULP energy per Si atom -12392.928074 kJ/mol
# Density = 1.853978 g / cm^3
# Si number density = 18.582070 Si / 1000 Ang^3
#
#
#
# Elastic Constant Matrix: (Units=GPa)
#
#
# Indices 1 2 3 4 5 6 
#
# 1 73.6022 42.1482 37.5945 0.0000 0.0000 0.0000
# 2 42.1482 173.2417 78.3958 0.0000 0.0000 0.0000
# 3 37.5945 78.3958 110.1826 0.0000 0.0000 0.0000
# 4 0.0000 0.0000 0.0000 34.7442 0.0000 0.0000
# 5 0.0000 0.0000 0.0000 0.0000 29.7255 0.0000
# 6 0.0000 0.0000 0.0000 0.0000 0.0000 22.9516
#
#
#
# Elastic Compliance Matrix: (Units=1/GPa)
#
#
# Indices 1 2 3 4 5 6 
#
# 1 0.017020 -0.002231 -0.004220 0.000000 0.000000 0.000000
# 2 -0.002231 0.008806 -0.005504 0.000000 0.000000 0.000000
# 3 -0.004220 -0.005504 0.014432 0.000000 0.000000 0.000000
# 4 0.000000 0.000000 0.000000 0.028782 0.000000 0.000000
# 5 0.000000 0.000000 0.000000 0.000000 0.033641 0.000000
# 6 0.000000 0.000000 0.000000 0.000000 0.000000 0.043570
#
#
# Mechanical properties :
#
#
# Convention : Reuss Voigt Hill
#
# Bulk Modulus (GPa) = 61.17210 74.81152 67.99181
# Shear Modulus (GPa) = 28.47233 30.74345 29.60789
#
# Velocity S-wave (km/s) = 3.91864 4.07193 3.99602
# Velocity P-wave (km/s) = 7.31203 7.90284 7.61317
#
# Compressibility (1/GPa) = 0.01634732
#
# Stress axis : x y z
#
# Youngs Moduli (GPa) = 58.75602 113.56054 69.29150
#
# Poissons Ratio (x) = 0.25338 0.29238
# Poissons Ratio (y) = 0.13110 0.38139
# Poissons Ratio (z) = 0.24792 0.62505
#
# Static dielectric constant tensor:
#      x y z
#    x 3.397950 0.000000 0.000000 
#    y 0.000000 8.451230 0.000000 
#    z 0.000000 0.000000 3.338280 
# 
# 
# High freq. dielectric constant tensor:
#      x y z
#    x 1.712390 0.000000 0.000000 
#    y 0.000000 1.736470 0.000000 
#    z 0.000000 0.000000 1.703460 
# 
# From -- ./inp_files/25638.got.cif
#   From: 2010.03.12/outbox.cif.g09.slc.cpg/sg59_13_cif.got.tgz:25638.got - 2010.04.16 16:29:54.
