data_PCOD8242700
_publ_section_title
;
Structure prediction by ZEFSAII (Michael W. Deem and Ramdas Pophale) SiO2 
 PCOD8242700
Probable space group: P M M N
;
_chemical_formula_sum "Si O2"
_cell_formula_units_Z 56
_cell_length_a 10.428626
_cell_length_b 14.416890
_cell_length_c 17.747860
_cell_angle_alpha 90.000000
_cell_angle_beta 90.000000
_cell_angle_gamma 90.000000
_cell_volume 2668.361536
_symmetry_space_group_name_H-M "P M M N"
_symmetry_group_IT_number 59
_space_group.IT_coordinate_system_code '2'
_symmetry_cell_setting 'orthorhombic'
loop_
_space_group_symop_operation_xyz
x,y,z
1/2-x,1/2-y,z
1/2+x,-y,-z
-x,1/2+y,-z
-x,-y,-z
1/2+x,1/2+y,-z
1/2-x,y,z
x,1/2-y,z
loop_
_atom_site_type_symbol
_atom_site_label
_atom_site_fract_x
_atom_site_fract_y
_atom_site_fract_z
Si Si1 0.106643 0.139947 0.930069
Si Si2 0.976319 0.853424 0.643486
Si Si3 0.608491 0.451742 0.660139
Si Si4 0.399037 0.859549 0.189702
Si Si5 0.611261 0.143500 0.205564
Si Si6 0.108019 0.139493 0.099397
Si Si7 0.104868 0.856191 0.484440
O O1 0.250000 0.105286 0.905553
O O2 0.106472 0.250000 0.928579
O O3 0.992033 0.103215 0.876712
O O4 0.076006 0.105770 0.014881
O O5 0.912895 0.750000 0.649595
O O6 0.089036 0.863017 0.704796
O O7 0.028251 0.871830 0.560661
O O8 0.878679 0.936390 0.661393
O O9 0.750000 0.408045 0.658100
O O10 0.545206 0.411265 0.735942
O O11 0.539314 0.415371 0.583616
O O12 0.250000 0.885376 0.171726
O O13 0.413381 0.750000 0.201724
O O14 0.750000 0.096888 0.188158
O O15 0.617318 0.250000 0.180500
O O16 0.497300 0.095877 0.156747
O O17 0.250000 0.103650 0.123458
O O18 0.107581 0.250000 0.104106
O O19 0.250000 0.889360 0.499535
O O20 0.099859 0.750000 0.459199
#
# Coordination Sequence:
#
# PCOD8242700 Si02
#       7
#     8   8   8   8   8   8   8
#     4   8  14  26  45  71 104 138 170 207 256 315
#     4  10  20  33  50  72 100 135 172 210 253 302
#     4  10  20  33  50  74 103 134 171 213 256 305
#     4   9  17  30  50  76 104 134 171 215 260 306
#     4   9  17  29  46  70 100 133 173 220 261 298
#     4   8  14  25  43  69 100 134 171 209 254 311
#     4   9  17  32  55  78 100 129 166 210 259 307
#
# _framework density 20.986661999999999
#
# number of rings (size 3 to 8) (size 9 to 14) (size 15 to 20)
#    0.000    3.000    0.000    2.143    0.000    4.857 
#    0.000    5.714    0.000    1.714    0.000    2.000 
#    0.000    0.000    0.000    0.000    0.000    0.000 
#
# Total GULP energy -693801.394528 kJ/mol
# GULP energy per Si atom -12389.310617 kJ/mol
# Density = 2.093890 g / cm^3
# Si number density = 20.986662 Si / 1000 Ang^3
#
#
#
# Elastic Constant Matrix: (Units=GPa)
#
#
# Indices 1 2 3 4 5 6 
#
# 1 111.4059 12.6226 76.1650 0.0000 0.0000 0.0000
# 2 12.6226 54.4067 29.7343 0.0000 0.0000 0.0000
# 3 76.1650 29.7343 157.7103 0.0000 0.0000 0.0000
# 4 0.0000 0.0000 0.0000 11.9673 0.0000 0.0000
# 5 0.0000 0.0000 0.0000 0.0000 20.7932 0.0000
# 6 0.0000 0.0000 0.0000 0.0000 0.0000 11.1759
#
#
#
# Elastic Compliance Matrix: (Units=1/GPa)
#
#
# Indices 1 2 3 4 5 6 
#
# 1 0.013412 0.000477 -0.006567 0.000000 0.000000 0.000000
# 2 0.000477 0.020509 -0.004097 0.000000 0.000000 0.000000
# 3 -0.006567 -0.004097 0.010285 0.000000 0.000000 0.000000
# 4 0.000000 0.000000 0.000000 0.083561 0.000000 0.000000
# 5 0.000000 0.000000 0.000000 0.000000 0.048093 0.000000
# 6 0.000000 0.000000 0.000000 0.000000 0.000000 0.089478
#
#
# Mechanical properties :
#
#
# Convention : Reuss Voigt Hill
#
# Bulk Modulus (GPa) = 41.96154 62.28519 52.12336
# Shear Modulus (GPa) = 17.02678 22.45401 19.74040
#
# Velocity S-wave (km/s) = 2.85145 3.27451 3.07027
# Velocity P-wave (km/s) = 5.55687 6.63622 6.12039
#
# Compressibility (1/GPa) = 0.02383135
#
# Stress axis : x y z
#
# Youngs Moduli (GPa) = 74.56071 48.76020 97.23079
#
# Poissons Ratio (x) = -0.02328 0.63853
# Poissons Ratio (y) = -0.03560 0.39838
# Poissons Ratio (z) = 0.48966 0.19978
#
# Static dielectric constant tensor:
#      x y z
#    x 3.831710 0.000000 0.000000 
#    y 0.000000 3.498650 0.000000 
#    z 0.000000 0.000000 3.991330 
# 
# 
# High freq. dielectric constant tensor:
#      x y z
#    x 1.794690 0.000000 0.000000 
#    y 0.000000 1.803170 0.000000 
#    z 0.000000 0.000000 1.831210 
# 
# From -- ./inp_files/22502.got.cif
#   From: 2010.03.12/outbox.cif.g09.slc.cpg/sg59_12_cif.got.tgz:22502.got - 2010.04.16 16:29:54.
