data_PCOD8242779
_publ_section_title
;
Structure prediction by ZEFSAII (Michael W. Deem and Ramdas Pophale) SiO2 
 PCOD8242779
Probable space group: P M M N
;
_chemical_formula_sum "Si O2"
_cell_formula_units_Z 64
_cell_length_a 14.318020
_cell_length_b 8.650393
_cell_length_c 28.012881
_cell_angle_alpha 90.000000
_cell_angle_beta 90.000000
_cell_angle_gamma 90.000000
_cell_volume 3469.577395
_symmetry_space_group_name_H-M "P M M N"
_symmetry_group_IT_number 59
_space_group.IT_coordinate_system_code '2'
_symmetry_cell_setting 'orthorhombic'
loop_
_space_group_symop_operation_xyz
x,y,z
1/2-x,1/2-y,z
1/2+x,-y,-z
-x,1/2+y,-z
-x,-y,-z
1/2+x,1/2+y,-z
1/2-x,y,z
x,1/2-y,z
loop_
_atom_site_type_symbol
_atom_site_label
_atom_site_fract_x
_atom_site_fract_y
_atom_site_fract_z
Si Si1 0.143042 0.570245 0.204262
Si Si2 0.975475 0.430775 0.885903
Si Si3 0.358796 0.427867 0.031092
Si Si4 0.356348 0.569185 0.574799
Si Si5 0.642185 0.570347 0.695572
Si Si6 0.355595 0.570037 0.930468
Si Si7 0.642982 0.927867 0.524883
Si Si8 0.967526 0.070288 0.610928
O O1 0.250000 0.539514 0.189238
O O2 0.126937 0.750000 0.215866
O O3 0.078163 0.511515 0.161229
O O4 0.115559 0.470637 0.250317
O O5 0.994221 0.250000 0.883354
O O6 0.914067 0.467329 0.932046
O O7 0.075029 0.517980 0.888256
O O8 0.250000 0.455923 0.040216
O O9 0.387392 0.250000 0.038256
O O10 0.385651 0.477857 0.977752
O O11 0.250000 0.514963 0.584242
O O12 0.368200 0.750000 0.583659
O O13 0.385734 0.530793 0.520469
O O14 0.423113 0.476592 0.611192
O O15 0.750000 0.527504 0.685453
O O16 0.623276 0.750000 0.686134
O O17 0.576903 0.469247 0.661700
O O18 0.250000 0.528656 0.914932
O O19 0.366201 0.750000 0.941366
O O20 0.750000 0.957860 0.539254
O O21 0.625218 0.750000 0.511406
O O22 0.581565 0.971704 0.569955
O O23 0.954992 0.250000 0.600313
#
# Coordination Sequence:
#
# PCOD8242779 Si02
#       8
#     8   8   8   8   8   8   8   8
#     4   9  19  36  56  79 107 136 165 201 252 312
#     4  11  21  33  53  78 105 137 172 211 256 308
#     4  10  20  33  50  74 105 139 175 214 255 303
#     4  10  21  37  55  75 103 139 178 219 261 305
#     4  10  21  37  57  81 108 136 168 210 258 306
#     4  10  21  36  52  71 100 138 178 219 260 302
#     4  10  20  34  52  76 108 142 177 217 258 304
#     4  12  23  34  53  78 106 140 176 214 257 309
#
# _framework density 18.446048999999999
#
# number of rings (size 3 to 8) (size 9 to 14) (size 15 to 20)
#    0.000    1.750    0.000    4.875    0.000    6.750 
#    0.000    1.250    0.000    0.750    0.000    3.500 
#    0.000    0.000    0.000    0.000    0.000    0.000 
#
# Total GULP energy -793925.095931 kJ/mol
# GULP energy per Si atom -12405.079624 kJ/mol
# Density = 1.840406 g / cm^3
# Si number density = 18.446049 Si / 1000 Ang^3
#
#
#
# Elastic Constant Matrix: (Units=GPa)
#
#
# Indices 1 2 3 4 5 6 
#
# 1 95.8915 29.5949 62.6830 0.0000 0.0000 0.0000
# 2 29.5949 55.7389 18.6749 0.0000 0.0000 0.0000
# 3 62.6830 18.6749 77.8957 0.0000 0.0000 0.0000
# 4 0.0000 0.0000 0.0000 30.3828 0.0000 0.0000
# 5 0.0000 0.0000 0.0000 0.0000 31.8268 0.0000
# 6 0.0000 0.0000 0.0000 0.0000 0.0000 29.7442
#
#
#
# Elastic Compliance Matrix: (Units=1/GPa)
#
#
# Indices 1 2 3 4 5 6 
#
# 1 0.024207 -0.006879 -0.017830 0.000000 0.000000 0.000000
# 2 -0.006879 0.021463 0.000390 0.000000 0.000000 0.000000
# 3 -0.017830 0.000390 0.027092 0.000000 0.000000 0.000000
# 4 0.000000 0.000000 0.000000 0.032913 0.000000 0.000000
# 5 0.000000 0.000000 0.000000 0.000000 0.031420 0.000000
# 6 0.000000 0.000000 0.000000 0.000000 0.000000 0.033620
#
#
# Mechanical properties :
#
#
# Convention : Reuss Voigt Hill
#
# Bulk Modulus (GPa) = 41.45349 50.15908 45.80629
# Shear Modulus (GPa) = 21.98823 26.29565 24.14194
#
# Velocity S-wave (km/s) = 3.45632 3.77973 3.62164
# Velocity P-wave (km/s) = 6.20079 6.80440 6.50960
#
# Compressibility (1/GPa) = 0.02412342
#
# Stress axis : x y z
#
# Youngs Moduli (GPa) = 41.31061 46.59285 36.91094
#
# Poissons Ratio (x) = 0.32051 0.65813
# Poissons Ratio (y) = 0.28417 -0.01440
# Poissons Ratio (z) = 0.73658 -0.01817
#
# Static dielectric constant tensor:
#      x y z
#    x 3.627040 0.000000 0.000000 
#    y 0.000000 3.411230 0.000000 
#    z 0.000000 0.000000 3.221170 
# 
# 
# High freq. dielectric constant tensor:
#      x y z
#    x 1.720560 0.000000 0.000000 
#    y 0.000000 1.726670 0.000000 
#    z 0.000000 0.000000 1.690660 
# 
# From -- ./inp_files/32232.got.cif
#   From: 2010.03.12/outbox.cif.g09.slc.cpg/sg59_17_cif.got.tgz:32232.got - 2010.04.16 16:29:54.
