data_PCOD8242786
_publ_section_title
;
Structure prediction by ZEFSAII (Michael W. Deem and Ramdas Pophale) SiO2 
 PCOD8242786
Probable space group: P M M N
;
_chemical_formula_sum "Si O2"
_cell_formula_units_Z 64
_cell_length_a 9.313983
_cell_length_b 27.628672
_cell_length_c 12.162945
_cell_angle_alpha 90.000000
_cell_angle_beta 90.000000
_cell_angle_gamma 90.000000
_cell_volume 3129.926898
_symmetry_space_group_name_H-M "P M M N"
_symmetry_group_IT_number 59
_space_group.IT_coordinate_system_code '2'
_symmetry_cell_setting 'orthorhombic'
loop_
_space_group_symop_operation_xyz
x,y,z
1/2-x,1/2-y,z
1/2+x,-y,-z
-x,1/2+y,-z
-x,-y,-z
1/2+x,1/2+y,-z
1/2-x,y,z
x,1/2-y,z
loop_
_atom_site_type_symbol
_atom_site_label
_atom_site_fract_x
_atom_site_fract_y
_atom_site_fract_z
Si Si1 0.585478 0.094526 0.773595
Si Si2 0.410485 0.304781 0.475369
Si Si3 0.087428 0.433804 0.218105
Si Si4 0.587238 0.596833 0.018849
Si Si5 0.919633 0.343029 0.281892
Si Si6 0.584960 0.483562 0.608741
Si Si7 0.088517 0.803094 0.310916
Si Si8 0.916237 0.803533 0.913428
O O1 0.750000 0.079969 0.791584
O O2 0.502807 0.075071 0.880375
O O3 0.535490 0.068817 0.658253
O O4 0.561866 0.152485 0.771524
O O5 0.250000 0.327384 0.470293
O O6 0.405936 0.250000 0.432887
O O7 0.523108 0.334192 0.403689
O O8 0.466684 0.307339 0.598541
O O9 0.250000 0.414388 0.241200
O O10 0.059395 0.482442 0.285357
O O11 0.965066 0.397304 0.255527
O O12 0.068842 0.438976 0.085954
O O13 0.750000 0.598543 0.059400
O O14 0.535641 0.652133 0.991549
O O15 0.750000 0.337077 0.277805
O O16 0.991402 0.305354 0.197879
O O17 0.500000 0.500000 0.500000
O O18 0.750000 0.482952 0.571595
O O19 0.250000 0.807759 0.361026
O O20 0.073337 0.750000 0.252532
O O21 0.750000 0.810955 0.880800
O O22 0.940225 0.750000 0.967287
#
# Coordination Sequence:
#
# PCOD8242786 Si02
#       8
#     8   8   8   8   8   8   8   8
#     4  10  22  39  59  86 120 152 189 242 298 348
#     4  10  20  33  50  74 106 147 194 239 285 343
#     4   9  20  40  60  81 114 154 193 239 291 344
#     4   9  19  36  58  84 113 151 200 242 286 344
#     4  11  21  31  50  80 113 149 191 241 292 347
#     4  10  23  42  63  89 119 151 191 243 299 355
#     4   9  19  36  55  78 113 154 190 230 286 347
#     4   9  18  34  54  78 114 157 198 242 290 341
#
# _framework density 20.447761
#
# number of rings (size 3 to 8) (size 9 to 14) (size 15 to 20)
#    0.000    2.375    0.000    2.625    1.750    7.000 
#    0.000    0.000    0.000    0.000    0.000    0.000 
#    0.000    0.000    0.000    0.000    0.000    0.000 
#
# Total GULP energy -793104.479473 kJ/mol
# GULP energy per Si atom -12392.257492 kJ/mol
# Density = 2.040122 g / cm^3
# Si number density = 20.447761 Si / 1000 Ang^3
#
#
#
# Elastic Constant Matrix: (Units=GPa)
#
#
# Indices 1 2 3 4 5 6 
#
# 1 97.5646 25.6515 48.4193 0.0000 0.0000 0.0000
# 2 25.6515 80.5453 42.6165 0.0000 0.0000 0.0000
# 3 48.4193 42.6165 108.4106 0.0000 0.0000 0.0000
# 4 0.0000 0.0000 0.0000 23.2855 0.0000 0.0000
# 5 0.0000 0.0000 0.0000 0.0000 34.7474 0.0000
# 6 0.0000 0.0000 0.0000 0.0000 0.0000 21.2229
#
#
#
# Elastic Compliance Matrix: (Units=1/GPa)
#
#
# Indices 1 2 3 4 5 6 
#
# 1 0.013289 -0.001379 -0.005393 0.000000 0.000000 0.000000
# 2 -0.001379 0.015819 -0.005603 0.000000 0.000000 0.000000
# 3 -0.005393 -0.005603 0.013835 0.000000 0.000000 0.000000
# 4 0.000000 0.000000 0.000000 0.042945 0.000000 0.000000
# 5 0.000000 0.000000 0.000000 0.000000 0.028779 0.000000
# 6 0.000000 0.000000 0.000000 0.000000 0.000000 0.047119
#
#
# Mechanical properties :
#
#
# Convention : Reuss Voigt Hill
#
# Bulk Modulus (GPa) = 54.96338 57.76611 56.36474
# Shear Modulus (GPa) = 25.96065 27.17340 26.56703
#
# Velocity S-wave (km/s) = 3.56702 3.64939 3.60844
# Velocity P-wave (km/s) = 6.62594 6.78744 6.70718
#
# Compressibility (1/GPa) = 0.01819393
#
# Stress axis : x y z
#
# Youngs Moduli (GPa) = 75.25269 63.21597 72.27857
#
# Poissons Ratio (x) = 0.08715 0.38981
# Poissons Ratio (y) = 0.10374 0.40496
# Poissons Ratio (z) = 0.40585 0.35418
#
# Static dielectric constant tensor:
#      x y z
#    x 3.611540 0.000000 0.000000 
#    y 0.000000 3.803740 0.000000 
#    z 0.000000 0.000000 3.433270 
# 
# 
# High freq. dielectric constant tensor:
#      x y z
#    x 1.793310 0.000000 0.000000 
#    y 0.000000 1.797220 0.000000 
#    z 0.000000 0.000000 1.782750 
# 
# From -- ./inp_files/14989.got.cif
#   From: 2010.03.12/outbox.cif.g09.slc.cpg/sg59_8_cif.got.tgz:14989.got - 2010.04.16 16:29:54.
