data_PCOD8242031
_publ_section_title
;
Structure prediction by ZEFSAII (Michael W. Deem and Ramdas Pophale) SiO2 
 PCOD8242031
Probable space group: P M M N
;
_chemical_formula_sum "Si O2"
_cell_formula_units_Z 40
_cell_length_a 8.521242
_cell_length_b 16.341336
_cell_length_c 13.931231
_cell_angle_alpha 90.000000
_cell_angle_beta 90.000000
_cell_angle_gamma 90.000000
_cell_volume 1939.902723
_symmetry_space_group_name_H-M "P M M N"
_symmetry_group_IT_number 59
_space_group.IT_coordinate_system_code '2'
_symmetry_cell_setting 'orthorhombic'
loop_
_space_group_symop_operation_xyz
x,y,z
1/2-x,1/2-y,z
1/2+x,-y,-z
-x,1/2+y,-z
-x,-y,-z
1/2+x,1/2+y,-z
1/2-x,y,z
x,1/2-y,z
loop_
_atom_site_type_symbol
_atom_site_label
_atom_site_fract_x
_atom_site_fract_y
_atom_site_fract_z
Si Si1 0.436767 0.081145 0.947443
Si Si2 0.562580 0.840868 0.447555
Si Si3 0.431547 0.750000 0.968527
Si Si4 0.929738 0.909634 0.645749
Si Si5 0.432363 0.064442 0.733334
Si Si6 0.925042 0.750000 0.769397
O O1 0.250000 0.076558 0.950835
O O2 0.504437 0.080377 0.838558
O O3 0.490304 0.166694 0.993082
O O4 0.500000 0.000000 0.000000
O O5 0.750000 0.838478 0.446429
O O6 0.494049 0.750000 0.460168
O O7 0.508755 0.897319 0.536720
O O8 0.493320 0.876466 0.347912
O O9 0.250000 0.750000 0.996970
O O10 0.448791 0.750000 0.854017
O O11 0.750000 0.940439 0.647226
O O12 0.949817 0.826017 0.701209
O O13 0.040128 0.972165 0.700866
O O14 0.250000 0.082602 0.739973
O O15 0.750000 0.750000 0.814820
#
# Coordination Sequence:
#
# PCOD8242031 Si02
#       6
#     8   8   4   8   8   4
#     4  11  24  43  65  92 124 163 210 259 313 369
#     4   9  17  33  57  84 115 151 193 234 280 349
#     4  12  26  42  63  90 122 162 207 260 317 368
#     4  10  19  34  58  86 116 151 191 237 289 351
#     4  10  22  36  58  86 115 153 196 240 292 352
#     4  10  20  36  59  86 112 150 199 242 293 358
#
# _framework density 20.619589000000001
#
# number of rings (size 3 to 8) (size 9 to 14) (size 15 to 20)
#    0.000    1.800    1.000    3.300    1.400    5.600 
#    0.000    0.000    0.000    1.200    0.000    0.000 
#    0.000    0.000    0.000    0.000    0.000    0.000 
#
# Total GULP energy -495903.258608 kJ/mol
# GULP energy per Si atom -12397.581465 kJ/mol
# Density = 2.057266 g / cm^3
# Si number density = 20.619589 Si / 1000 Ang^3
#
#
#
# Elastic Constant Matrix: (Units=GPa)
#
#
# Indices 1 2 3 4 5 6 
#
# 1 38.6995 19.1868 27.5190 0.0000 0.0000 0.0000
# 2 19.1868 116.9392 47.5694 0.0000 0.0000 0.0000
# 3 27.5190 47.5694 168.5754 0.0000 0.0000 0.0000
# 4 0.0000 0.0000 0.0000 11.7415 0.0000 0.0000
# 5 0.0000 0.0000 0.0000 0.0000 23.3798 0.0000
# 6 0.0000 0.0000 0.0000 0.0000 0.0000 10.9503
#
#
#
# Elastic Compliance Matrix: (Units=1/GPa)
#
#
# Indices 1 2 3 4 5 6 
#
# 1 0.030352 -0.003349 -0.004010 0.000000 0.000000 0.000000
# 2 -0.003349 0.010030 -0.002284 0.000000 0.000000 0.000000
# 3 -0.004010 -0.002284 0.007231 0.000000 0.000000 0.000000
# 4 0.000000 0.000000 0.000000 0.085168 0.000000 0.000000
# 5 0.000000 0.000000 0.000000 0.000000 0.042772 0.000000
# 6 0.000000 0.000000 0.000000 0.000000 0.000000 0.091322
#
#
# Mechanical properties :
#
#
# Convention : Reuss Voigt Hill
#
# Bulk Modulus (GPa) = 35.30047 56.97383 46.13715
# Shear Modulus (GPa) = 16.91463 24.54358 20.72911
#
# Velocity S-wave (km/s) = 2.86723 3.45382 3.17410
# Velocity P-wave (km/s) = 5.30268 6.60273 5.98809
#
# Compressibility (1/GPa) = 0.02832823
#
# Stress axis : x y z
#
# Youngs Moduli (GPa) = 32.94705 99.70239 138.29295
#
# Poissons Ratio (x) = 0.33389 0.55452
# Poissons Ratio (y) = 0.11033 0.31580
# Poissons Ratio (z) = 0.13211 0.22768
#
# Static dielectric constant tensor:
#      x y z
#    x 3.489740 0.000000 0.000000 
#    y 0.000000 3.814620 0.000000 
#    z 0.000000 0.000000 4.197700 
# 
# 
# High freq. dielectric constant tensor:
#      x y z
#    x 1.772560 0.000000 0.000000 
#    y 0.000000 1.818370 0.000000 
#    z 0.000000 0.000000 1.828240 
# 
# From -- ./inp_files/19942.got.cif
#   From: 2010.03.12/outbox.cif.g09.slc.cpg/sg59_10_cif.got.tgz:19942.got - 2010.04.16 16:29:54.
