data_PCOD8242857
_publ_section_title
;
Structure prediction by ZEFSAII (Michael W. Deem and Ramdas Pophale) SiO2 
 PCOD8242857
Probable space group: P M M N
;
_chemical_formula_sum "Si O2"
_cell_formula_units_Z 64
_cell_length_a 23.130804
_cell_length_b 8.859251
_cell_length_c 18.966317
_cell_angle_alpha 90.000000
_cell_angle_beta 90.000000
_cell_angle_gamma 90.000000
_cell_volume 3886.607997
_symmetry_space_group_name_H-M "P M M N"
_symmetry_group_IT_number 59
_space_group.IT_coordinate_system_code '2'
_symmetry_cell_setting 'orthorhombic'
loop_
_space_group_symop_operation_xyz
x,y,z
1/2-x,1/2-y,z
1/2+x,-y,-z
-x,1/2+y,-z
-x,-y,-z
1/2+x,1/2+y,-z
1/2-x,y,z
x,1/2-y,z
loop_
_atom_site_type_symbol
_atom_site_label
_atom_site_fract_x
_atom_site_fract_y
_atom_site_fract_z
Si Si1 0.975541 0.074632 0.606483
Si Si2 0.183601 0.923997 0.881862
Si Si3 0.085704 0.926180 0.985072
Si Si4 0.911427 0.925722 0.483337
Si Si5 0.010316 0.928120 0.744180
Si Si6 0.364156 0.071603 0.744733
Si Si7 0.316870 0.923632 0.607331
Si Si8 0.523940 0.573495 0.897280
O O1 0.964179 0.250000 0.620109
O O2 0.038677 0.045156 0.573934
O O3 0.926044 0.011637 0.555435
O O4 0.971187 0.984200 0.679565
O O5 0.250000 0.948072 0.901947
O O6 0.170257 0.750000 0.860923
O O7 0.146984 0.971097 0.950786
O O8 0.166780 0.030281 0.817409
O O9 0.080696 0.750000 0.996730
O O10 0.035735 0.985172 0.932187
O O11 0.078540 0.001106 0.062072
O O12 0.904348 0.750000 0.500067
O O13 0.852141 0.991556 0.453459
O O14 0.021453 0.750000 0.739773
O O15 0.976138 0.972879 0.815323
O O16 0.071160 0.011419 0.742756
O O17 0.365411 0.250000 0.734303
O O18 0.326759 0.999608 0.682646
O O19 0.250000 0.937477 0.586947
O O20 0.336899 0.750000 0.611253
O O21 0.529478 0.750000 0.905987
#
# Coordination Sequence:
#
# PCOD8242857 Si02
#       8
#     8   8   8   8   8   8   8   8
#     4  10  20  33  51  76 103 131 165 205 253 303
#     4  10  20  35  52  69  95 133 172 206 243 290
#     4   9  17  31  48  70  95 125 163 203 246 292
#     4  10  20  34  52  75 101 133 168 207 251 295
#     4  11  20  33  52  73 101 134 168 204 248 301
#     4  12  23  33  47  71 102 135 172 209 245 288
#     4  11  23  37  53  72  99 138 176 210 249 291
#     4   9  18  31  48  70  96 127 161 200 248 296
#
# _framework density 16.466801
#
# number of rings (size 3 to 8) (size 9 to 14) (size 15 to 20)
#    0.000    1.750    2.500    3.000    0.000    5.250 
#    0.000    0.000    0.000    0.000    0.000    0.875 
#    0.000    3.000    0.000    0.000    0.000    0.000 
#
# Total GULP energy -793787.277823 kJ/mol
# GULP energy per Si atom -12402.926216 kJ/mol
# Density = 1.642932 g / cm^3
# Si number density = 16.466801 Si / 1000 Ang^3
#
#
#
# Elastic Constant Matrix: (Units=GPa)
#
#
# Indices 1 2 3 4 5 6 
#
# 1 61.6203 11.9174 33.9548 0.0000 0.0000 0.0000
# 2 11.9174 40.4133 10.0413 0.0000 0.0000 0.0000
# 3 33.9548 10.0413 83.5595 0.0000 0.0000 0.0000
# 4 0.0000 0.0000 0.0000 31.5087 0.0000 0.0000
# 5 0.0000 0.0000 0.0000 0.0000 16.9538 0.0000
# 6 0.0000 0.0000 0.0000 0.0000 0.0000 22.0842
#
#
#
# Elastic Compliance Matrix: (Units=1/GPa)
#
#
# Indices 1 2 3 4 5 6 
#
# 1 0.021619 -0.004321 -0.008266 0.000000 0.000000 0.000000
# 2 -0.004321 0.026370 -0.001413 0.000000 0.000000 0.000000
# 3 -0.008266 -0.001413 0.015496 0.000000 0.000000 0.000000
# 4 0.000000 0.000000 0.000000 0.031737 0.000000 0.000000
# 5 0.000000 0.000000 0.000000 0.000000 0.058984 0.000000
# 6 0.000000 0.000000 0.000000 0.000000 0.000000 0.045281
#
#
# Mechanical properties :
#
#
# Convention : Reuss Voigt Hill
#
# Bulk Modulus (GPa) = 28.18095 33.04665 30.61380
# Shear Modulus (GPa) = 20.89298 22.75465 21.82382
#
# Velocity S-wave (km/s) = 3.56588 3.72136 3.64445
# Velocity P-wave (km/s) = 5.83994 6.21103 6.02834
#
# Compressibility (1/GPa) = 0.03548496
#
# Stress axis : x y z
#
# Youngs Moduli (GPa) = 46.25609 37.92229 64.53260
#
# Poissons Ratio (x) = 0.16388 0.53340
# Poissons Ratio (y) = 0.19989 0.09117
# Poissons Ratio (z) = 0.38233 0.05358
#
# Static dielectric constant tensor:
#      x y z
#    x 2.959300 0.000000 0.000000 
#    y 0.000000 3.206820 0.000000 
#    z 0.000000 0.000000 3.229100 
# 
# 
# High freq. dielectric constant tensor:
#      x y z
#    x 1.605610 0.000000 0.000000 
#    y 0.000000 1.645050 0.000000 
#    z 0.000000 0.000000 1.629870 
# 
# From -- ./inp_files/28143.got.cif
#   From: 2010.03.12/outbox.cif.g09.slc.cpg/sg59_15_cif.got.tgz:28143.got - 2010.04.16 16:29:54.
