data_PCOD8242804
_publ_section_title
;
Structure prediction by ZEFSAII (Michael W. Deem and Ramdas Pophale) SiO2 
 PCOD8242804
Probable space group: P M M N
;
_chemical_formula_sum "Si O2"
_cell_formula_units_Z 56
_cell_length_a 14.406809
_cell_length_b 9.042280
_cell_length_c 23.922694
_cell_angle_alpha 90.000000
_cell_angle_beta 90.000000
_cell_angle_gamma 90.000000
_cell_volume 3116.418938
_symmetry_space_group_name_H-M "P M M N"
_symmetry_group_IT_number 59
_space_group.IT_coordinate_system_code '2'
_symmetry_cell_setting 'orthorhombic'
loop_
_space_group_symop_operation_xyz
x,y,z
1/2-x,1/2-y,z
1/2+x,-y,-z
-x,1/2+y,-z
-x,-y,-z
1/2+x,1/2+y,-z
1/2-x,y,z
x,1/2-y,z
loop_
_atom_site_type_symbol
_atom_site_label
_atom_site_fract_x
_atom_site_fract_y
_atom_site_fract_z
Si Si1 0.750000 0.586489 0.543103
Si Si2 0.512246 0.077620 0.941335
Si Si3 0.567180 0.076221 0.542520
Si Si4 0.356761 0.079341 0.852712
Si Si5 0.064611 0.924011 0.328987
Si Si6 0.485262 0.922666 0.770002
Si Si7 0.750000 0.586354 0.674343
Si Si8 0.642635 0.922269 0.857698
O O1 0.750000 0.750000 0.514877
O O2 0.835683 0.489889 0.523664
O O3 0.750000 0.607431 0.608739
O O4 0.529728 0.250000 0.950458
O O5 0.417459 0.046609 0.907574
O O6 0.602427 0.012549 0.910112
O O7 0.500000 0.000000 0.000000
O O8 0.567646 0.250000 0.533383
O O9 0.542258 0.035863 0.606661
O O10 0.500000 0.000000 0.500000
O O11 0.250000 0.037386 0.865315
O O12 0.366530 0.250000 0.834755
O O13 0.394601 0.978573 0.802568
O O14 0.072226 0.750000 0.320713
O O15 0.160039 0.996080 0.307420
O O16 0.985523 0.992393 0.289422
O O17 0.474979 0.750000 0.758450
O O18 0.579992 0.960108 0.803654
O O19 0.750000 0.750000 0.703146
O O20 0.750000 0.967558 0.846220
O O21 0.634907 0.750000 0.872686
#
# Coordination Sequence:
#
# PCOD8242804 Si02
#       8
#     4   8   8   8   8   8   4   8
#     4   9  17  31  51  75 103 135 171 211 258 311
#     4  10  20  34  53  79 108 138 176 218 261 310
#     4  10  20  34  54  78 107 141 179 221 268 320
#     4   9  19  37  58  76  99 137 180 221 267 316
#     4  10  20  33  50  76 108 141 176 215 263 320
#     4  10  20  33  53  79 106 136 172 219 264 312
#     4   9  17  29  47  73 103 135 171 211 252 303
#     4   9  19  35  52  73 105 142 174 209 259 311
#
# _framework density 17.969341
#
# number of rings (size 3 to 8) (size 9 to 14) (size 15 to 20)
#    0.000    2.429    0.000    2.143    1.000    5.714 
#    0.000    1.429    1.571    0.000    0.000    0.000 
#    0.000    0.000    0.000    0.000    0.000    0.000 
#
# Total GULP energy -694344.826951 kJ/mol
# GULP energy per Si atom -12399.014767 kJ/mol
# Density = 1.792844 g / cm^3
# Si number density = 17.969341 Si / 1000 Ang^3
#
#
#
# Elastic Constant Matrix: (Units=GPa)
#
#
# Indices 1 2 3 4 5 6 
#
# 1 112.8604 46.3941 49.0115 0.0000 0.0000 0.0000
# 2 46.3941 104.8157 63.0243 0.0000 0.0000 0.0000
# 3 49.0115 63.0243 97.0485 0.0000 0.0000 0.0000
# 4 0.0000 0.0000 0.0000 32.8684 0.0000 0.0000
# 5 0.0000 0.0000 0.0000 0.0000 21.9747 0.0000
# 6 0.0000 0.0000 0.0000 0.0000 0.0000 32.1647
#
#
#
# Elastic Compliance Matrix: (Units=1/GPa)
#
#
# Indices 1 2 3 4 5 6 
#
# 1 0.011794 -0.002689 -0.004210 0.000000 0.000000 0.000000
# 2 -0.002689 0.016266 -0.009205 0.000000 0.000000 0.000000
# 3 -0.004210 -0.009205 0.018408 0.000000 0.000000 0.000000
# 4 0.000000 0.000000 0.000000 0.030424 0.000000 0.000000
# 5 0.000000 0.000000 0.000000 0.000000 0.045507 0.000000
# 6 0.000000 0.000000 0.000000 0.000000 0.000000 0.031090
#
#
# Mechanical properties :
#
#
# Convention : Reuss Voigt Hill
#
# Bulk Modulus (GPa) = 70.12738 70.17604 70.15171
# Shear Modulus (GPa) = 26.25349 27.82119 27.03734
#
# Velocity S-wave (km/s) = 3.82647 3.93906 3.88317
# Velocity P-wave (km/s) = 7.65724 7.73474 7.69609
#
# Compressibility (1/GPa) = 0.01425977
#
# Stress axis : x y z
#
# Youngs Moduli (GPa) = 84.78776 61.47914 54.32358
#
# Poissons Ratio (x) = 0.16531 0.22871
# Poissons Ratio (y) = 0.22799 0.50006
# Poissons Ratio (z) = 0.35696 0.56592
#
# Static dielectric constant tensor:
#      x y z
#    x 3.597140 0.000000 0.000000 
#    y 0.000000 3.468820 0.000000 
#    z 0.000000 0.000000 3.247070 
# 
# 
# High freq. dielectric constant tensor:
#      x y z
#    x 1.684230 0.000000 0.000000 
#    y 0.000000 1.709590 0.000000 
#    z 0.000000 0.000000 1.685250 
# 
# From -- ./inp_files/30436.got.cif
#   From: 2010.03.12/outbox.cif.g09.slc.cpg/sg59_16_cif.got.tgz:30436.got - 2010.04.16 16:29:54.
