data_PCOD8242842
_publ_section_title
;
Structure prediction by ZEFSAII (Michael W. Deem and Ramdas Pophale) SiO2 
 PCOD8242842
Probable space group: P M M N
;
_chemical_formula_sum "Si O2"
_cell_formula_units_Z 56
_cell_length_a 18.055586
_cell_length_b 9.033501
_cell_length_c 19.388936
_cell_angle_alpha 90.000000
_cell_angle_beta 90.000000
_cell_angle_gamma 90.000000
_cell_volume 3162.435396
_symmetry_space_group_name_H-M "P M M N"
_symmetry_group_IT_number 59
_space_group.IT_coordinate_system_code '2'
_symmetry_cell_setting 'orthorhombic'
loop_
_space_group_symop_operation_xyz
x,y,z
1/2-x,1/2-y,z
1/2+x,-y,-z
-x,1/2+y,-z
-x,-y,-z
1/2+x,1/2+y,-z
1/2-x,y,z
x,1/2-y,z
loop_
_atom_site_type_symbol
_atom_site_label
_atom_site_fract_x
_atom_site_fract_y
_atom_site_fract_z
Si Si1 0.169380 0.574455 0.659968
Si Si2 0.334717 0.914991 0.505671
Si Si3 0.954941 0.577187 0.560334
Si Si4 0.332547 0.923312 0.063511
Si Si5 0.514720 0.076060 0.290603
Si Si6 0.031083 0.925905 0.157105
Si Si7 0.942106 0.075814 0.049619
O O1 0.250000 0.515173 0.686851
O O2 0.173125 0.750000 0.653898
O O3 0.153917 0.516474 0.582394
O O4 0.102122 0.529072 0.710587
O O5 0.250000 0.907202 0.485256
O O6 0.369955 0.750000 0.502597
O O7 0.371151 0.021200 0.448662
O O8 0.960852 0.750000 0.550296
O O9 0.983208 0.530870 0.635344
O O10 0.000000 0.500000 0.500000
O O11 0.250000 0.995265 0.072886
O O12 0.325488 0.750000 0.075502
O O13 0.393111 0.982443 0.119327
O O14 0.361376 0.954099 0.984891
O O15 0.504886 0.250000 0.275097
O O16 0.468342 0.981386 0.235527
O O17 0.024380 0.750000 0.152544
O O18 0.956618 0.998837 0.123397
O O19 0.957356 0.250000 0.055803
O O20 0.000000 0.000000 0.000000
#
# Coordination Sequence:
#
# PCOD8242842 Si02
#       7
#     8   8   8   8   8   8   8
#     4   8  14  28  50  71  91 120 162 209 256 309
#     4   9  17  32  53  74  97 126 165 215 268 320
#     4  11  21  33  51  75 102 132 173 223 273 324
#     4   8  15  30  53  79 102 128 168 210 242 281
#     4  10  20  34  51  72 100 137 175 213 260 313
#     4  10  20  33  51  75 104 138 171 210 256 302
#     4   9  16  29  52  77 101 129 162 202 244 291
#
# _framework density 17.707871000000001
#
# number of rings (size 3 to 8) (size 9 to 14) (size 15 to 20)
#    0.000    2.714    1.429    3.000    0.000    1.429 
#    0.000    1.429    0.000   22.714    0.000    0.000 
#    0.000    0.000    0.000    0.000    0.000    0.000 
#
# Total GULP energy -693766.839704 kJ/mol
# GULP energy per Si atom -12388.693566 kJ/mol
# Density = 1.766757 g / cm^3
# Si number density = 17.707871 Si / 1000 Ang^3
#
#
#
# Elastic Constant Matrix: (Units=GPa)
#
#
# Indices 1 2 3 4 5 6 
#
# 1 113.5348 30.8402 54.3440 0.0000 0.0000 0.0000
# 2 30.8402 52.7897 44.5692 0.0000 0.0000 0.0000
# 3 54.3440 44.5692 99.7725 0.0000 0.0000 0.0000
# 4 0.0000 0.0000 0.0000 30.6027 0.0000 0.0000
# 5 0.0000 0.0000 0.0000 0.0000 23.4714 0.0000
# 6 0.0000 0.0000 0.0000 0.0000 0.0000 21.8580
#
#
#
# Elastic Compliance Matrix: (Units=1/GPa)
#
#
# Indices 1 2 3 4 5 6 
#
# 1 0.012103 -0.002416 -0.005513 0.000000 0.000000 0.000000
# 2 -0.002416 0.030896 -0.012485 0.000000 0.000000 0.000000
# 3 -0.005513 -0.012485 0.018603 0.000000 0.000000 0.000000
# 4 0.000000 0.000000 0.000000 0.032677 0.000000 0.000000
# 5 0.000000 0.000000 0.000000 0.000000 0.042605 0.000000
# 6 0.000000 0.000000 0.000000 0.000000 0.000000 0.045750
#
#
# Mechanical properties :
#
#
# Convention : Reuss Voigt Hill
#
# Bulk Modulus (GPa) = 48.14014 58.40043 53.27028
# Shear Modulus (GPa) = 21.70268 24.27600 22.98934
#
# Velocity S-wave (km/s) = 3.50465 3.70660 3.60704
# Velocity P-wave (km/s) = 6.60466 7.16729 6.89172
#
# Compressibility (1/GPa) = 0.02077269
#
# Stress axis : x y z
#
# Youngs Moduli (GPa) = 82.62417 32.36693 53.75527
#
# Poissons Ratio (x) = 0.07821 0.29635
# Poissons Ratio (y) = 0.19964 0.67115
# Poissons Ratio (z) = 0.45550 0.40411
#
# Static dielectric constant tensor:
#      x y z
#    x 3.851840 0.000000 0.000000 
#    y 0.000000 3.330960 0.000000 
#    z 0.000000 0.000000 3.330660 
# 
# 
# High freq. dielectric constant tensor:
#      x y z
#    x 1.686020 0.000000 0.000000 
#    y 0.000000 1.660730 0.000000 
#    z 0.000000 0.000000 1.667680 
# 
# From -- ./inp_files/30620.got.cif
#   From: 2010.03.12/outbox.cif.g09.slc.cpg/sg59_16_cif.got.tgz:30620.got - 2010.04.16 16:29:54.
