data_PCOD8242998
_publ_section_title
;
Structure prediction by ZEFSAII (Michael W. Deem and Ramdas Pophale) SiO2 
 PCOD8242998
Probable space group: P M M N
;
_chemical_formula_sum "Si O2"
_cell_formula_units_Z 40
_cell_length_a 10.199078
_cell_length_b 9.238632
_cell_length_c 24.193429
_cell_angle_alpha 90.000000
_cell_angle_beta 90.000000
_cell_angle_gamma 90.000000
_cell_volume 2279.638631
_symmetry_space_group_name_H-M "P M M N"
_symmetry_group_IT_number 59
_space_group.IT_coordinate_system_code '2'
_symmetry_cell_setting 'orthorhombic'
loop_
_space_group_symop_operation_xyz
x,y,z
1/2-x,1/2-y,z
1/2+x,-y,-z
-x,1/2+y,-z
-x,-y,-z
1/2+x,1/2+y,-z
1/2-x,y,z
x,1/2-y,z
loop_
_atom_site_type_symbol
_atom_site_label
_atom_site_fract_x
_atom_site_fract_y
_atom_site_fract_z
Si Si1 0.250000 0.419411 0.438993
Si Si2 0.005762 0.580408 0.627265
Si Si3 0.097092 0.920271 0.958474
Si Si4 0.750000 0.079750 0.445740
Si Si5 0.600806 0.579716 0.270374
Si Si6 0.095301 0.409469 0.851554
O O1 0.250000 0.250000 0.452323
O O2 0.374621 0.466603 0.403553
O O3 0.250000 0.502237 0.496089
O O4 0.012133 0.750000 0.639145
O O5 0.124298 0.528879 0.588624
O O6 0.009041 0.500655 0.685948
O O7 0.250000 0.958918 0.971035
O O8 0.073237 0.750000 0.962348
O O9 0.055629 0.973045 0.897359
O O10 0.000000 0.000000 0.000000
O O11 0.750000 0.250000 0.456631
O O12 0.750000 0.523333 0.277057
O O13 0.594361 0.750000 0.280836
O O14 0.544432 0.542504 0.209064
O O15 0.250000 0.395813 0.846490
O O16 0.038786 0.250000 0.867682
#
# Coordination Sequence:
#
# PCOD8242998 Si02
#       6
#     4   8   8   4   8   8
#     4  10  22  36  50  70 100 134 161 196 249 302
#     4  10  20  34  51  73 100 128 162 204 249 295
#     4  10  20  33  52  79 108 140 177 215 259 308
#     4  10  20  34  52  74  96 124 165 208 245 290
#     4   9  17  30  51  78 102 127 165 209 251 294
#     4   8  15  29  49  74 103 132 166 212 257 297
#
# _framework density 17.546641999999999
#
# number of rings (size 3 to 8) (size 9 to 14) (size 15 to 20)
#    0.000    2.600    1.000    2.400    0.000    3.600 
#    0.000    2.000    2.200    0.000    0.000    0.000 
#    0.000    0.000    0.000    0.000    0.000    0.000 
#
# Total GULP energy -495928.764784 kJ/mol
# GULP energy per Si atom -12398.219120 kJ/mol
# Density = 1.750670 g / cm^3
# Si number density = 17.546642 Si / 1000 Ang^3
#
#
#
# Elastic Constant Matrix: (Units=GPa)
#
#
# Indices 1 2 3 4 5 6 
#
# 1 95.4514 40.0649 65.1590 0.0000 0.0000 0.0000
# 2 40.0649 71.2215 72.8428 0.0000 0.0000 0.0000
# 3 65.1590 72.8428 165.4893 0.0000 0.0000 0.0000
# 4 0.0000 0.0000 0.0000 38.7561 0.0000 0.0000
# 5 0.0000 0.0000 0.0000 0.0000 16.8465 0.0000
# 6 0.0000 0.0000 0.0000 0.0000 0.0000 10.8703
#
#
#
# Elastic Compliance Matrix: (Units=1/GPa)
#
#
# Indices 1 2 3 4 5 6 
#
# 1 0.015041 -0.004373 -0.003997 0.000000 0.000000 0.000000
# 2 -0.004373 0.026808 -0.010078 0.000000 0.000000 0.000000
# 3 -0.003997 -0.010078 0.012053 0.000000 0.000000 0.000000
# 4 0.000000 0.000000 0.000000 0.025802 0.000000 0.000000
# 5 0.000000 0.000000 0.000000 0.000000 0.059360 0.000000
# 6 0.000000 0.000000 0.000000 0.000000 0.000000 0.091994
#
#
# Mechanical properties :
#
#
# Convention : Reuss Voigt Hill
#
# Bulk Modulus (GPa) = 58.80649 76.47729 67.64189
# Shear Modulus (GPa) = 18.27334 23.56761 20.92048
#
# Velocity S-wave (km/s) = 3.23060 3.66886 3.45668
# Velocity P-wave (km/s) = 6.89223 7.85030 7.38681
#
# Compressibility (1/GPa) = 0.01700492
#
# Stress axis : x y z
#
# Youngs Moduli (GPa) = 66.48638 37.30174 82.96824
#
# Poissons Ratio (x) = 0.16311 0.33166
# Poissons Ratio (y) = 0.29072 0.83619
# Poissons Ratio (z) = 0.26577 0.37595
#
# Static dielectric constant tensor:
#      x y z
#    x 3.073090 0.000000 0.000000 
#    y 0.000000 3.078140 0.000000 
#    z 0.000000 0.000000 3.448040 
# 
# 
# High freq. dielectric constant tensor:
#      x y z
#    x 1.649140 0.000000 0.000000 
#    y 0.000000 1.674960 0.000000 
#    z 0.000000 0.000000 1.691060 
# 
# From -- ./inp_files/28769.got.cif
#   From: 2010.03.12/outbox.cif.g09.slc.cpg/sg59_15_cif.got.tgz:28769.got - 2010.04.16 16:29:54.
