data_PCOD8242526
_publ_section_title
;
Structure prediction by ZEFSAII (Michael W. Deem and Ramdas Pophale) SiO2 
 PCOD8242526
Probable space group: P M M N
;
_chemical_formula_sum "Si O2"
_cell_formula_units_Z 64
_cell_length_a 15.886574
_cell_length_b 9.234030
_cell_length_c 23.042218
_cell_angle_alpha 90.000000
_cell_angle_beta 90.000000
_cell_angle_gamma 90.000000
_cell_volume 3380.226579
_symmetry_space_group_name_H-M "P M M N"
_symmetry_group_IT_number 59
_space_group.IT_coordinate_system_code '2'
_symmetry_cell_setting 'orthorhombic'
loop_
_space_group_symop_operation_xyz
x,y,z
1/2-x,1/2-y,z
1/2+x,-y,-z
-x,1/2+y,-z
-x,-y,-z
1/2+x,1/2+y,-z
1/2-x,y,z
x,1/2-y,z
loop_
_atom_site_type_symbol
_atom_site_label
_atom_site_fract_x
_atom_site_fract_y
_atom_site_fract_z
Si Si1 0.923918 0.588009 0.641272
Si Si2 0.345052 0.082064 0.049111
Si Si3 0.402950 0.590961 0.574614
Si Si4 0.344965 0.581391 0.930877
Si Si5 0.990217 0.920074 0.860835
Si Si6 0.655861 0.582197 0.528968
Si Si7 0.000732 0.077382 0.743334
Si Si8 0.656525 0.417878 0.305136
O O1 0.902517 0.750000 0.664846
O O2 0.854297 0.527785 0.595833
O O3 0.005286 0.593639 0.601217
O O4 0.934839 0.479507 0.695048
O O5 0.250000 0.046130 0.071716
O O6 0.353496 0.250000 0.034341
O O7 0.415341 0.036239 0.095536
O O8 0.364981 0.998563 0.990369
O O9 0.374354 0.750000 0.553968
O O10 0.403956 0.490437 0.518379
O O11 0.342330 0.536696 0.626920
O O12 0.250000 0.542725 0.907995
O O13 0.351920 0.750000 0.944564
O O14 0.417005 0.537156 0.884860
O O15 0.986986 0.750000 0.845382
O O16 0.971227 0.016008 0.804736
O O17 0.750000 0.549733 0.508628
O O18 0.632492 0.750000 0.528578
O O19 0.000663 0.250000 0.743464
O O20 0.094475 0.018924 0.731183
O O21 0.750000 0.437816 0.279403
O O22 0.626345 0.250000 0.299435
#
# Coordination Sequence:
#
# PCOD8242526 Si02
#       8
#     8   8   8   8   8   8   8   8
#     4   9  19  37  54  67  93 133 170 202 246 308
#     4   9  18  33  54  80 107 136 173 216 260 304
#     4   9  17  30  50  74  98 127 161 195 239 302
#     4   9  18  32  52  80 111 141 171 202 243 301
#     4  10  20  35  54  75 104 142 178 211 254 311
#     4  10  20  32  49  75 101 124 156 203 256 305
#     4  11  23  36  52  75 100 129 173 222 260 295
#     4   9  18  34  54  74 101 138 172 202 247 309
#
# _framework density 18.933641999999999
#
# number of rings (size 3 to 8) (size 9 to 14) (size 15 to 20)
#    0.000    2.500    0.000    3.000    0.000    5.000 
#    0.000    1.875    0.000    3.750    0.000    0.000 
#    0.000    0.000    0.000    0.000    0.000    0.000 
#
# Total GULP energy -793273.719689 kJ/mol
# GULP energy per Si atom -12394.901870 kJ/mol
# Density = 1.889055 g / cm^3
# Si number density = 18.933642 Si / 1000 Ang^3
#
#
#
# Elastic Constant Matrix: (Units=GPa)
#
#
# Indices 1 2 3 4 5 6 
#
# 1 53.4783 21.0269 31.0596 0.0000 0.0000 0.0000
# 2 21.0269 71.8212 52.9194 0.0000 0.0000 0.0000
# 3 31.0596 52.9194 110.1565 0.0000 0.0000 0.0000
# 4 0.0000 0.0000 0.0000 35.6910 0.0000 0.0000
# 5 0.0000 0.0000 0.0000 0.0000 14.1849 0.0000
# 6 0.0000 0.0000 0.0000 0.0000 0.0000 18.0722
#
#
#
# Elastic Compliance Matrix: (Units=1/GPa)
#
#
# Indices 1 2 3 4 5 6 
#
# 1 0.022770 -0.002996 -0.004981 0.000000 0.000000 0.000000
# 2 -0.002996 0.021947 -0.009698 0.000000 0.000000 0.000000
# 3 -0.004981 -0.009698 0.015141 0.000000 0.000000 0.000000
# 4 0.000000 0.000000 0.000000 0.028018 0.000000 0.000000
# 5 0.000000 0.000000 0.000000 0.000000 0.070498 0.000000
# 6 0.000000 0.000000 0.000000 0.000000 0.000000 0.055334
#
#
# Mechanical properties :
#
#
# Convention : Reuss Voigt Hill
#
# Bulk Modulus (GPa) = 40.80437 49.49642 45.15040
# Shear Modulus (GPa) = 19.43799 22.28626 20.86213
#
# Velocity S-wave (km/s) = 3.20760 3.43457 3.32302
# Velocity P-wave (km/s) = 5.94275 6.47512 6.21464
#
# Compressibility (1/GPa) = 0.02450718
#
# Stress axis : x y z
#
# Youngs Moduli (GPa) = 43.91729 45.56491 66.04378
#
# Poissons Ratio (x) = 0.13653 0.32895
# Poissons Ratio (y) = 0.13160 0.64052
# Poissons Ratio (z) = 0.21874 0.44191
#
# Static dielectric constant tensor:
#      x y z
#    x 3.753430 0.000000 0.000000 
#    y 0.000000 3.334360 0.000000 
#    z 0.000000 0.000000 3.428250 
# 
# 
# High freq. dielectric constant tensor:
#      x y z
#    x 1.735270 0.000000 0.000000 
#    y 0.000000 1.719830 0.000000 
#    z 0.000000 0.000000 1.728620 
# 
# From -- ./inp_files/30818.got.cif
#   From: 2010.03.12/outbox.cif.g09.slc.cpg/sg59_16_cif.got.tgz:30818.got - 2010.04.16 16:29:54.
