data_PCOD8242589
_publ_section_title
;
Structure prediction by ZEFSAII (Michael W. Deem and Ramdas Pophale) SiO2 
 PCOD8242589
Probable space group: P M M N
;
_chemical_formula_sum "Si O2"
_cell_formula_units_Z 64
_cell_length_a 13.926021
_cell_length_b 9.047211
_cell_length_c 31.480169
_cell_angle_alpha 90.000000
_cell_angle_beta 90.000000
_cell_angle_gamma 90.000000
_cell_volume 3966.238446
_symmetry_space_group_name_H-M "P M M N"
_symmetry_group_IT_number 59
_space_group.IT_coordinate_system_code '2'
_symmetry_cell_setting 'orthorhombic'
loop_
_space_group_symop_operation_xyz
x,y,z
1/2-x,1/2-y,z
1/2+x,-y,-z
-x,1/2+y,-z
-x,-y,-z
1/2+x,1/2+y,-z
1/2-x,y,z
x,1/2-y,z
loop_
_atom_site_type_symbol
_atom_site_label
_atom_site_fract_x
_atom_site_fract_y
_atom_site_fract_z
Si Si1 0.136656 0.084656 0.469262
Si Si2 0.364091 0.583419 0.229993
Si Si3 0.638845 0.576152 0.685570
Si Si4 0.542749 0.076447 0.606860
Si Si5 0.359222 0.075720 0.978608
Si Si6 0.028809 0.076223 0.062442
Si Si7 0.645185 0.924535 0.437259
Si Si8 0.639378 0.923496 0.853994
O O1 0.250000 0.094811 0.465521
O O2 0.093674 0.250000 0.461238
O O3 0.109510 0.021247 0.516132
O O4 0.100824 0.968305 0.434828
O O5 0.250000 0.579683 0.229407
O O6 0.403833 0.750000 0.231827
O O7 0.401207 0.495724 0.271168
O O8 0.402475 0.505514 0.187374
O O9 0.750000 0.534508 0.677868
O O10 0.624550 0.750000 0.688908
O O11 0.576924 0.514324 0.647192
O O12 0.557253 0.250000 0.615221
O O13 0.431237 0.033256 0.598979
O O14 0.250000 0.018014 0.974208
O O15 0.363626 0.250000 0.972371
O O16 0.425433 0.001411 0.942589
O O17 0.399014 0.029119 0.024782
O O18 0.011636 0.250000 0.062307
O O19 0.076645 0.022795 0.106166
O O20 0.750000 0.992050 0.425369
O O21 0.654709 0.750000 0.441361
O O22 0.750000 0.966032 0.862857
O O23 0.629391 0.750000 0.846139
#
# Coordination Sequence:
#
# PCOD8242589 Si02
#       8
#     8   8   8   8   8   8   8   8
#     4   9  17  30  46  62  85 118 148 172 205 253
#     4   9  17  29  45  66  91 115 141 177 216 253
#     4  10  20  33  47  63  88 121 148 169 204 260
#     4  11  20  28  44  68  89 111 142 181 218 249
#     4   9  17  29  43  60  87 122 156 191 230 266
#     4   9  17  28  43  64  88 117 155 192 223 261
#     4   8  16  31  47  62  83 113 147 179 212 252
#     4   9  16  27  44  65  90 120 150 178 214 263
#
# _framework density 16.136196999999999
#
# number of rings (size 3 to 8) (size 9 to 14) (size 15 to 20)
#    0.000    2.750    0.000    3.000    0.000    6.250 
#    0.000    0.625    0.000    5.250    0.000    0.875 
#    0.000    5.000    0.000    0.000    0.000    0.000 
#
# Total GULP energy -793447.586955 kJ/mol
# GULP energy per Si atom -12397.618546 kJ/mol
# Density = 1.609947 g / cm^3
# Si number density = 16.136197 Si / 1000 Ang^3
#
#
#
# Elastic Constant Matrix: (Units=GPa)
#
#
# Indices 1 2 3 4 5 6 
#
# 1 80.7589 31.6815 63.4896 0.0000 0.0000 0.0000
# 2 31.6815 52.3114 45.6272 0.0000 0.0000 0.0000
# 3 63.4896 45.6272 130.6862 0.0000 0.0000 0.0000
# 4 0.0000 0.0000 0.0000 27.0313 0.0000 0.0000
# 5 0.0000 0.0000 0.0000 0.0000 22.1753 0.0000
# 6 0.0000 0.0000 0.0000 0.0000 0.0000 19.3337
#
#
#
# Elastic Compliance Matrix: (Units=1/GPa)
#
#
# Indices 1 2 3 4 5 6 
#
# 1 0.021085 -0.005515 -0.008318 0.000000 0.000000 0.000000
# 2 -0.005515 0.028929 -0.007421 0.000000 0.000000 0.000000
# 3 -0.008318 -0.007421 0.014284 0.000000 0.000000 0.000000
# 4 0.000000 0.000000 0.000000 0.036994 0.000000 0.000000
# 5 0.000000 0.000000 0.000000 0.000000 0.045095 0.000000
# 6 0.000000 0.000000 0.000000 0.000000 0.000000 0.051723
#
#
# Mechanical properties :
#
#
# Convention : Reuss Voigt Hill
#
# Bulk Modulus (GPa) = 45.89156 60.59479 53.24318
# Shear Modulus (GPa) = 20.17085 21.90527 21.03806
#
# Velocity S-wave (km/s) = 3.53942 3.68846 3.61471
# Velocity P-wave (km/s) = 6.72348 7.46815 7.10558
#
# Compressibility (1/GPa) = 0.02179050
#
# Stress axis : x y z
#
# Youngs Moduli (GPa) = 47.42605 34.56755 70.00810
#
# Poissons Ratio (x) = 0.19063 0.58235
# Poissons Ratio (y) = 0.26153 0.51953
# Poissons Ratio (z) = 0.39451 0.25653
#
# Static dielectric constant tensor:
#      x y z
#    x 3.085200 0.000000 0.000000 
#    y 0.000000 3.064130 0.000000 
#    z 0.000000 0.000000 3.106140 
# 
# 
# High freq. dielectric constant tensor:
#      x y z
#    x 1.595430 0.000000 0.000000 
#    y 0.000000 1.616190 0.000000 
#    z 0.000000 0.000000 1.613980 
# 
# From -- ./inp_files/33219.got.cif
#   From: 2010.03.12/outbox.cif.g09.slc.cpg/sg59_17_cif.got.tgz:33219.got - 2010.04.16 16:29:54.
