data_PCOD8242583
_publ_section_title
;
Structure prediction by ZEFSAII (Michael W. Deem and Ramdas Pophale) SiO2 
 PCOD8242583
Probable space group: P M M N
;
_chemical_formula_sum "Si O2"
_cell_formula_units_Z 56
_cell_length_a 13.899238
_cell_length_b 23.125277
_cell_length_c 9.405462
_cell_angle_alpha 90.000000
_cell_angle_beta 90.000000
_cell_angle_gamma 90.000000
_cell_volume 3023.138667
_symmetry_space_group_name_H-M "P M M N"
_symmetry_group_IT_number 59
_space_group.IT_coordinate_system_code '2'
_symmetry_cell_setting 'orthorhombic'
loop_
_space_group_symop_operation_xyz
x,y,z
1/2-x,1/2-y,z
1/2+x,-y,-z
-x,1/2+y,-z
-x,-y,-z
1/2+x,1/2+y,-z
1/2-x,y,z
x,1/2-y,z
loop_
_atom_site_type_symbol
_atom_site_label
_atom_site_fract_x
_atom_site_fract_y
_atom_site_fract_z
Si Si1 0.474573 0.681915 0.229382
Si Si2 0.857325 0.996357 0.668139
Si Si3 0.999100 0.097985 0.026589
Si Si4 0.360495 0.619953 0.459393
Si Si5 0.858624 0.999758 0.001613
Si Si6 0.643028 0.682226 0.435632
Si Si7 0.031143 0.116130 0.340658
O O1 0.468910 0.750000 0.197313
O O2 0.386897 0.663956 0.332152
O O3 0.573742 0.663489 0.306619
O O4 0.467582 0.647914 0.081287
O O5 0.750000 0.974361 0.627691
O O6 0.937126 0.949614 0.625184
O O7 0.882007 0.054985 0.588193
O O8 0.861766 0.009776 0.834151
O O9 0.033391 0.128479 0.172163
O O10 0.910344 0.055783 0.069326
O O11 0.084782 0.059159 0.958360
O O12 0.250000 0.630345 0.501213
O O13 0.425624 0.630714 0.598012
O O14 0.750000 0.995312 0.060848
O O15 0.750000 0.659932 0.398964
O O16 0.640581 0.750000 0.455184
O O17 0.609430 0.657038 0.586200
#
# Coordination Sequence:
#
# PCOD8242583 Si02
#       7
#     8   8   8   8   8   8   8
#     4  10  21  37  58  80 105 141 185 228 265 313
#     4   9  16  30  53  77 104 140 180 220 262 316
#     4  10  20  34  54  81 111 141 179 223 271 326
#     4  10  20  35  53  75 106 144 183 223 264 314
#     4   9  18  33  53  76 108 147 180 218 270 322
#     4   9  19  37  57  77 106 144 182 221 269 323
#     4  10  20  32  53  80 112 140 173 222 275 328
#
# _framework density 18.523796000000001
#
# number of rings (size 3 to 8) (size 9 to 14) (size 15 to 20)
#    0.000    2.429    1.429    0.857    0.000    2.571 
#    0.000    0.000    0.000    1.714    0.000    2.000 
#    0.000    0.000    0.000    0.000    0.000    0.000 
#
# Total GULP energy -694365.004741 kJ/mol
# GULP energy per Si atom -12399.375085 kJ/mol
# Density = 1.848164 g / cm^3
# Si number density = 18.523796 Si / 1000 Ang^3
#
#
#
# Elastic Constant Matrix: (Units=GPa)
#
#
# Indices 1 2 3 4 5 6 
#
# 1 98.5553 35.2821 5.9672 0.0000 0.0000 0.0000
# 2 35.2821 48.6138 37.7284 0.0000 0.0000 0.0000
# 3 5.9672 37.7284 58.6127 0.0000 0.0000 0.0000
# 4 0.0000 0.0000 0.0000 26.7024 0.0000 0.0000
# 5 0.0000 0.0000 0.0000 0.0000 17.2795 0.0000
# 6 0.0000 0.0000 0.0000 0.0000 0.0000 25.6002
#
#
#
# Elastic Compliance Matrix: (Units=1/GPa)
#
#
# Indices 1 2 3 4 5 6 
#
# 1 0.017448 -0.022549 0.012738 0.000000 0.000000 0.000000
# 2 -0.022549 0.070245 -0.042921 0.000000 0.000000 0.000000
# 3 0.012738 -0.042921 0.043392 0.000000 0.000000 0.000000
# 4 0.000000 0.000000 0.000000 0.037450 0.000000 0.000000
# 5 0.000000 0.000000 0.000000 0.000000 0.057872 0.000000
# 6 0.000000 0.000000 0.000000 0.000000 0.000000 0.039062
#
#
# Mechanical properties :
#
#
# Convention : Reuss Voigt Hill
#
# Bulk Modulus (GPa) = 39.02833 40.41525 39.72179
# Shear Modulus (GPa) = 13.17622 22.37003 17.77313
#
# Velocity S-wave (km/s) = 2.66994 3.47888 3.10090
# Velocity P-wave (km/s) = 5.53352 6.16459 5.85756
#
# Compressibility (1/GPa) = 0.02562241
#
# Stress axis : x y z
#
# Youngs Moduli (GPa) = 57.31450 14.23584 23.04582
#
# Poissons Ratio (x) = 0.32100 -0.29356
# Poissons Ratio (y) = 1.29236 0.98914
# Poissons Ratio (z) = -0.73007 0.61101
#
# Static dielectric constant tensor:
#      x y z
#    x 3.680360 0.000000 0.000000 
#    y 0.000000 3.282580 0.000000 
#    z 0.000000 0.000000 3.170330 
# 
# 
# High freq. dielectric constant tensor:
#      x y z
#    x 1.725490 0.000000 0.000000 
#    y 0.000000 1.708370 0.000000 
#    z 0.000000 0.000000 1.701140 
# 
# From -- ./inp_files/9384.got.cif
#   From: 2010.03.12/outbox.cif.g09.slc.cpg/sg59_5_cif.got.tgz:9384.got - 2010.04.16 16:29:54.
