data_PCOD8242059
_publ_section_title
;
Structure prediction by ZEFSAII (Michael W. Deem and Ramdas Pophale) SiO2 
 PCOD8242059
Probable space group: P M M N
;
_chemical_formula_sum "Si O2"
_cell_formula_units_Z 32
_cell_length_a 7.896485
_cell_length_b 13.826475
_cell_length_c 15.807904
_cell_angle_alpha 90.000000
_cell_angle_beta 90.000000
_cell_angle_gamma 90.000000
_cell_volume 1725.915692
_symmetry_space_group_name_H-M "P M M N"
_symmetry_group_IT_number 59
_space_group.IT_coordinate_system_code '2'
_symmetry_cell_setting 'orthorhombic'
loop_
_space_group_symop_operation_xyz
x,y,z
1/2-x,1/2-y,z
1/2+x,-y,-z
-x,1/2+y,-z
-x,-y,-z
1/2+x,1/2+y,-z
1/2-x,y,z
x,1/2-y,z
loop_
_atom_site_type_symbol
_atom_site_label
_atom_site_fract_x
_atom_site_fract_y
_atom_site_fract_z
Si Si1 0.567036 0.977701 0.823537
Si Si2 0.556646 0.498899 0.360798
Si Si3 0.250000 0.861235 0.094233
Si Si4 0.750000 0.139004 0.106099
Si Si5 0.450054 0.859159 0.493098
O O1 0.750000 0.924235 0.836820
O O2 0.549171 0.998002 0.724474
O O3 0.417266 0.913159 0.859828
O O4 0.581623 0.082754 0.870769
O O5 0.750000 0.479000 0.336230
O O6 0.485907 0.416773 0.424323
O O7 0.537514 0.601411 0.408026
O O8 0.250000 0.750000 0.125483
O O9 0.250000 0.866294 0.993845
O O10 0.750000 0.250000 0.138082
O O11 0.250000 0.870510 0.482889
O O12 0.508747 0.750000 0.505533
#
# Coordination Sequence:
#
# PCOD8242059 Si02
#       5
#     8   8   4   4   8
#     4  10  22  38  65  88 124 160 199 248 306 355
#     4  10  19  35  54  82 117 151 196 245 293 345
#     4   9  22  42  65  90 123 160 201 248 304 363
#     4  11  22  42  65  92 123 156 201 254 302 365
#     4   9  19  34  54  77 110 155 195 240 296 348
#
# _framework density 18.540883999999998
#
# number of rings (size 3 to 8) (size 9 to 14) (size 15 to 20)
#    0.750    1.500    1.250    1.500    0.000    4.000 
#    0.000    0.625    0.000    0.000    0.000    0.000 
#    0.000    0.000    0.000    0.000    0.000    0.000 
#
# Total GULP energy -396617.783114 kJ/mol
# GULP energy per Si atom -12394.305722 kJ/mol
# Density = 1.849868 g / cm^3
# Si number density = 18.540884 Si / 1000 Ang^3
#
#
#
# Elastic Constant Matrix: (Units=GPa)
#
#
# Indices 1 2 3 4 5 6 
#
# 1 103.8071 50.6065 44.5400 0.0000 0.0000 0.0000
# 2 50.6065 142.2601 65.1637 0.0000 0.0000 0.0000
# 3 44.5400 65.1637 112.0332 0.0000 0.0000 0.0000
# 4 0.0000 0.0000 0.0000 13.7450 0.0000 0.0000
# 5 0.0000 0.0000 0.0000 0.0000 27.6747 0.0000
# 6 0.0000 0.0000 0.0000 0.0000 0.0000 29.6265
#
#
#
# Elastic Compliance Matrix: (Units=1/GPa)
#
#
# Indices 1 2 3 4 5 6 
#
# 1 0.012460 -0.002949 -0.003238 0.000000 0.000000 0.000000
# 2 -0.002949 0.010280 -0.004807 0.000000 0.000000 0.000000
# 3 -0.003238 -0.004807 0.013009 0.000000 0.000000 0.000000
# 4 0.000000 0.000000 0.000000 0.072753 0.000000 0.000000
# 5 0.000000 0.000000 0.000000 0.000000 0.036134 0.000000
# 6 0.000000 0.000000 0.000000 0.000000 0.000000 0.033754
#
#
# Mechanical properties :
#
#
# Convention : Reuss Voigt Hill
#
# Bulk Modulus (GPa) = 72.66946 75.41341 74.04144
# Shear Modulus (GPa) = 24.39407 27.39527 25.89467
#
# Velocity S-wave (km/s) = 3.63118 3.84807 3.74120
# Velocity P-wave (km/s) = 7.54055 7.77856 7.66048
#
# Compressibility (1/GPa) = 0.01376094
#
# Stress axis : x y z
#
# Youngs Moduli (GPa) = 80.25361 97.27201 76.86739
#
# Poissons Ratio (x) = 0.28688 0.24893
# Poissons Ratio (y) = 0.23669 0.36951
# Poissons Ratio (z) = 0.25989 0.46760
#
# Static dielectric constant tensor:
#      x y z
#    x 3.338710 0.000000 0.000000 
#    y 0.000000 3.450420 0.000000 
#    z 0.000000 0.000000 3.430580 
# 
# 
# High freq. dielectric constant tensor:
#      x y z
#    x 1.716900 0.000000 0.000000 
#    y 0.000000 1.709510 0.000000 
#    z 0.000000 0.000000 1.727650 
# 
# From -- ./inp_files/19720.got.cif
#   From: 2010.03.12/outbox.cif.g09.slc.cpg/sg59_10_cif.got.tgz:19720.got - 2010.04.16 16:29:54.
