data_PCOD8242960
_publ_section_title
;
Structure prediction by ZEFSAII (Michael W. Deem and Ramdas Pophale) SiO2 
 PCOD8242960
Probable space group: P M M N
;
_chemical_formula_sum "Si O2"
_cell_formula_units_Z 64
_cell_length_a 19.054932
_cell_length_b 9.297935
_cell_length_c 20.255620
_cell_angle_alpha 90.000000
_cell_angle_beta 90.000000
_cell_angle_gamma 90.000000
_cell_volume 3588.718967
_symmetry_space_group_name_H-M "P M M N"
_symmetry_group_IT_number 59
_space_group.IT_coordinate_system_code '2'
_symmetry_cell_setting 'orthorhombic'
loop_
_space_group_symop_operation_xyz
x,y,z
1/2-x,1/2-y,z
1/2+x,-y,-z
-x,1/2+y,-z
-x,-y,-z
1/2+x,1/2+y,-z
1/2-x,y,z
x,1/2-y,z
loop_
_atom_site_type_symbol
_atom_site_label
_atom_site_fract_x
_atom_site_fract_y
_atom_site_fract_z
Si Si1 0.669373 0.916765 0.620262
Si Si2 0.570477 0.918847 0.247490
Si Si3 0.431153 0.084285 0.261437
Si Si4 0.330810 0.084356 0.631655
Si Si5 0.833548 0.087324 0.494036
Si Si6 0.585772 0.913853 0.888191
Si Si7 0.330166 0.919436 0.005829
Si Si8 0.425240 0.918693 0.884527
O O1 0.750000 0.956771 0.633921
O O2 0.660902 0.750000 0.602249
O O3 0.627556 0.958910 0.685907
O O4 0.638062 0.006904 0.559126
O O5 0.561451 0.750000 0.234929
O O6 0.628549 0.953880 0.301927
O O7 0.497551 0.983118 0.273260
O O8 0.596188 0.993790 0.180410
O O9 0.455241 0.250000 0.268731
O O10 0.398960 0.059202 0.188952
O O11 0.250000 0.046082 0.644919
O O12 0.340289 0.250000 0.611600
O O13 0.362169 0.990736 0.571535
O O14 0.750000 0.079869 0.494006
O O15 0.861651 0.250000 0.494647
O O16 0.600991 0.750000 0.908116
O O17 0.505213 0.954107 0.904787
O O18 0.638553 0.013137 0.928164
O O19 0.250000 0.969529 0.996491
O O20 0.335937 0.750000 0.013814
O O21 0.374414 0.971798 0.942690
O O22 0.416656 0.750000 0.869065
#
# Coordination Sequence:
#
# PCOD8242960 Si02
#       8
#     8   8   8   8   8   8   8   8
#     4   9  17  31  52  74  97 130 168 203 243 293
#     4  10  20  33  52  77 101 127 163 206 248 290
#     4   9  19  35  53  74 101 132 165 201 244 295
#     4   9  18  33  51  71  98 131 165 202 245 294
#     4   9  17  29  47  73 101 128 163 206 248 291
#     4   9  18  33  53  74  96 129 170 205 238 284
#     4  10  21  35  51  75 105 132 160 200 249 294
#     4   9  19  36  54  71  97 133 168 200 239 293
#
# _framework density 17.833660999999999
#
# number of rings (size 3 to 8) (size 9 to 14) (size 15 to 20)
#    0.000    2.750    0.000    1.875    0.000    6.750 
#    0.000    1.875    0.000    1.500    0.000    0.000 
#    0.000    0.000    0.000    0.000    0.000    0.000 
#
# Total GULP energy -793704.713142 kJ/mol
# GULP energy per Si atom -12401.636143 kJ/mol
# Density = 1.779307 g / cm^3
# Si number density = 17.833661 Si / 1000 Ang^3
#
#
#
# Elastic Constant Matrix: (Units=GPa)
#
#
# Indices 1 2 3 4 5 6 
#
# 1 77.0290 42.1970 67.7690 0.0000 0.0000 0.0000
# 2 42.1970 72.8592 66.0191 0.0000 0.0000 0.0000
# 3 67.7690 66.0191 135.3631 0.0000 0.0000 0.0000
# 4 0.0000 0.0000 0.0000 33.9690 0.0000 0.0000
# 5 0.0000 0.0000 0.0000 0.0000 28.1748 0.0000
# 6 0.0000 0.0000 0.0000 0.0000 0.0000 23.5110
#
#
#
# Elastic Compliance Matrix: (Units=1/GPa)
#
#
# Indices 1 2 3 4 5 6 
#
# 1 0.024364 -0.005480 -0.009525 0.000000 0.000000 0.000000
# 2 -0.005480 0.025826 -0.009853 0.000000 0.000000 0.000000
# 3 -0.009525 -0.009853 0.016962 0.000000 0.000000 0.000000
# 4 0.000000 0.000000 0.000000 0.029439 0.000000 0.000000
# 5 0.000000 0.000000 0.000000 0.000000 0.035493 0.000000
# 6 0.000000 0.000000 0.000000 0.000000 0.000000 0.042533
#
#
# Mechanical properties :
#
#
# Convention : Reuss Voigt Hill
#
# Bulk Modulus (GPa) = 57.34932 70.80242 64.07587
# Shear Modulus (GPa) = 21.72551 24.41537 23.07044
#
# Velocity S-wave (km/s) = 3.49410 3.70410 3.60063
# Velocity P-wave (km/s) = 6.96463 7.62112 7.30026
#
# Compressibility (1/GPa) = 0.01743700
#
# Stress axis : x y z
#
# Youngs Moduli (GPa) = 41.04396 38.72012 58.95656
#
# Poissons Ratio (x) = 0.21217 0.56158
# Poissons Ratio (y) = 0.22491 0.58088
# Poissons Ratio (z) = 0.39095 0.38150
#
# Static dielectric constant tensor:
#      x y z
#    x 3.177440 0.000000 0.000000 
#    y 0.000000 3.297250 0.000000 
#    z 0.000000 0.000000 3.378570 
# 
# 
# High freq. dielectric constant tensor:
#      x y z
#    x 1.670820 0.000000 0.000000 
#    y 0.000000 1.689450 0.000000 
#    z 0.000000 0.000000 1.699170 
# 
# From -- ./inp_files/29533.got.cif
#   From: 2010.03.12/outbox.cif.g09.slc.cpg/sg59_15_cif.got.tgz:29533.got - 2010.04.16 16:29:54.
