data_PCOD8242685
_publ_section_title
;
Structure prediction by ZEFSAII (Michael W. Deem and Ramdas Pophale) SiO2 
 PCOD8242685
Probable space group: P M M N
;
_chemical_formula_sum "Si O2"
_cell_formula_units_Z 64
_cell_length_a 8.772134
_cell_length_b 30.334966
_cell_length_c 14.290480
_cell_angle_alpha 90.000000
_cell_angle_beta 90.000000
_cell_angle_gamma 90.000000
_cell_volume 3802.730834
_symmetry_space_group_name_H-M "P M M N"
_symmetry_group_IT_number 59
_space_group.IT_coordinate_system_code '2'
_symmetry_cell_setting 'orthorhombic'
loop_
_space_group_symop_operation_xyz
x,y,z
1/2-x,1/2-y,z
1/2+x,-y,-z
-x,1/2+y,-z
-x,-y,-z
1/2+x,1/2+y,-z
1/2-x,y,z
x,1/2-y,z
loop_
_atom_site_type_symbol
_atom_site_label
_atom_site_fract_x
_atom_site_fract_y
_atom_site_fract_z
Si Si1 0.569725 0.201245 0.649334
Si Si2 0.428644 0.611925 0.434372
Si Si3 0.572393 0.701136 0.152334
Si Si4 0.920547 0.884833 0.065839
Si Si5 0.570857 0.457573 0.050641
Si Si6 0.929448 0.979999 0.765821
Si Si7 0.421415 0.429518 0.740500
Si Si8 0.571729 0.959113 0.555556
O O1 0.750000 0.200976 0.651824
O O2 0.509388 0.250000 0.617992
O O3 0.514761 0.162849 0.577343
O O4 0.514922 0.189247 0.752662
O O5 0.250000 0.609254 0.453695
O O6 0.464572 0.585173 0.340457
O O7 0.513664 0.588336 0.520056
O O8 0.750000 0.698182 0.176889
O O9 0.526556 0.750000 0.117216
O O10 0.532335 0.667024 0.067844
O O11 0.750000 0.892342 0.024586
O O12 0.921555 0.895288 0.175681
O O13 0.041182 0.913339 0.008563
O O14 0.750000 0.465133 0.061314
O O15 0.493342 0.448883 0.151652
O O16 0.500000 0.500000 0.000000
O O17 0.750000 0.987039 0.777464
O O18 0.971784 0.960463 0.664724
O O19 0.017032 0.025317 0.782779
O O20 0.250000 0.435228 0.699806
O O21 0.750000 0.962799 0.539955
O O22 0.500000 0.000000 0.500000
#
# Coordination Sequence:
#
# PCOD8242685 Si02
#       8
#     8   8   8   8   8   8   8   8
#     4   9  18  31  47  70 101 135 169 206 249 297
#     4  11  21  32  49  73 103 138 174 210 250 297
#     4   9  17  30  49  73 101 133 168 206 249 296
#     4  10  20  33  49  73 103 136 171 206 247 295
#     4  12  24  36  53  74  99 133 170 209 250 298
#     4  11  23  38  53  71  98 132 170 214 255 295
#     4  11  20  30  49  73 102 138 172 208 247 293
#     4  11  23  36  53  74 100 133 170 209 252 301
#
# _framework density 16.830009
#
# number of rings (size 3 to 8) (size 9 to 14) (size 15 to 20)
#    0.000    1.500    3.750    2.625    0.000    3.000 
#    0.000    0.000    0.000    0.000    0.000    0.875 
#    0.000    1.000    0.000    0.000    0.000    0.000 
#
# Total GULP energy -793441.148618 kJ/mol
# GULP energy per Si atom -12397.517947 kJ/mol
# Density = 1.679170 g / cm^3
# Si number density = 16.830009 Si / 1000 Ang^3
#
#
#
# Elastic Constant Matrix: (Units=GPa)
#
#
# Indices 1 2 3 4 5 6 
#
# 1 60.4744 30.9617 33.0625 0.0000 0.0000 0.0000
# 2 30.9617 114.3447 43.6600 0.0000 0.0000 0.0000
# 3 33.0625 43.6600 87.1046 0.0000 0.0000 0.0000
# 4 0.0000 0.0000 0.0000 21.4289 0.0000 0.0000
# 5 0.0000 0.0000 0.0000 0.0000 25.9725 0.0000
# 6 0.0000 0.0000 0.0000 0.0000 0.0000 22.2832
#
#
#
# Elastic Compliance Matrix: (Units=1/GPa)
#
#
# Indices 1 2 3 4 5 6 
#
# 1 0.021889 -0.003407 -0.006601 0.000000 0.000000 0.000000
# 2 -0.003407 0.011346 -0.004394 0.000000 0.000000 0.000000
# 3 -0.006601 -0.004394 0.016188 0.000000 0.000000 0.000000
# 4 0.000000 0.000000 0.000000 0.046666 0.000000 0.000000
# 5 0.000000 0.000000 0.000000 0.000000 0.038502 0.000000
# 6 0.000000 0.000000 0.000000 0.000000 0.000000 0.044877
#
#
# Mechanical properties :
#
#
# Convention : Reuss Voigt Hill
#
# Bulk Modulus (GPa) = 48.49607 53.03245 50.76426
# Shear Modulus (GPa) = 23.24028 24.21955 23.72992
#
# Velocity S-wave (km/s) = 3.72006 3.79762 3.75904
# Velocity P-wave (km/s) = 6.87965 7.12799 7.00492
#
# Compressibility (1/GPa) = 0.02062023
#
# Stress axis : x y z
#
# Youngs Moduli (GPa) = 45.68540 88.14025 61.77310
#
# Poissons Ratio (x) = 0.30025 0.40776
# Poissons Ratio (y) = 0.15563 0.27142
# Poissons Ratio (z) = 0.30156 0.38727
#
# Static dielectric constant tensor:
#      x y z
#    x 3.212780 0.000000 0.000000 
#    y 0.000000 3.505990 0.000000 
#    z 0.000000 0.000000 3.027730 
# 
# 
# High freq. dielectric constant tensor:
#      x y z
#    x 1.657950 0.000000 0.000000 
#    y 0.000000 1.646920 0.000000 
#    z 0.000000 0.000000 1.618340 
# 
# From -- ./inp_files/21918.got.cif
#   From: 2010.03.12/outbox.cif.g09.slc.cpg/sg59_11_cif.got.tgz:21918.got - 2010.04.16 16:29:54.
