data_PCOD8242326
_publ_section_title
;
Structure prediction by ZEFSAII (Michael W. Deem and Ramdas Pophale) SiO2 
 PCOD8242326
Probable space group: P M M N
;
_chemical_formula_sum "Si O2"
_cell_formula_units_Z 64
_cell_length_a 13.753089
_cell_length_b 9.022201
_cell_length_c 30.385274
_cell_angle_alpha 90.000000
_cell_angle_beta 90.000000
_cell_angle_gamma 90.000000
_cell_volume 3770.300005
_symmetry_space_group_name_H-M "P M M N"
_symmetry_group_IT_number 59
_space_group.IT_coordinate_system_code '2'
_symmetry_cell_setting 'orthorhombic'
loop_
_space_group_symop_operation_xyz
x,y,z
1/2-x,1/2-y,z
1/2+x,-y,-z
-x,1/2+y,-z
-x,-y,-z
1/2+x,1/2+y,-z
1/2-x,y,z
x,1/2-y,z
loop_
_atom_site_type_symbol
_atom_site_label
_atom_site_fract_x
_atom_site_fract_y
_atom_site_fract_z
Si Si1 0.983012 0.924059 0.953572
Si Si2 0.638557 0.424028 0.882288
Si Si3 0.471782 0.424633 0.565687
Si Si4 0.639536 0.915761 0.097752
Si Si5 0.640100 0.924825 0.521112
Si Si6 0.360507 0.924846 0.742133
Si Si7 0.528217 0.916309 0.183281
Si Si8 0.638195 0.578287 0.347772
O O1 0.966712 0.750000 0.959555
O O2 0.890981 0.991968 0.927256
O O3 0.079506 0.956609 0.925975
O O4 0.000000 0.000000 0.000000
O O5 0.750000 0.462022 0.870694
O O6 0.622559 0.250000 0.890954
O O7 0.570178 0.473998 0.841327
O O8 0.486570 0.250000 0.565443
O O9 0.399518 0.474166 0.526608
O O10 0.576356 0.500955 0.559535
O O11 0.426549 0.478635 0.611646
O O12 0.750000 0.956320 0.089333
O O13 0.614588 0.750000 0.079552
O O14 0.617706 0.919296 0.149435
O O15 0.750000 0.982667 0.525716
O O16 0.634350 0.750000 0.526839
O O17 0.250000 0.978955 0.753444
O O18 0.364750 0.750000 0.741175
O O19 0.441129 0.979953 0.776604
O O20 0.392270 0.985314 0.694770
O O21 0.511031 0.750000 0.201173
O O22 0.750000 0.551167 0.360615
O O23 0.618920 0.750000 0.337458
#
# Coordination Sequence:
#
# PCOD8242326 Si02
#       8
#     8   8   8   8   8   8   8   8
#     4  11  22  35  51  72 100 131 163 198 236 281
#     4   9  19  37  58  77  98 126 162 204 246 285
#     4   9  17  29  46  68  92 120 158 200 237 278
#     4   9  18  33  52  73  97 125 157 192 230 274
#     4   9  17  29  45  66  93 124 156 192 238 288
#     4  10  20  31  45  70 102 131 157 189 233 284
#     4   9  17  31  52  75  97 123 155 190 231 280
#     4   9  17  30  48  68  92 124 159 194 234 281
#
# _framework density 16.974775999999999
#
# number of rings (size 3 to 8) (size 9 to 14) (size 15 to 20)
#    0.000    2.625    0.000    3.000    0.000    6.500 
#    0.000    0.000    0.000    3.000    0.000    1.750 
#    0.000    0.000    0.000    0.000    0.000    0.000 
#
# Total GULP energy -793468.716019 kJ/mol
# GULP energy per Si atom -12397.948688 kJ/mol
# Density = 1.693614 g / cm^3
# Si number density = 16.974776 Si / 1000 Ang^3
#
#
#
# Elastic Constant Matrix: (Units=GPa)
#
#
# Indices 1 2 3 4 5 6 
#
# 1 117.6018 38.3206 61.0760 0.0000 0.0000 0.0000
# 2 38.3206 62.0940 47.0569 0.0000 0.0000 0.0000
# 3 61.0760 47.0569 114.6275 0.0000 0.0000 0.0000
# 4 0.0000 0.0000 0.0000 27.8655 0.0000 0.0000
# 5 0.0000 0.0000 0.0000 0.0000 22.0298 0.0000
# 6 0.0000 0.0000 0.0000 0.0000 0.0000 25.3801
#
#
#
# Elastic Compliance Matrix: (Units=1/GPa)
#
#
# Indices 1 2 3 4 5 6 
#
# 1 0.012352 -0.003825 -0.005011 0.000000 0.000000 0.000000
# 2 -0.003825 0.024562 -0.008045 0.000000 0.000000 0.000000
# 3 -0.005011 -0.008045 0.014697 0.000000 0.000000 0.000000
# 4 0.000000 0.000000 0.000000 0.035887 0.000000 0.000000
# 5 0.000000 0.000000 0.000000 0.000000 0.045393 0.000000
# 6 0.000000 0.000000 0.000000 0.000000 0.000000 0.039401
#
#
# Mechanical properties :
#
#
# Convention : Reuss Voigt Hill
#
# Bulk Modulus (GPa) = 56.02903 65.24784 60.63844
# Shear Modulus (GPa) = 23.58441 24.91305 24.24873
#
# Velocity S-wave (km/s) = 3.73148 3.83515 3.78367
# Velocity P-wave (km/s) = 7.18639 7.62448 7.40867
#
# Compressibility (1/GPa) = 0.01784789
#
# Stress axis : x y z
#
# Youngs Moduli (GPa) = 80.95644 40.71295 68.04306
#
# Poissons Ratio (x) = 0.15575 0.34097
# Poissons Ratio (y) = 0.30970 0.54740
# Poissons Ratio (z) = 0.40568 0.32753
#
# Static dielectric constant tensor:
#      x y z
#    x 3.201180 0.000000 0.000000 
#    y 0.000000 3.216580 0.000000 
#    z 0.000000 0.000000 3.158330 
# 
# 
# High freq. dielectric constant tensor:
#      x y z
#    x 1.647220 0.000000 0.000000 
#    y 0.000000 1.649270 0.000000 
#    z 0.000000 0.000000 1.644490 
# 
# From -- ./inp_files/33335.got.cif
#   From: 2010.03.12/outbox.cif.g09.slc.cpg/sg59_17_cif.got.tgz:33335.got - 2010.04.16 16:29:54.
