data_PCOD8242239
_publ_section_title
;
Structure prediction by ZEFSAII (Michael W. Deem and Ramdas Pophale) SiO2 
 PCOD8242239
Probable space group: P M M N
;
_chemical_formula_sum "Si O2"
_cell_formula_units_Z 56
_cell_length_a 21.580376
_cell_length_b 9.194989
_cell_length_c 14.494352
_cell_angle_alpha 90.000000
_cell_angle_beta 90.000000
_cell_angle_gamma 90.000000
_cell_volume 2876.133399
_symmetry_space_group_name_H-M "P M M N"
_symmetry_group_IT_number 59
_space_group.IT_coordinate_system_code '2'
_symmetry_cell_setting 'orthorhombic'
loop_
_space_group_symop_operation_xyz
x,y,z
1/2-x,1/2-y,z
1/2+x,-y,-z
-x,1/2+y,-z
-x,-y,-z
1/2+x,1/2+y,-z
1/2-x,y,z
x,1/2-y,z
loop_
_atom_site_type_symbol
_atom_site_label
_atom_site_fract_x
_atom_site_fract_y
_atom_site_fract_z
Si Si1 0.178041 0.417482 0.860815
Si Si2 0.250000 0.406739 0.342430
Si Si3 0.416010 0.923142 0.742883
Si Si4 0.124175 0.079691 0.057126
Si Si5 0.750000 0.591991 0.870847
Si Si6 0.444707 0.910008 0.539544
Si Si7 0.130222 0.589065 0.358248
Si Si8 0.961224 0.423662 0.805142
O O1 0.250000 0.461489 0.881209
O O2 0.175281 0.250000 0.829487
O O3 0.149770 0.518670 0.780862
O O4 0.132543 0.442213 0.948202
O O5 0.250000 0.250000 0.392737
O O6 0.250000 0.381097 0.235426
O O7 0.188879 0.489437 0.369530
O O8 0.419891 0.750000 0.757101
O O9 0.417882 0.971278 0.635516
O O10 0.472127 0.002002 0.795762
O O11 0.114725 0.250000 0.083104
O O12 0.187013 0.011111 0.101261
O O13 0.068368 0.985427 0.099921
O O14 0.750000 0.750000 0.923657
O O15 0.471171 0.750000 0.559366
O O16 0.392882 0.906696 0.462250
O O17 0.500000 0.000000 0.500000
O O18 0.150066 0.750000 0.325345
O O19 0.080032 0.529886 0.284040
O O20 0.969166 0.250000 0.812435
#
# Coordination Sequence:
#
# PCOD8242239 Si02
#       8
#     8   4   8   8   4   8   8   8
#     4  10  22  42  67  89 116 158 202 245 294 345
#     4  11  21  33  55  86 119 156 196 241 291 351
#     4  11  24  41  63  89 118 154 198 247 297 349
#     4  10  19  36  61  88 118 155 197 240 289 348
#     4   9  16  29  53  82 113 148 190 235 281 337
#     4  10  21  39  63  87 113 152 196 242 298 354
#     4  10  21  37  56  83 121 158 192 240 300 357
#     4  11  22  36  59  91 124 156 192 241 299 352
#
# _framework density 19.470583999999999
#
# number of rings (size 3 to 8) (size 9 to 14) (size 15 to 20)
#    0.000    1.714    3.571    1.071    0.000    3.143 
#    1.286    0.357    0.000    0.000    0.000    0.000 
#    0.000    0.000    0.000    0.000    0.000    0.000 
#
# Total GULP energy -694156.906817 kJ/mol
# GULP energy per Si atom -12395.659050 kJ/mol
# Density = 1.942627 g / cm^3
# Si number density = 19.470584 Si / 1000 Ang^3
#
#
#
# Elastic Constant Matrix: (Units=GPa)
#
#
# Indices 1 2 3 4 5 6 
#
# 1 92.2978 52.6224 36.7670 0.0000 0.0000 0.0000
# 2 52.6224 93.1700 40.9060 0.0000 0.0000 0.0000
# 3 36.7670 40.9060 102.6366 0.0000 0.0000 0.0000
# 4 0.0000 0.0000 0.0000 27.0842 0.0000 0.0000
# 5 0.0000 0.0000 0.0000 0.0000 30.9483 0.0000
# 6 0.0000 0.0000 0.0000 0.0000 0.0000 27.1069
#
#
#
# Elastic Compliance Matrix: (Units=1/GPa)
#
#
# Indices 1 2 3 4 5 6 
#
# 1 0.016564 -0.008182 -0.002673 0.000000 0.000000 0.000000
# 2 -0.008182 0.017051 -0.003865 0.000000 0.000000 0.000000
# 3 -0.002673 -0.003865 0.012241 0.000000 0.000000 0.000000
# 4 0.000000 0.000000 0.000000 0.036922 0.000000 0.000000
# 5 0.000000 0.000000 0.000000 0.000000 0.032312 0.000000
# 6 0.000000 0.000000 0.000000 0.000000 0.000000 0.036891
#
#
# Mechanical properties :
#
#
# Convention : Reuss Voigt Hill
#
# Bulk Modulus (GPa) = 60.91205 60.96613 60.93909
# Shear Modulus (GPa) = 26.75344 27.54847 27.15096
#
# Velocity S-wave (km/s) = 3.71083 3.76556 3.73830
# Velocity P-wave (km/s) = 7.05070 7.09125 7.07101
#
# Compressibility (1/GPa) = 0.01641711
#
# Stress axis : x y z
#
# Youngs Moduli (GPa) = 60.37191 58.64753 81.69360
#
# Poissons Ratio (x) = 0.47985 0.21835
# Poissons Ratio (y) = 0.49396 0.31573
# Poissons Ratio (z) = 0.16136 0.22666
#
# Static dielectric constant tensor:
#      x y z
#    x 3.294800 0.000000 0.000000 
#    y 0.000000 3.737450 0.000000 
#    z 0.000000 0.000000 3.799540 
# 
# 
# High freq. dielectric constant tensor:
#      x y z
#    x 1.756170 0.000000 0.000000 
#    y 0.000000 1.751130 0.000000 
#    z 0.000000 0.000000 1.758280 
# 
# From -- ./inp_files/24331.got.cif
#   From: 2010.03.12/outbox.cif.g09.slc.cpg/sg59_13_cif.got.tgz:24331.got - 2010.04.16 16:29:54.
