data_PCOD8242740
_publ_section_title
;
Structure prediction by ZEFSAII (Michael W. Deem and Ramdas Pophale) SiO2 
 PCOD8242740
Probable space group: P M M N
;
_chemical_formula_sum "Si O2"
_cell_formula_units_Z 48
_cell_length_a 9.076481
_cell_length_b 9.079560
_cell_length_c 31.216915
_cell_angle_alpha 90.000000
_cell_angle_beta 90.000000
_cell_angle_gamma 90.000000
_cell_volume 2572.600132
_symmetry_space_group_name_H-M "P M M N"
_symmetry_group_IT_number 59
_space_group.IT_coordinate_system_code '2'
_symmetry_cell_setting 'orthorhombic'
loop_
_space_group_symop_operation_xyz
x,y,z
1/2-x,1/2-y,z
1/2+x,-y,-z
-x,1/2+y,-z
-x,-y,-z
1/2+x,1/2+y,-z
1/2-x,y,z
x,1/2-y,z
loop_
_atom_site_type_symbol
_atom_site_label
_atom_site_fract_x
_atom_site_fract_y
_atom_site_fract_z
Si Si1 0.421781 0.078565 0.292012
Si Si2 0.919920 0.076105 0.039125
Si Si3 0.424071 0.419912 0.460849
Si Si4 0.083757 0.074659 0.124074
Si Si5 0.916238 0.425460 0.207231
Si Si6 0.925210 0.083910 0.623620
O O1 0.250000 0.048529 0.284329
O O2 0.452598 0.250000 0.300056
O O3 0.507150 0.017976 0.250573
O O4 0.483945 0.991704 0.333077
O O5 0.750000 0.028559 0.039925
O O6 0.938013 0.250000 0.034283
O O7 0.994777 0.018799 0.082741
O O8 0.000000 0.000000 0.000000
O O9 0.500000 0.500000 0.500000
O O10 0.250000 0.439331 0.465270
O O11 0.470837 0.250000 0.460482
O O12 0.483494 0.493275 0.417166
O O13 0.250000 0.012975 0.122060
O O14 0.084595 0.250000 0.125544
O O15 0.004768 0.011366 0.166472
O O16 0.750000 0.485829 0.205480
O O17 0.918549 0.250000 0.206106
O O18 0.750000 0.081565 0.624011
O O19 0.986280 0.250000 0.620952
#
# Coordination Sequence:
#
# PCOD8242740 Si02
#       6
#     8   8   8   8   8   8
#     4   9  16  27  45  68  91 116 150 192 236 283
#     4  10  20  33  50  73 101 133 169 209 254 304
#     4  10  20  34  53  77 104 134 169 209 253 301
#     4   9  16  27  45  69  96 126 161 202 247 294
#     4   9  16  26  42  66  95 123 152 191 240 291
#     4   9  17  30  49  71  95 126 164 203 242 287
#
# _framework density 18.658166000000001
#
# number of rings (size 3 to 8) (size 9 to 14) (size 15 to 20)
#    0.000    2.667    0.000    2.500    0.000    8.000 
#    0.000    0.833    0.000    4.500    0.000    2.333 
#    0.000    0.000    0.000    0.000    0.000    0.000 
#
# Total GULP energy -595224.651798 kJ/mol
# GULP energy per Si atom -12400.513579 kJ/mol
# Density = 1.861570 g / cm^3
# Si number density = 18.658166 Si / 1000 Ang^3
#
#
#
# Elastic Constant Matrix: (Units=GPa)
#
#
# Indices 1 2 3 4 5 6 
#
# 1 109.0445 36.6496 84.6290 0.0000 0.0000 0.0000
# 2 36.6496 69.7420 64.4733 0.0000 0.0000 0.0000
# 3 84.6290 64.4733 217.9530 0.0000 0.0000 0.0000
# 4 0.0000 0.0000 0.0000 27.9963 0.0000 0.0000
# 5 0.0000 0.0000 0.0000 0.0000 36.3116 0.0000
# 6 0.0000 0.0000 0.0000 0.0000 0.0000 16.3673
#
#
#
# Elastic Compliance Matrix: (Units=1/GPa)
#
#
# Indices 1 2 3 4 5 6 
#
# 1 0.013602 -0.003118 -0.004359 0.000000 0.000000 0.000000
# 2 -0.003118 0.020450 -0.004839 0.000000 0.000000 0.000000
# 3 -0.004359 -0.004839 0.007712 0.000000 0.000000 0.000000
# 4 0.000000 0.000000 0.000000 0.035719 0.000000 0.000000
# 5 0.000000 0.000000 0.000000 0.000000 0.027539 0.000000
# 6 0.000000 0.000000 0.000000 0.000000 0.000000 0.061097
#
#
# Mechanical properties :
#
#
# Convention : Reuss Voigt Hill
#
# Bulk Modulus (GPa) = 58.36889 85.36038 71.86464
# Shear Modulus (GPa) = 25.45023 30.20089 27.82556
#
# Velocity S-wave (km/s) = 3.69728 4.02760 3.86597
# Velocity P-wave (km/s) = 7.04114 8.21448 7.65034
#
# Compressibility (1/GPa) = 0.01713241
#
# Stress axis : x y z
#
# Youngs Moduli (GPa) = 73.52130 48.89903 129.66661
#
# Poissons Ratio (x) = 0.15246 0.56522
# Poissons Ratio (y) = 0.22923 0.62743
# Poissons Ratio (z) = 0.32048 0.23661
#
# Static dielectric constant tensor:
#      x y z
#    x 3.469040 0.000000 0.000000 
#    y 0.000000 3.133390 0.000000 
#    z 0.000000 0.000000 3.769590 
# 
# 
# High freq. dielectric constant tensor:
#      x y z
#    x 1.711270 0.000000 0.000000 
#    y 0.000000 1.685560 0.000000 
#    z 0.000000 0.000000 1.745000 
# 
# From -- ./inp_files/32869.got.cif
#   From: 2010.03.12/outbox.cif.g09.slc.cpg/sg59_17_cif.got.tgz:32869.got - 2010.04.16 16:29:54.
