data_PCOD8242427
_publ_section_title
;
Structure prediction by ZEFSAII (Michael W. Deem and Ramdas Pophale) SiO2 
 PCOD8242427
Probable space group: P M M N
;
_chemical_formula_sum "Si O2"
_cell_formula_units_Z 64
_cell_length_a 14.703955
_cell_length_b 8.952993
_cell_length_c 26.188141
_cell_angle_alpha 90.000000
_cell_angle_beta 90.000000
_cell_angle_gamma 90.000000
_cell_volume 3447.522271
_symmetry_space_group_name_H-M "P M M N"
_symmetry_group_IT_number 59
_space_group.IT_coordinate_system_code '2'
_symmetry_cell_setting 'orthorhombic'
loop_
_space_group_symop_operation_xyz
x,y,z
1/2-x,1/2-y,z
1/2+x,-y,-z
-x,1/2+y,-z
-x,-y,-z
1/2+x,1/2+y,-z
1/2-x,y,z
x,1/2-y,z
loop_
_atom_site_type_symbol
_atom_site_label
_atom_site_fract_x
_atom_site_fract_y
_atom_site_fract_z
Si Si1 0.001657 0.425519 0.054514
Si Si2 0.644053 0.923243 0.502291
Si Si3 0.146138 0.076623 0.136207
Si Si4 0.857081 0.421783 0.761298
Si Si5 0.988240 0.927397 0.686326
Si Si6 0.149084 0.927400 0.870033
Si Si7 0.149273 0.572430 0.756517
Si Si8 0.989512 0.423612 0.577752
O O1 0.991630 0.250000 0.046570
O O2 0.919358 0.493078 0.088101
O O3 0.093565 0.467116 0.084653
O O4 0.000000 0.500000 0.000000
O O5 0.750000 0.969975 0.493660
O O6 0.637728 0.750000 0.518100
O O7 0.584865 0.952927 0.451392
O O8 0.599049 0.021269 0.546825
O O9 0.250000 0.034671 0.125433
O O10 0.132224 0.250000 0.149422
O O11 0.107371 0.987060 0.184810
O O12 0.750000 0.445364 0.757215
O O13 0.885678 0.250000 0.758025
O O14 0.899000 0.509994 0.713799
O O15 0.983680 0.750000 0.686220
O O16 0.076365 0.989939 0.716450
O O17 0.994735 0.984167 0.629206
O O18 0.250000 0.979566 0.885470
O O19 0.141658 0.750000 0.869355
O O20 0.124663 0.986807 0.813316
O O21 0.250000 0.515573 0.740790
O O22 0.147956 0.750000 0.756733
O O23 0.975668 0.250000 0.589660
#
# Coordination Sequence:
#
# PCOD8242427 Si02
#       8
#     8   8   8   8   8   8   8   8
#     4  10  20  32  47  70  97 126 162 203 249 300
#     4   9  19  38  61  80 102 138 181 221 263 311
#     4   9  18  34  54  73  96 129 168 209 255 309
#     4  10  21  36  54  77 104 135 173 216 261 309
#     4  11  21  33  53  80 111 144 173 207 253 306
#     4   8  14  27  47  68  91 121 158 199 240 285
#     4   8  15  29  50  76 102 129 166 209 250 297
#     4  10  21  36  54  80 111 140 174 217 262 306
#
# _framework density 18.564057999999999
#
# number of rings (size 3 to 8) (size 9 to 14) (size 15 to 20)
#    0.000    2.625    0.000    2.625    0.000    5.500 
#    0.000    0.000    0.000    1.125    0.000    3.500 
#    0.000    0.000    0.000    0.000    0.000    0.000 
#
# Total GULP energy -793483.390213 kJ/mol
# GULP energy per Si atom -12398.177972 kJ/mol
# Density = 1.852181 g / cm^3
# Si number density = 18.564058 Si / 1000 Ang^3
#
#
#
# Elastic Constant Matrix: (Units=GPa)
#
#
# Indices 1 2 3 4 5 6 
#
# 1 111.9485 41.0452 65.3792 0.0000 0.0000 0.0000
# 2 41.0452 63.0300 50.2331 0.0000 0.0000 0.0000
# 3 65.3792 50.2331 138.6079 0.0000 0.0000 0.0000
# 4 0.0000 0.0000 0.0000 33.4013 0.0000 0.0000
# 5 0.0000 0.0000 0.0000 0.0000 19.3030 0.0000
# 6 0.0000 0.0000 0.0000 0.0000 0.0000 19.0656
#
#
#
# Elastic Compliance Matrix: (Units=1/GPa)
#
#
# Indices 1 2 3 4 5 6 
#
# 1 0.013442 -0.005203 -0.004455 0.000000 0.000000 0.000000
# 2 -0.005203 0.024323 -0.006361 0.000000 0.000000 0.000000
# 3 -0.004455 -0.006361 0.011621 0.000000 0.000000 0.000000
# 4 0.000000 0.000000 0.000000 0.029939 0.000000 0.000000
# 5 0.000000 0.000000 0.000000 0.000000 0.051805 0.000000
# 6 0.000000 0.000000 0.000000 0.000000 0.000000 0.052451
#
#
# Mechanical properties :
#
#
# Convention : Reuss Voigt Hill
#
# Bulk Modulus (GPa) = 57.64046 69.65571 63.64808
# Shear Modulus (GPa) = 22.58346 24.81592 23.69969
#
# Velocity S-wave (km/s) = 3.49164 3.66016 3.57689
# Velocity P-wave (km/s) = 6.88276 7.44752 7.17070
#
# Compressibility (1/GPa) = 0.01734893
#
# Stress axis : x y z
#
# Youngs Moduli (GPa) = 74.39389 41.11321 86.05124
#
# Poissons Ratio (x) = 0.21392 0.38333
# Poissons Ratio (y) = 0.38708 0.54735
# Poissons Ratio (z) = 0.33140 0.26151
#
# Static dielectric constant tensor:
#      x y z
#    x 3.728090 0.000000 0.000000 
#    y 0.000000 3.190150 0.000000 
#    z 0.000000 0.000000 3.444950 
# 
# 
# High freq. dielectric constant tensor:
#      x y z
#    x 1.730800 0.000000 0.000000 
#    y 0.000000 1.695370 0.000000 
#    z 0.000000 0.000000 1.720110 
# 
# From -- ./inp_files/32166.got.cif
#   From: 2010.03.12/outbox.cif.g09.slc.cpg/sg59_17_cif.got.tgz:32166.got - 2010.04.16 16:29:54.
