data_PCOD8242585
_publ_section_title
;
Structure prediction by ZEFSAII (Michael W. Deem and Ramdas Pophale) SiO2 
 PCOD8242585
Probable space group: P M M N
;
_chemical_formula_sum "Si O2"
_cell_formula_units_Z 48
_cell_length_a 8.579473
_cell_length_b 16.275948
_cell_length_c 17.201001
_cell_angle_alpha 90.000000
_cell_angle_beta 90.000000
_cell_angle_gamma 90.000000
_cell_volume 2401.931549
_symmetry_space_group_name_H-M "P M M N"
_symmetry_group_IT_number 59
_space_group.IT_coordinate_system_code '2'
_symmetry_cell_setting 'orthorhombic'
loop_
_space_group_symop_operation_xyz
x,y,z
1/2-x,1/2-y,z
1/2+x,-y,-z
-x,1/2+y,-z
-x,-y,-z
1/2+x,1/2+y,-z
1/2-x,y,z
x,1/2-y,z
loop_
_atom_site_type_symbol
_atom_site_label
_atom_site_fract_x
_atom_site_fract_y
_atom_site_fract_z
Si Si1 0.064378 0.341801 0.485296
Si Si2 0.065512 0.410498 0.020673
Si Si3 0.933793 0.930275 0.666412
Si Si4 0.569100 0.750000 0.232635
Si Si5 0.067394 0.750000 0.064787
Si Si6 0.064937 0.158814 0.182702
Si Si7 0.932887 0.603065 0.347270
O O1 0.250000 0.342696 0.487112
O O2 0.002973 0.250000 0.470682
O O3 0.997027 0.398103 0.415660
O O4 0.000289 0.373036 0.567949
O O5 0.250000 0.411706 0.009942
O O6 0.002934 0.334368 0.969623
O O7 0.013627 0.395943 0.109570
O O8 0.000000 0.500000 0.000000
O O9 0.750000 0.919643 0.665045
O O10 0.004846 0.878639 0.738019
O O11 0.978368 0.023355 0.681585
O O12 0.750000 0.750000 0.208257
O O13 0.463470 0.750000 0.156656
O O14 0.526977 0.828182 0.284642
O O15 0.250000 0.750000 0.048489
O O16 0.250000 0.162417 0.187527
O O17 0.995973 0.250000 0.171858
O O18 0.750000 0.586150 0.352089
#
# Coordination Sequence:
#
# PCOD8242585 Si02
#       7
#     8   8   8   4   4   8   8
#     4   9  16  31  55  81 110 148 194 234 275 339
#     4  11  23  42  66  93 127 164 204 253 309 371
#     4  10  20  32  55  87 115 145 188 238 286 339
#     4  10  22  40  60  81 110 154 198 241 298 356
#     4  12  26  44  66  93 122 158 208 261 314 374
#     4   9  18  36  60  85 115 151 190 236 288 345
#     4  10  20  36  56  79 112 152 192 236 288 347
#
# _framework density 19.983916000000001
#
# number of rings (size 3 to 8) (size 9 to 14) (size 15 to 20)
#    0.000    2.000    1.667    2.250    2.333    2.667 
#    0.000    0.833    0.000    2.500    0.000    0.000 
#    0.000    0.000    0.000    0.000    0.000    0.000 
#
# Total GULP energy -595137.003115 kJ/mol
# GULP energy per Si atom -12398.687565 kJ/mol
# Density = 1.993843 g / cm^3
# Si number density = 19.983916 Si / 1000 Ang^3
#
#
#
# Elastic Constant Matrix: (Units=GPa)
#
#
# Indices 1 2 3 4 5 6 
#
# 1 40.0259 28.2374 32.9727 0.0000 0.0000 0.0000
# 2 28.2374 168.5044 72.0575 0.0000 0.0000 0.0000
# 3 32.9727 72.0575 158.4014 0.0000 0.0000 0.0000
# 4 0.0000 0.0000 0.0000 37.2109 0.0000 0.0000
# 5 0.0000 0.0000 0.0000 0.0000 16.7379 0.0000
# 6 0.0000 0.0000 0.0000 0.0000 0.0000 28.0982
#
#
#
# Elastic Compliance Matrix: (Units=1/GPa)
#
#
# Indices 1 2 3 4 5 6 
#
# 1 0.031376 -0.003060 -0.005139 0.000000 0.000000 0.000000
# 2 -0.003060 0.007666 -0.002850 0.000000 0.000000 0.000000
# 3 -0.005139 -0.002850 0.008680 0.000000 0.000000 0.000000
# 4 0.000000 0.000000 0.000000 0.026874 0.000000 0.000000
# 5 0.000000 0.000000 0.000000 0.000000 0.059745 0.000000
# 6 0.000000 0.000000 0.000000 0.000000 0.000000 0.035589
#
#
# Mechanical properties :
#
#
# Convention : Reuss Voigt Hill
#
# Bulk Modulus (GPa) = 39.02824 70.38523 54.70673
# Shear Modulus (GPa) = 24.92885 31.98700 28.45793
#
# Velocity S-wave (km/s) = 3.53575 4.00514 3.77774
# Velocity P-wave (km/s) = 6.02005 7.52898 6.81640
#
# Compressibility (1/GPa) = 0.02562247
#
# Stress axis : x y z
#
# Youngs Moduli (GPa) = 31.87113 130.44072 115.21399
#
# Poissons Ratio (x) = 0.39919 0.59210
# Poissons Ratio (y) = 0.09754 0.32841
# Poissons Ratio (z) = 0.16379 0.37181
#
# Static dielectric constant tensor:
#      x y z
#    x 3.198650 0.000000 0.000000 
#    y 0.000000 3.779730 0.000000 
#    z 0.000000 0.000000 3.963870 
# 
# 
# High freq. dielectric constant tensor:
#      x y z
#    x 1.738000 0.000000 0.000000 
#    y 0.000000 1.795220 0.000000 
#    z 0.000000 0.000000 1.798030 
# 
# From -- ./inp_files/25617.got.cif
#   From: 2010.03.12/outbox.cif.g09.slc.cpg/sg59_13_cif.got.tgz:25617.got - 2010.04.16 16:29:54.
