data_PCOD8242218
_publ_section_title
;
Structure prediction by ZEFSAII (Michael W. Deem and Ramdas Pophale) SiO2 
 PCOD8242218
Probable space group: P M M N
;
_chemical_formula_sum "Si O2"
_cell_formula_units_Z 40
_cell_length_a 18.825657
_cell_length_b 8.985008
_cell_length_c 12.428808
_cell_angle_alpha 90.000000
_cell_angle_beta 90.000000
_cell_angle_gamma 90.000000
_cell_volume 2102.316452
_symmetry_space_group_name_H-M "P M M N"
_symmetry_group_IT_number 59
_space_group.IT_coordinate_system_code '2'
_symmetry_cell_setting 'orthorhombic'
loop_
_space_group_symop_operation_xyz
x,y,z
1/2-x,1/2-y,z
1/2+x,-y,-z
-x,1/2+y,-z
-x,-y,-z
1/2+x,1/2+y,-z
1/2-x,y,z
x,1/2-y,z
loop_
_atom_site_type_symbol
_atom_site_label
_atom_site_fract_x
_atom_site_fract_y
_atom_site_fract_z
Si Si1 0.932133 0.073461 0.053971
Si Si2 0.059196 0.926448 0.703257
Si Si3 0.330554 0.925967 0.529025
Si Si4 0.900675 0.924657 0.670583
Si Si5 0.832287 0.922244 0.896307
O O1 0.940721 0.250000 0.048814
O O2 0.926208 0.015472 0.176465
O O3 0.861052 0.022437 0.993509
O O4 0.000000 0.000000 0.000000
O O5 0.061669 0.750000 0.704160
O O6 0.119130 0.991287 0.623314
O O7 0.982078 0.979528 0.661598
O O8 0.250000 0.973762 0.555254
O O9 0.338092 0.750000 0.521737
O O10 0.352879 0.991425 0.415134
O O11 0.893037 0.750000 0.649708
O O12 0.873027 0.967762 0.788274
O O13 0.750000 0.957708 0.880378
O O14 0.845928 0.750000 0.924033
#
# Coordination Sequence:
#
# PCOD8242218 Si02
#       5
#     8   8   8   8   8
#     4  11  21  37  60  84 113 148 190 233 280 339
#     4   9  19  36  58  80 107 146 187 227 275 335
#     4  10  21  36  54  80 113 144 179 228 280 327
#     4  10  19  36  59  80 107 146 189 228 276 334
#     4  10  21  37  57  83 116 151 187 232 286 335
#
# _framework density 19.026630999999998
#
# number of rings (size 3 to 8) (size 9 to 14) (size 15 to 20)
#    0.000    2.000    2.000    1.800    0.000    3.200 
#    0.000    4.000    0.000    0.000    0.000    0.000 
#    0.000    0.000    0.000    0.000    0.000    0.000 
#
# Total GULP energy -496108.249162 kJ/mol
# GULP energy per Si atom -12402.706229 kJ/mol
# Density = 1.898333 g / cm^3
# Si number density = 19.026631 Si / 1000 Ang^3
#
#
#
# Elastic Constant Matrix: (Units=GPa)
#
#
# Indices 1 2 3 4 5 6 
#
# 1 133.7365 30.7382 48.8262 0.0000 0.0000 0.0000
# 2 30.7382 34.8673 30.0996 0.0000 0.0000 0.0000
# 3 48.8262 30.0996 94.8197 0.0000 0.0000 0.0000
# 4 0.0000 0.0000 0.0000 30.0707 0.0000 0.0000
# 5 0.0000 0.0000 0.0000 0.0000 38.4284 0.0000
# 6 0.0000 0.0000 0.0000 0.0000 0.0000 28.1174
#
#
#
# Elastic Compliance Matrix: (Units=1/GPa)
#
#
# Indices 1 2 3 4 5 6 
#
# 1 0.010058 -0.006055 -0.003257 0.000000 0.000000 0.000000
# 2 -0.006055 0.043152 -0.010580 0.000000 0.000000 0.000000
# 3 -0.003257 -0.010580 0.015582 0.000000 0.000000 0.000000
# 4 0.000000 0.000000 0.000000 0.033255 0.000000 0.000000
# 5 0.000000 0.000000 0.000000 0.000000 0.026022 0.000000
# 6 0.000000 0.000000 0.000000 0.000000 0.000000 0.035565
#
#
# Mechanical properties :
#
#
# Convention : Reuss Voigt Hill
#
# Bulk Modulus (GPa) = 34.47431 53.63906 44.05668
# Shear Modulus (GPa) = 23.46438 29.57394 26.51916
#
# Velocity S-wave (km/s) = 3.51556 3.94679 3.73740
# Velocity P-wave (km/s) = 5.88534 7.00160 6.46759
#
# Compressibility (1/GPa) = 0.02900711
#
# Stress axis : x y z
#
# Youngs Moduli (GPa) = 99.41996 23.17400 64.17624
#
# Poissons Ratio (x) = 0.14033 0.20903
# Poissons Ratio (y) = 0.60203 0.67898
# Poissons Ratio (z) = 0.32383 0.24518
#
# Static dielectric constant tensor:
#      x y z
#    x 3.739510 0.000000 0.000000 
#    y 0.000000 3.297680 0.000000 
#    z 0.000000 0.000000 3.729330 
# 
# 
# High freq. dielectric constant tensor:
#      x y z
#    x 1.753530 0.000000 0.000000 
#    y 0.000000 1.713110 0.000000 
#    z 0.000000 0.000000 1.749410 
# 
# From -- ./inp_files/13818.got.cif
#   From: 2010.03.12/outbox.cif.g09.slc.cpg/sg59_7_cif.got.tgz:13818.got - 2010.04.16 16:29:54.
