data_PCOD8242587
_publ_section_title
;
Structure prediction by ZEFSAII (Michael W. Deem and Ramdas Pophale) SiO2 
 PCOD8242587
Probable space group: P M M N
;
_chemical_formula_sum "Si O2"
_cell_formula_units_Z 64
_cell_length_a 29.532911
_cell_length_b 9.095744
_cell_length_c 14.817895
_cell_angle_alpha 90.000000
_cell_angle_beta 90.000000
_cell_angle_gamma 90.000000
_cell_volume 3980.439234
_symmetry_space_group_name_H-M "P M M N"
_symmetry_group_IT_number 59
_space_group.IT_coordinate_system_code '2'
_symmetry_cell_setting 'orthorhombic'
loop_
_space_group_symop_operation_xyz
x,y,z
1/2-x,1/2-y,z
1/2+x,-y,-z
-x,1/2+y,-z
-x,-y,-z
1/2+x,1/2+y,-z
1/2-x,y,z
x,1/2-y,z
loop_
_atom_site_type_symbol
_atom_site_label
_atom_site_fract_x
_atom_site_fract_y
_atom_site_fract_z
Si Si1 0.939638 0.419885 0.352772
Si Si2 0.027538 0.579249 0.132519
Si Si3 0.200087 0.577529 0.516963
Si Si4 0.699856 0.582661 0.299788
Si Si5 0.957518 0.921209 0.686242
Si Si6 0.060188 0.580027 0.939727
Si Si7 0.604028 0.078083 0.544162
Si Si8 0.886904 0.578850 0.196167
O O1 0.929703 0.250000 0.329284
O O2 0.917532 0.463870 0.447825
O O3 0.919278 0.521874 0.275502
O O4 0.993295 0.451172 0.356881
O O5 0.018865 0.750000 0.152820
O O6 0.049547 0.502902 0.218786
O O7 0.980402 0.504416 0.108816
O O8 0.061212 0.558005 0.047409
O O9 0.250000 0.520415 0.482350
O O10 0.201825 0.750000 0.528481
O O11 0.188647 0.516671 0.615057
O O12 0.157798 0.536024 0.452641
O O13 0.750000 0.551059 0.261794
O O14 0.694595 0.750000 0.332728
O O15 0.665189 0.547089 0.219955
O O16 0.949102 0.750000 0.702425
O O17 0.919496 0.981503 0.619731
O O18 0.055684 0.750000 0.913446
O O19 0.105244 0.509605 0.896988
O O20 0.596434 0.250000 0.564557
O O21 0.896870 0.750000 0.181217
#
# Coordination Sequence:
#
# PCOD8242587 Si02
#       8
#     8   8   8   8   8   8   8   8
#     4  10  20  33  46  66  97 132 166 201 236 274
#     4  10  20  34  51  71  94 124 160 198 240 283
#     4   9  17  30  49  71  93 122 161 203 246 287
#     4   9  18  31  46  68  98 128 159 198 241 284
#     4  11  22  33  48  69  97 132 167 204 241 281
#     4  10  20  33  50  71  97 125 156 196 238 283
#     4  10  20  33  48  67  96 132 166 202 240 287
#     4  11  20  29  48  73  97 131 166 196 235 288
#
# _framework density 16.078627000000001
#
# number of rings (size 3 to 8) (size 9 to 14) (size 15 to 20)
#    0.000    2.000    2.500    1.875    0.000    3.500 
#    0.000    0.000    0.000    0.000    0.000    0.875 
#    0.000    1.000    0.000    0.000    0.000    0.000 
#
# Total GULP energy -793497.402412 kJ/mol
# GULP energy per Si atom -12398.396913 kJ/mol
# Density = 1.604203 g / cm^3
# Si number density = 16.078627 Si / 1000 Ang^3
#
#
#
# Elastic Constant Matrix: (Units=GPa)
#
#
# Indices 1 2 3 4 5 6 
#
# 1 105.7307 51.6954 52.2044 0.0000 0.0000 0.0000
# 2 51.6954 79.0128 52.7584 0.0000 0.0000 0.0000
# 3 52.2044 52.7584 86.6143 0.0000 0.0000 0.0000
# 4 0.0000 0.0000 0.0000 27.9810 0.0000 0.0000
# 5 0.0000 0.0000 0.0000 0.0000 15.1944 0.0000
# 6 0.0000 0.0000 0.0000 0.0000 0.0000 20.0438
#
#
#
# Elastic Compliance Matrix: (Units=1/GPa)
#
#
# Indices 1 2 3 4 5 6 
#
# 1 0.015193 -0.006449 -0.005229 0.000000 0.000000 0.000000
# 2 -0.006449 0.024070 -0.010775 0.000000 0.000000 0.000000
# 3 -0.005229 -0.010775 0.021260 0.000000 0.000000 0.000000
# 4 0.000000 0.000000 0.000000 0.035739 0.000000 0.000000
# 5 0.000000 0.000000 0.000000 0.000000 0.065814 0.000000
# 6 0.000000 0.000000 0.000000 0.000000 0.000000 0.049891
#
#
# Mechanical properties :
#
#
# Convention : Reuss Voigt Hill
#
# Bulk Modulus (GPa) = 64.02831 64.96380 64.49605
# Shear Modulus (GPa) = 19.07843 20.29047 19.68445
#
# Velocity S-wave (km/s) = 3.44840 3.55625 3.50274
# Velocity P-wave (km/s) = 7.46751 7.57325 7.52057
#
# Compressibility (1/GPa) = 0.01561809
#
# Stress axis : x y z
#
# Youngs Moduli (GPa) = 65.82075 41.54619 47.03645
#
# Poissons Ratio (x) = 0.26791 0.24596
# Poissons Ratio (y) = 0.42445 0.50680
# Poissons Ratio (z) = 0.34418 0.44764
#
# Static dielectric constant tensor:
#      x y z
#    x 3.298270 0.000000 0.000000 
#    y 0.000000 3.150910 0.000000 
#    z 0.000000 0.000000 3.008140 
# 
# 
# High freq. dielectric constant tensor:
#      x y z
#    x 1.609010 0.000000 0.000000 
#    y 0.000000 1.630180 0.000000 
#    z 0.000000 0.000000 1.596510 
# 
# From -- ./inp_files/21822.got.cif
#   From: 2010.03.12/outbox.cif.g09.slc.cpg/sg59_11_cif.got.tgz:21822.got - 2010.04.16 16:29:54.
