data_PCOD8242466
_publ_section_title
;
Structure prediction by ZEFSAII (Michael W. Deem and Ramdas Pophale) SiO2 
 PCOD8242466
Probable space group: P M M N
;
_chemical_formula_sum "Si O2"
_cell_formula_units_Z 48
_cell_length_a 8.264035
_cell_length_b 9.835603
_cell_length_c 29.255685
_cell_angle_alpha 90.000000
_cell_angle_beta 90.000000
_cell_angle_gamma 90.000000
_cell_volume 2377.953784
_symmetry_space_group_name_H-M "P M M N"
_symmetry_group_IT_number 59
_space_group.IT_coordinate_system_code '2'
_symmetry_cell_setting 'orthorhombic'
loop_
_space_group_symop_operation_xyz
x,y,z
1/2-x,1/2-y,z
1/2+x,-y,-z
-x,1/2+y,-z
-x,-y,-z
1/2+x,1/2+y,-z
1/2-x,y,z
x,1/2-y,z
loop_
_atom_site_type_symbol
_atom_site_label
_atom_site_fract_x
_atom_site_fract_y
_atom_site_fract_z
Si Si1 0.937066 0.250000 0.955648
Si Si2 0.442025 0.093975 0.541136
Si Si3 0.442410 0.597358 0.621131
Si Si4 0.557179 0.598535 0.199513
Si Si5 0.438674 0.005098 0.899543
Si Si6 0.432031 0.250000 0.053151
Si Si7 0.057607 0.598157 0.723013
O O1 0.750000 0.250000 0.940762
O O2 0.030701 0.379060 0.936487
O O3 0.946103 0.250000 0.010490
O O4 0.250000 0.099292 0.541236
O O5 0.509868 0.250000 0.538363
O O6 0.500000 0.000000 0.500000
O O7 0.508531 0.018327 0.586722
O O8 0.250000 0.598850 0.620024
O O9 0.504106 0.750000 0.607635
O O10 0.503812 0.559447 0.672102
O O11 0.750000 0.596775 0.200443
O O12 0.491231 0.750000 0.208032
O O13 0.496747 0.548669 0.150200
O O14 0.483548 0.504023 0.239515
O O15 0.250000 0.968122 0.898280
O O16 0.541804 0.877254 0.914356
O O17 0.250000 0.250000 0.034003
O O18 0.250000 0.590662 0.724094
O O19 0.999573 0.750000 0.735500
#
# Coordination Sequence:
#
# PCOD8242466 Si02
#       7
#     4   8   8   8   8   4   8
#     4  12  24  42  64  86 114 150 186 226 277 330
#     4  10  20  32  48  72 102 139 183 227 275 327
#     4   8  14  26  43  66 100 138 172 215 270 322
#     4   9  17  29  47  74 107 140 172 212 262 315
#     4  11  22  39  60  86 117 149 184 227 276 329
#     4  12  26  42  60  86 114 146 188 232 277 332
#     4   8  14  24  42  70 104 138 172 212 264 319
#
# _framework density 20.185421999999999
#
# number of rings (size 3 to 8) (size 9 to 14) (size 15 to 20)
#    0.000    2.333    0.833    4.000    1.167    1.667 
#    0.000    3.333    0.000    0.000    0.000    2.333 
#    0.000    0.000    0.000    0.000    0.000    0.000 
#
# Total GULP energy -595055.873595 kJ/mol
# GULP energy per Si atom -12396.997367 kJ/mol
# Density = 2.013948 g / cm^3
# Si number density = 20.185422 Si / 1000 Ang^3
#
#
#
# Elastic Constant Matrix: (Units=GPa)
#
#
# Indices 1 2 3 4 5 6 
#
# 1 28.1494 6.1622 6.3601 0.0000 0.0000 0.0000
# 2 6.1622 183.0467 106.1446 0.0000 0.0000 0.0000
# 3 6.3601 106.1446 166.7545 0.0000 0.0000 0.0000
# 4 0.0000 0.0000 0.0000 46.1677 0.0000 0.0000
# 5 0.0000 0.0000 0.0000 0.0000 17.4651 0.0000
# 6 0.0000 0.0000 0.0000 0.0000 0.0000 20.1770
#
#
#
# Elastic Compliance Matrix: (Units=1/GPa)
#
#
# Indices 1 2 3 4 5 6 
#
# 1 0.035883 -0.000657 -0.000951 0.000000 0.000000 0.000000
# 2 -0.000657 0.008671 -0.005495 0.000000 0.000000 0.000000
# 3 -0.000951 -0.005495 0.009531 0.000000 0.000000 0.000000
# 4 0.000000 0.000000 0.000000 0.021660 0.000000 0.000000
# 5 0.000000 0.000000 0.000000 0.000000 0.057257 0.000000
# 6 0.000000 0.000000 0.000000 0.000000 0.000000 0.049561
#
#
# Mechanical properties :
#
#
# Convention : Reuss Voigt Hill
#
# Bulk Modulus (GPa) = 25.07430 68.36492 46.71961
# Shear Modulus (GPa) = 23.80254 34.04752 28.92503
#
# Velocity S-wave (km/s) = 3.43767 4.11145 3.78956
# Velocity P-wave (km/s) = 5.31090 7.51536 6.50716
#
# Compressibility (1/GPa) = 0.03988148
#
# Stress axis : x y z
#
# Youngs Moduli (GPa) = 27.86809 115.32214 104.92575
#
# Poissons Ratio (x) = 0.07575 0.09973
# Poissons Ratio (y) = 0.01830 0.57652
# Poissons Ratio (z) = 0.02649 0.63364
#
# Static dielectric constant tensor:
#      x y z
#    x 3.026640 0.000000 0.000000 
#    y 0.000000 4.378430 0.000000 
#    z 0.000000 0.000000 3.952480 
# 
# 
# High freq. dielectric constant tensor:
#      x y z
#    x 1.736970 0.000000 0.000000 
#    y 0.000000 1.798690 0.000000 
#    z 0.000000 0.000000 1.798840 
# 
# From -- ./inp_files/33088.got.cif
#   From: 2010.03.12/outbox.cif.g09.slc.cpg/sg59_17_cif.got.tgz:33088.got - 2010.04.16 16:29:54.
