data_PCOD8242764
_publ_section_title
;
Structure prediction by ZEFSAII (Michael W. Deem and Ramdas Pophale) SiO2 
 PCOD8242764
Probable space group: P M M N
;
_chemical_formula_sum "Si O2"
_cell_formula_units_Z 48
_cell_length_a 9.335029
_cell_length_b 9.025237
_cell_length_c 30.928733
_cell_angle_alpha 90.000000
_cell_angle_beta 90.000000
_cell_angle_gamma 90.000000
_cell_volume 2605.772018
_symmetry_space_group_name_H-M "P M M N"
_symmetry_group_IT_number 59
_space_group.IT_coordinate_system_code '2'
_symmetry_cell_setting 'orthorhombic'
loop_
_space_group_symop_operation_xyz
x,y,z
1/2-x,1/2-y,z
1/2+x,-y,-z
-x,1/2+y,-z
-x,-y,-z
1/2+x,1/2+y,-z
1/2-x,y,z
x,1/2-y,z
loop_
_atom_site_type_symbol
_atom_site_label
_atom_site_fract_x
_atom_site_fract_y
_atom_site_fract_z
Si Si1 0.420262 0.582951 0.875355
Si Si2 0.584093 0.922614 0.210135
Si Si3 0.908435 0.574270 0.619326
Si Si4 0.585933 0.425647 0.461656
Si Si5 0.081208 0.081084 0.284298
Si Si6 0.918214 0.577563 0.038607
O O1 0.250000 0.580534 0.874709
O O2 0.479968 0.750000 0.877913
O O3 0.478473 0.507203 0.831718
O O4 0.475733 0.492263 0.916731
O O5 0.750000 0.961278 0.217426
O O6 0.560387 0.750000 0.202121
O O7 0.498837 0.972353 0.252132
O O8 0.750000 0.509320 0.608960
O O9 0.898964 0.750000 0.618521
O O10 0.958442 0.526147 0.667253
O O11 0.020392 0.516447 0.583684
O O12 0.500000 0.500000 0.500000
O O13 0.750000 0.477452 0.463616
O O14 0.571399 0.250000 0.465832
O O15 0.250000 0.069175 0.276802
O O16 0.029573 0.250000 0.276756
O O17 0.750000 0.549019 0.032722
O O18 0.955691 0.750000 0.039012
O O19 0.000000 0.500000 0.000000
#
# Coordination Sequence:
#
# PCOD8242764 Si02
#       6
#     8   8   8   8   8   8
#     4   9  17  31  52  75  99 131 170 210 253 300
#     4  10  20  33  50  74 103 133 166 204 246 295
#     4   8  15  30  51  72  96 128 165 205 249 296
#     4  10  20  33  51  76 103 132 168 208 251 300
#     4   9  18  33  53  76 100 128 164 205 250 300
#     4  10  20  34  53  77 105 136 170 210 256 305
#
# _framework density 18.420643999999999
#
# number of rings (size 3 to 8) (size 9 to 14) (size 15 to 20)
#    0.000    2.667    0.000    3.000    0.000    6.000 
#    0.000    3.333    0.000    6.000    0.000    0.000 
#    0.000    0.000    0.000    0.000    0.000    0.000 
#
# Total GULP energy -595179.104550 kJ/mol
# GULP energy per Si atom -12399.564678 kJ/mol
# Density = 1.837872 g / cm^3
# Si number density = 18.420644 Si / 1000 Ang^3
#
#
#
# Elastic Constant Matrix: (Units=GPa)
#
#
# Indices 1 2 3 4 5 6 
#
# 1 70.7649 38.1868 69.4758 0.0000 0.0000 0.0000
# 2 38.1868 84.6983 63.5336 0.0000 0.0000 0.0000
# 3 69.4758 63.5336 179.4915 0.0000 0.0000 0.0000
# 4 0.0000 0.0000 0.0000 35.1892 0.0000 0.0000
# 5 0.0000 0.0000 0.0000 0.0000 33.8329 0.0000
# 6 0.0000 0.0000 0.0000 0.0000 0.0000 24.8658
#
#
#
# Elastic Compliance Matrix: (Units=1/GPa)
#
#
# Indices 1 2 3 4 5 6 
#
# 1 0.024449 -0.005343 -0.007572 0.000000 0.000000 0.000000
# 2 -0.005343 0.017242 -0.004035 0.000000 0.000000 0.000000
# 3 -0.007572 -0.004035 0.009931 0.000000 0.000000 0.000000
# 4 0.000000 0.000000 0.000000 0.028418 0.000000 0.000000
# 5 0.000000 0.000000 0.000000 0.000000 0.029557 0.000000
# 6 0.000000 0.000000 0.000000 0.000000 0.000000 0.040216
#
#
# Mechanical properties :
#
#
# Convention : Reuss Voigt Hill
#
# Bulk Modulus (GPa) = 56.42940 75.26080 65.84510
# Shear Modulus (GPa) = 26.36859 29.69481 28.03170
#
# Velocity S-wave (km/s) = 3.78758 4.01938 3.90520
# Velocity P-wave (km/s) = 7.05889 7.90481 7.49380
#
# Compressibility (1/GPa) = 0.01772126
#
# Stress axis : x y z
#
# Youngs Moduli (GPa) = 40.90198 57.99711 100.69943
#
# Poissons Ratio (x) = 0.30987 0.76252
# Poissons Ratio (y) = 0.21853 0.40633
# Poissons Ratio (z) = 0.30972 0.23402
#
# Static dielectric constant tensor:
#      x y z
#    x 3.129840 0.000000 0.000000 
#    y 0.000000 3.328270 0.000000 
#    z 0.000000 0.000000 3.691540 
# 
# 
# High freq. dielectric constant tensor:
#      x y z
#    x 1.691760 0.000000 0.000000 
#    y 0.000000 1.701900 0.000000 
#    z 0.000000 0.000000 1.731730 
# 
# From -- ./inp_files/31866.got.cif
#   From: 2010.03.12/outbox.cif.g09.slc.cpg/sg59_16_cif.got.tgz:31866.got - 2010.04.16 16:29:54.
