data_PCOD8242358
_publ_section_title
;
Structure prediction by ZEFSAII (Michael W. Deem and Ramdas Pophale) SiO2 
 PCOD8242358
Probable space group: P M M N
;
_chemical_formula_sum "Si O2"
_cell_formula_units_Z 64
_cell_length_a 9.363061
_cell_length_b 24.982130
_cell_length_c 17.590064
_cell_angle_alpha 90.000000
_cell_angle_beta 90.000000
_cell_angle_gamma 90.000000
_cell_volume 4114.477923
_symmetry_space_group_name_H-M "P M M N"
_symmetry_group_IT_number 59
_space_group.IT_coordinate_system_code '2'
_symmetry_cell_setting 'orthorhombic'
loop_
_space_group_symop_operation_xyz
x,y,z
1/2-x,1/2-y,z
1/2+x,-y,-z
-x,1/2+y,-z
-x,-y,-z
1/2+x,1/2+y,-z
1/2-x,y,z
x,1/2-y,z
loop_
_atom_site_type_symbol
_atom_site_label
_atom_site_fract_x
_atom_site_fract_y
_atom_site_fract_z
Si Si1 0.915164 0.312707 0.690349
Si Si2 0.408155 0.686423 0.139247
Si Si3 0.917025 0.606067 0.407953
Si Si4 0.419357 0.689711 0.691404
Si Si5 0.910454 0.611825 0.586708
Si Si6 0.909848 0.813964 0.999736
Si Si7 0.591416 0.313575 0.140345
Si Si8 0.416049 0.993667 0.422446
O O1 0.750000 0.326948 0.672982
O O2 0.941329 0.250000 0.679332
O O3 0.955559 0.330872 0.776154
O O4 0.021904 0.342017 0.633511
O O5 0.250000 0.664090 0.121420
O O6 0.404303 0.750000 0.135267
O O7 0.515315 0.663319 0.075866
O O8 0.750000 0.598598 0.389712
O O9 0.944653 0.613452 0.497314
O O10 0.004778 0.554095 0.376804
O O11 0.250000 0.688032 0.685997
O O12 0.474296 0.750000 0.675413
O O13 0.481606 0.650490 0.628864
O O14 0.467185 0.670749 0.775951
O O15 0.750000 0.632337 0.601387
O O16 0.927250 0.551221 0.619459
O O17 0.750000 0.836453 0.998743
O O18 0.911972 0.750000 0.999558
O O19 0.988486 0.836798 0.924865
O O20 0.750000 0.337297 0.127262
O O21 0.599511 0.250000 0.135005
O O22 0.250000 0.979020 0.437153
O O23 0.500000 0.000000 0.500000
#
# Coordination Sequence:
#
# PCOD8242358 Si02
#       8
#     8   8   8   8   8   8   8   8
#     4   9  18  31  45  62  86 118 152 181 213 255
#     4   8  14  25  39  54  76 108 142 173 207 248
#     4  10  20  32  46  65  87 113 145 180 221 262
#     4   9  18  30  43  61  85 115 149 179 208 248
#     4   9  19  32  45  63  85 110 140 176 219 260
#     4   9  15  21  33  55  78 102 136 173 208 246
#     4   8  14  25  38  52  75 107 140 172 205 242
#     4   9  17  31  49  67  85 105 136 179 224 265
#
# _framework density 15.554829
#
# number of rings (size 3 to 8) (size 9 to 14) (size 15 to 20)
#    0.000    3.125    0.000    3.375    0.000    6.500 
#    0.000    5.000    0.000    0.000    0.000    0.000 
#    0.000    1.000    0.000    3.250    0.000    4.375 
#
# Total GULP energy -793147.135776 kJ/mol
# GULP energy per Si atom -12392.923997 kJ/mol
# Density = 1.551943 g / cm^3
# Si number density = 15.554829 Si / 1000 Ang^3
#
#
#
# Elastic Constant Matrix: (Units=GPa)
#
#
# Indices 1 2 3 4 5 6 
#
# 1 101.0389 41.4031 53.5356 0.0000 0.0000 0.0000
# 2 41.4031 53.8756 37.0086 0.0000 0.0000 0.0000
# 3 53.5356 37.0086 80.6458 0.0000 0.0000 0.0000
# 4 0.0000 0.0000 0.0000 -0.0752 0.0000 0.0000
# 5 0.0000 0.0000 0.0000 0.0000 23.4326 0.0000
# 6 0.0000 0.0000 0.0000 0.0000 0.0000 22.9607
#
#
#
# Elastic Compliance Matrix: (Units=1/GPa)
#
#
# Indices 1 2 3 4 5 6 
#
# 1 0.017296 -0.007893 -0.007860 0.000000 0.000000 0.000000
# 2 -0.007893 0.030708 -0.008852 0.000000 0.000000 0.000000
# 3 -0.007860 -0.008852 0.021680 0.000000 0.000000 0.000000
# 4 0.000000 0.000000 0.000000-13.296377 0.000000 0.000000
# 5 0.000000 0.000000 0.000000 0.000000 0.042676 0.000000
# 6 0.000000 0.000000 0.000000 0.000000 0.000000 0.043553
#
#
# Mechanical properties :
#
#
# Convention : Reuss Voigt Hill
#
# Bulk Modulus (GPa) = 48.84270 55.49501 52.16886
# Shear Modulus (GPa) = -0.38213 16.17114 7.89450
#
# Velocity S-wave (km/s) = -0.49619 3.22781 2.25528
# Velocity P-wave (km/s) = 5.58034 7.04601 6.35557
#
# Compressibility (1/GPa) = 0.02047389
#
# Stress axis : x y z
#
# Youngs Moduli (GPa) = 57.81729 32.56495 46.12598
#
# Poissons Ratio (x) = 0.25703 0.36253
# Poissons Ratio (y) = 0.45634 0.40832
# Poissons Ratio (z) = 0.45442 0.28828
#
# Static dielectric constant tensor:
#      x y z
#    x 3.127780 0.000000 0.000000 
#    y 0.000000 2.811430 0.000000 
#    z 0.000000 0.000000 3.022840 
# 
# 
# High freq. dielectric constant tensor:
#      x y z
#    x 1.606290 0.000000 0.000000 
#    y 0.000000 1.548440 0.000000 
#    z 0.000000 0.000000 1.586990 
# 
# From -- ./inp_files/26496.got.cif
#   From: 2010.03.12/outbox.cif.g09.slc.cpg/sg59_14_cif.got.tgz:26496.got - 2010.04.16 16:29:54.
