data_PCOD8242161
_publ_section_title
;
Structure prediction by ZEFSAII (Michael W. Deem and Ramdas Pophale) SiO2 
 PCOD8242161
Probable space group: P M M N
;
_chemical_formula_sum "Si O2"
_cell_formula_units_Z 64
_cell_length_a 17.363256
_cell_length_b 31.404312
_cell_length_c 5.364571
_cell_angle_alpha 90.000000
_cell_angle_beta 90.000000
_cell_angle_gamma 90.000000
_cell_volume 2925.199223
_symmetry_space_group_name_H-M "P M M N"
_symmetry_group_IT_number 59
_space_group.IT_coordinate_system_code '2'
_symmetry_cell_setting 'orthorhombic'
loop_
_space_group_symop_operation_xyz
x,y,z
1/2-x,1/2-y,z
1/2+x,-y,-z
-x,1/2+y,-z
-x,-y,-z
1/2+x,1/2+y,-z
1/2-x,y,z
x,1/2-y,z
loop_
_atom_site_type_symbol
_atom_site_label
_atom_site_fract_x
_atom_site_fract_y
_atom_site_fract_z
Si Si1 0.842548 0.498823 0.138277
Si Si2 0.547321 0.797212 0.689297
Si Si3 0.600712 0.907614 0.121061
Si Si4 0.543627 0.360036 0.980184
Si Si5 0.336049 0.627087 0.636433
Si Si6 0.161305 0.953663 0.358058
Si Si7 0.338691 0.366203 0.387168
Si Si8 0.103943 0.702674 0.388377
O O1 0.750000 0.506397 0.132823
O O2 0.890211 0.542040 0.114160
O O3 0.872281 0.469903 0.904863
O O4 0.871116 0.476969 0.394467
O O5 0.568390 0.750000 0.788742
O O6 0.516331 0.826191 0.909420
O O7 0.622519 0.819897 0.577300
O O8 0.483495 0.793360 0.475991
O O9 0.510594 0.893936 0.166546
O O10 0.628198 0.890981 0.851733
O O11 0.650199 0.891616 0.355706
O O12 0.596830 0.386081 0.172571
O O13 0.604580 0.330363 0.836905
O O14 0.250000 0.616546 0.740016
O O15 0.352230 0.597551 0.390988
O O16 0.341842 0.678055 0.587084
O O17 0.250000 0.964998 0.350058
O O18 0.250000 0.358333 0.338228
O O19 0.137168 0.750000 0.327640
#
# Coordination Sequence:
#
# PCOD8242161 Si02
#       8
#     8   8   8   8   8   8   8   8
#     4  10  19  35  59  87 120 164 213 255 298 361
#     4   9  19  36  56  82 118 161 206 248 299 371
#     4  11  22  38  60  90 128 167 211 263 306 367
#     4  10  21  38  62  87 120 167 206 248 322 385
#     4  10  23  41  62  88 121 156 201 264 320 384
#     4   9  20  37  59  87 121 163 204 247 314 378
#     4  11  21  35  57  89 126 167 211 262 310 350
#     4  10  20  38  63  87 115 157 204 248 309 381
#
# _framework density 21.878852999999999
#
# number of rings (size 3 to 8) (size 9 to 14) (size 15 to 20)
#    0.000    2.000    1.250    2.250    1.750    2.500 
#    0.000    1.250    0.000    1.500    0.000    0.000 
#    0.000    0.000    0.000    0.000    0.000    0.000 
#
# Total GULP energy -792977.286980 kJ/mol
# GULP energy per Si atom -12390.270109 kJ/mol
# Density = 2.182906 g / cm^3
# Si number density = 21.878853 Si / 1000 Ang^3
#
#
#
# Elastic Constant Matrix: (Units=GPa)
#
#
# Indices 1 2 3 4 5 6 
#
# 1 60.6134 30.1389 3.9628 0.0000 0.0000 0.0000
# 2 30.1389 145.4205 31.1515 0.0000 0.0000 0.0000
# 3 3.9628 31.1515 97.8374 0.0000 0.0000 0.0000
# 4 0.0000 0.0000 0.0000 25.3144 0.0000 0.0000
# 5 0.0000 0.0000 0.0000 0.0000 13.5390 0.0000
# 6 0.0000 0.0000 0.0000 0.0000 0.0000 25.9544
#
#
#
# Elastic Compliance Matrix: (Units=1/GPa)
#
#
# Indices 1 2 3 4 5 6 
#
# 1 0.018417 -0.003925 0.000504 0.000000 0.000000 0.000000
# 2 -0.003925 0.008216 -0.002457 0.000000 0.000000 0.000000
# 3 0.000504 -0.002457 0.010983 0.000000 0.000000 0.000000
# 4 0.000000 0.000000 0.000000 0.039503 0.000000 0.000000
# 5 0.000000 0.000000 0.000000 0.000000 0.073860 0.000000
# 6 0.000000 0.000000 0.000000 0.000000 0.000000 0.038529
#
#
# Mechanical properties :
#
#
# Convention : Reuss Voigt Hill
#
# Bulk Modulus (GPa) = 38.67042 48.26418 43.46730
# Shear Modulus (GPa) = 23.82254 28.86943 26.34598
#
# Velocity S-wave (km/s) = 3.30334 3.63645 3.47389
# Velocity P-wave (km/s) = 5.68001 6.30391 6.00008
#
# Compressibility (1/GPa) = 0.02585956
#
# Stress axis : x y z
#
# Youngs Moduli (GPa) = 54.29878 121.70776 91.04982
#
# Poissons Ratio (x) = 0.47768 -0.04586
# Poissons Ratio (y) = 0.21311 0.22372
# Poissons Ratio (z) = -0.02735 0.29905
#
# Static dielectric constant tensor:
#      x y z
#    x 3.801060 0.000000 0.000000 
#    y 0.000000 4.129020 0.000000 
#    z 0.000000 0.000000 4.068960 
# 
# 
# High freq. dielectric constant tensor:
#      x y z
#    x 1.837400 0.000000 0.000000 
#    y 0.000000 1.869510 0.000000 
#    z 0.000000 0.000000 1.859040 
# 
# From -- ./inp_files/3056.got.cif
#   From: 2010.03.12/outbox.cif.g09.slc.cpg/sg59_2_cif.got.tgz:3056.got - 2010.04.16 16:29:54.
