data_PCOD8242984
_publ_section_title
;
Structure prediction by ZEFSAII (Michael W. Deem and Ramdas Pophale) SiO2 
 PCOD8242984
Probable space group: P M M N
;
_chemical_formula_sum "Si O2"
_cell_formula_units_Z 64
_cell_length_a 19.626067
_cell_length_b 8.989746
_cell_length_c 19.891716
_cell_angle_alpha 90.000000
_cell_angle_beta 90.000000
_cell_angle_gamma 90.000000
_cell_volume 3509.562237
_symmetry_space_group_name_H-M "P M M N"
_symmetry_group_IT_number 59
_space_group.IT_coordinate_system_code '2'
_symmetry_cell_setting 'orthorhombic'
loop_
_space_group_symop_operation_xyz
x,y,z
1/2-x,1/2-y,z
1/2+x,-y,-z
-x,1/2+y,-z
-x,-y,-z
1/2+x,1/2+y,-z
1/2-x,y,z
x,1/2-y,z
loop_
_atom_site_type_symbol
_atom_site_label
_atom_site_fract_x
_atom_site_fract_y
_atom_site_fract_z
Si Si1 0.824015 0.085732 0.556172
Si Si2 0.672561 0.422635 0.122717
Si Si3 0.547451 0.921273 0.552170
Si Si4 0.672719 0.574688 0.980234
Si Si5 0.041299 0.924527 0.059990
Si Si6 0.541137 0.925058 0.706889
Si Si7 0.050650 0.075861 0.811701
Si Si8 0.675471 0.416771 0.715338
O O1 0.750000 0.047567 0.525580
O O2 0.847525 0.250000 0.532159
O O3 0.819564 0.083908 0.635836
O O4 0.875916 0.961971 0.530176
O O5 0.750000 0.441411 0.148742
O O6 0.655263 0.250000 0.109659
O O7 0.622054 0.491199 0.177793
O O8 0.661183 0.513281 0.054660
O O9 0.534978 0.750000 0.543964
O O10 0.534350 0.972001 0.628844
O O11 0.500000 0.000000 0.500000
O O12 0.750000 0.539417 0.955363
O O13 0.658746 0.750000 0.981317
O O14 0.617155 0.494963 0.932616
O O15 0.047687 0.750000 0.045564
O O16 0.001625 0.958306 0.128331
O O17 0.000000 0.000000 0.000000
O O18 0.533377 0.750000 0.717706
O O19 0.480908 0.012029 0.743510
O O20 0.614616 0.973803 0.737683
O O21 0.065147 0.250000 0.803869
O O22 0.750000 0.468919 0.743743
O O23 0.659091 0.250000 0.741788
#
# Coordination Sequence:
#
# PCOD8242984 Si02
#       8
#     8   8   8   8   8   8   8   8
#     4   8  14  26  46  72 101 132 166 206 252 301
#     4  10  20  34  55  81 106 136 175 220 268 316
#     4  10  20  33  52  78 106 138 175 216 264 315
#     4  10  20  34  53  78 108 141 179 223 268 316
#     4  11  22  35  54  79 106 138 176 219 267 316
#     4  10  21  35  52  77 107 139 177 220 265 315
#     4  11  23  37  55  79 107 142 179 218 267 320
#     4   8  14  27  48  72  99 133 171 209 250 301
#
# _framework density 18.235892
#
# number of rings (size 3 to 8) (size 9 to 14) (size 15 to 20)
#    0.000    2.250    1.250    3.000    0.000    5.000 
#    0.000    3.125    0.000    1.500    0.000    5.250 
#    0.000    0.000    0.000    0.000    0.000    0.000 
#
# Total GULP energy -793398.733837 kJ/mol
# GULP energy per Si atom -12396.855216 kJ/mol
# Density = 1.819439 g / cm^3
# Si number density = 18.235892 Si / 1000 Ang^3
#
#
#
# Elastic Constant Matrix: (Units=GPa)
#
#
# Indices 1 2 3 4 5 6 
#
# 1 127.9652 58.4433 41.5872 0.0000 0.0000 0.0000
# 2 58.4433 94.0610 39.1220 0.0000 0.0000 0.0000
# 3 41.5872 39.1220 51.0343 0.0000 0.0000 0.0000
# 4 0.0000 0.0000 0.0000 24.2933 0.0000 0.0000
# 5 0.0000 0.0000 0.0000 0.0000 23.6382 0.0000
# 6 0.0000 0.0000 0.0000 0.0000 0.0000 38.9571
#
#
#
# Elastic Compliance Matrix: (Units=1/GPa)
#
#
# Indices 1 2 3 4 5 6 
#
# 1 0.012039 -0.004991 -0.005984 0.000000 0.000000 0.000000
# 2 -0.004991 0.017677 -0.009484 0.000000 0.000000 0.000000
# 3 -0.005984 -0.009484 0.031741 0.000000 0.000000 0.000000
# 4 0.000000 0.000000 0.000000 0.041164 0.000000 0.000000
# 5 0.000000 0.000000 0.000000 0.000000 0.042304 0.000000
# 6 0.000000 0.000000 0.000000 0.000000 0.000000 0.025669
#
#
# Mechanical properties :
#
#
# Convention : Reuss Voigt Hill
#
# Bulk Modulus (GPa) = 48.68792 61.26282 54.97537
# Shear Modulus (GPa) = 22.89808 26.30492 24.60150
#
# Velocity S-wave (km/s) = 3.54737 3.80212 3.67695
# Velocity P-wave (km/s) = 6.59814 7.27615 6.94542
#
# Compressibility (1/GPa) = 0.02053898
#
# Stress axis : x y z
#
# Youngs Moduli (GPa) = 83.06350 56.57040 31.50497
#
# Poissons Ratio (x) = 0.28236 0.18853
# Poissons Ratio (y) = 0.41459 0.29878
# Poissons Ratio (z) = 0.49707 0.53649
#
# Static dielectric constant tensor:
#      x y z
#    x 4.123100 0.000000 0.000000 
#    y 0.000000 3.514030 0.000000 
#    z 0.000000 0.000000 2.994390 
# 
# 
# High freq. dielectric constant tensor:
#      x y z
#    x 1.720640 0.000000 0.000000 
#    y 0.000000 1.717540 0.000000 
#    z 0.000000 0.000000 1.659690 
# 
# From -- ./inp_files/29353.got.cif
#   From: 2010.03.12/outbox.cif.g09.slc.cpg/sg59_15_cif.got.tgz:29353.got - 2010.04.16 16:29:54.
