data_PCOD8242703
_publ_section_title
;
Structure prediction by ZEFSAII (Michael W. Deem and Ramdas Pophale) SiO2 
 PCOD8242703
Probable space group: P M M N
;
_chemical_formula_sum "Si O2"
_cell_formula_units_Z 48
_cell_length_a 18.807048
_cell_length_b 9.231407
_cell_length_c 15.431754
_cell_angle_alpha 90.000000
_cell_angle_beta 90.000000
_cell_angle_gamma 90.000000
_cell_volume 2679.191911
_symmetry_space_group_name_H-M "P M M N"
_symmetry_group_IT_number 59
_space_group.IT_coordinate_system_code '2'
_symmetry_cell_setting 'orthorhombic'
loop_
_space_group_symop_operation_xyz
x,y,z
1/2-x,1/2-y,z
1/2+x,-y,-z
-x,1/2+y,-z
-x,-y,-z
1/2+x,1/2+y,-z
1/2-x,y,z
x,1/2-y,z
loop_
_atom_site_type_symbol
_atom_site_label
_atom_site_fract_x
_atom_site_fract_y
_atom_site_fract_z
Si Si1 0.584401 0.913766 0.680243
Si Si2 0.072789 0.416796 0.510978
Si Si3 0.834567 0.586356 0.990457
Si Si4 0.667003 0.418431 0.822378
Si Si5 0.167494 0.581613 0.841503
Si Si6 0.582385 0.082067 0.326883
O O1 0.598411 0.750000 0.713272
O O2 0.613297 0.929590 0.581250
O O3 0.500855 0.949483 0.686119
O O4 0.626790 0.027177 0.737613
O O5 0.057685 0.250000 0.533649
O O6 0.113961 0.491655 0.591309
O O7 0.000000 0.500000 0.500000
O O8 0.750000 0.582468 0.990221
O O9 0.863853 0.750000 0.988729
O O10 0.863279 0.502459 0.906141
O O11 0.862553 0.507322 0.076722
O O12 0.750000 0.449789 0.809180
O O13 0.651577 0.250000 0.836213
O O14 0.250000 0.548274 0.824235
O O15 0.154882 0.750000 0.861492
O O16 0.123902 0.529532 0.758040
O O17 0.596860 0.250000 0.346046
#
# Coordination Sequence:
#
# PCOD8242703 Si02
#       6
#     8   8   8   8   8   8
#     4   9  18  32  49  70  96 126 159 195 236 281
#     4   9  17  30  49  71  95 126 162 197 234 280
#     4   9  17  30  49  71  95 125 159 194 234 283
#     4  10  20  33  50  72  95 121 157 199 240 284
#     4   9  17  31  51  73  98 128 160 195 235 278
#     4   9  18  32  50  73 100 128 159 196 236 279
#
# _framework density 17.915849000000001
#
# number of rings (size 3 to 8) (size 9 to 14) (size 15 to 20)
#    0.000    2.833    0.000    2.500    0.000    7.000 
#    0.000    1.667    0.000    3.000    0.000    0.000 
#    0.000    0.000    0.000    0.000    0.000    0.000 
#
# Total GULP energy -595079.044863 kJ/mol
# GULP energy per Si atom -12397.480101 kJ/mol
# Density = 1.787507 g / cm^3
# Si number density = 17.915849 Si / 1000 Ang^3
#
#
#
# Elastic Constant Matrix: (Units=GPa)
#
#
# Indices 1 2 3 4 5 6 
#
# 1 32.2431 30.7256 41.5373 0.0000 0.0000 0.0000
# 2 30.7256 111.3812 87.0004 0.0000 0.0000 0.0000
# 3 41.5373 87.0004 165.3749 0.0000 0.0000 0.0000
# 4 0.0000 0.0000 0.0000 42.8806 0.0000 0.0000
# 5 0.0000 0.0000 0.0000 0.0000 28.0139 0.0000
# 6 0.0000 0.0000 0.0000 0.0000 0.0000 20.7121
#
#
#
# Elastic Compliance Matrix: (Units=1/GPa)
#
#
# Indices 1 2 3 4 5 6 
#
# 1 0.048520 -0.006562 -0.008735 0.000000 0.000000 0.000000
# 2 -0.006562 0.016129 -0.006837 0.000000 0.000000 0.000000
# 3 -0.008735 -0.006837 0.011837 0.000000 0.000000 0.000000
# 4 0.000000 0.000000 0.000000 0.023321 0.000000 0.000000
# 5 0.000000 0.000000 0.000000 0.000000 0.035697 0.000000
# 6 0.000000 0.000000 0.000000 0.000000 0.000000 0.048281
#
#
# Mechanical properties :
#
#
# Convention : Reuss Voigt Hill
#
# Bulk Modulus (GPa) = 31.03742 69.72509 50.38126
# Shear Modulus (GPa) = 20.93885 28.30372 24.62128
#
# Velocity S-wave (km/s) = 3.42238 3.97900 3.71114
# Velocity P-wave (km/s) = 5.74270 7.75323 6.82243
#
# Compressibility (1/GPa) = 0.03221917
#
# Stress axis : x y z
#
# Youngs Moduli (GPa) = 20.61005 62.00177 84.47798
#
# Poissons Ratio (x) = 0.40686 0.73788
# Poissons Ratio (y) = 0.13524 0.57755
# Poissons Ratio (z) = 0.18002 0.42389
#
# Static dielectric constant tensor:
#      x y z
#    x 2.908500 0.000000 0.000000 
#    y 0.000000 3.471800 0.000000 
#    z 0.000000 0.000000 3.783740 
# 
# 
# High freq. dielectric constant tensor:
#      x y z
#    x 1.643450 0.000000 0.000000 
#    y 0.000000 1.701360 0.000000 
#    z 0.000000 0.000000 1.710660 
# 
# From -- ./inp_files/20473.got.cif
#   From: 2010.03.12/outbox.cif.g09.slc.cpg/sg59_11_cif.got.tgz:20473.got - 2010.04.16 16:29:54.
