data_PCOD8242679
_publ_section_title
;
Structure prediction by ZEFSAII (Michael W. Deem and Ramdas Pophale) SiO2 
 PCOD8242679
Probable space group: P M M N
;
_chemical_formula_sum "Si O2"
_cell_formula_units_Z 64
_cell_length_a 8.878241
_cell_length_b 19.784526
_cell_length_c 20.160669
_cell_angle_alpha 90.000000
_cell_angle_beta 90.000000
_cell_angle_gamma 90.000000
_cell_volume 3541.257595
_symmetry_space_group_name_H-M "P M M N"
_symmetry_group_IT_number 59
_space_group.IT_coordinate_system_code '2'
_symmetry_cell_setting 'orthorhombic'
loop_
_space_group_symop_operation_xyz
x,y,z
1/2-x,1/2-y,z
1/2+x,-y,-z
-x,1/2+y,-z
-x,-y,-z
1/2+x,1/2+y,-z
1/2-x,y,z
x,1/2-y,z
loop_
_atom_site_type_symbol
_atom_site_label
_atom_site_fract_x
_atom_site_fract_y
_atom_site_fract_z
Si Si1 0.426798 0.579563 0.184867
Si Si2 0.421464 0.170691 0.920812
Si Si3 0.927238 0.571464 0.824252
Si Si4 0.927527 0.570382 0.323101
Si Si5 0.075658 0.327403 0.562026
Si Si6 0.571942 0.571404 0.675178
Si Si7 0.070556 0.174990 0.069501
Si Si8 0.424339 0.828720 0.574168
O O1 0.250000 0.581556 0.199187
O O2 0.468751 0.633389 0.129479
O O3 0.476894 0.505187 0.159757
O O4 0.510011 0.596885 0.253201
O O5 0.250000 0.146166 0.909797
O O6 0.433797 0.250000 0.907495
O O7 0.477098 0.153399 0.995233
O O8 0.750000 0.578899 0.830485
O O9 0.978987 0.590636 0.749930
O O10 0.001476 0.622471 0.877739
O O11 0.750000 0.561529 0.317647
O O12 0.973724 0.626275 0.376879
O O13 0.998411 0.499462 0.345834
O O14 0.250000 0.337788 0.543593
O O15 0.042295 0.250000 0.581901
O O16 0.977965 0.349738 0.498899
O O17 0.750000 0.562541 0.670671
O O18 0.519047 0.630951 0.628027
O O19 0.250000 0.176438 0.072781
O O20 0.008398 0.250000 0.086031
O O21 0.250000 0.847255 0.581520
O O22 0.455794 0.750000 0.586784
#
# Coordination Sequence:
#
# PCOD8242679 Si02
#       8
#     8   8   8   8   8   8   8   8
#     4  10  20  33  49  72 103 135 166 204 250 302
#     4   9  18  32  50  72  97 127 166 210 252 297
#     4   8  16  30  47  71 101 129 163 207 249 293
#     4  10  20  35  55  77 103 135 170 211 256 303
#     4   9  19  36  56  77 100 128 166 211 256 302
#     4  10  20  34  53  77 106 138 172 212 255 303
#     4   8  14  27  48  72  97 126 163 207 251 295
#     4  10  21  36  54  77 105 136 170 209 253 303
#
# _framework density 18.072675
#
# number of rings (size 3 to 8) (size 9 to 14) (size 15 to 20)
#    0.000    2.750    0.000    3.000    0.000    4.000 
#    0.000    2.500    0.000    3.750    0.000    0.000 
#    0.000    0.000    0.000    0.000    0.000    0.000 
#
# Total GULP energy -793571.026479 kJ/mol
# GULP energy per Si atom -12399.547289 kJ/mol
# Density = 1.803154 g / cm^3
# Si number density = 18.072675 Si / 1000 Ang^3
#
#
#
# Elastic Constant Matrix: (Units=GPa)
#
#
# Indices 1 2 3 4 5 6 
#
# 1 60.2076 37.1642 42.5999 0.0000 0.0000 0.0000
# 2 37.1642 91.6156 82.2481 0.0000 0.0000 0.0000
# 3 42.5999 82.2481 125.8482 0.0000 0.0000 0.0000
# 4 0.0000 0.0000 0.0000 39.9687 0.0000 0.0000
# 5 0.0000 0.0000 0.0000 0.0000 23.3484 0.0000
# 6 0.0000 0.0000 0.0000 0.0000 0.0000 25.3976
#
#
#
# Elastic Compliance Matrix: (Units=1/GPa)
#
#
# Indices 1 2 3 4 5 6 
#
# 1 0.022993 -0.005662 -0.004083 0.000000 0.000000 0.000000
# 2 -0.005662 0.027806 -0.016256 0.000000 0.000000 0.000000
# 3 -0.004083 -0.016256 0.019952 0.000000 0.000000 0.000000
# 4 0.000000 0.000000 0.000000 0.025020 0.000000 0.000000
# 5 0.000000 0.000000 0.000000 0.000000 0.042829 0.000000
# 6 0.000000 0.000000 0.000000 0.000000 0.000000 0.039374
#
#
# Mechanical properties :
#
#
# Convention : Reuss Voigt Hill
#
# Bulk Modulus (GPa) = 53.33422 66.85510 60.09466
# Shear Modulus (GPa) = 21.16633 25.45356 23.30994
#
# Velocity S-wave (km/s) = 3.42596 3.75694 3.59526
# Velocity P-wave (km/s) = 6.72493 7.47610 7.11044
#
# Compressibility (1/GPa) = 0.01874969
#
# Stress axis : x y z
#
# Youngs Moduli (GPa) = 43.49175 35.96401 50.11980
#
# Poissons Ratio (x) = 0.20362 0.20464
# Poissons Ratio (y) = 0.24624 0.81474
# Poissons Ratio (z) = 0.17758 0.58463
#
# Static dielectric constant tensor:
#      x y z
#    x 3.145940 0.000000 0.000000 
#    y 0.000000 3.454660 0.000000 
#    z 0.000000 0.000000 3.462270 
# 
# 
# High freq. dielectric constant tensor:
#      x y z
#    x 1.682660 0.000000 0.000000 
#    y 0.000000 1.701310 0.000000 
#    z 0.000000 0.000000 1.705380 
# 
# From -- ./inp_files/26264.got.cif
#   From: 2010.03.12/outbox.cif.g09.slc.cpg/sg59_14_cif.got.tgz:26264.got - 2010.04.16 16:29:54.
