data_PCOD8242065
_publ_section_title
;
Structure prediction by ZEFSAII (Michael W. Deem and Ramdas Pophale) SiO2 
 PCOD8242065
Probable space group: P M M N
;
_chemical_formula_sum "Si O2"
_cell_formula_units_Z 48
_cell_length_a 14.686067
_cell_length_b 9.214053
_cell_length_c 19.593912
_cell_angle_alpha 90.000000
_cell_angle_beta 90.000000
_cell_angle_gamma 90.000000
_cell_volume 2651.412897
_symmetry_space_group_name_H-M "P M M N"
_symmetry_group_IT_number 59
_space_group.IT_coordinate_system_code '2'
_symmetry_cell_setting 'orthorhombic'
loop_
_space_group_symop_operation_xyz
x,y,z
1/2-x,1/2-y,z
1/2+x,-y,-z
-x,1/2+y,-z
-x,-y,-z
1/2+x,1/2+y,-z
1/2-x,y,z
x,1/2-y,z
loop_
_atom_site_type_symbol
_atom_site_label
_atom_site_fract_x
_atom_site_fract_y
_atom_site_fract_z
Si Si1 0.644187 0.583379 0.403788
Si Si2 0.750000 0.421355 0.022864
Si Si3 0.350782 0.422739 0.443682
Si Si4 0.946765 0.080091 0.059355
Si Si5 0.073579 0.080637 0.184170
Si Si6 0.007317 0.421060 0.333166
Si Si7 0.250000 0.922995 0.132540
O O1 0.750000 0.562718 0.387959
O O2 0.615079 0.750000 0.396368
O O3 0.621200 0.526271 0.480248
O O4 0.590338 0.490170 0.348250
O O5 0.750000 0.250000 0.021904
O O6 0.658325 0.476128 0.061007
O O7 0.750000 0.479052 0.945311
O O8 0.250000 0.482208 0.425675
O O9 0.348419 0.250000 0.442073
O O10 0.420555 0.484749 0.387894
O O11 0.950333 0.250000 0.042426
O O12 0.992587 0.044420 0.131570
O O13 0.000000 0.000000 0.000000
O O14 0.100637 0.250000 0.181394
O O15 0.038278 0.033670 0.258068
O O16 0.161291 0.984848 0.169139
O O17 0.998034 0.250000 0.339974
O O18 0.250000 0.750000 0.137952
#
# Coordination Sequence:
#
# PCOD8242065 Si02
#       7
#     8   4   8   8   8   8   4
#     4   9  18  34  54  74  99 137 179 218 262 310
#     4   9  18  33  55  77  99 134 175 216 258 303
#     4   8  15  29  51  76 102 135 174 213 259 314
#     4  10  19  35  55  77 105 136 174 216 259 307
#     4  10  22  36  53  81 112 140 171 214 266 318
#     4  10  20  33  52  79 106 138 174 213 263 313
#     4  11  21  35  57  81 105 140 177 212 260 315
#
# _framework density 18.103553999999999
#
# number of rings (size 3 to 8) (size 9 to 14) (size 15 to 20)
#    0.000    2.500    1.667    1.750    1.167    1.000 
#    1.500    0.417    0.000    1.000    0.000    0.000 
#    0.000    0.000    0.000    0.000    0.000    0.000 
#
# Total GULP energy -595156.261060 kJ/mol
# GULP energy per Si atom -12399.088772 kJ/mol
# Density = 1.806235 g / cm^3
# Si number density = 18.103554 Si / 1000 Ang^3
#
#
#
# Elastic Constant Matrix: (Units=GPa)
#
#
# Indices 1 2 3 4 5 6 
#
# 1 147.9918 45.2103 85.9178 0.0000 0.0000 0.0000
# 2 45.2103 36.8909 43.5219 0.0000 0.0000 0.0000
# 3 85.9178 43.5219 130.1217 0.0000 0.0000 0.0000
# 4 0.0000 0.0000 0.0000 21.8424 0.0000 0.0000
# 5 0.0000 0.0000 0.0000 0.0000 25.1143 0.0000
# 6 0.0000 0.0000 0.0000 0.0000 0.0000 27.5702
#
#
#
# Elastic Compliance Matrix: (Units=1/GPa)
#
#
# Indices 1 2 3 4 5 6 
#
# 1 0.012641 -0.009323 -0.005228 0.000000 0.000000 0.000000
# 2 -0.009323 0.051652 -0.011120 0.000000 0.000000 0.000000
# 3 -0.005228 -0.011120 0.014856 0.000000 0.000000 0.000000
# 4 0.000000 0.000000 0.000000 0.045782 0.000000 0.000000
# 5 0.000000 0.000000 0.000000 0.000000 0.039818 0.000000
# 6 0.000000 0.000000 0.000000 0.000000 0.000000 0.036271
#
#
# Mechanical properties :
#
#
# Convention : Reuss Voigt Hill
#
# Bulk Modulus (GPa) = 35.96346 73.81161 54.88754
# Shear Modulus (GPa) = 19.11089 24.26233 21.68661
#
# Velocity S-wave (km/s) = 3.25259 3.66484 3.46485
# Velocity P-wave (km/s) = 5.83218 7.66606 6.81112
#
# Compressibility (1/GPa) = 0.02780600
#
# Stress axis : x y z
#
# Youngs Moduli (GPa) = 79.11069 19.36049 67.31146
#
# Poissons Ratio (x) = 0.18051 0.35190
# Poissons Ratio (y) = 0.73759 0.74849
# Poissons Ratio (z) = 0.41359 0.21528
#
# Static dielectric constant tensor:
#      x y z
#    x 3.733250 0.000000 0.000000 
#    y 0.000000 3.035200 0.000000 
#    z 0.000000 0.000000 3.431690 
# 
# 
# High freq. dielectric constant tensor:
#      x y z
#    x 1.714120 0.000000 0.000000 
#    y 0.000000 1.671130 0.000000 
#    z 0.000000 0.000000 1.699340 
# 
# From -- ./inp_files/27413.got.cif
#   From: 2010.03.12/outbox.cif.g09.slc.cpg/sg59_14_cif.got.tgz:27413.got - 2010.04.16 16:29:54.
