data_PCOD8242791
_publ_section_title
;
Structure prediction by ZEFSAII (Michael W. Deem and Ramdas Pophale) SiO2 
 PCOD8242791
Probable space group: P M M N
;
_chemical_formula_sum "Si O2"
_cell_formula_units_Z 48
_cell_length_a 9.036451
_cell_length_b 18.783780
_cell_length_c 15.581954
_cell_angle_alpha 90.000000
_cell_angle_beta 90.000000
_cell_angle_gamma 90.000000
_cell_volume 2644.860733
_symmetry_space_group_name_H-M "P M M N"
_symmetry_group_IT_number 59
_space_group.IT_coordinate_system_code '2'
_symmetry_cell_setting 'orthorhombic'
loop_
_space_group_symop_operation_xyz
x,y,z
1/2-x,1/2-y,z
1/2+x,-y,-z
-x,1/2+y,-z
-x,-y,-z
1/2+x,1/2+y,-z
1/2-x,y,z
x,1/2-y,z
loop_
_atom_site_type_symbol
_atom_site_label
_atom_site_fract_x
_atom_site_fract_y
_atom_site_fract_z
Si Si1 0.081089 0.434262 0.415023
Si Si2 0.915771 0.583417 0.770433
Si Si3 0.418799 0.078275 0.598902
Si Si4 0.080443 0.585445 0.235304
Si Si5 0.922282 0.168427 0.088128
Si Si6 0.076437 0.167922 0.914972
O O1 0.250000 0.466199 0.414211
O O2 0.061040 0.388317 0.327640
O O3 0.059346 0.387633 0.502773
O O4 0.958660 0.495663 0.413181
O O5 0.750000 0.601484 0.802525
O O6 0.942207 0.498884 0.771550
O O7 0.033186 0.621341 0.830760
O O8 0.250000 0.085776 0.629894
O O9 0.521247 0.113499 0.672116
O O10 0.250000 0.608408 0.226154
O O11 0.987190 0.621613 0.161332
O O12 0.750000 0.158703 0.070585
O O13 0.964260 0.250000 0.107923
O O14 0.007145 0.140769 0.004100
O O15 0.250000 0.155868 0.920210
O O16 0.034371 0.250000 0.898917
#
# Coordination Sequence:
#
# PCOD8242791 Si02
#       6
#     8   8   8   8   8   8
#     4   8  15  27  43  67  99 131 164 201 241 287
#     4   9  18  32  50  74 102 131 164 201 241 286
#     4   9  15  25  44  69  98 131 165 201 241 286
#     4  10  20  33  50  75 105 132 161 201 247 292
#     4  10  21  36  53  73  97 127 163 202 246 295
#     4  10  21  37  56  75  95 125 165 203 242 294
#
# _framework density 18.148403999999999
#
# number of rings (size 3 to 8) (size 9 to 14) (size 15 to 20)
#    0.000    2.667    0.000    3.000    0.000    6.667 
#    0.000    0.000    0.000    1.000    0.000    2.333 
#    0.000    0.000    0.000    0.000    0.000    0.000 
#
# Total GULP energy -594898.975281 kJ/mol
# GULP energy per Si atom -12393.728652 kJ/mol
# Density = 1.810710 g / cm^3
# Si number density = 18.148404 Si / 1000 Ang^3
#
#
#
# Elastic Constant Matrix: (Units=GPa)
#
#
# Indices 1 2 3 4 5 6 
#
# 1 78.6099 23.1282 54.4823 0.0000 0.0000 0.0000
# 2 23.1282 28.5312 39.2607 0.0000 0.0000 0.0000
# 3 54.4823 39.2607 163.7645 0.0000 0.0000 0.0000
# 4 0.0000 0.0000 0.0000 -14.5889 0.0000 0.0000
# 5 0.0000 0.0000 0.0000 0.0000 35.1831 0.0000
# 6 0.0000 0.0000 0.0000 0.0000 0.0000 21.8211
#
#
#
# Elastic Compliance Matrix: (Units=1/GPa)
#
#
# Indices 1 2 3 4 5 6 
#
# 1 0.018121 -0.009541 -0.003741 0.000000 0.000000 0.000000
# 2 -0.009541 0.057328 -0.010569 0.000000 0.000000 0.000000
# 3 -0.003741 -0.010569 0.009885 0.000000 0.000000 0.000000
# 4 0.000000 0.000000 0.000000 -0.068545 0.000000 0.000000
# 5 0.000000 0.000000 0.000000 0.000000 0.028423 0.000000
# 6 0.000000 0.000000 0.000000 0.000000 0.000000 0.045827
#
#
# Mechanical properties :
#
#
# Convention : Reuss Voigt Hill
#
# Bulk Modulus (GPa) = 26.57454 56.07200 41.32327
# Shear Modulus (GPa) = 33.04986 18.75202 25.90094
#
# Velocity S-wave (km/s) = 4.27205 3.21792 3.78189
# Velocity P-wave (km/s) = 6.24569 6.69105 6.47220
#
# Compressibility (1/GPa) = 0.03763000
#
# Stress axis : x y z
#
# Youngs Moduli (GPa) = 55.18392 17.44344 101.16427
#
# Poissons Ratio (x) = 0.16643 0.37848
# Poissons Ratio (y) = 0.52653 1.06925
# Poissons Ratio (z) = 0.20646 0.18437
#
# Static dielectric constant tensor:
#      x y z
#    x 3.442370 0.000000 0.000000 
#    y 0.000000 2.852140 0.000000 
#    z 0.000000 0.000000 3.792320 
# 
# 
# High freq. dielectric constant tensor:
#      x y z
#    x 1.716340 0.000000 0.000000 
#    y 0.000000 1.639420 0.000000 
#    z 0.000000 0.000000 1.729650 
# 
# From -- ./inp_files/20459.got.cif
#   From: 2010.03.12/outbox.cif.g09.slc.cpg/sg59_11_cif.got.tgz:20459.got - 2010.04.16 16:29:54.
