data_PCOD8242285
_publ_section_title
;
Structure prediction by ZEFSAII (Michael W. Deem and Ramdas Pophale) SiO2 
 PCOD8242285
Probable space group: P M M N
;
_chemical_formula_sum "Si O2"
_cell_formula_units_Z 64
_cell_length_a 29.939185
_cell_length_b 9.483466
_cell_length_c 15.038753
_cell_angle_alpha 90.000000
_cell_angle_beta 90.000000
_cell_angle_gamma 90.000000
_cell_volume 4269.911678
_symmetry_space_group_name_H-M "P M M N"
_symmetry_group_IT_number 59
_space_group.IT_coordinate_system_code '2'
_symmetry_cell_setting 'orthorhombic'
loop_
_space_group_symop_operation_xyz
x,y,z
1/2-x,1/2-y,z
1/2+x,-y,-z
-x,1/2+y,-z
-x,-y,-z
1/2+x,1/2+y,-z
1/2-x,y,z
x,1/2-y,z
loop_
_atom_site_type_symbol
_atom_site_label
_atom_site_fract_x
_atom_site_fract_y
_atom_site_fract_z
Si Si1 0.697103 0.412439 0.275545
Si Si2 0.864278 0.585217 0.617299
Si Si3 0.042022 0.405282 0.601350
Si Si4 0.696808 0.590646 0.106808
Si Si5 0.803100 0.093268 0.945376
Si Si6 0.858166 0.914842 0.411151
Si Si7 0.036626 0.094155 0.390520
Si Si8 0.698781 0.415177 0.746351
O O1 0.750000 0.421626 0.283981
O O2 0.681458 0.250000 0.268388
O O3 0.679779 0.497735 0.189517
O O4 0.676966 0.485809 0.362293
O O5 0.859737 0.750000 0.638370
O O6 0.852197 0.555338 0.515257
O O7 0.914963 0.534063 0.638353
O O8 0.830721 0.499633 0.677538
O O9 0.035940 0.250000 0.641975
O O10 0.092116 0.459378 0.621159
O O11 0.034875 0.399486 0.496395
O O12 0.004223 0.501490 0.647397
O O13 0.750000 0.593446 0.105119
O O14 0.677898 0.750000 0.113979
O O15 0.678044 0.518695 0.016674
O O16 0.750000 0.099263 0.949981
O O17 0.821668 0.250000 0.967545
O O18 0.817537 0.047225 0.846221
O O19 0.849269 0.750000 0.390261
O O20 0.030083 0.250000 0.350955
O O21 0.750000 0.461410 0.732987
O O22 0.693232 0.250000 0.728360
#
# Coordination Sequence:
#
# PCOD8242285 Si02
#       8
#     8   8   8   8   8   8   8   8
#     4  10  20  31  42  58  81 110 143 175 205 240
#     4   9  18  30  42  58  82 112 143 174 207 242
#     4   8  14  25  41  59  77  99 129 166 208 249
#     4   9  16  26  42  62  80 100 129 166 208 250
#     4   8  14  26  42  58  78 103 130 165 209 248
#     4   9  18  31  43  57  81 111 142 175 208 242
#     4   8  14  25  40  58  79 101 128 165 208 249
#     4   9  18  30  42  58  82 112 144 176 207 239
#
# _framework density 14.988600999999999
#
# number of rings (size 3 to 8) (size 9 to 14) (size 15 to 20)
#    0.000    3.250    0.000    3.000    0.000    5.000 
#    0.000    6.250    0.000    0.000    0.000    0.000 
#    0.000    1.000    0.000    3.250    0.000    4.750 
#
# Total GULP energy -793198.609576 kJ/mol
# GULP energy per Si atom -12393.728275 kJ/mol
# Density = 1.495449 g / cm^3
# Si number density = 14.988601 Si / 1000 Ang^3
#
#
#
# Elastic Constant Matrix: (Units=GPa)
#
#
# Indices 1 2 3 4 5 6 
#
# 1 42.8897 37.7151 31.5857 0.0000 0.0000 0.0000
# 2 37.7151 94.5319 53.8958 0.0000 0.0000 0.0000
# 3 31.5857 53.8958 71.2946 0.0000 0.0000 0.0000
# 4 0.0000 0.0000 0.0000 26.5440 0.0000 0.0000
# 5 0.0000 0.0000 0.0000 0.0000 -0.4925 0.0000
# 6 0.0000 0.0000 0.0000 0.0000 0.0000 26.4664
#
#
#
# Elastic Compliance Matrix: (Units=1/GPa)
#
#
# Indices 1 2 3 4 5 6 
#
# 1 0.039469 -0.010154 -0.009810 0.000000 0.000000 0.000000
# 2 -0.010154 0.021203 -0.011530 0.000000 0.000000 0.000000
# 3 -0.009810 -0.011530 0.027089 0.000000 0.000000 0.000000
# 4 0.000000 0.000000 0.000000 0.037673 0.000000 0.000000
# 5 0.000000 0.000000 0.000000 0.000000 -2.030358 0.000000
# 6 0.000000 0.000000 0.000000 0.000000 0.000000 0.037784
#
#
# Mechanical properties :
#
#
# Convention : Reuss Voigt Hill
#
# Bulk Modulus (GPa) = 40.36707 50.56770 45.46738
# Shear Modulus (GPa) = -2.78413 16.20489 6.71038
#
# Velocity S-wave (km/s) = -1.36438 3.29165 2.11818
# Velocity P-wave (km/s) = 4.95058 6.94675 6.03181
#
# Compressibility (1/GPa) = 0.02477267
#
# Stress axis : x y z
#
# Youngs Moduli (GPa) = 25.33649 47.16248 36.91528
#
# Poissons Ratio (x) = 0.47887 0.36214
# Poissons Ratio (y) = 0.25726 0.42565
# Poissons Ratio (z) = 0.24855 0.54380
#
# Static dielectric constant tensor:
#      x y z
#    x 2.747510 0.000000 0.000000 
#    y 0.000000 3.107730 0.000000 
#    z 0.000000 0.000000 2.742690 
# 
# 
# High freq. dielectric constant tensor:
#      x y z
#    x 1.543910 0.000000 0.000000 
#    y 0.000000 1.581660 0.000000 
#    z 0.000000 0.000000 1.547040 
# 
# From -- ./inp_files/25113.got.cif
#   From: 2010.03.12/outbox.cif.g09.slc.cpg/sg59_13_cif.got.tgz:25113.got - 2010.04.16 16:29:54.
