data_PCOD8242726
_publ_section_title
;
Structure prediction by ZEFSAII (Michael W. Deem and Ramdas Pophale) SiO2 
 PCOD8242726
Probable space group: P M M N
;
_chemical_formula_sum "Si O2"
_cell_formula_units_Z 48
_cell_length_a 9.143973
_cell_length_b 8.770096
_cell_length_c 30.889696
_cell_angle_alpha 90.000000
_cell_angle_beta 90.000000
_cell_angle_gamma 90.000000
_cell_volume 2477.153486
_symmetry_space_group_name_H-M "P M M N"
_symmetry_group_IT_number 59
_space_group.IT_coordinate_system_code '2'
_symmetry_cell_setting 'orthorhombic'
loop_
_space_group_symop_operation_xyz
x,y,z
1/2-x,1/2-y,z
1/2+x,-y,-z
-x,1/2+y,-z
-x,-y,-z
1/2+x,1/2+y,-z
1/2-x,y,z
x,1/2-y,z
loop_
_atom_site_type_symbol
_atom_site_label
_atom_site_fract_x
_atom_site_fract_y
_atom_site_fract_z
Si Si1 0.916689 0.569295 0.459750
Si Si2 0.078472 0.426552 0.802723
Si Si3 0.919589 0.927604 0.880380
Si Si4 0.086309 0.568232 0.375571
Si Si5 0.583402 0.570214 0.040207
Si Si6 0.088196 0.430923 0.705805
O O1 0.750000 0.512316 0.460200
O O2 0.926537 0.750000 0.462484
O O3 0.000000 0.500000 0.500000
O O4 0.990871 0.508481 0.415759
O O5 0.250000 0.454840 0.810839
O O6 0.040176 0.250000 0.811383
O O7 0.034502 0.475291 0.753896
O O8 0.982949 0.532914 0.833458
O O9 0.750000 0.973225 0.882261
O O10 0.941790 0.750000 0.890031
O O11 0.006477 0.024057 0.915534
O O12 0.250000 0.503996 0.380511
O O13 0.086530 0.750000 0.374613
O O14 0.019959 0.502901 0.330728
O O15 0.750000 0.510376 0.040541
O O16 0.579130 0.750000 0.035488
O O17 0.500000 0.500000 0.000000
O O18 0.250000 0.498244 0.697386
O O19 0.096415 0.250000 0.702486
#
# Coordination Sequence:
#
# PCOD8242726 Si02
#       6
#     8   8   8   8   8   8
#     4  10  20  33  50  72  99 132 169 210 258 310
#     4   9  18  33  54  80 107 136 173 216 262 312
#     4  11  24  39  55  79 111 146 184 222 261 309
#     4   9  16  26  43  69  99 130 166 208 254 306
#     4  11  24  41  62  88 115 143 179 221 264 313
#     4   8  14  26  45  70 100 130 162 206 258 309
#
# _framework density 19.377078000000001
#
# number of rings (size 3 to 8) (size 9 to 14) (size 15 to 20)
#    0.000    2.333    0.000    4.000    0.000   10.667 
#    0.000    1.667    0.000    1.000    0.000    4.667 
#    0.000    0.000    0.000    0.000    0.000    0.000 
#
# Total GULP energy -595222.351855 kJ/mol
# GULP energy per Si atom -12400.465664 kJ/mol
# Density = 1.933297 g / cm^3
# Si number density = 19.377078 Si / 1000 Ang^3
#
#
#
# Elastic Constant Matrix: (Units=GPa)
#
#
# Indices 1 2 3 4 5 6 
#
# 1 160.7819 31.0791 91.2871 0.0000 0.0000 0.0000
# 2 31.0791 28.4134 22.6983 0.0000 0.0000 0.0000
# 3 91.2871 22.6983 162.1636 0.0000 0.0000 0.0000
# 4 0.0000 0.0000 0.0000 27.0940 0.0000 0.0000
# 5 0.0000 0.0000 0.0000 0.0000 43.3437 0.0000
# 6 0.0000 0.0000 0.0000 0.0000 0.0000 24.1931
#
#
#
# Elastic Compliance Matrix: (Units=1/GPa)
#
#
# Indices 1 2 3 4 5 6 
#
# 1 0.010404 -0.007545 -0.004800 0.000000 0.000000 0.000000
# 2 -0.007545 0.045097 -0.002065 0.000000 0.000000 0.000000
# 3 -0.004800 -0.002065 0.009158 0.000000 0.000000 0.000000
# 4 0.000000 0.000000 0.000000 0.036909 0.000000 0.000000
# 5 0.000000 0.000000 0.000000 0.000000 0.023071 0.000000
# 6 0.000000 0.000000 0.000000 0.000000 0.000000 0.041334
#
#
# Mechanical properties :
#
#
# Convention : Reuss Voigt Hill
#
# Bulk Modulus (GPa) = 27.90343 71.27646 49.58994
# Shear Modulus (GPa) = 24.18508 32.67912 28.43210
#
# Velocity S-wave (km/s) = 3.53672 4.11114 3.83470
# Velocity P-wave (km/s) = 5.57757 7.70708 6.72712
#
# Compressibility (1/GPa) = 0.03583789
#
# Stress axis : x y z
#
# Youngs Moduli (GPa) = 96.12100 22.17445 109.19409
#
# Poissons Ratio (x) = 0.16730 0.52418
# Poissons Ratio (y) = 0.72521 0.22550
# Poissons Ratio (z) = 0.46142 0.04579
#
# Static dielectric constant tensor:
#      x y z
#    x 3.813190 0.000000 0.000000 
#    y 0.000000 3.137640 0.000000 
#    z 0.000000 0.000000 3.816620 
# 
# 
# High freq. dielectric constant tensor:
#      x y z
#    x 1.764200 0.000000 0.000000 
#    y 0.000000 1.712400 0.000000 
#    z 0.000000 0.000000 1.773380 
# 
# From -- ./inp_files/32905.got.cif
#   From: 2010.03.12/outbox.cif.g09.slc.cpg/sg59_17_cif.got.tgz:32905.got - 2010.04.16 16:29:54.
