data_PCOD8242289
_publ_section_title
;
Structure prediction by ZEFSAII (Michael W. Deem and Ramdas Pophale) SiO2 
 PCOD8242289
Probable space group: P M M N
;
_chemical_formula_sum "Si O2"
_cell_formula_units_Z 56
_cell_length_a 17.715494
_cell_length_b 9.265495
_cell_length_c 20.728661
_cell_angle_alpha 90.000000
_cell_angle_beta 90.000000
_cell_angle_gamma 90.000000
_cell_volume 3402.460894
_symmetry_space_group_name_H-M "P M M N"
_symmetry_group_IT_number 59
_space_group.IT_coordinate_system_code '2'
_symmetry_cell_setting 'orthorhombic'
loop_
_space_group_symop_operation_xyz
x,y,z
1/2-x,1/2-y,z
1/2+x,-y,-z
-x,1/2+y,-z
-x,-y,-z
1/2+x,1/2+y,-z
1/2-x,y,z
x,1/2-y,z
loop_
_atom_site_type_symbol
_atom_site_label
_atom_site_fract_x
_atom_site_fract_y
_atom_site_fract_z
Si Si1 0.666694 0.582127 0.061755
Si Si2 0.525727 0.919858 0.145054
Si Si3 0.835260 0.086856 0.368436
Si Si4 0.109752 0.410317 0.517100
Si Si5 0.043744 0.418435 0.706938
Si Si6 0.548886 0.408971 0.588589
Si Si7 0.557430 0.581095 0.954189
O O1 0.750000 0.509353 0.070825
O O2 0.674808 0.750000 0.076070
O O3 0.604255 0.522582 0.112719
O O4 0.639566 0.558065 0.987282
O O5 0.515658 0.750000 0.131751
O O6 0.524393 0.957831 0.220121
O O7 0.453285 0.004897 0.115388
O O8 0.750000 0.086092 0.343215
O O9 0.865380 0.250000 0.377703
O O10 0.837974 0.007336 0.437362
O O11 0.883276 0.007976 0.313681
O O12 0.144390 0.250000 0.510592
O O13 0.106221 0.479940 0.445363
O O14 0.027486 0.402525 0.547786
O O15 0.063623 0.250000 0.698320
O O16 0.972229 0.459165 0.661384
O O17 0.586366 0.250000 0.589866
O O18 0.537859 0.750000 0.948985
O O19 0.500000 0.500000 0.000000
#
# Coordination Sequence:
#
# PCOD8242289 Si02
#       7
#     8   8   8   8   8   8   8
#     4   8  14  25  42  64  87 112 145 181 214 251
#     4   9  17  29  45  65  89 116 147 182 219 261
#     4  10  20  31  42  59  86 118 147 176 213 257
#     4   9  16  26  42  61  79 104 139 177 213 247
#     4   9  18  30  44  63  86 115 147 177 211 254
#     4   8  14  25  40  59  82 104 131 171 215 252
#     4   9  16  27  44  63  85 114 146 183 223 261
#
# _framework density 16.458674999999999
#
# number of rings (size 3 to 8) (size 9 to 14) (size 15 to 20)
#    0.000    3.143    0.000    3.000    0.000    5.714 
#    0.000    1.429    0.000   10.714    0.000    1.000 
#    0.000    5.714    0.000    0.000    0.000    0.000 
#
# Total GULP energy -693870.015236 kJ/mol
# GULP energy per Si atom -12390.535986 kJ/mol
# Density = 1.642121 g / cm^3
# Si number density = 16.458675 Si / 1000 Ang^3
#
#
#
# Elastic Constant Matrix: (Units=GPa)
#
#
# Indices 1 2 3 4 5 6 
#
# 1 17.8724 11.5919 29.2181 0.0000 0.0000 0.0000
# 2 11.5919 77.9157 47.2094 0.0000 0.0000 0.0000
# 3 29.2181 47.2094 131.5840 0.0000 0.0000 0.0000
# 4 0.0000 0.0000 0.0000 27.0619 0.0000 0.0000
# 5 0.0000 0.0000 0.0000 0.0000 14.4420 0.0000
# 6 0.0000 0.0000 0.0000 0.0000 0.0000 16.8994
#
#
#
# Elastic Compliance Matrix: (Units=1/GPa)
#
#
# Indices 1 2 3 4 5 6 
#
# 1 0.087994 -0.001601 -0.018965 0.000000 0.000000 0.000000
# 2 -0.001601 0.016428 -0.005539 0.000000 0.000000 0.000000
# 3 -0.018965 -0.005539 0.013798 0.000000 0.000000 0.000000
# 4 0.000000 0.000000 0.000000 0.036952 0.000000 0.000000
# 5 0.000000 0.000000 0.000000 0.000000 0.069242 0.000000
# 6 0.000000 0.000000 0.000000 0.000000 0.000000 0.059174
#
#
# Mechanical properties :
#
#
# Convention : Reuss Voigt Hill
#
# Bulk Modulus (GPa) = 15.14863 44.82344 29.98604
# Shear Modulus (GPa) = 13.97422 20.97085 17.47254
#
# Velocity S-wave (km/s) = 2.91701 3.57340 3.26176
# Velocity P-wave (km/s) = 4.53533 6.65722 5.69596
#
# Compressibility (1/GPa) = 0.06601255
#
# Stress axis : x y z
#
# Youngs Moduli (GPa) = 11.36436 60.87000 72.47417
#
# Poissons Ratio (x) = 0.09743 1.37446
# Poissons Ratio (y) = 0.01819 0.40142
# Poissons Ratio (z) = 0.21552 0.33714
#
# Static dielectric constant tensor:
#      x y z
#    x 2.990300 0.000000 0.000000 
#    y 0.000000 3.264270 0.000000 
#    z 0.000000 0.000000 3.513750 
# 
# 
# High freq. dielectric constant tensor:
#      x y z
#    x 1.591280 0.000000 0.000000 
#    y 0.000000 1.631200 0.000000 
#    z 0.000000 0.000000 1.625400 
# 
# From -- ./inp_files/32279.got.cif
#   From: 2010.03.12/outbox.cif.g09.slc.cpg/sg59_17_cif.got.tgz:32279.got - 2010.04.16 16:29:54.
