data_PCOD8242889
_publ_section_title
;
Structure prediction by ZEFSAII (Michael W. Deem and Ramdas Pophale) SiO2 
 PCOD8242889
Probable space group: P M M N
;
_chemical_formula_sum "Si O2"
_cell_formula_units_Z 64
_cell_length_a 9.096570
_cell_length_b 14.427527
_cell_length_c 26.236187
_cell_angle_alpha 90.000000
_cell_angle_beta 90.000000
_cell_angle_gamma 90.000000
_cell_volume 3443.263662
_symmetry_space_group_name_H-M "P M M N"
_symmetry_group_IT_number 59
_space_group.IT_coordinate_system_code '2'
_symmetry_cell_setting 'orthorhombic'
loop_
_space_group_symop_operation_xyz
x,y,z
1/2-x,1/2-y,z
1/2+x,-y,-z
-x,1/2+y,-z
-x,-y,-z
1/2+x,1/2+y,-z
1/2-x,y,z
x,1/2-y,z
loop_
_atom_site_type_symbol
_atom_site_label
_atom_site_fract_x
_atom_site_fract_y
_atom_site_fract_z
Si Si1 0.081092 0.859499 0.129537
Si Si2 0.078798 0.353986 0.233328
Si Si3 0.922317 0.013773 0.575560
Si Si4 0.081519 0.359034 0.768439
Si Si5 0.076350 0.489617 0.946161
Si Si6 0.420741 0.645426 0.867212
Si Si7 0.422939 0.355522 0.501044
Si Si8 0.077984 0.985368 0.307848
O O1 0.250000 0.892716 0.128791
O O2 0.068689 0.750000 0.123783
O O3 0.008502 0.893410 0.182278
O O4 0.992415 0.901795 0.082428
O O5 0.250000 0.355389 0.221849
O O6 0.023554 0.250000 0.245820
O O7 0.038027 0.417434 0.281273
O O8 0.001267 0.393414 0.182836
O O9 0.750000 0.030923 0.570446
O O10 0.968321 0.917998 0.547644
O O11 0.972150 0.005591 0.633881
O O12 0.001876 0.102508 0.551260
O O13 0.250000 0.390073 0.775464
O O14 0.067660 0.250000 0.761345
O O15 0.013428 0.403423 0.717918
O O16 0.250000 0.474617 0.952690
O O17 0.038347 0.582619 0.915206
O O18 0.000000 0.500000 0.000000
O O19 0.250000 0.641278 0.854916
O O20 0.472549 0.750000 0.879872
O O21 0.250000 0.357994 0.510092
O O22 0.477290 0.250000 0.492033
O O23 0.250000 0.962067 0.302952
#
# Coordination Sequence:
#
# PCOD8242889 Si02
#       8
#     8   8   8   8   8   8   8   8
#     4  10  21  38  59  80 105 139 177 219 267 317
#     4   9  18  32  51  76 103 131 165 204 247 298
#     4   9  19  34  51  75 104 134 171 213 258 308
#     4  10  21  36  54  77 105 138 175 213 256 309
#     4  11  23  37  55  80 108 139 176 219 267 317
#     4   9  19  36  55  74 100 135 171 206 249 304
#     4   9  18  34  55  75  98 133 175 217 261 308
#     4  10  20  33  51  76 107 139 169 208 257 307
#
# _framework density 18.587015000000001
#
# number of rings (size 3 to 8) (size 9 to 14) (size 15 to 20)
#    0.000    2.375    0.000    1.875    0.000    7.250 
#    0.000    6.250    0.000    0.000    0.000    3.500 
#    0.000    0.000    0.000    0.000    0.000    0.000 
#
# Total GULP energy -793782.730740 kJ/mol
# GULP energy per Si atom -12402.855168 kJ/mol
# Density = 1.854471 g / cm^3
# Si number density = 18.587015 Si / 1000 Ang^3
#
#
#
# Elastic Constant Matrix: (Units=GPa)
#
#
# Indices 1 2 3 4 5 6 
#
# 1 76.3281 45.3915 65.1823 0.0000 0.0000 0.0000
# 2 45.3915 88.0263 63.1986 0.0000 0.0000 0.0000
# 3 65.1823 63.1986 168.7303 0.0000 0.0000 0.0000
# 4 0.0000 0.0000 0.0000 20.4968 0.0000 0.0000
# 5 0.0000 0.0000 0.0000 0.0000 32.8174 0.0000
# 6 0.0000 0.0000 0.0000 0.0000 0.0000 28.7430
#
#
#
# Elastic Compliance Matrix: (Units=1/GPa)
#
#
# Indices 1 2 3 4 5 6 
#
# 1 0.022568 -0.007356 -0.005963 0.000000 0.000000 0.000000
# 2 -0.007356 0.017937 -0.003876 0.000000 0.000000 0.000000
# 3 -0.005963 -0.003876 0.009682 0.000000 0.000000 0.000000
# 4 0.000000 0.000000 0.000000 0.048788 0.000000 0.000000
# 5 0.000000 0.000000 0.000000 0.000000 0.030472 0.000000
# 6 0.000000 0.000000 0.000000 0.000000 0.000000 0.034791
#
#
# Mechanical properties :
#
#
# Convention : Reuss Voigt Hill
#
# Bulk Modulus (GPa) = 63.30909 75.62549 69.46729
# Shear Modulus (GPa) = 24.52245 27.03227 25.77736
#
# Velocity S-wave (km/s) = 3.63620 3.81775 3.72808
# Velocity P-wave (km/s) = 7.19473 7.75946 7.48242
#
# Compressibility (1/GPa) = 0.01579552
#
# Stress axis : x y z
#
# Youngs Moduli (GPa) = 44.30979 55.75162 103.28314
#
# Poissons Ratio (x) = 0.41013 0.61588
# Poissons Ratio (y) = 0.32596 0.40037
# Poissons Ratio (z) = 0.26422 0.21612
#
# Static dielectric constant tensor:
#      x y z
#    x 3.457310 0.000000 0.000000 
#    y 0.000000 3.669270 0.000000 
#    z 0.000000 0.000000 3.452550 
# 
# 
# High freq. dielectric constant tensor:
#      x y z
#    x 1.721490 0.000000 0.000000 
#    y 0.000000 1.728830 0.000000 
#    z 0.000000 0.000000 1.718090 
# 
# From -- ./inp_files/31690.got.cif
#   From: 2010.03.12/outbox.cif.g09.slc.cpg/sg59_16_cif.got.tgz:31690.got - 2010.04.16 16:29:54.
