data_PCOD8242674
_publ_section_title
;
Structure prediction by ZEFSAII (Michael W. Deem and Ramdas Pophale) SiO2 
 PCOD8242674
Probable space group: P M M N
;
_chemical_formula_sum "Si O2"
_cell_formula_units_Z 64
_cell_length_a 8.898828
_cell_length_b 29.519405
_cell_length_c 14.757217
_cell_angle_alpha 90.000000
_cell_angle_beta 90.000000
_cell_angle_gamma 90.000000
_cell_volume 3876.545409
_symmetry_space_group_name_H-M "P M M N"
_symmetry_group_IT_number 59
_space_group.IT_coordinate_system_code '2'
_symmetry_cell_setting 'orthorhombic'
loop_
_space_group_symop_operation_xyz
x,y,z
1/2-x,1/2-y,z
1/2+x,-y,-z
-x,1/2+y,-z
-x,-y,-z
1/2+x,1/2+y,-z
1/2-x,y,z
x,1/2-y,z
loop_
_atom_site_type_symbol
_atom_site_label
_atom_site_fract_x
_atom_site_fract_y
_atom_site_fract_z
Si Si1 0.923901 0.386718 0.299358
Si Si2 0.079623 0.800210 0.806299
Si Si3 0.426354 0.198940 0.007173
Si Si4 0.925123 0.562640 0.861905
Si Si5 0.575460 0.038597 0.815181
Si Si6 0.076927 0.436036 0.443236
Si Si7 0.927044 0.390402 0.966513
Si Si8 0.575641 0.524556 0.369518
O O1 0.750000 0.399502 0.291894
O O2 0.954802 0.334525 0.274929
O O3 0.015893 0.419786 0.233960
O O4 0.982926 0.394136 0.401810
O O5 0.250000 0.806700 0.842931
O O6 0.055602 0.750000 0.766647
O O7 0.966779 0.809874 0.888183
O O8 0.250000 0.193549 0.994332
O O9 0.478216 0.250000 0.978496
O O10 0.508193 0.160161 0.948330
O O11 0.750000 0.573437 0.872045
O O12 0.957767 0.508951 0.865204
O O13 0.011063 0.588012 0.941641
O O14 0.750000 0.042175 0.788881
O O15 0.524983 0.078434 0.882506
O O16 0.477586 0.045580 0.725025
O O17 0.250000 0.429110 0.419373
O O18 0.050365 0.438320 0.551177
O O19 0.023070 0.481202 0.392775
O O20 0.750000 0.387202 0.976596
O O21 0.750000 0.510338 0.364226
#
# Coordination Sequence:
#
# PCOD8242674 Si02
#       8
#     8   8   8   8   8   8   8   8
#     4  11  20  30  49  75  99 131 169 201 241 296
#     4   9  18  32  49  69  96 128 161 201 245 290
#     4  10  20  33  50  72  96 125 163 205 250 295
#     4  11  21  33  48  69 100 137 170 205 242 282
#     4  10  22  36  50  69  98 134 170 208 248 289
#     4  10  20  33  49  71  99 128 160 200 245 291
#     4  11  22  35  50  71  98 133 171 204 245 297
#     4  10  20  33  51  72  94 126 166 205 244 287
#
# _framework density 16.509544999999999
#
# number of rings (size 3 to 8) (size 9 to 14) (size 15 to 20)
#    0.000    1.750    2.500    2.625    0.000    4.250 
#    0.000    0.000    0.000    0.000    0.000    0.875 
#    0.000    3.000    0.000    0.000    0.000    0.000 
#
# Total GULP energy -793633.321361 kJ/mol
# GULP energy per Si atom -12400.520646 kJ/mol
# Density = 1.647197 g / cm^3
# Si number density = 16.509545 Si / 1000 Ang^3
#
#
#
# Elastic Constant Matrix: (Units=GPa)
#
#
# Indices 1 2 3 4 5 6 
#
# 1 62.7035 42.6857 25.9802 0.0000 0.0000 0.0000
# 2 42.6857 114.0803 41.1404 0.0000 0.0000 0.0000
# 3 25.9802 41.1404 65.5272 0.0000 0.0000 0.0000
# 4 0.0000 0.0000 0.0000 23.1632 0.0000 0.0000
# 5 0.0000 0.0000 0.0000 0.0000 27.7868 0.0000
# 6 0.0000 0.0000 0.0000 0.0000 0.0000 24.2065
#
#
#
# Elastic Compliance Matrix: (Units=1/GPa)
#
#
# Indices 1 2 3 4 5 6 
#
# 1 0.022461 -0.006713 -0.004691 0.000000 0.000000 0.000000
# 2 -0.006713 0.013338 -0.005712 0.000000 0.000000 0.000000
# 3 -0.004691 -0.005712 0.020707 0.000000 0.000000 0.000000
# 4 0.000000 0.000000 0.000000 0.043172 0.000000 0.000000
# 5 0.000000 0.000000 0.000000 0.000000 0.035988 0.000000
# 6 0.000000 0.000000 0.000000 0.000000 0.000000 0.041311
#
#
# Mechanical properties :
#
#
# Convention : Reuss Voigt Hill
#
# Bulk Modulus (GPa) = 44.89546 51.32483 48.11015
# Shear Modulus (GPa) = 22.86924 23.86495 23.36709
#
# Velocity S-wave (km/s) = 3.72588 3.80613 3.76622
# Velocity P-wave (km/s) = 6.76478 7.10429 6.93661
#
# Compressibility (1/GPa) = 0.02227397
#
# Stress axis : x y z
#
# Youngs Moduli (GPa) = 44.52067 74.97655 48.29257
#
# Poissons Ratio (x) = 0.50330 0.22654
# Poissons Ratio (y) = 0.29886 0.27586
# Poissons Ratio (z) = 0.20885 0.42829
#
# Static dielectric constant tensor:
#      x y z
#    x 3.218490 0.000000 0.000000 
#    y 0.000000 3.269560 0.000000 
#    z 0.000000 0.000000 3.059210 
# 
# 
# High freq. dielectric constant tensor:
#      x y z
#    x 1.651100 0.000000 0.000000 
#    y 0.000000 1.626530 0.000000 
#    z 0.000000 0.000000 1.610800 
# 
# From -- ./inp_files/21876.got.cif
#   From: 2010.03.12/outbox.cif.g09.slc.cpg/sg59_11_cif.got.tgz:21876.got - 2010.04.16 16:29:54.
