data_PCOD8242018
_publ_section_title
;
Structure prediction by ZEFSAII (Michael W. Deem and Ramdas Pophale) SiO2 
 PCOD8242018
Probable space group: P M M N
;
_chemical_formula_sum "Si O2"
_cell_formula_units_Z 48
_cell_length_a 8.946832
_cell_length_b 31.302150
_cell_length_c 9.148549
_cell_angle_alpha 90.000000
_cell_angle_beta 90.000000
_cell_angle_gamma 90.000000
_cell_volume 2562.097597
_symmetry_space_group_name_H-M "P M M N"
_symmetry_group_IT_number 59
_space_group.IT_coordinate_system_code '2'
_symmetry_cell_setting 'orthorhombic'
loop_
_space_group_symop_operation_xyz
x,y,z
1/2-x,1/2-y,z
1/2+x,-y,-z
-x,1/2+y,-z
-x,-y,-z
1/2+x,1/2+y,-z
1/2-x,y,z
x,1/2-y,z
loop_
_atom_site_type_symbol
_atom_site_label
_atom_site_fract_x
_atom_site_fract_y
_atom_site_fract_z
Si Si1 0.926948 0.331467 0.659341
Si Si2 0.575546 0.996338 0.844173
Si Si3 0.074685 0.913591 0.832683
Si Si4 0.426506 0.827219 0.670186
Si Si5 0.572748 0.750000 0.839487
Si Si6 0.575294 0.089652 0.837158
Si Si7 0.926334 0.250000 0.847180
O O1 0.750000 0.335370 0.649573
O O2 0.987809 0.326041 0.495283
O O3 0.997157 0.374170 0.733207
O O4 0.975450 0.291132 0.755006
O O5 0.750000 0.987969 0.862833
O O6 0.502178 0.955891 0.760991
O O7 0.545933 0.042488 0.767053
O O8 0.500000 0.000000 0.000000
O O9 0.250000 0.922281 0.834699
O O10 0.032303 0.873269 0.734980
O O11 0.011708 0.906518 0.997418
O O12 0.250000 0.817920 0.680806
O O13 0.512598 0.791865 0.760631
O O14 0.750000 0.750000 0.836005
O O15 0.517102 0.750000 0.004556
O O16 0.750000 0.099172 0.848388
O O17 0.750000 0.250000 0.881491
#
# Coordination Sequence:
#
# PCOD8242018 Si02
#       7
#     8   8   8   8   4   8   4
#     4   9  17  31  54  81 104 130 172 221 261 302
#     4   9  16  27  46  71 101 136 174 216 260 304
#     4   9  17  30  50  75 102 133 171 215 258 302
#     4  10  20  36  58  80 103 135 174 213 257 312
#     4  12  25  38  54  78 108 138 169 210 260 312
#     4   8  14  26  45  71 101 132 167 210 256 296
#     4  10  19  34  58  82 102 130 173 220 260 304
#
# _framework density 18.734649000000001
#
# number of rings (size 3 to 8) (size 9 to 14) (size 15 to 20)
#    0.000    2.667    0.000    3.750    0.000    4.667 
#    0.000    2.500    0.000    6.000    0.000    0.000 
#    0.000    0.000    0.000    0.000    0.000    0.000 
#
# Total GULP energy -594926.014454 kJ/mol
# GULP energy per Si atom -12394.291968 kJ/mol
# Density = 1.869201 g / cm^3
# Si number density = 18.734649 Si / 1000 Ang^3
#
#
#
# Elastic Constant Matrix: (Units=GPa)
#
#
# Indices 1 2 3 4 5 6 
#
# 1 53.1153 61.4110 34.3495 0.0000 0.0000 0.0000
# 2 61.4110 190.7973 84.2912 0.0000 0.0000 0.0000
# 3 34.3495 84.2912 124.6353 0.0000 0.0000 0.0000
# 4 0.0000 0.0000 0.0000 -9.5970 0.0000 0.0000
# 5 0.0000 0.0000 0.0000 0.0000 9.0898 0.0000
# 6 0.0000 0.0000 0.0000 0.0000 0.0000 27.3030
#
#
#
# Elastic Compliance Matrix: (Units=1/GPa)
#
#
# Indices 1 2 3 4 5 6 
#
# 1 0.030532 -0.008713 -0.002522 0.000000 0.000000 0.000000
# 2 -0.008713 0.009961 -0.004335 0.000000 0.000000 0.000000
# 3 -0.002522 -0.004335 0.011650 0.000000 0.000000 0.000000
# 4 0.000000 0.000000 0.000000 -0.104199 0.000000 0.000000
# 5 0.000000 0.000000 0.000000 0.000000 0.110014 0.000000
# 6 0.000000 0.000000 0.000000 0.000000 0.000000 0.036626
#
#
# Mechanical properties :
#
#
# Convention : Reuss Voigt Hill
#
# Bulk Modulus (GPa) = 47.61310 80.96125 64.28718
# Shear Modulus (GPa) = 37.67186 17.92556 27.79871
#
# Velocity S-wave (km/s) = 4.48907 3.09660 3.85621
# Velocity P-wave (km/s) = 7.23455 7.48957 7.36317
#
# Compressibility (1/GPa) = 0.02100262
#
# Stress axis : x y z
#
# Youngs Moduli (GPa) = 32.75291 100.39374 85.83416
#
# Poissons Ratio (x) = 0.87472 0.21647
# Poissons Ratio (y) = 0.28537 0.37211
# Poissons Ratio (z) = 0.08260 0.43523
#
# Static dielectric constant tensor:
#      x y z
#    x 3.155840 0.000000 0.000000 
#    y 0.000000 4.006870 0.000000 
#    z 0.000000 0.000000 3.426160 
# 
# 
# High freq. dielectric constant tensor:
#      x y z
#    x 1.685500 0.000000 0.000000 
#    y 0.000000 1.754160 0.000000 
#    z 0.000000 0.000000 1.707680 
# 
# From -- ./inp_files/6441.got.cif
#   From: 2010.03.12/outbox.cif.g09.slc.cpg/sg59_4_cif.got.tgz:6441.got - 2010.04.16 16:29:54.
