data_PCOD8242481
_publ_section_title
;
Structure prediction by ZEFSAII (Michael W. Deem and Ramdas Pophale) SiO2 
 PCOD8242481
Probable space group: P M M N
;
_chemical_formula_sum "Si O2"
_cell_formula_units_Z 56
_cell_length_a 9.114806
_cell_length_b 18.243880
_cell_length_c 18.124693
_cell_angle_alpha 90.000000
_cell_angle_beta 90.000000
_cell_angle_gamma 90.000000
_cell_volume 3013.944811
_symmetry_space_group_name_H-M "P M M N"
_symmetry_group_IT_number 59
_space_group.IT_coordinate_system_code '2'
_symmetry_cell_setting 'orthorhombic'
loop_
_space_group_symop_operation_xyz
x,y,z
1/2-x,1/2-y,z
1/2+x,-y,-z
-x,1/2+y,-z
-x,-y,-z
1/2+x,1/2+y,-z
1/2-x,y,z
x,1/2-y,z
loop_
_atom_site_type_symbol
_atom_site_label
_atom_site_fract_x
_atom_site_fract_y
_atom_site_fract_z
Si Si1 0.915066 0.662826 0.008374
Si Si2 0.079180 0.414785 0.426086
Si Si3 0.914479 0.162649 0.851624
Si Si4 0.079000 0.914985 0.424474
Si Si5 0.917239 0.836965 0.292548
Si Si6 0.916007 0.162858 0.295449
Si Si7 0.585430 0.837106 0.845799
O O1 0.750000 0.634971 0.023066
O O2 0.917942 0.750000 0.011740
O O3 0.968207 0.636339 0.927047
O O4 0.020108 0.630506 0.071949
O O5 0.250000 0.397729 0.436544
O O6 0.049935 0.499742 0.409262
O O7 0.996271 0.389783 0.499793
O O8 0.018140 0.367856 0.359153
O O9 0.750000 0.132064 0.842158
O O10 0.914288 0.250000 0.853635
O O11 0.012698 0.134450 0.783766
O O12 0.250000 0.896479 0.429977
O O13 0.009373 0.869224 0.359109
O O14 0.750000 0.864791 0.296452
O O15 0.925523 0.750000 0.297501
O O16 0.750000 0.134390 0.305179
O O17 0.923070 0.250000 0.298522
O O18 0.976145 0.132958 0.216950
O O19 0.750000 0.866488 0.830244
O O20 0.587508 0.750000 0.844333
#
# Coordination Sequence:
#
# PCOD8242481 Si02
#       7
#     8   8   8   8   8   8   8
#     4   8  13  22  37  58  87 124 162 197 236 283
#     4  10  21  37  56  75  96 126 162 198 240 292
#     4   9  16  25  39  62  93 127 161 199 241 281
#     4  10  21  37  56  76  97 123 159 202 244 287
#     4  10  20  33  50  73 101 132 164 198 240 290
#     4  10  20  32  48  73 103 132 163 202 245 285
#     4   8  14  25  41  62  91 127 163 199 240 285
#
# _framework density 18.580300999999999
#
# number of rings (size 3 to 8) (size 9 to 14) (size 15 to 20)
#    0.000    2.714    0.000    3.000    0.000    6.286 
#    0.000    2.857    0.000    0.000    0.000    1.000 
#    0.000    0.000    0.000    0.000    0.000    0.000 
#
# Total GULP energy -694287.229379 kJ/mol
# GULP energy per Si atom -12397.986239 kJ/mol
# Density = 1.853801 g / cm^3
# Si number density = 18.580301 Si / 1000 Ang^3
#
#
#
# Elastic Constant Matrix: (Units=GPa)
#
#
# Indices 1 2 3 4 5 6 
#
# 1 132.8840 20.4007 79.9427 0.0000 0.0000 0.0000
# 2 20.4007 12.2251 23.0178 0.0000 0.0000 0.0000
# 3 79.9427 23.0178 162.4238 0.0000 0.0000 0.0000
# 4 0.0000 0.0000 0.0000 -10.5533 0.0000 0.0000
# 5 0.0000 0.0000 0.0000 0.0000 34.5721 0.0000
# 6 0.0000 0.0000 0.0000 0.0000 0.0000 18.0838
#
#
#
# Elastic Compliance Matrix: (Units=1/GPa)
#
#
# Indices 1 2 3 4 5 6 
#
# 1 0.011855 -0.011998 -0.004134 0.000000 0.000000 0.000000
# 2 -0.011998 0.123711 -0.011626 0.000000 0.000000 0.000000
# 3 -0.004134 -0.011626 0.009839 0.000000 0.000000 0.000000
# 4 0.000000 0.000000 0.000000 -0.094757 0.000000 0.000000
# 5 0.000000 0.000000 0.000000 0.000000 0.028925 0.000000
# 6 0.000000 0.000000 0.000000 0.000000 0.000000 0.055298
#
#
# Mechanical properties :
#
#
# Convention : Reuss Voigt Hill
#
# Bulk Modulus (GPa) = 11.12504 61.58392 36.35448
# Shear Modulus (GPa) = 22.69110 20.69864 21.69487
#
# Velocity S-wave (km/s) = 3.49842 3.34130 3.42076
# Velocity P-wave (km/s) = 4.72432 6.93559 5.93387
#
# Compressibility (1/GPa) = 0.08988730
#
# Stress axis : x y z
#
# Youngs Moduli (GPa) = 84.35586 8.08335 101.63407
#
# Poissons Ratio (x) = 0.09698 0.42019
# Poissons Ratio (y) = 1.01211 1.18164
# Poissons Ratio (z) = 0.34876 0.09398
#
# Static dielectric constant tensor:
#      x y z
#    x 3.731180 0.000000 0.000000 
#    y 0.000000 2.864060 0.000000 
#    z 0.000000 0.000000 3.746310 
# 
# 
# High freq. dielectric constant tensor:
#      x y z
#    x 1.733580 0.000000 0.000000 
#    y 0.000000 1.659130 0.000000 
#    z 0.000000 0.000000 1.740550 
# 
# From -- ./inp_files/25993.got.cif
#   From: 2010.03.12/outbox.cif.g09.slc.cpg/sg59_13_cif.got.tgz:25993.got - 2010.04.16 16:29:54.
