data_PCOD8242633
_publ_section_title
;
Structure prediction by ZEFSAII (Michael W. Deem and Ramdas Pophale) SiO2 
 PCOD8242633
Probable space group: P M M N
;
_chemical_formula_sum "Si O2"
_cell_formula_units_Z 56
_cell_length_a 9.613770
_cell_length_b 23.738210
_cell_length_c 14.153807
_cell_angle_alpha 90.000000
_cell_angle_beta 90.000000
_cell_angle_gamma 90.000000
_cell_volume 3230.092539
_symmetry_space_group_name_H-M "P M M N"
_symmetry_group_IT_number 59
_space_group.IT_coordinate_system_code '2'
_symmetry_cell_setting 'orthorhombic'
loop_
_space_group_symop_operation_xyz
x,y,z
1/2-x,1/2-y,z
1/2+x,-y,-z
-x,1/2+y,-z
-x,-y,-z
1/2+x,1/2+y,-z
1/2-x,y,z
x,1/2-y,z
loop_
_atom_site_type_symbol
_atom_site_label
_atom_site_fract_x
_atom_site_fract_y
_atom_site_fract_z
Si Si1 0.589943 0.415921 0.545730
Si Si2 0.410314 0.026351 0.698738
Si Si3 0.910516 0.097064 0.330747
Si Si4 0.414702 0.312458 0.007511
Si Si5 0.586870 0.629178 0.177680
Si Si6 0.411527 0.315655 0.217670
Si Si7 0.592993 0.313054 0.672340
O O1 0.750000 0.434529 0.556068
O O2 0.498819 0.459501 0.605805
O O3 0.542505 0.415948 0.437549
O O4 0.563768 0.352992 0.583623
O O5 0.250000 0.036491 0.671142
O O6 0.452518 0.065791 0.788316
O O7 0.434802 0.961180 0.727398
O O8 0.750000 0.116103 0.326983
O O9 0.002198 0.147131 0.290334
O O10 0.250000 0.308820 0.012734
O O11 0.472083 0.250000 0.980507
O O12 0.467240 0.329763 0.111870
O O13 0.462460 0.359069 0.930255
O O14 0.750000 0.640459 0.187345
O O15 0.510910 0.674479 0.242544
O O16 0.250000 0.331335 0.228605
O O17 0.436044 0.250000 0.240505
O O18 0.750000 0.321509 0.710242
O O19 0.567460 0.250000 0.635873
#
# Coordination Sequence:
#
# PCOD8242633 Si02
#       7
#     8   8   8   8   8   8   8
#     4   9  18  31  47  66  90 126 165 192 222 272
#     4   9  18  31  47  71  99 122 151 194 235 271
#     4  10  20  33  49  69  94 125 157 190 233 280
#     4   8  14  27  48  70  90 116 152 190 228 274
#     4   9  16  28  48  70  92 120 152 186 226 274
#     4   9  19  35  52  70  91 116 153 198 234 269
#     4   9  17  28  41  62  93 121 147 186 231 272
#
# _framework density 17.336964999999999
#
# number of rings (size 3 to 8) (size 9 to 14) (size 15 to 20)
#    0.000    3.000    0.000    1.714    0.000    2.857 
#    0.000    2.857    0.000    0.857    0.000    0.000 
#    0.000    0.000    0.000    0.000    0.000    0.000 
#
# Total GULP energy -694135.549042 kJ/mol
# GULP energy per Si atom -12395.277661 kJ/mol
# Density = 1.729751 g / cm^3
# Si number density = 17.336965 Si / 1000 Ang^3
#
#
#
# Elastic Constant Matrix: (Units=GPa)
#
#
# Indices 1 2 3 4 5 6 
#
# 1 47.6753 40.3946 37.4781 0.0000 0.0000 0.0000
# 2 40.3946 92.7128 45.7752 0.0000 0.0000 0.0000
# 3 37.4781 45.7752 85.3805 0.0000 0.0000 0.0000
# 4 0.0000 0.0000 0.0000 22.0032 0.0000 0.0000
# 5 0.0000 0.0000 0.0000 0.0000 19.9490 0.0000
# 6 0.0000 0.0000 0.0000 0.0000 0.0000 23.9356
#
#
#
# Elastic Compliance Matrix: (Units=1/GPa)
#
#
# Indices 1 2 3 4 5 6 
#
# 1 0.039717 -0.011828 -0.011093 0.000000 0.000000 0.000000
# 2 -0.011828 0.018191 -0.004561 0.000000 0.000000 0.000000
# 3 -0.011093 -0.004561 0.019027 0.000000 0.000000 0.000000
# 4 0.000000 0.000000 0.000000 0.045448 0.000000 0.000000
# 5 0.000000 0.000000 0.000000 0.000000 0.050128 0.000000
# 6 0.000000 0.000000 0.000000 0.000000 0.000000 0.041779
#
#
# Mechanical properties :
#
#
# Convention : Reuss Voigt Hill
#
# Bulk Modulus (GPa) = 45.51257 52.56270 49.03764
# Shear Modulus (GPa) = 18.07821 19.98559 19.03190
#
# Velocity S-wave (km/s) = 3.23268 3.39894 3.31685
# Velocity P-wave (km/s) = 6.34368 6.76667 6.55859
#
# Compressibility (1/GPa) = 0.02197195
#
# Stress axis : x y z
#
# Youngs Moduli (GPa) = 25.17833 54.97168 52.55748
#
# Poissons Ratio (x) = 0.65018 0.58300
# Poissons Ratio (y) = 0.29780 0.23972
# Poissons Ratio (z) = 0.27929 0.25073
#
# Static dielectric constant tensor:
#      x y z
#    x 3.090290 0.000000 0.000000 
#    y 0.000000 3.287240 0.000000 
#    z 0.000000 0.000000 3.259060 
# 
# 
# High freq. dielectric constant tensor:
#      x y z
#    x 1.653450 0.000000 0.000000 
#    y 0.000000 1.669980 0.000000 
#    z 0.000000 0.000000 1.658220 
# 
# From -- ./inp_files/20913.got.cif
#   From: 2010.03.12/outbox.cif.g09.slc.cpg/sg59_11_cif.got.tgz:20913.got - 2010.04.16 16:29:54.
