data_PCOD8242834
_publ_section_title
;
Structure prediction by ZEFSAII (Michael W. Deem and Ramdas Pophale) SiO2 
 PCOD8242834
Probable space group: P M M N
;
_chemical_formula_sum "Si O2"
_cell_formula_units_Z 56
_cell_length_a 9.047627
_cell_length_b 18.872953
_cell_length_c 17.955143
_cell_angle_alpha 90.000000
_cell_angle_beta 90.000000
_cell_angle_gamma 90.000000
_cell_volume 3065.938328
_symmetry_space_group_name_H-M "P M M N"
_symmetry_group_IT_number 59
_space_group.IT_coordinate_system_code '2'
_symmetry_cell_setting 'orthorhombic'
loop_
_space_group_symop_operation_xyz
x,y,z
1/2-x,1/2-y,z
1/2+x,-y,-z
-x,1/2+y,-z
-x,-y,-z
1/2+x,1/2+y,-z
1/2-x,y,z
x,1/2-y,z
loop_
_atom_site_type_symbol
_atom_site_label
_atom_site_fract_x
_atom_site_fract_y
_atom_site_fract_z
Si Si1 0.917993 0.829264 0.075375
Si Si2 0.077963 0.920646 0.796503
Si Si3 0.075526 0.832839 0.652943
Si Si4 0.079260 0.439433 0.047822
Si Si5 0.085202 0.965435 0.287745
Si Si6 0.918227 0.955298 0.563086
Si Si7 0.079349 0.827277 0.217305
O O1 0.750000 0.832628 0.102014
O O2 0.973346 0.750000 0.060738
O O3 0.011985 0.862495 0.142749
O O4 0.941503 0.868491 0.998497
O O5 0.250000 0.916778 0.815408
O O6 0.032410 0.858992 0.736851
O O7 0.989820 0.917882 0.873315
O O8 0.039959 0.995281 0.759166
O O9 0.250000 0.841920 0.640797
O O10 0.028259 0.750000 0.644272
O O11 0.995989 0.881743 0.590069
O O12 0.250000 0.460969 0.058598
O O13 0.000000 0.500000 0.000000
O O14 0.250000 0.980580 0.254338
O O15 0.049672 0.881443 0.284855
O O16 0.080200 0.987531 0.372201
O O17 0.750000 0.936690 0.539044
O O18 0.000000 0.000000 0.500000
O O19 0.250000 0.817014 0.202046
O O20 0.007623 0.750000 0.235483
#
# Coordination Sequence:
#
# PCOD8242834 Si02
#       7
#     8   8   8   8   8   8   8
#     4   9  19  34  48  64  90 125 162 199 244 296
#     4  10  20  33  51  75 101 131 169 214 263 313
#     4   9  19  37  59  82 109 142 180 222 270 324
#     4  11  22  34  49  70  98 132 171 216 263 311
#     4   9  18  33  52  73  99 131 167 204 244 297
#     4  10  20  35  56  82 111 143 177 213 257 311
#     4   9  17  30  49  71  93 120 158 203 246 289
#
# _framework density 18.265205999999999
#
# number of rings (size 3 to 8) (size 9 to 14) (size 15 to 20)
#    0.000    2.429    0.000    2.143    0.000    6.000 
#    0.000    0.714    0.000    2.571    0.000    0.000 
#    0.000    0.000    0.000    0.000    0.000    0.000 
#
# Total GULP energy -693903.335894 kJ/mol
# GULP energy per Si atom -12391.130998 kJ/mol
# Density = 1.822363 g / cm^3
# Si number density = 18.265206 Si / 1000 Ang^3
#
#
#
# Elastic Constant Matrix: (Units=GPa)
#
#
# Indices 1 2 3 4 5 6 
#
# 1 78.2276 56.3971 42.6940 0.0000 0.0000 0.0000
# 2 56.3971 118.0030 67.4059 0.0000 0.0000 0.0000
# 3 42.6940 67.4059 80.6677 0.0000 0.0000 0.0000
# 4 0.0000 0.0000 0.0000 23.7943 0.0000 0.0000
# 5 0.0000 0.0000 0.0000 0.0000 30.9456 0.0000
# 6 0.0000 0.0000 0.0000 0.0000 0.0000 25.7914
#
#
#
# Elastic Compliance Matrix: (Units=1/GPa)
#
#
# Indices 1 2 3 4 5 6 
#
# 1 0.020547 -0.006903 -0.005106 0.000000 0.000000 0.000000
# 2 -0.006903 0.018532 -0.011832 0.000000 0.000000 0.000000
# 3 -0.005106 -0.011832 0.024986 0.000000 0.000000 0.000000
# 4 0.000000 0.000000 0.000000 0.042027 0.000000 0.000000
# 5 0.000000 0.000000 0.000000 0.000000 0.032315 0.000000
# 6 0.000000 0.000000 0.000000 0.000000 0.000000 0.038773
#
#
# Mechanical properties :
#
#
# Convention : Reuss Voigt Hill
#
# Bulk Modulus (GPa) = 61.04229 67.76580 64.40405
# Shear Modulus (GPa) = 21.70866 23.46636 22.58751
#
# Velocity S-wave (km/s) = 3.45124 3.58824 3.52041
# Velocity P-wave (km/s) = 7.02666 7.37217 7.20149
#
# Compressibility (1/GPa) = 0.01638208
#
# Stress axis : x y z
#
# Youngs Moduli (GPa) = 48.66950 53.95992 40.02239
#
# Poissons Ratio (x) = 0.37249 0.20437
# Poissons Ratio (y) = 0.33597 0.47355
# Poissons Ratio (z) = 0.24852 0.63846
#
# Static dielectric constant tensor:
#      x y z
#    x 3.515600 0.000000 0.000000 
#    y 0.000000 3.768700 0.000000 
#    z 0.000000 0.000000 3.385160 
# 
# 
# High freq. dielectric constant tensor:
#      x y z
#    x 1.712210 0.000000 0.000000 
#    y 0.000000 1.711990 0.000000 
#    z 0.000000 0.000000 1.695630 
# 
# From -- ./inp_files/26134.got.cif
#   From: 2010.03.12/outbox.cif.g09.slc.cpg/sg59_14_cif.got.tgz:26134.got - 2010.04.16 16:29:54.
