data_PCOD8242360
_publ_section_title
;
Structure prediction by ZEFSAII (Michael W. Deem and Ramdas Pophale) SiO2 
 PCOD8242360
Probable space group: P M M N
;
_chemical_formula_sum "Si O2"
_cell_formula_units_Z 56
_cell_length_a 26.719459
_cell_length_b 8.741741
_cell_length_c 14.587613
_cell_angle_alpha 90.000000
_cell_angle_beta 90.000000
_cell_angle_gamma 90.000000
_cell_volume 3407.295729
_symmetry_space_group_name_H-M "P M M N"
_symmetry_group_IT_number 59
_space_group.IT_coordinate_system_code '2'
_symmetry_cell_setting 'orthorhombic'
loop_
_space_group_symop_operation_xyz
x,y,z
1/2-x,1/2-y,z
1/2+x,-y,-z
-x,1/2+y,-z
-x,-y,-z
1/2+x,1/2+y,-z
1/2-x,y,z
x,1/2-y,z
loop_
_atom_site_type_symbol
_atom_site_label
_atom_site_fract_x
_atom_site_fract_y
_atom_site_fract_z
Si Si1 0.456696 0.070199 0.381764
Si Si2 0.060834 0.431104 0.178632
Si Si3 0.612464 0.428394 0.256412
Si Si4 0.386662 0.569335 0.023780
Si Si5 0.434075 0.572849 0.560585
Si Si6 0.194737 0.569576 0.881458
Si Si7 0.459286 0.429650 0.881605
O O1 0.454911 0.250000 0.382867
O O2 0.435649 0.011825 0.284025
O O3 0.513543 0.011300 0.396826
O O4 0.421716 0.009728 0.464561
O O5 0.053065 0.250000 0.173323
O O6 0.110439 0.484186 0.122611
O O7 0.015968 0.517035 0.127817
O O8 0.600488 0.250000 0.235177
O O9 0.610411 0.458861 0.365923
O O10 0.666180 0.474646 0.213341
O O11 0.569291 0.530611 0.212141
O O12 0.385702 0.750000 0.038840
O O13 0.336975 0.512388 0.969469
O O14 0.434897 0.523080 0.964618
O O15 0.438968 0.750000 0.538162
O O16 0.250000 0.493180 0.881543
O O17 0.200151 0.750000 0.887136
O O18 0.456504 0.250000 0.902221
#
# Coordination Sequence:
#
# PCOD8242360 Si02
#       7
#     8   8   8   8   8   8   8
#     4   9  18  29  42  60  87 121 153 186 218 253
#     4  11  20  32  45  61  90 123 157 190 223 261
#     4   9  16  29  47  67  93 121 150 186 226 268
#     4  10  20  32  46  65  90 117 150 187 227 271
#     4   9  16  28  43  62  88 119 152 184 220 257
#     4   8  15  29  50  72  91 113 143 182 229 278
#     4  11  20  29  43  64  90 122 157 186 220 263
#
# _framework density 16.435323
#
# number of rings (size 3 to 8) (size 9 to 14) (size 15 to 20)
#    0.000    2.429    1.429    3.429    0.000    1.714 
#    0.000    0.000    0.000   10.714    0.000    1.000 
#    0.000    5.714    0.000    0.000    0.000    0.000 
#
# Total GULP energy -694080.268736 kJ/mol
# GULP energy per Si atom -12394.290513 kJ/mol
# Density = 1.639792 g / cm^3
# Si number density = 16.435323 Si / 1000 Ang^3
#
#
#
# Elastic Constant Matrix: (Units=GPa)
#
#
# Indices 1 2 3 4 5 6 
#
# 1 80.4224 13.1108 55.8057 0.0000 0.0000 0.0000
# 2 13.1108 34.7760 21.6436 0.0000 0.0000 0.0000
# 3 55.8057 21.6436 140.6141 0.0000 0.0000 0.0000
# 4 0.0000 0.0000 0.0000 28.4177 0.0000 0.0000
# 5 0.0000 0.0000 0.0000 0.0000 14.1193 0.0000
# 6 0.0000 0.0000 0.0000 0.0000 0.0000 11.4287
#
#
#
# Elastic Compliance Matrix: (Units=1/GPa)
#
#
# Indices 1 2 3 4 5 6 
#
# 1 0.017354 -0.002495 -0.006503 0.000000 0.000000 0.000000
# 2 -0.002495 0.032161 -0.003960 0.000000 0.000000 0.000000
# 3 -0.006503 -0.003960 0.010302 0.000000 0.000000 0.000000
# 4 0.000000 0.000000 0.000000 0.035189 0.000000 0.000000
# 5 0.000000 0.000000 0.000000 0.000000 0.070825 0.000000
# 6 0.000000 0.000000 0.000000 0.000000 0.000000 0.087499
#
#
# Mechanical properties :
#
#
# Convention : Reuss Voigt Hill
#
# Bulk Modulus (GPa) = 29.49848 48.54807 39.02327
# Shear Modulus (GPa) = 17.20894 21.80996 19.50945
#
# Velocity S-wave (km/s) = 3.23936 3.64678 3.44909
# Velocity P-wave (km/s) = 5.65495 6.88004 6.29736
#
# Compressibility (1/GPa) = 0.03390005
#
# Stress axis : x y z
#
# Youngs Moduli (GPa) = 57.62462 31.09381 97.06759
#
# Poissons Ratio (x) = 0.07758 0.63124
# Poissons Ratio (y) = 0.14378 0.38439
# Poissons Ratio (z) = 0.37474 0.12313
#
# Static dielectric constant tensor:
#      x y z
#    x 3.026670 0.000000 0.000000 
#    y 0.000000 2.961450 0.000000 
#    z 0.000000 0.000000 3.374830 
# 
# 
# High freq. dielectric constant tensor:
#      x y z
#    x 1.581320 0.000000 0.000000 
#    y 0.000000 1.622630 0.000000 
#    z 0.000000 0.000000 1.640210 
# 
# From -- ./inp_files/24979.got.cif
#   From: 2010.03.12/outbox.cif.g09.slc.cpg/sg59_13_cif.got.tgz:24979.got - 2010.04.16 16:29:54.
