data_PCOD8242529
_publ_section_title
;
Structure prediction by ZEFSAII (Michael W. Deem and Ramdas Pophale) SiO2 
 PCOD8242529
Probable space group: P M M N
;
_chemical_formula_sum "Si O2"
_cell_formula_units_Z 64
_cell_length_a 30.372213
_cell_length_b 8.656156
_cell_length_c 14.365069
_cell_angle_alpha 90.000000
_cell_angle_beta 90.000000
_cell_angle_gamma 90.000000
_cell_volume 3776.671648
_symmetry_space_group_name_H-M "P M M N"
_symmetry_group_IT_number 59
_space_group.IT_coordinate_system_code '2'
_symmetry_cell_setting 'orthorhombic'
loop_
_space_group_symop_operation_xyz
x,y,z
1/2-x,1/2-y,z
1/2+x,-y,-z
-x,1/2+y,-z
-x,-y,-z
1/2+x,1/2+y,-z
1/2-x,y,z
x,1/2-y,z
loop_
_atom_site_type_symbol
_atom_site_label
_atom_site_fract_x
_atom_site_fract_y
_atom_site_fract_z
Si Si1 0.042049 0.929896 0.946791
Si Si2 0.379639 0.428891 0.421668
Si Si3 0.574927 0.071101 0.747553
Si Si4 0.517553 0.070326 0.262762
Si Si5 0.201439 0.568676 0.350709
Si Si6 0.957460 0.565112 0.447204
Si Si7 0.299203 0.070452 0.153475
Si Si8 0.889238 0.930669 0.929949
O O1 0.043686 0.750000 0.971413
O O2 0.039796 0.958190 0.836576
O O3 0.088273 0.011284 0.974860
O O4 0.000000 0.000000 0.000000
O O5 0.372750 0.250000 0.435357
O O6 0.395784 0.464833 0.318047
O O7 0.331663 0.507353 0.430231
O O8 0.414248 0.491572 0.496994
O O9 0.585560 0.250000 0.728850
O O10 0.524454 0.038191 0.726034
O O11 0.584480 0.025663 0.852799
O O12 0.504818 0.250000 0.275989
O O13 0.549047 0.012196 0.345864
O O14 0.250000 0.502219 0.372696
O O15 0.201231 0.750000 0.354082
O O16 0.187294 0.519373 0.246614
O O17 0.960514 0.750000 0.441788
O O18 0.000000 0.500000 0.500000
O O19 0.250000 0.021714 0.117971
O O20 0.299857 0.250000 0.178774
O O21 0.336529 0.033664 0.075058
O O22 0.898481 0.750000 0.916402
#
# Coordination Sequence:
#
# PCOD8242529 Si02
#       8
#     8   8   8   8   8   8   8   8
#     4  11  23  36  53  74 101 137 175 214 257 306
#     4  11  22  35  51  74 104 139 176 211 255 310
#     4  12  22  31  50  74 103 140 176 214 255 301
#     4  11  23  38  53  72 102 136 176 219 258 304
#     4  10  20  32  49  75 104 135 172 212 255 305
#     4  11  23  36  54  76 102 136 175 215 257 306
#     4   9  18  32  50  72 101 137 171 206 253 305
#     4  11  21  33  51  75 105 138 175 215 254 305
#
# _framework density 16.946137
#
# number of rings (size 3 to 8) (size 9 to 14) (size 15 to 20)
#    0.000    1.250    3.750    3.375    0.000    4.250 
#    0.000    0.000    0.000    0.000    0.000    0.875 
#    0.000    3.000    0.000    0.000    0.000    0.000 
#
# Total GULP energy -793503.461382 kJ/mol
# GULP energy per Si atom -12398.491584 kJ/mol
# Density = 1.690757 g / cm^3
# Si number density = 16.946137 Si / 1000 Ang^3
#
#
#
# Elastic Constant Matrix: (Units=GPa)
#
#
# Indices 1 2 3 4 5 6 
#
# 1 129.8158 35.1060 50.9449 0.0000 0.0000 0.0000
# 2 35.1060 51.2654 27.7604 0.0000 0.0000 0.0000
# 3 50.9449 27.7604 86.6370 0.0000 0.0000 0.0000
# 4 0.0000 0.0000 0.0000 26.0640 0.0000 0.0000
# 5 0.0000 0.0000 0.0000 0.0000 26.6263 0.0000
# 6 0.0000 0.0000 0.0000 0.0000 0.0000 25.3279
#
#
#
# Elastic Compliance Matrix: (Units=1/GPa)
#
#
# Indices 1 2 3 4 5 6 
#
# 1 0.010925 -0.004843 -0.004872 0.000000 0.000000 0.000000
# 2 -0.004843 0.025748 -0.005403 0.000000 0.000000 0.000000
# 3 -0.004872 -0.005403 0.016139 0.000000 0.000000 0.000000
# 4 0.000000 0.000000 0.000000 0.038367 0.000000 0.000000
# 5 0.000000 0.000000 0.000000 0.000000 0.037557 0.000000
# 6 0.000000 0.000000 0.000000 0.000000 0.000000 0.039482
#
#
# Mechanical properties :
#
#
# Convention : Reuss Voigt Hill
#
# Bulk Modulus (GPa) = 44.29461 55.03786 49.66624
# Shear Modulus (GPa) = 24.27432 25.86411 25.06922
#
# Velocity S-wave (km/s) = 3.78886 3.91097 3.85040
# Velocity P-wave (km/s) = 6.73319 7.27618 7.00995
#
# Compressibility (1/GPa) = 0.02257611
#
# Stress axis : x y z
#
# Youngs Moduli (GPa) = 91.53300 38.83764 61.96312
#
# Poissons Ratio (x) = 0.18809 0.30191
# Poissons Ratio (y) = 0.44328 0.33476
# Poissons Ratio (z) = 0.44599 0.20982
#
# Static dielectric constant tensor:
#      x y z
#    x 3.546310 0.000000 0.000000 
#    y 0.000000 3.268060 0.000000 
#    z 0.000000 0.000000 3.111290 
# 
# 
# High freq. dielectric constant tensor:
#      x y z
#    x 1.652520 0.000000 0.000000 
#    y 0.000000 1.668420 0.000000 
#    z 0.000000 0.000000 1.621370 
# 
# From -- ./inp_files/21955.got.cif
#   From: 2010.03.12/outbox.cif.g09.slc.cpg/sg59_11_cif.got.tgz:21955.got - 2010.04.16 16:29:54.
