data_PCOD8242039
_publ_section_title
;
Structure prediction by ZEFSAII (Michael W. Deem and Ramdas Pophale) SiO2 
 PCOD8242039
Probable space group: P M M N
;
_chemical_formula_sum "Si O2"
_cell_formula_units_Z 40
_cell_length_a 19.152211
_cell_length_b 10.168705
_cell_length_c 10.696644
_cell_angle_alpha 90.000000
_cell_angle_beta 90.000000
_cell_angle_gamma 90.000000
_cell_volume 2083.205475
_symmetry_space_group_name_H-M "P M M N"
_symmetry_group_IT_number 59
_space_group.IT_coordinate_system_code '2'
_symmetry_cell_setting 'orthorhombic'
loop_
_space_group_symop_operation_xyz
x,y,z
1/2-x,1/2-y,z
1/2+x,-y,-z
-x,1/2+y,-z
-x,-y,-z
1/2+x,1/2+y,-z
1/2-x,y,z
x,1/2-y,z
loop_
_atom_site_type_symbol
_atom_site_label
_atom_site_fract_x
_atom_site_fract_y
_atom_site_fract_z
Si Si1 0.329309 0.750000 0.147341
Si Si2 0.016338 0.600787 0.834395
Si Si3 0.328691 0.250000 0.908121
Si Si4 0.583420 0.750000 0.342647
Si Si5 0.929788 0.476000 0.430723
Si Si6 0.916450 0.250000 0.604642
Si Si7 0.112111 0.490678 0.039842
O O1 0.250000 0.750000 0.190472
O O2 0.375754 0.750000 0.268562
O O3 0.343834 0.878961 0.065522
O O4 0.018084 0.750000 0.882879
O O5 0.050166 0.592815 0.698745
O O6 0.935781 0.549611 0.839926
O O7 0.061278 0.509247 0.923139
O O8 0.250000 0.250000 0.851324
O O9 0.387121 0.250000 0.798482
O O10 0.335979 0.375113 0.999222
O O11 0.610792 0.615542 0.409868
O O12 0.498518 0.750000 0.353234
O O13 0.889985 0.374284 0.521176
O O14 0.000000 0.500000 0.500000
#
# Coordination Sequence:
#
# PCOD8242039 Si02
#       7
#     4   8   4   4   8   4   8
#     4  12  26  45  61  84 122 167 214 257 302 364
#     4  11  20  34  64  98 119 150 197 256 307 363
#     4  12  24  39  57  88 128 166 196 241 308 374
#     4  10  20  36  59  91 121 153 196 253 300 362
#     4  10  19  34  58  90 122 150 193 247 308 350
#     4  10  22  38  63  85 115 160 210 253 306 360
#     4  11  23  38  62  90 125 157 200 248 309 370
#
# _framework density 19.201180000000001
#
# number of rings (size 3 to 8) (size 9 to 14) (size 15 to 20)
#    0.000    1.200    5.000    3.000    2.800    0.000 
#    0.000    1.000    0.000    0.000    0.000    0.000 
#    0.000    0.000    0.000    0.000    0.000    0.000 
#
# Total GULP energy -495675.285694 kJ/mol
# GULP energy per Si atom -12391.882142 kJ/mol
# Density = 1.915748 g / cm^3
# Si number density = 19.201180 Si / 1000 Ang^3
#
#
#
# Elastic Constant Matrix: (Units=GPa)
#
#
# Indices 1 2 3 4 5 6 
#
# 1 64.8804 31.2239 21.6557 0.0000 0.0000 0.0000
# 2 31.2239 166.1217 37.5077 0.0000 0.0000 0.0000
# 3 21.6557 37.5077 85.7100 0.0000 0.0000 0.0000
# 4 0.0000 0.0000 0.0000 30.4317 0.0000 0.0000
# 5 0.0000 0.0000 0.0000 0.0000 8.7536 0.0000
# 6 0.0000 0.0000 0.0000 0.0000 0.0000 6.7891
#
#
#
# Elastic Compliance Matrix: (Units=1/GPa)
#
#
# Indices 1 2 3 4 5 6 
#
# 1 0.017778 -0.002582 -0.003362 0.000000 0.000000 0.000000
# 2 -0.002582 0.007055 -0.002435 0.000000 0.000000 0.000000
# 3 -0.003362 -0.002435 0.013582 0.000000 0.000000 0.000000
# 4 0.000000 0.000000 0.000000 0.032860 0.000000 0.000000
# 5 0.000000 0.000000 0.000000 0.000000 0.114238 0.000000
# 6 0.000000 0.000000 0.000000 0.000000 0.000000 0.147295
#
#
# Mechanical properties :
#
#
# Convention : Reuss Voigt Hill
#
# Bulk Modulus (GPa) = 46.17462 55.27629 50.72545
# Shear Modulus (GPa) = 14.01400 24.28319 19.14860
#
# Velocity S-wave (km/s) = 2.70451 3.56008 3.16137
# Velocity P-wave (km/s) = 5.81829 6.76383 6.30880
#
# Compressibility (1/GPa) = 0.02165692
#
# Stress axis : x y z
#
# Youngs Moduli (GPa) = 56.24973 141.74717 73.62624
#
# Poissons Ratio (x) = 0.36606 0.24751
# Poissons Ratio (y) = 0.14526 0.17926
# Poissons Ratio (z) = 0.18909 0.34512
#
# Static dielectric constant tensor:
#      x y z
#    x 3.106240 0.000000 0.000000 
#    y 0.000000 0.428400 0.000000 
#    z 0.000000 0.000000 3.642620 
# 
# 
# High freq. dielectric constant tensor:
#      x y z
#    x 1.696220 0.000000 0.000000 
#    y 0.000000 1.778190 0.000000 
#    z 0.000000 0.000000 1.747480 
# 
# From -- ./inp_files/11182.got.cif
#   From: 2010.03.12/outbox.cif.g09.slc.cpg/sg59_6_cif.got.tgz:11182.got - 2010.04.16 16:29:54.
