data_PCOD8242763
_publ_section_title
;
Structure prediction by ZEFSAII (Michael W. Deem and Ramdas Pophale) SiO2 
 PCOD8242763
Probable space group: P M M N
;
_chemical_formula_sum "Si O2"
_cell_formula_units_Z 48
_cell_length_a 9.279257
_cell_length_b 9.132025
_cell_length_c 30.948819
_cell_angle_alpha 90.000000
_cell_angle_beta 90.000000
_cell_angle_gamma 90.000000
_cell_volume 2622.553618
_symmetry_space_group_name_H-M "P M M N"
_symmetry_group_IT_number 59
_space_group.IT_coordinate_system_code '2'
_symmetry_cell_setting 'orthorhombic'
loop_
_space_group_symop_operation_xyz
x,y,z
1/2-x,1/2-y,z
1/2+x,-y,-z
-x,1/2+y,-z
-x,-y,-z
1/2+x,1/2+y,-z
1/2-x,y,z
x,1/2-y,z
loop_
_atom_site_type_symbol
_atom_site_label
_atom_site_fract_x
_atom_site_fract_y
_atom_site_fract_z
Si Si1 0.421261 0.584637 0.876045
Si Si2 0.580579 0.919085 0.208427
Si Si3 0.920986 0.588232 0.620786
Si Si4 0.580579 0.418728 0.537968
Si Si5 0.082158 0.079713 0.282943
Si Si6 0.919889 0.579830 0.038494
O O1 0.250000 0.585442 0.875183
O O2 0.482247 0.750000 0.878554
O O3 0.480337 0.507492 0.832818
O O4 0.475551 0.493023 0.917193
O O5 0.750000 0.942703 0.213451
O O6 0.541237 0.750000 0.201725
O O7 0.506909 0.977959 0.251308
O O8 0.750000 0.595123 0.621022
O O9 0.982574 0.750000 0.610277
O O10 0.976848 0.477507 0.584146
O O11 0.970650 0.538512 0.668562
O O12 0.500000 0.500000 0.500000
O O13 0.750000 0.447027 0.532950
O O14 0.540047 0.250000 0.535435
O O15 0.250000 0.044959 0.276889
O O16 0.050573 0.250000 0.273443
O O17 0.750000 0.557691 0.032523
O O18 0.962051 0.750000 0.039201
O O19 0.000000 0.500000 0.000000
#
# Coordination Sequence:
#
# PCOD8242763 Si02
#       6
#     8   8   8   8   8   8
#     4   9  17  31  52  74  97 130 169 205 245 295
#     4  10  20  33  50  74 103 133 166 204 245 291
#     4   8  15  30  51  72  96 128 164 201 243 292
#     4  10  20  33  51  75 100 128 164 203 244 292
#     4   9  18  33  53  76 100 128 164 204 246 294
#     4  10  20  34  53  77 104 133 166 205 248 294
#
# _framework density 18.302772000000001
#
# number of rings (size 3 to 8) (size 9 to 14) (size 15 to 20)
#    0.000    2.667    0.000    3.000    0.000    6.000 
#    0.000    3.333    0.000    6.000    0.000    0.000 
#    0.000    0.000    0.000    0.000    0.000    0.000 
#
# Total GULP energy -595154.382844 kJ/mol
# GULP energy per Si atom -12399.049643 kJ/mol
# Density = 1.826111 g / cm^3
# Si number density = 18.302772 Si / 1000 Ang^3
#
#
#
# Elastic Constant Matrix: (Units=GPa)
#
#
# Indices 1 2 3 4 5 6 
#
# 1 24.7381 43.4374 40.5848 0.0000 0.0000 0.0000
# 2 43.4374 157.8891 104.3133 0.0000 0.0000 0.0000
# 3 40.5848 104.3133 178.1264 0.0000 0.0000 0.0000
# 4 0.0000 0.0000 0.0000 43.2714 0.0000 0.0000
# 5 0.0000 0.0000 0.0000 0.0000 31.7092 0.0000
# 6 0.0000 0.0000 0.0000 0.0000 0.0000 25.4408
#
#
#
# Elastic Compliance Matrix: (Units=1/GPa)
#
#
# Indices 1 2 3 4 5 6 
#
# 1 0.087001 -0.017679 -0.009470 0.000000 0.000000 0.000000
# 2 -0.017679 0.013923 -0.004125 0.000000 0.000000 0.000000
# 3 -0.009470 -0.004125 0.010187 0.000000 0.000000 0.000000
# 4 0.000000 0.000000 0.000000 0.023110 0.000000 0.000000
# 5 0.000000 0.000000 0.000000 0.000000 0.031537 0.000000
# 6 0.000000 0.000000 0.000000 0.000000 0.000000 0.039307
#
#
# Mechanical properties :
#
#
# Convention : Reuss Voigt Hill
#
# Bulk Modulus (GPa) = 20.59145 81.93606 51.26376
# Shear Modulus (GPa) = 17.61799 31.57882 24.59840
#
# Velocity S-wave (km/s) = 3.10592 4.15825 3.67000
# Velocity P-wave (km/s) = 4.91296 8.24129 6.78440
#
# Compressibility (1/GPa) = 0.04856384
#
# Stress axis : x y z
#
# Youngs Moduli (GPa) = 11.49407 71.82461 98.16009
#
# Poissons Ratio (x) = 1.26978 0.92953
# Poissons Ratio (y) = 0.20320 0.40495
# Poissons Ratio (z) = 0.10884 0.29630
#
# Static dielectric constant tensor:
#      x y z
#    x 2.960170 0.000000 0.000000 
#    y 0.000000 3.665770 0.000000 
#    z 0.000000 0.000000 0.915010 
# 
# 
# High freq. dielectric constant tensor:
#      x y z
#    x 1.664600 0.000000 0.000000 
#    y 0.000000 1.720440 0.000000 
#    z 0.000000 0.000000 1.727600 
# 
# From -- ./inp_files/31244.got.cif
#   From: 2010.03.12/outbox.cif.g09.slc.cpg/sg59_16_cif.got.tgz:31244.got - 2010.04.16 16:29:54.
