data_PCOD8242938
_publ_section_title
;
Structure prediction by ZEFSAII (Michael W. Deem and Ramdas Pophale) SiO2 
 PCOD8242938
Probable space group: P M M N
;
_chemical_formula_sum "Si O2"
_cell_formula_units_Z 48
_cell_length_a 8.999162
_cell_length_b 18.395308
_cell_length_c 16.306218
_cell_angle_alpha 90.000000
_cell_angle_beta 90.000000
_cell_angle_gamma 90.000000
_cell_volume 2699.369757
_symmetry_space_group_name_H-M "P M M N"
_symmetry_group_IT_number 59
_space_group.IT_coordinate_system_code '2'
_symmetry_cell_setting 'orthorhombic'
loop_
_space_group_symop_operation_xyz
x,y,z
1/2-x,1/2-y,z
1/2+x,-y,-z
-x,1/2+y,-z
-x,-y,-z
1/2+x,1/2+y,-z
1/2-x,y,z
x,1/2-y,z
loop_
_atom_site_type_symbol
_atom_site_label
_atom_site_fract_x
_atom_site_fract_y
_atom_site_fract_z
Si Si1 0.419600 0.045944 0.742320
Si Si2 0.425403 0.668113 0.166345
Si Si3 0.574855 0.102567 0.180108
Si Si4 0.423902 0.166194 0.335139
Si Si5 0.926333 0.331075 0.013873
Si Si6 0.075409 0.536319 0.577595
O O1 0.250000 0.068804 0.751836
O O2 0.514892 0.116561 0.762512
O O3 0.461525 0.981604 0.804898
O O4 0.455326 0.019580 0.651083
O O5 0.250000 0.666084 0.169765
O O6 0.482297 0.750000 0.182704
O O7 0.481511 0.641743 0.075781
O O8 0.750000 0.118306 0.191423
O O9 0.489613 0.153165 0.244674
O O10 0.515927 0.118890 0.088284
O O11 0.250000 0.147472 0.334239
O O12 0.451794 0.250000 0.360111
O O13 0.503882 0.114685 0.401999
O O14 0.750000 0.330200 0.013927
O O15 0.986932 0.250000 0.029420
O O16 0.250000 0.548054 0.562813
O O17 0.000000 0.500000 0.500000
#
# Coordination Sequence:
#
# PCOD8242938 Si02
#       6
#     8   8   8   8   8   8
#     4   9  19  33  49  73 100 125 157 199 249 301
#     4   9  18  32  49  69  94 129 174 214 245 287
#     4   9  17  30  49  72  99 133 171 207 247 299
#     4  10  20  33  51  78 110 138 166 204 248 295
#     4   8  14  26  45  68  95 130 171 211 247 284
#     4  10  21  38  59  80 103 131 164 203 250 307
#
# _framework density 17.781928000000001
#
# number of rings (size 3 to 8) (size 9 to 14) (size 15 to 20)
#    0.000    2.833    0.000    3.500    0.000    6.333 
#    0.000    1.667    0.000    2.000    0.000    0.000 
#    0.000    0.000    0.000    0.000    0.000    0.000 
#
# Total GULP energy -595008.699425 kJ/mol
# GULP energy per Si atom -12396.014571 kJ/mol
# Density = 1.774146 g / cm^3
# Si number density = 17.781928 Si / 1000 Ang^3
#
#
#
# Elastic Constant Matrix: (Units=GPa)
#
#
# Indices 1 2 3 4 5 6 
#
# 1 67.5965 52.3264 41.5352 0.0000 0.0000 0.0000
# 2 52.3264 114.4121 67.0586 0.0000 0.0000 0.0000
# 3 41.5352 67.0586 87.4538 0.0000 0.0000 0.0000
# 4 0.0000 0.0000 0.0000 26.7013 0.0000 0.0000
# 5 0.0000 0.0000 0.0000 0.0000 26.6660 0.0000
# 6 0.0000 0.0000 0.0000 0.0000 0.0000 30.1617
#
#
#
# Elastic Compliance Matrix: (Units=1/GPa)
#
#
# Indices 1 2 3 4 5 6 
#
# 1 0.024264 -0.007888 -0.005476 0.000000 0.000000 0.000000
# 2 -0.007888 0.018439 -0.010393 0.000000 0.000000 0.000000
# 3 -0.005476 -0.010393 0.022004 0.000000 0.000000 0.000000
# 4 0.000000 0.000000 0.000000 0.037451 0.000000 0.000000
# 5 0.000000 0.000000 0.000000 0.000000 0.037501 0.000000
# 6 0.000000 0.000000 0.000000 0.000000 0.000000 0.033155
#
#
# Mechanical properties :
#
#
# Convention : Reuss Voigt Hill
#
# Bulk Modulus (GPa) = 58.15606 65.70031 61.92818
# Shear Modulus (GPa) = 22.11814 23.94195 23.03004
#
# Velocity S-wave (km/s) = 3.53066 3.67334 3.60271
# Velocity P-wave (km/s) = 7.02829 7.41750 7.22551
#
# Compressibility (1/GPa) = 0.01719511
#
# Stress axis : x y z
#
# Youngs Moduli (GPa) = 41.21296 54.23238 45.44576
#
# Poissons Ratio (x) = 0.42778 0.24885
# Poissons Ratio (y) = 0.32508 0.47230
# Poissons Ratio (z) = 0.22567 0.56362
#
# Static dielectric constant tensor:
#      x y z
#    x 3.121940 0.000000 0.000000 
#    y 0.000000 3.300700 0.000000 
#    z 0.000000 0.000000 3.421220 
# 
# 
# High freq. dielectric constant tensor:
#      x y z
#    x 1.673330 0.000000 0.000000 
#    y 0.000000 1.684940 0.000000 
#    z 0.000000 0.000000 1.682930 
# 
# From -- ./inp_files/20290.got.cif
#   From: 2010.03.12/outbox.cif.g09.slc.cpg/sg59_11_cif.got.tgz:20290.got - 2010.04.16 16:29:54.
