data_PCOD8242728
_publ_section_title
;
Structure prediction by ZEFSAII (Michael W. Deem and Ramdas Pophale) SiO2 
 PCOD8242728
Probable space group: P M M N
;
_chemical_formula_sum "Si O2"
_cell_formula_units_Z 56
_cell_length_a 8.861502
_cell_length_b 18.323430
_cell_length_c 19.601217
_cell_angle_alpha 90.000000
_cell_angle_beta 90.000000
_cell_angle_gamma 90.000000
_cell_volume 3182.710595
_symmetry_space_group_name_H-M "P M M N"
_symmetry_group_IT_number 59
_space_group.IT_coordinate_system_code '2'
_symmetry_cell_setting 'orthorhombic'
loop_
_space_group_symop_operation_xyz
x,y,z
1/2-x,1/2-y,z
1/2+x,-y,-z
-x,1/2+y,-z
-x,-y,-z
1/2+x,1/2+y,-z
1/2-x,y,z
x,1/2-y,z
loop_
_atom_site_type_symbol
_atom_site_label
_atom_site_fract_x
_atom_site_fract_y
_atom_site_fract_z
Si Si1 0.427320 0.667717 0.063603
Si Si2 0.080743 0.665177 0.379911
Si Si3 0.427071 0.966261 0.567467
Si Si4 0.426990 0.332806 0.478998
Si Si5 0.427621 0.054350 0.702171
Si Si6 0.429275 0.531667 0.155252
Si Si7 0.572197 0.059197 0.048243
O O1 0.250000 0.673902 0.074022
O O2 0.497853 0.750000 0.073090
O O3 0.487349 0.607325 0.118675
O O4 0.462449 0.638374 0.986329
O O5 0.250000 0.632888 0.387495
O O6 0.089377 0.750000 0.367558
O O7 0.983813 0.644790 0.446139
O O8 0.994266 0.634113 0.313996
O O9 0.250000 0.967204 0.557324
O O10 0.488240 0.883522 0.575586
O O11 0.500000 0.000000 0.500000
O O12 0.474423 0.005789 0.637035
O O13 0.250000 0.346848 0.476890
O O14 0.469734 0.250000 0.461223
O O15 0.250000 0.056961 0.715099
O O16 0.510735 0.025270 0.768521
O O17 0.250000 0.528597 0.153134
O O18 0.494036 0.457096 0.120805
O O19 0.750000 0.046895 0.054708
O O20 0.500000 0.000000 0.000000
#
# Coordination Sequence:
#
# PCOD8242728 Si02
#       7
#     8   8   8   8   8   8   8
#     4   8  15  29  51  79 106 133 168 207 246 292
#     4  10  20  33  50  72  99 134 173 210 255 315
#     4  11  22  35  54  77 102 134 177 229 277 323
#     4  10  20  34  53  76 101 129 164 213 271 324
#     4  11  23  36  51  74 104 139 177 221 270 318
#     4  10  20  33  51  74 104 141 175 212 258 312
#     4   9  16  29  51  75 101 134 171 210 249 295
#
# _framework density 17.595065000000002
#
# number of rings (size 3 to 8) (size 9 to 14) (size 15 to 20)
#    0.000    2.143    1.429    3.429    0.000    4.000 
#    0.000    1.429    0.000   15.857    0.000    2.000 
#    0.000    0.000    0.000    0.000    0.000    0.000 
#
# Total GULP energy -693968.989878 kJ/mol
# GULP energy per Si atom -12392.303391 kJ/mol
# Density = 1.755502 g / cm^3
# Si number density = 17.595065 Si / 1000 Ang^3
#
#
#
# Elastic Constant Matrix: (Units=GPa)
#
#
# Indices 1 2 3 4 5 6 
#
# 1 72.8285 32.1790 47.6245 0.0000 0.0000 0.0000
# 2 32.1790 72.4693 52.2835 0.0000 0.0000 0.0000
# 3 47.6245 52.2835 110.0933 0.0000 0.0000 0.0000
# 4 0.0000 0.0000 0.0000 25.4200 0.0000 0.0000
# 5 0.0000 0.0000 0.0000 0.0000 29.9099 0.0000
# 6 0.0000 0.0000 0.0000 0.0000 0.0000 26.7905
#
#
#
# Elastic Compliance Matrix: (Units=1/GPa)
#
#
# Indices 1 2 3 4 5 6 
#
# 1 0.019878 -0.003990 -0.006704 0.000000 0.000000 0.000000
# 2 -0.003990 0.021792 -0.008623 0.000000 0.000000 0.000000
# 3 -0.006704 -0.008623 0.016078 0.000000 0.000000 0.000000
# 4 0.000000 0.000000 0.000000 0.039339 0.000000 0.000000
# 5 0.000000 0.000000 0.000000 0.000000 0.033434 0.000000
# 6 0.000000 0.000000 0.000000 0.000000 0.000000 0.037327
#
#
# Mechanical properties :
#
#
# Convention : Reuss Voigt Hill
#
# Bulk Modulus (GPa) = 52.31726 57.72945 55.02335
# Shear Modulus (GPa) = 23.49049 24.64436 24.06742
#
# Velocity S-wave (km/s) = 3.65781 3.74657 3.70246
# Velocity P-wave (km/s) = 6.90203 7.18310 7.04397
#
# Compressibility (1/GPa) = 0.01911415
#
# Stress axis : x y z
#
# Youngs Moduli (GPa) = 50.30770 45.88905 62.19544
#
# Poissons Ratio (x) = 0.18309 0.41696
# Poissons Ratio (y) = 0.20071 0.53631
# Poissons Ratio (z) = 0.33726 0.39570
#
# Static dielectric constant tensor:
#      x y z
#    x 3.491880 0.000000 0.000000 
#    y 0.000000 3.941350 0.000000 
#    z 0.000000 0.000000 3.368400 
# 
# 
# High freq. dielectric constant tensor:
#      x y z
#    x 1.685300 0.000000 0.000000 
#    y 0.000000 1.674860 0.000000 
#    z 0.000000 0.000000 1.660590 
# 
# From -- ./inp_files/29283.got.cif
#   From: 2010.03.12/outbox.cif.g09.slc.cpg/sg59_15_cif.got.tgz:29283.got - 2010.04.16 16:29:54.
