data_PCOD8242988
_publ_section_title
;
Structure prediction by ZEFSAII (Michael W. Deem and Ramdas Pophale) SiO2 
 PCOD8242988
Probable space group: P M M N
;
_chemical_formula_sum "Si O2"
_cell_formula_units_Z 48
_cell_length_a 13.784539
_cell_length_b 9.210841
_cell_length_c 20.544818
_cell_angle_alpha 90.000000
_cell_angle_beta 90.000000
_cell_angle_gamma 90.000000
_cell_volume 2608.517954
_symmetry_space_group_name_H-M "P M M N"
_symmetry_group_IT_number 59
_space_group.IT_coordinate_system_code '2'
_symmetry_cell_setting 'orthorhombic'
loop_
_space_group_symop_operation_xyz
x,y,z
1/2-x,1/2-y,z
1/2+x,-y,-z
-x,1/2+y,-z
-x,-y,-z
1/2+x,1/2+y,-z
1/2-x,y,z
x,1/2-y,z
loop_
_atom_site_type_symbol
_atom_site_label
_atom_site_fract_x
_atom_site_fract_y
_atom_site_fract_z
Si Si1 0.547740 0.919645 0.096057
Si Si2 0.140673 0.583117 0.019987
Si Si3 0.638369 0.080517 0.212611
Si Si4 0.851730 0.915971 0.614473
Si Si5 0.591992 0.584139 0.475029
Si Si6 0.563306 0.421690 0.354240
O O1 0.568596 0.750000 0.101228
O O2 0.435595 0.952729 0.077368
O O3 0.568381 0.992465 0.165047
O O4 0.620045 0.984355 0.042356
O O5 0.250000 0.552038 0.045209
O O6 0.129076 0.750000 0.997759
O O7 0.750000 0.037223 0.200662
O O8 0.621857 0.250000 0.200072
O O9 0.608815 0.037573 0.285401
O O10 0.750000 0.984810 0.642894
O O11 0.856598 0.750000 0.636972
O O12 0.836177 0.924625 0.536170
O O13 0.952141 0.985360 0.641234
O O14 0.500000 0.500000 0.500000
O O15 0.568121 0.750000 0.456657
O O16 0.628310 0.501841 0.409516
O O17 0.566266 0.250000 0.368030
#
# Coordination Sequence:
#
# PCOD8242988 Si02
#       6
#     8   8   8   8   8   8
#     4  10  20  33  52  79 105 129 165 209 242 279
#     4   9  18  34  55  77 104 137 165 194 243 297
#     4  10  21  36  51  68  97 136 169 199 246 303
#     4   8  14  26  45  67  89 114 147 190 239 285
#     4   9  16  27  45  67  91 119 151 191 239 287
#     4   9  18  32  48  66  90 122 160 198 235 283
#
# _framework density 18.401253000000001
#
# number of rings (size 3 to 8) (size 9 to 14) (size 15 to 20)
#    0.000    2.833    0.000    2.500    0.000    4.667 
#    0.000    0.833    0.000   13.000    0.000    0.000 
#    0.000    0.000    0.000    0.000    0.000    0.000 
#
# Total GULP energy -594658.060431 kJ/mol
# GULP energy per Si atom -12388.709592 kJ/mol
# Density = 1.835937 g / cm^3
# Si number density = 18.401253 Si / 1000 Ang^3
#
#
#
# Elastic Constant Matrix: (Units=GPa)
#
#
# Indices 1 2 3 4 5 6 
#
# 1 96.1096 29.5375 30.4031 0.0000 0.0000 0.0000
# 2 29.5375 66.6237 48.3849 0.0000 0.0000 0.0000
# 3 30.4031 48.3849 97.7678 0.0000 0.0000 0.0000
# 4 0.0000 0.0000 0.0000 33.6571 0.0000 0.0000
# 5 0.0000 0.0000 0.0000 0.0000 7.8166 0.0000
# 6 0.0000 0.0000 0.0000 0.0000 0.0000 17.7776
#
#
#
# Elastic Compliance Matrix: (Units=1/GPa)
#
#
# Indices 1 2 3 4 5 6 
#
# 1 0.012235 -0.004154 -0.001749 0.000000 0.000000 0.000000
# 2 -0.004154 0.024842 -0.011002 0.000000 0.000000 0.000000
# 3 -0.001749 -0.011002 0.016217 0.000000 0.000000 0.000000
# 4 0.000000 0.000000 0.000000 0.029711 0.000000 0.000000
# 5 0.000000 0.000000 0.000000 0.000000 0.127932 0.000000
# 6 0.000000 0.000000 0.000000 0.000000 0.000000 0.056251
#
#
# Mechanical properties :
#
#
# Convention : Reuss Voigt Hill
#
# Bulk Modulus (GPa) = 51.32645 53.01689 52.17167
# Shear Modulus (GPa) = 16.26054 21.99529 19.12792
#
# Velocity S-wave (km/s) = 2.97588 3.46108 3.22761
# Velocity P-wave (km/s) = 6.30565 6.69673 6.50413
#
# Compressibility (1/GPa) = 0.01948313
#
# Stress axis : x y z
#
# Youngs Moduli (GPa) = 81.73474 40.25491 61.66337
#
# Poissons Ratio (x) = 0.16723 0.10783
# Poissons Ratio (y) = 0.33954 0.67843
# Poissons Ratio (z) = 0.14293 0.44289
#
# Static dielectric constant tensor:
#      x y z
#    x 3.585840 0.000000 0.000000 
#    y 0.000000 3.412000 0.000000 
#    z 0.000000 0.000000 3.369410 
# 
# 
# High freq. dielectric constant tensor:
#      x y z
#    x 1.718820 0.000000 0.000000 
#    y 0.000000 1.697010 0.000000 
#    z 0.000000 0.000000 1.694620 
# 
# From -- ./inp_files/28841.got.cif
#   From: 2010.03.12/outbox.cif.g09.slc.cpg/sg59_15_cif.got.tgz:28841.got - 2010.04.16 16:29:54.
