data_PCOD8242414
_publ_section_title
;
Structure prediction by ZEFSAII (Michael W. Deem and Ramdas Pophale) SiO2 
 PCOD8242414
Probable space group: P M M N
;
_chemical_formula_sum "Si O2"
_cell_formula_units_Z 64
_cell_length_a 9.296565
_cell_length_b 17.602728
_cell_length_c 22.610637
_cell_angle_alpha 90.000000
_cell_angle_beta 90.000000
_cell_angle_gamma 90.000000
_cell_volume 3700.115545
_symmetry_space_group_name_H-M "P M M N"
_symmetry_group_IT_number 59
_space_group.IT_coordinate_system_code '2'
_symmetry_cell_setting 'orthorhombic'
loop_
_space_group_symop_operation_xyz
x,y,z
1/2-x,1/2-y,z
1/2+x,-y,-z
-x,1/2+y,-z
-x,-y,-z
1/2+x,1/2+y,-z
1/2-x,y,z
x,1/2-y,z
loop_
_atom_site_type_symbol
_atom_site_label
_atom_site_fract_x
_atom_site_fract_y
_atom_site_fract_z
Si Si1 0.414761 0.567036 0.469782
Si Si2 0.080971 0.958664 0.755229
Si Si3 0.086974 0.163556 0.176953
Si Si4 0.916800 0.393060 0.069943
Si Si5 0.586756 0.528951 0.638784
Si Si6 0.586398 0.549640 0.129971
Si Si7 0.083408 0.336594 0.449695
Si Si8 0.419007 0.836358 0.057403
O O1 0.500000 0.500000 0.500000
O O2 0.250000 0.568266 0.491286
O O3 0.423020 0.548614 0.399908
O O4 0.491395 0.645111 0.490693
O O5 0.250000 0.941981 0.751659
O O6 0.001168 0.881753 0.773696
O O7 0.021766 0.985122 0.692317
O O8 0.047808 0.023677 0.803580
O O9 0.250000 0.132128 0.172594
O O10 0.087195 0.250000 0.198131
O O11 0.012423 0.158077 0.113084
O O12 0.750000 0.370689 0.079643
O O13 0.942944 0.481179 0.084302
O O14 0.967224 0.376401 0.003443
O O15 0.750000 0.540003 0.661834
O O16 0.540125 0.604882 0.602538
O O17 0.750000 0.576705 0.126033
O O18 0.488520 0.620679 0.112803
O O19 0.250000 0.347924 0.465981
O O20 0.051173 0.250000 0.429739
O O21 0.250000 0.840696 0.065684
O O22 0.473865 0.750000 0.057049
#
# Coordination Sequence:
#
# PCOD8242414 Si02
#       8
#     8   8   8   8   8   8   8   8
#     4   9  17  30  49  73 100 130 164 199 236 280
#     4  10  21  35  51  71  94 125 167 207 243 286
#     4  10  20  32  47  69  97 129 163 197 237 288
#     4   9  18  33  51  71  97 126 157 195 240 292
#     4   9  18  32  50  73 100 131 166 203 242 283
#     4   9  19  34  50  70  95 125 161 200 242 287
#     4   9  18  32  50  75 108 139 163 194 239 286
#     4  10  20  32  49  74  99 124 155 194 245 299
#
# _framework density 17.296756999999999
#
# number of rings (size 3 to 8) (size 9 to 14) (size 15 to 20)
#    0.000    2.625    0.000    3.375    0.000    8.000 
#    0.000    1.250    0.000    0.750    0.000    0.000 
#    0.000    0.000    0.000    0.000    0.000    0.000 
#
# Total GULP energy -793467.718732 kJ/mol
# GULP energy per Si atom -12397.933105 kJ/mol
# Density = 1.725739 g / cm^3
# Si number density = 17.296757 Si / 1000 Ang^3
#
#
#
# Elastic Constant Matrix: (Units=GPa)
#
#
# Indices 1 2 3 4 5 6 
#
# 1 87.3269 36.5630 54.8173 0.0000 0.0000 0.0000
# 2 36.5630 72.4479 49.3820 0.0000 0.0000 0.0000
# 3 54.8173 49.3820 100.3007 0.0000 0.0000 0.0000
# 4 0.0000 0.0000 0.0000 15.2796 0.0000 0.0000
# 5 0.0000 0.0000 0.0000 0.0000 32.8963 0.0000
# 6 0.0000 0.0000 0.0000 0.0000 0.0000 28.7635
#
#
#
# Elastic Compliance Matrix: (Units=1/GPa)
#
#
# Indices 1 2 3 4 5 6 
#
# 1 0.018030 -0.003586 -0.008088 0.000000 0.000000 0.000000
# 2 -0.003586 0.021488 -0.008619 0.000000 0.000000 0.000000
# 3 -0.008088 -0.008619 0.018634 0.000000 0.000000 0.000000
# 4 0.000000 0.000000 0.000000 0.065447 0.000000 0.000000
# 5 0.000000 0.000000 0.000000 0.000000 0.030399 0.000000
# 6 0.000000 0.000000 0.000000 0.000000 0.000000 0.034766
#
#
# Mechanical properties :
#
#
# Convention : Reuss Voigt Hill
#
# Bulk Modulus (GPa) = 56.93349 60.17781 58.55565
# Shear Modulus (GPa) = 21.25793 23.34211 22.30002
#
# Velocity S-wave (km/s) = 3.50953 3.67755 3.59452
# Velocity P-wave (km/s) = 7.02919 7.27320 7.15224
#
# Compressibility (1/GPa) = 0.01756435
#
# Stress axis : x y z
#
# Youngs Moduli (GPa) = 55.46325 46.53735 53.66474
#
# Poissons Ratio (x) = 0.16689 0.43406
# Poissons Ratio (y) = 0.19890 0.46256
# Poissons Ratio (z) = 0.44860 0.40113
#
# Static dielectric constant tensor:
#      x y z
#    x 3.342050 0.000000 0.000000 
#    y 0.000000 3.260660 0.000000 
#    z 0.000000 0.000000 3.222810 
# 
# 
# High freq. dielectric constant tensor:
#      x y z
#    x 1.676070 0.000000 0.000000 
#    y 0.000000 1.649970 0.000000 
#    z 0.000000 0.000000 1.653170 
# 
# From -- ./inp_files/31706.got.cif
#   From: 2010.03.12/outbox.cif.g09.slc.cpg/sg59_16_cif.got.tgz:31706.got - 2010.04.16 16:29:54.
