data_PCOD8242564
_publ_section_title
;
Structure prediction by ZEFSAII (Michael W. Deem and Ramdas Pophale) SiO2 
 PCOD8242564
Probable space group: P M M N
;
_chemical_formula_sum "Si O2"
_cell_formula_units_Z 64
_cell_length_a 8.848467
_cell_length_b 19.535292
_cell_length_c 19.427596
_cell_angle_alpha 90.000000
_cell_angle_beta 90.000000
_cell_angle_gamma 90.000000
_cell_volume 3358.203472
_symmetry_space_group_name_H-M "P M M N"
_symmetry_group_IT_number 59
_space_group.IT_coordinate_system_code '2'
_symmetry_cell_setting 'orthorhombic'
loop_
_space_group_symop_operation_xyz
x,y,z
1/2-x,1/2-y,z
1/2+x,-y,-z
-x,1/2+y,-z
-x,-y,-z
1/2+x,1/2+y,-z
1/2-x,y,z
x,1/2-y,z
loop_
_atom_site_type_symbol
_atom_site_label
_atom_site_fract_x
_atom_site_fract_y
_atom_site_fract_z
Si Si1 0.924650 0.027476 0.432308
Si Si2 0.571534 0.328995 0.776596
Si Si3 0.920661 0.323880 0.392171
Si Si4 0.424547 0.169987 0.922081
Si Si5 0.569503 0.953331 0.292250
Si Si6 0.925008 0.440455 0.180690
Si Si7 0.917542 0.674408 0.746605
Si Si8 0.569510 0.431549 0.027264
O O1 0.750000 0.010276 0.436412
O O2 0.987421 0.990750 0.362596
O O3 0.956165 0.109103 0.436889
O O4 0.000000 0.000000 0.500000
O O5 0.750000 0.339328 0.780695
O O6 0.530326 0.250000 0.758936
O O7 0.500847 0.350510 0.849901
O O8 0.502845 0.377706 0.716714
O O9 0.750000 0.331418 0.361913
O O10 0.932838 0.250000 0.432485
O O11 0.044673 0.322223 0.333306
O O12 0.250000 0.147393 0.918280
O O13 0.442512 0.250000 0.936472
O O14 0.505676 0.132649 0.985251
O O15 0.750000 0.947428 0.292289
O O16 0.507875 0.998234 0.227559
O O17 0.750000 0.454379 0.173813
O O18 0.994328 0.432265 0.105040
O O19 0.954246 0.369001 0.217220
O O20 0.750000 0.642380 0.755890
O O21 0.921699 0.750000 0.779112
O O22 0.750000 0.430458 0.022941
O O23 0.500000 0.500000 0.000000
#
# Coordination Sequence:
#
# PCOD8242564 Si02
#       8
#     8   8   8   8   8   8   8   8
#     4  10  21  37  58  86 117 151 188 230 282 340
#     4  10  21  37  59  87 114 143 186 238 288 340
#     4   9  17  34  59  81 107 146 187 224 266 321
#     4  10  21  38  59  81 111 153 194 235 287 345
#     4  10  20  37  59  83 112 146 187 231 280 342
#     4  10  21  37  55  77 107 145 187 229 275 333
#     4  10  20  32  50  80 112 140 176 224 272 318
#     4  11  23  37  56  81 110 146 189 238 290 342
#
# _framework density 19.05781
#
# number of rings (size 3 to 8) (size 9 to 14) (size 15 to 20)
#    0.000    2.000    1.250    2.250    0.000    6.250 
#    0.000    3.125    0.000    2.250    0.000    0.000 
#    0.000    0.000    0.000    0.000    0.000    0.000 
#
# Total GULP energy -793179.213601 kJ/mol
# GULP energy per Si atom -12393.425213 kJ/mol
# Density = 1.901443 g / cm^3
# Si number density = 19.057810 Si / 1000 Ang^3
#
#
#
# Elastic Constant Matrix: (Units=GPa)
#
#
# Indices 1 2 3 4 5 6 
#
# 1 47.8393 39.3811 33.9531 0.0000 0.0000 0.0000
# 2 39.3811 133.4174 75.2046 0.0000 0.0000 0.0000
# 3 33.9531 75.2046 113.7522 0.0000 0.0000 0.0000
# 4 0.0000 0.0000 0.0000 29.5680 0.0000 0.0000
# 5 0.0000 0.0000 0.0000 0.0000 29.9585 0.0000
# 6 0.0000 0.0000 0.0000 0.0000 0.0000 33.0055
#
#
#
# Elastic Compliance Matrix: (Units=1/GPa)
#
#
# Indices 1 2 3 4 5 6 
#
# 1 0.029173 -0.005902 -0.004805 0.000000 0.000000 0.000000
# 2 -0.005902 0.013142 -0.006927 0.000000 0.000000 0.000000
# 3 -0.004805 -0.006927 0.014805 0.000000 0.000000 0.000000
# 4 0.000000 0.000000 0.000000 0.033820 0.000000 0.000000
# 5 0.000000 0.000000 0.000000 0.000000 0.033380 0.000000
# 6 0.000000 0.000000 0.000000 0.000000 0.000000 0.030298
#
#
# Mechanical properties :
#
#
# Convention : Reuss Voigt Hill
#
# Bulk Modulus (GPa) = 45.76547 65.78739 55.77643
# Shear Modulus (GPa) = 25.35892 28.27109 26.81500
#
# Velocity S-wave (km/s) = 3.65174 3.85572 3.75512
# Velocity P-wave (km/s) = 6.46888 7.37679 6.93770
#
# Compressibility (1/GPa) = 0.02185053
#
# Stress axis : x y z
#
# Youngs Moduli (GPa) = 34.27883 76.09240 67.54559
#
# Poissons Ratio (x) = 0.44912 0.32458
# Poissons Ratio (y) = 0.20232 0.46787
# Poissons Ratio (z) = 0.16472 0.52707
#
# Static dielectric constant tensor:
#      x y z
#    x 3.448570 0.000000 0.000000 
#    y 0.000000 3.769720 0.000000 
#    z 0.000000 0.000000 3.404140 
# 
# 
# High freq. dielectric constant tensor:
#      x y z
#    x 1.739050 0.000000 0.000000 
#    y 0.000000 1.756410 0.000000 
#    z 0.000000 0.000000 1.718240 
# 
# From -- ./inp_files/26362.got.cif
#   From: 2010.03.12/outbox.cif.g09.slc.cpg/sg59_14_cif.got.tgz:26362.got - 2010.04.16 16:29:54.
