data_PCOD8242388
_publ_section_title
;
Structure prediction by ZEFSAII (Michael W. Deem and Ramdas Pophale) SiO2 
 PCOD8242388
Probable space group: P M M N
;
_chemical_formula_sum "Si O2"
_cell_formula_units_Z 56
_cell_length_a 8.845381
_cell_length_b 19.097317
_cell_length_c 20.918513
_cell_angle_alpha 90.000000
_cell_angle_beta 90.000000
_cell_angle_gamma 90.000000
_cell_volume 3533.618912
_symmetry_space_group_name_H-M "P M M N"
_symmetry_group_IT_number 59
_space_group.IT_coordinate_system_code '2'
_symmetry_cell_setting 'orthorhombic'
loop_
_space_group_symop_operation_xyz
x,y,z
1/2-x,1/2-y,z
1/2+x,-y,-z
-x,1/2+y,-z
-x,-y,-z
1/2+x,1/2+y,-z
1/2-x,y,z
x,1/2-y,z
loop_
_atom_site_type_symbol
_atom_site_label
_atom_site_fract_x
_atom_site_fract_y
_atom_site_fract_z
Si Si1 0.572395 0.461771 0.060486
Si Si2 0.928315 0.052332 0.686345
Si Si3 0.922989 0.828658 0.378077
Si Si4 0.072525 0.170869 0.018533
Si Si5 0.422769 0.465881 0.560575
Si Si6 0.576525 0.329983 0.884013
Si Si7 0.928242 0.549793 0.184034
O O1 0.750000 0.461964 0.050460
O O2 0.511684 0.382271 0.066011
O O3 0.525525 0.498541 0.126417
O O4 0.500000 0.500000 0.000000
O O5 0.750000 0.044919 0.690710
O O6 0.976863 0.134593 0.677689
O O7 0.992103 0.008415 0.625381
O O8 0.004146 0.020130 0.749885
O O9 0.750000 0.825925 0.354038
O O10 0.982124 0.750000 0.393639
O O11 0.933608 0.879975 0.440767
O O12 0.250000 0.157934 0.022090
O O13 0.028866 0.250000 0.038332
O O14 0.020233 0.154264 0.946940
O O15 0.500000 0.500000 0.500000
O O16 0.250000 0.491155 0.562965
O O17 0.750000 0.350573 0.897572
O O18 0.561952 0.250000 0.862490
O O19 0.506934 0.375340 0.827119
O O20 0.750000 0.558970 0.189976
#
# Coordination Sequence:
#
# PCOD8242388 Si02
#       7
#     8   8   8   8   8   8   8
#     4  11  22  34  52  73  96 126 165 212 258 301
#     4  10  20  32  48  71  99 131 166 204 243 289
#     4   8  16  31  49  70 101 138 171 203 238 282
#     4  10  20  34  51  71  95 124 160 204 256 310
#     4   9  17  31  51  74 100 131 167 203 241 285
#     4  10  20  32  47  67  92 126 167 207 248 297
#     4  11  22  35  49  69  97 132 168 205 251 301
#
# _framework density 15.847775
#
# number of rings (size 3 to 8) (size 9 to 14) (size 15 to 20)
#    0.857    1.286    1.429    3.000    0.000    4.286 
#    0.000    0.000    0.000    0.000    0.000    1.000 
#    0.000    5.714    0.000    0.000    0.000    0.000 
#
# Total GULP energy -694024.098840 kJ/mol
# GULP energy per Si atom -12393.287479 kJ/mol
# Density = 1.581170 g / cm^3
# Si number density = 15.847775 Si / 1000 Ang^3
#
#
#
# Elastic Constant Matrix: (Units=GPa)
#
#
# Indices 1 2 3 4 5 6 
#
# 1 89.2807 38.2636 52.0535 0.0000 0.0000 0.0000
# 2 38.2636 65.0899 50.8056 0.0000 0.0000 0.0000
# 3 52.0535 50.8056 115.6451 0.0000 0.0000 0.0000
# 4 0.0000 0.0000 0.0000 19.9078 0.0000 0.0000
# 5 0.0000 0.0000 0.0000 0.0000 29.4293 0.0000
# 6 0.0000 0.0000 0.0000 0.0000 0.0000 25.3342
#
#
#
# Elastic Compliance Matrix: (Units=1/GPa)
#
#
# Indices 1 2 3 4 5 6 
#
# 1 0.016581 -0.005969 -0.004841 0.000000 0.000000 0.000000
# 2 -0.005969 0.025529 -0.008529 0.000000 0.000000 0.000000
# 3 -0.004841 -0.008529 0.014573 0.000000 0.000000 0.000000
# 4 0.000000 0.000000 0.000000 0.050232 0.000000 0.000000
# 5 0.000000 0.000000 0.000000 0.000000 0.033980 0.000000
# 6 0.000000 0.000000 0.000000 0.000000 0.000000 0.039472
#
#
# Mechanical properties :
#
#
# Convention : Reuss Voigt Hill
#
# Bulk Modulus (GPa) = 55.53710 61.36234 58.44972
# Shear Modulus (GPa) = 22.21752 23.52713 22.87232
#
# Velocity S-wave (km/s) = 3.74830 3.85719 3.80314
# Velocity P-wave (km/s) = 7.33847 7.65775 7.49981
#
# Compressibility (1/GPa) = 0.01800598
#
# Stress axis : x y z
#
# Youngs Moduli (GPa) = 60.30902 39.17051 68.61838
#
# Poissons Ratio (x) = 0.23379 0.33221
# Poissons Ratio (y) = 0.35996 0.58526
# Poissons Ratio (z) = 0.29198 0.33409
#
# Static dielectric constant tensor:
#      x y z
#    x 3.097090 0.000000 0.000000 
#    y 0.000000 3.146830 0.000000 
#    z 0.000000 0.000000 2.832330 
# 
# 
# High freq. dielectric constant tensor:
#      x y z
#    x 1.626790 0.000000 0.000000 
#    y 0.000000 1.589050 0.000000 
#    z 0.000000 0.000000 1.582400 
# 
# From -- ./inp_files/29640.got.cif
#   From: 2010.03.12/outbox.cif.g09.slc.cpg/sg59_15_cif.got.tgz:29640.got - 2010.04.16 16:29:54.
