data_PCOD8242727
_publ_section_title
;
Structure prediction by ZEFSAII (Michael W. Deem and Ramdas Pophale) SiO2 
 PCOD8242727
Probable space group: P M M N
;
_chemical_formula_sum "Si O2"
_cell_formula_units_Z 48
_cell_length_a 9.165294
_cell_length_b 7.586638
_cell_length_c 34.569704
_cell_angle_alpha 90.000000
_cell_angle_beta 90.000000
_cell_angle_gamma 90.000000
_cell_volume 2403.761769
_symmetry_space_group_name_H-M "P M M N"
_symmetry_group_IT_number 59
_space_group.IT_coordinate_system_code '2'
_symmetry_cell_setting 'orthorhombic'
loop_
_space_group_symop_operation_xyz
x,y,z
1/2-x,1/2-y,z
1/2+x,-y,-z
-x,1/2+y,-z
-x,-y,-z
1/2+x,1/2+y,-z
1/2-x,y,z
x,1/2-y,z
loop_
_atom_site_type_symbol
_atom_site_label
_atom_site_fract_x
_atom_site_fract_y
_atom_site_fract_z
Si Si1 0.085061 0.460407 0.387695
Si Si2 0.420043 0.550065 0.960981
Si Si3 0.580296 0.547988 0.762988
Si Si4 0.578288 0.750000 0.096681
Si Si5 0.914123 0.040746 0.313284
Si Si6 0.580391 0.250000 0.822541
Si Si7 0.587091 0.456663 0.461605
O O1 0.250000 0.533463 0.388389
O O2 0.086094 0.250000 0.387762
O O3 0.004189 0.534434 0.349644
O O4 0.000024 0.535975 0.425059
O O5 0.250000 0.521776 0.968901
O O6 0.456242 0.750000 0.948728
O O7 0.473779 0.423407 0.926551
O O8 0.500000 0.500000 0.000000
O O9 0.750000 0.528698 0.752463
O O10 0.541020 0.750000 0.773638
O O11 0.490688 0.478995 0.726131
O O12 0.537175 0.425550 0.798974
O O13 0.750000 0.750000 0.102794
O O14 0.506703 0.750000 0.138153
O O15 0.750000 0.964912 0.314543
O O16 0.912286 0.250000 0.315290
O O17 0.750000 0.250000 0.832573
O O18 0.500000 0.500000 0.500000
O O19 0.750000 0.539527 0.463618
O O20 0.600303 0.250000 0.456155
#
# Coordination Sequence:
#
# PCOD8242727 Si02
#       7
#     8   8   8   4   8   4   8
#     4   9  16  27  46  72 100 131 168 210 258 312
#     4  10  20  35  57  84 114 149 190 235 284 338
#     4   9  18  34  55  77 104 138 176 221 272 324
#     4  10  22  38  54  80 116 150 186 232 284 332
#     4   9  16  27  47  76 104 129 164 210 259 314
#     4  10  22  38  56  80 110 146 190 232 272 328
#     4  10  20  33  50  72  99 133 172 213 260 316
#
# _framework density 19.968702
#
# number of rings (size 3 to 8) (size 9 to 14) (size 15 to 20)
#    0.000    2.500    0.833    1.500    0.000    7.000 
#    0.000    0.000    1.833    0.000    0.000    0.000 
#    0.000    0.000    0.000    0.000    0.000    0.000 
#
# Total GULP energy -595216.237812 kJ/mol
# GULP energy per Si atom -12400.338288 kJ/mol
# Density = 1.992325 g / cm^3
# Si number density = 19.968702 Si / 1000 Ang^3
#
#
#
# Elastic Constant Matrix: (Units=GPa)
#
#
# Indices 1 2 3 4 5 6 
#
# 1 135.5461 34.8874 96.4387 0.0000 0.0000 0.0000
# 2 34.8874 84.6262 57.9989 0.0000 0.0000 0.0000
# 3 96.4387 57.9989 202.9871 0.0000 0.0000 0.0000
# 4 0.0000 0.0000 0.0000 23.1037 0.0000 0.0000
# 5 0.0000 0.0000 0.0000 0.0000 46.5348 0.0000
# 6 0.0000 0.0000 0.0000 0.0000 0.0000 13.8778
#
#
#
# Elastic Compliance Matrix: (Units=1/GPa)
#
#
# Indices 1 2 3 4 5 6 
#
# 1 0.011244 -0.001211 -0.004996 0.000000 0.000000 0.000000
# 2 -0.001211 0.014825 -0.003660 0.000000 0.000000 0.000000
# 3 -0.004996 -0.003660 0.008346 0.000000 0.000000 0.000000
# 4 0.000000 0.000000 0.000000 0.043283 0.000000 0.000000
# 5 0.000000 0.000000 0.000000 0.000000 0.021489 0.000000
# 6 0.000000 0.000000 0.000000 0.000000 0.000000 0.072057
#
#
# Mechanical properties :
#
#
# Convention : Reuss Voigt Hill
#
# Bulk Modulus (GPa) = 68.12321 89.08992 78.60657
# Shear Modulus (GPa) = 25.52688 32.29222 28.90955
#
# Velocity S-wave (km/s) = 3.57927 4.02573 3.80905
# Velocity P-wave (km/s) = 7.16035 8.14373 7.66782
#
# Compressibility (1/GPa) = 0.01467928
#
# Stress axis : x y z
#
# Youngs Moduli (GPa) = 88.93835 67.45518 119.82179
#
# Poissons Ratio (x) = 0.08172 0.59860
# Poissons Ratio (y) = 0.10774 0.43858
# Poissons Ratio (z) = 0.44431 0.24690
#
# Static dielectric constant tensor:
#      x y z
#    x 3.761910 0.000000 0.000000 
#    y 0.000000 3.180840 0.000000 
#    z 0.000000 0.000000 3.844700 
# 
# 
# High freq. dielectric constant tensor:
#      x y z
#    x 1.783200 0.000000 0.000000 
#    y 0.000000 1.766450 0.000000 
#    z 0.000000 0.000000 1.776740 
# 
# From -- ./inp_files/32925.got.cif
#   From: 2010.03.12/outbox.cif.g09.slc.cpg/sg59_17_cif.got.tgz:32925.got - 2010.04.16 16:29:54.
