data_PCOD8242835
_publ_section_title
;
Structure prediction by ZEFSAII (Michael W. Deem and Ramdas Pophale) SiO2 
 PCOD8242835
Probable space group: P M M N
;
_chemical_formula_sum "Si O2"
_cell_formula_units_Z 64
_cell_length_a 9.065717
_cell_length_b 22.593816
_cell_length_c 16.265774
_cell_angle_alpha 90.000000
_cell_angle_beta 90.000000
_cell_angle_gamma 90.000000
_cell_volume 3331.704529
_symmetry_space_group_name_H-M "P M M N"
_symmetry_group_IT_number 59
_space_group.IT_coordinate_system_code '2'
_symmetry_cell_setting 'orthorhombic'
loop_
_space_group_symop_operation_xyz
x,y,z
1/2-x,1/2-y,z
1/2+x,-y,-z
-x,1/2+y,-z
-x,-y,-z
1/2+x,1/2+y,-z
1/2-x,y,z
x,1/2-y,z
loop_
_atom_site_type_symbol
_atom_site_label
_atom_site_fract_x
_atom_site_fract_y
_atom_site_fract_z
Si Si1 0.080191 0.032768 0.381647
Si Si2 0.581067 0.428238 0.221167
Si Si3 0.589185 0.818003 0.024214
Si Si4 0.075904 0.505764 0.088582
Si Si5 0.917015 0.184003 0.129562
Si Si6 0.417883 0.420822 0.557303
Si Si7 0.078636 0.317944 0.674775
Si Si8 0.077309 0.631823 0.168420
O O1 0.250000 0.030043 0.354077
O O2 0.056482 0.076055 0.459444
O O3 0.982775 0.058867 0.309766
O O4 0.029237 0.965991 0.399312
O O5 0.750000 0.450370 0.215956
O O6 0.486566 0.456536 0.148770
O O7 0.569385 0.357391 0.209339
O O8 0.750000 0.848336 0.036866
O O9 0.610429 0.750000 0.003861
O O10 0.490321 0.821706 0.105067
O O11 0.509869 0.845869 0.944687
O O12 0.250000 0.498037 0.076750
O O13 0.037323 0.567457 0.133206
O O14 0.000000 0.500000 0.000000
O O15 0.750000 0.185729 0.096832
O O16 0.970510 0.250000 0.154064
O O17 0.250000 0.440244 0.577910
O O18 0.447169 0.353883 0.589424
O O19 0.250000 0.316824 0.698921
O O20 0.020442 0.250000 0.665791
O O21 0.993643 0.355589 0.743327
O O22 0.250000 0.642016 0.176673
#
# Coordination Sequence:
#
# PCOD8242835 Si02
#       8
#     8   8   8   8   8   8   8   8
#     4  10  20  35  58  86 112 140 177 222 271 323
#     4  11  22  36  56  81 108 140 178 218 264 318
#     4  10  20  33  51  75 101 133 176 222 264 307
#     4  11  24  39  55  79 112 148 186 231 280 328
#     4   9  19  36  55  74 100 135 173 214 259 307
#     4   9  19  37  59  82 109 141 177 219 270 326
#     4  10  21  37  57  81 110 145 185 228 275 330
#     4  11  23  36  51  75 107 143 182 222 268 323
#
# _framework density 19.209385999999999
#
# number of rings (size 3 to 8) (size 9 to 14) (size 15 to 20)
#    0.000    1.875    0.000    3.750    0.000   11.500 
#    0.000    0.625    0.000    0.750    0.000    0.000 
#    0.000    0.000    0.000    0.000    0.000    0.000 
#
# Total GULP energy -793491.787685 kJ/mol
# GULP energy per Si atom -12398.309183 kJ/mol
# Density = 1.916566 g / cm^3
# Si number density = 19.209386 Si / 1000 Ang^3
#
#
#
# Elastic Constant Matrix: (Units=GPa)
#
#
# Indices 1 2 3 4 5 6 
#
# 1 86.3573 50.7596 45.5327 0.0000 0.0000 0.0000
# 2 50.7596 94.1170 58.7997 0.0000 0.0000 0.0000
# 3 45.5327 58.7997 112.5827 0.0000 0.0000 0.0000
# 4 0.0000 0.0000 0.0000 29.9520 0.0000 0.0000
# 5 0.0000 0.0000 0.0000 0.0000 34.3537 0.0000
# 6 0.0000 0.0000 0.0000 0.0000 0.0000 22.6582
#
#
#
# Elastic Compliance Matrix: (Units=1/GPa)
#
#
# Indices 1 2 3 4 5 6 
#
# 1 0.017711 -0.007536 -0.003227 0.000000 0.000000 0.000000
# 2 -0.007536 0.018977 -0.006864 0.000000 0.000000 0.000000
# 3 -0.003227 -0.006864 0.013772 0.000000 0.000000 0.000000
# 4 0.000000 0.000000 0.000000 0.033387 0.000000 0.000000
# 5 0.000000 0.000000 0.000000 0.000000 0.029109 0.000000
# 6 0.000000 0.000000 0.000000 0.000000 0.000000 0.044134
#
#
# Mechanical properties :
#
#
# Convention : Reuss Voigt Hill
#
# Bulk Modulus (GPa) = 65.75814 67.02675 66.39245
# Shear Modulus (GPa) = 25.32765 26.59043 25.95904
#
# Velocity S-wave (km/s) = 3.63506 3.72458 3.68009
# Velocity P-wave (km/s) = 7.20589 7.31198 7.25913
#
# Compressibility (1/GPa) = 0.01520724
#
# Stress axis : x y z
#
# Youngs Moduli (GPa) = 56.46310 52.69427 72.60906
#
# Poissons Ratio (x) = 0.39708 0.23432
# Poissons Ratio (y) = 0.42548 0.49838
# Poissons Ratio (z) = 0.18222 0.36168
#
# Static dielectric constant tensor:
#      x y z
#    x 3.774380 0.000000 0.000000 
#    y 0.000000 3.588960 0.000000 
#    z 0.000000 0.000000 3.491970 
# 
# 
# High freq. dielectric constant tensor:
#      x y z
#    x 1.758040 0.000000 0.000000 
#    y 0.000000 1.744840 0.000000 
#    z 0.000000 0.000000 1.740510 
# 
# From -- ./inp_files/21454.got.cif
#   From: 2010.03.12/outbox.cif.g09.slc.cpg/sg59_11_cif.got.tgz:21454.got - 2010.04.16 16:29:54.
