data_PCOD8242595
_publ_section_title
;
Structure prediction by ZEFSAII (Michael W. Deem and Ramdas Pophale) SiO2 
 PCOD8242595
Probable space group: P M M N
;
_chemical_formula_sum "Si O2"
_cell_formula_units_Z 64
_cell_length_a 8.904124
_cell_length_b 29.801962
_cell_length_c 14.053532
_cell_angle_alpha 90.000000
_cell_angle_beta 90.000000
_cell_angle_gamma 90.000000
_cell_volume 3729.250382
_symmetry_space_group_name_H-M "P M M N"
_symmetry_group_IT_number 59
_space_group.IT_coordinate_system_code '2'
_symmetry_cell_setting 'orthorhombic'
loop_
_space_group_symop_operation_xyz
x,y,z
1/2-x,1/2-y,z
1/2+x,-y,-z
-x,1/2+y,-z
-x,-y,-z
1/2+x,1/2+y,-z
1/2-x,y,z
x,1/2-y,z
loop_
_atom_site_type_symbol
_atom_site_label
_atom_site_fract_x
_atom_site_fract_y
_atom_site_fract_z
Si Si1 0.924701 0.423300 0.215679
Si Si2 0.575756 0.700837 0.494916
Si Si3 0.419674 0.996314 0.309600
Si Si4 0.925458 0.064483 0.526122
Si Si5 0.580414 0.091843 0.817916
Si Si6 0.572263 0.451515 0.009679
Si Si7 0.923336 0.634454 0.339814
Si Si8 0.572901 0.620542 0.623544
O O1 0.750000 0.413007 0.220549
O O2 0.980505 0.427500 0.107049
O O3 0.958936 0.469199 0.270936
O O4 0.010528 0.382269 0.268689
O O5 0.750000 0.705400 0.518995
O O6 0.498581 0.750000 0.505821
O O7 0.555761 0.683978 0.385567
O O8 0.507018 0.664656 0.569990
O O9 0.250000 0.016320 0.304586
O O10 0.460573 0.982676 0.419410
O O11 0.429606 0.953136 0.243015
O O12 0.750000 0.067998 0.501189
O O13 0.967767 0.102813 0.600773
O O14 0.020748 0.074308 0.430267
O O15 0.750000 0.110120 0.822489
O O16 0.476780 0.130849 0.770238
O O17 0.520278 0.080837 0.923777
O O18 0.750000 0.458897 0.007845
O O19 0.500000 0.500000 0.000000
O O20 0.750000 0.619053 0.349488
O O21 0.750000 0.621821 0.623708
#
# Coordination Sequence:
#
# PCOD8242595 Si02
#       8
#     8   8   8   8   8   8   8   8
#     4  11  22  32  45  65  91 123 160 202 241 274
#     4   8  15  30  52  76  98 119 146 183 229 282
#     4   9  17  29  45  63  86 121 160 197 235 271
#     4   9  17  30  46  63  90 124 156 192 231 272
#     4   9  17  30  46  64  93 126 157 197 240 275
#     4  10  20  33  48  67  89 123 167 208 244 273
#     4   9  16  26  45  73  98 121 151 185 227 282
#     4  10  20  33  49  68  92 122 154 190 233 283
#
# _framework density 17.161625999999998
#
# number of rings (size 3 to 8) (size 9 to 14) (size 15 to 20)
#    0.000    2.625    1.250    3.000    0.000    4.000 
#    0.000    0.000    0.000   13.500    0.000    0.875 
#    0.000    7.000    0.000    0.000    0.000    0.000 
#
# Total GULP energy -793033.232573 kJ/mol
# GULP energy per Si atom -12391.144259 kJ/mol
# Density = 1.712256 g / cm^3
# Si number density = 17.161626 Si / 1000 Ang^3
#
#
#
# Elastic Constant Matrix: (Units=GPa)
#
#
# Indices 1 2 3 4 5 6 
#
# 1 38.9670 3.9616 31.1556 0.0000 0.0000 0.0000
# 2 3.9616 40.2205 34.2099 0.0000 0.0000 0.0000
# 3 31.1556 34.2099 135.7183 0.0000 0.0000 0.0000
# 4 0.0000 0.0000 0.0000 12.3234 0.0000 0.0000
# 5 0.0000 0.0000 0.0000 0.0000 23.5688 0.0000
# 6 0.0000 0.0000 0.0000 0.0000 0.0000 12.3991
#
#
#
# Elastic Compliance Matrix: (Units=1/GPa)
#
#
# Indices 1 2 3 4 5 6 
#
# 1 0.031913 0.003930 -0.008317 0.000000 0.000000 0.000000
# 2 0.003930 0.032132 -0.009002 0.000000 0.000000 0.000000
# 3 -0.008317 -0.009002 0.011546 0.000000 0.000000 0.000000
# 4 0.000000 0.000000 0.000000 0.081147 0.000000 0.000000
# 5 0.000000 0.000000 0.000000 0.000000 0.042429 0.000000
# 6 0.000000 0.000000 0.000000 0.000000 0.000000 0.080651
#
#
# Mechanical properties :
#
#
# Convention : Reuss Voigt Hill
#
# Bulk Modulus (GPa) = 20.48527 39.28444 29.88485
# Shear Modulus (GPa) = 15.48634 19.36351 17.42492
#
# Velocity S-wave (km/s) = 3.00723 3.36267 3.18990
# Velocity P-wave (km/s) = 4.90107 6.16581 5.56946
#
# Compressibility (1/GPa) = 0.04881557
#
# Stress axis : x y z
#
# Youngs Moduli (GPa) = 31.33563 31.12127 86.60710
#
# Poissons Ratio (x) = -0.12232 0.72028
# Poissons Ratio (y) = -0.12316 0.77962
# Poissons Ratio (z) = 0.26061 0.28015
#
# Static dielectric constant tensor:
#      x y z
#    x 3.130460 0.000000 0.000000 
#    y 0.000000 3.149570 0.000000 
#    z 0.000000 0.000000 3.686670 
# 
# 
# High freq. dielectric constant tensor:
#      x y z
#    x 1.655600 0.000000 0.000000 
#    y 0.000000 1.617650 0.000000 
#    z 0.000000 0.000000 1.666050 
# 
# From -- ./inp_files/21832.got.cif
#   From: 2010.03.12/outbox.cif.g09.slc.cpg/sg59_11_cif.got.tgz:21832.got - 2010.04.16 16:29:54.
