data_PCOD8242506
_publ_section_title
;
Structure prediction by ZEFSAII (Michael W. Deem and Ramdas Pophale) SiO2 
 PCOD8242506
Probable space group: P M M N
;
_chemical_formula_sum "Si O2"
_cell_formula_units_Z 48
_cell_length_a 8.853036
_cell_length_b 20.659501
_cell_length_c 15.036088
_cell_angle_alpha 90.000000
_cell_angle_beta 90.000000
_cell_angle_gamma 90.000000
_cell_volume 2750.090062
_symmetry_space_group_name_H-M "P M M N"
_symmetry_group_IT_number 59
_space_group.IT_coordinate_system_code '2'
_symmetry_cell_setting 'orthorhombic'
loop_
_space_group_symop_operation_xyz
x,y,z
1/2-x,1/2-y,z
1/2+x,-y,-z
-x,1/2+y,-z
-x,-y,-z
1/2+x,1/2+y,-z
1/2-x,y,z
x,1/2-y,z
loop_
_atom_site_type_symbol
_atom_site_label
_atom_site_fract_x
_atom_site_fract_y
_atom_site_fract_z
Si Si1 0.428715 0.319235 0.006944
Si Si2 0.428432 0.048861 0.929729
Si Si3 0.419781 0.154526 0.200066
Si Si4 0.918225 0.991684 0.767925
Si Si5 0.929523 0.953709 0.573172
Si Si6 0.073633 0.822476 0.617988
O O1 0.250000 0.326901 0.011810
O O2 0.475221 0.250000 0.963004
O O3 0.492695 0.379178 0.950592
O O4 0.488040 0.318202 0.108519
O O5 0.250000 0.043658 0.939075
O O6 0.473624 0.036074 0.827533
O O7 0.500000 0.000000 0.000000
O O8 0.250000 0.180082 0.220460
O O9 0.414674 0.077923 0.186590
O O10 0.528057 0.176775 0.278880
O O11 0.750000 0.021925 0.766850
O O12 0.980421 0.984200 0.667520
O O13 0.750000 0.951848 0.564648
O O14 0.987074 0.879321 0.564060
O O15 0.000000 0.000000 0.500000
O O16 0.250000 0.837250 0.609874
O O17 0.036862 0.750000 0.579897
#
# Coordination Sequence:
#
# PCOD8242506 Si02
#       6
#     8   8   8   8   8   8
#     4   9  17  29  45  66  95 132 173 213 252 295
#     4  11  20  31  49  72  99 133 173 213 251 296
#     4   9  16  29  48  69  97 133 171 207 248 305
#     4   9  18  33  51  75 101 129 167 207 250 305
#     4  10  21  37  58  80 105 134 172 218 265 320
#     4  10  20  32  48  75 110 140 168 206 255 314
#
# _framework density 17.453973000000001
#
# number of rings (size 3 to 8) (size 9 to 14) (size 15 to 20)
#    0.000    2.333    1.667    3.000    0.000    5.333 
#    0.000    0.000    0.000    4.000    0.000    4.667 
#    0.000    0.000    0.000    0.000    0.000    0.000 
#
# Total GULP energy -594865.803099 kJ/mol
# GULP energy per Si atom -12393.037565 kJ/mol
# Density = 1.741425 g / cm^3
# Si number density = 17.453973 Si / 1000 Ang^3
#
#
#
# Elastic Constant Matrix: (Units=GPa)
#
#
# Indices 1 2 3 4 5 6 
#
# 1 67.2526 46.5321 33.5385 0.0000 0.0000 0.0000
# 2 46.5321 148.6492 68.2817 0.0000 0.0000 0.0000
# 3 33.5385 68.2817 80.5224 0.0000 0.0000 0.0000
# 4 0.0000 0.0000 0.0000 22.1331 0.0000 0.0000
# 5 0.0000 0.0000 0.0000 0.0000 27.3490 0.0000
# 6 0.0000 0.0000 0.0000 0.0000 0.0000 21.8664
#
#
#
# Elastic Compliance Matrix: (Units=1/GPa)
#
#
# Indices 1 2 3 4 5 6 
#
# 1 0.020130 -0.004013 -0.004981 0.000000 0.000000 0.000000
# 2 -0.004013 0.011820 -0.008351 0.000000 0.000000 0.000000
# 3 -0.004981 -0.008351 0.021575 0.000000 0.000000 0.000000
# 4 0.000000 0.000000 0.000000 0.045181 0.000000 0.000000
# 5 0.000000 0.000000 0.000000 0.000000 0.036564 0.000000
# 6 0.000000 0.000000 0.000000 0.000000 0.000000 0.045732
#
#
# Mechanical properties :
#
#
# Convention : Reuss Voigt Hill
#
# Bulk Modulus (GPa) = 53.09654 65.90320 59.49987
# Shear Modulus (GPa) = 22.52526 24.14116 23.33321
#
# Velocity S-wave (km/s) = 3.59632 3.72308 3.66025
# Velocity P-wave (km/s) = 6.90881 7.50480 7.21296
#
# Compressibility (1/GPa) = 0.01883362
#
# Stress axis : x y z
#
# Youngs Moduli (GPa) = 49.67650 84.60440 46.34893
#
# Poissons Ratio (x) = 0.33954 0.23088
# Poissons Ratio (y) = 0.19937 0.38708
# Poissons Ratio (z) = 0.24745 0.70656
#
# Static dielectric constant tensor:
#      x y z
#    x 3.136820 0.000000 0.000000 
#    y 0.000000 3.570220 0.000000 
#    z 0.000000 0.000000 3.083570 
# 
# 
# High freq. dielectric constant tensor:
#      x y z
#    x 1.662700 0.000000 0.000000 
#    y 0.000000 1.679480 0.000000 
#    z 0.000000 0.000000 1.644210 
# 
# From -- ./inp_files/20722.got.cif
#   From: 2010.03.12/outbox.cif.g09.slc.cpg/sg59_11_cif.got.tgz:20722.got - 2010.04.16 16:29:54.
