data_PCOD8242878
_publ_section_title
;
Structure prediction by ZEFSAII (Michael W. Deem and Ramdas Pophale) SiO2 
 PCOD8242878
Probable space group: P M M N
;
_chemical_formula_sum "Si O2"
_cell_formula_units_Z 64
_cell_length_a 9.344762
_cell_length_b 24.153285
_cell_length_c 14.914485
_cell_angle_alpha 90.000000
_cell_angle_beta 90.000000
_cell_angle_gamma 90.000000
_cell_volume 3366.299189
_symmetry_space_group_name_H-M "P M M N"
_symmetry_group_IT_number 59
_space_group.IT_coordinate_system_code '2'
_symmetry_cell_setting 'orthorhombic'
loop_
_space_group_symop_operation_xyz
x,y,z
1/2-x,1/2-y,z
1/2+x,-y,-z
-x,1/2+y,-z
-x,-y,-z
1/2+x,1/2+y,-z
1/2-x,y,z
x,1/2-y,z
loop_
_atom_site_type_symbol
_atom_site_label
_atom_site_fract_x
_atom_site_fract_y
_atom_site_fract_z
Si Si1 0.916353 0.312991 0.317467
Si Si2 0.079855 0.313184 0.989679
Si Si3 0.404616 0.813406 0.486355
Si Si4 0.584160 0.998123 0.785995
Si Si5 0.082653 0.124445 0.167634
Si Si6 0.418142 0.977623 0.413881
Si Si7 0.413741 0.395252 0.837204
Si Si8 0.912206 0.872926 0.363932
O O1 0.750000 0.316465 0.292500
O O2 0.972127 0.250000 0.307288
O O3 0.944839 0.338858 0.416443
O O4 0.004263 0.351837 0.252700
O O5 0.250000 0.310652 0.985753
O O6 0.018814 0.250000 0.984604
O O7 0.021887 0.351107 0.907835
O O8 0.026427 0.343688 0.079570
O O9 0.250000 0.837140 0.452252
O O10 0.382091 0.750000 0.508659
O O11 0.533012 0.818116 0.414156
O O12 0.750000 0.014202 0.793193
O O13 0.549277 0.941244 0.838050
O O14 0.542935 0.991590 0.680200
O O15 0.497900 0.046865 0.835634
O O16 0.250000 0.134398 0.180656
O O17 0.250000 0.979647 0.433713
O O18 0.472797 0.915600 0.402552
O O19 0.500000 0.000000 0.500000
O O20 0.250000 0.409827 0.861348
O O21 0.424819 0.364758 0.741848
O O22 0.750000 0.888382 0.391303
#
# Coordination Sequence:
#
# PCOD8242878 Si02
#       8
#     8   8   8   8   8   8   8   8
#     4   9  19  35  52  73 105 142 177 218 269 324
#     4   9  18  34  57  83 109 139 177 222 273 326
#     4   9  19  35  52  73 104 142 180 217 269 331
#     4   9  20  36  52  77 112 143 176 224 276 319
#     4  10  20  34  55  82 109 140 179 222 269 324
#     4  10  20  34  51  73 105 143 180 222 269 319
#     4   9  19  36  56  78 106 141 182 223 265 323
#     4  10  20  33  51  76 104 135 177 226 269 313
#
# _framework density 19.011977000000002
#
# number of rings (size 3 to 8) (size 9 to 14) (size 15 to 20)
#    0.000    2.625    0.000    1.875    1.750    4.000 
#    0.000    3.125    0.000    1.125    0.000    0.000 
#    0.000    0.000    0.000    0.000    0.000    0.000 
#
# Total GULP energy -793186.255638 kJ/mol
# GULP energy per Si atom -12393.535244 kJ/mol
# Density = 1.896870 g / cm^3
# Si number density = 19.011977 Si / 1000 Ang^3
#
#
#
# Elastic Constant Matrix: (Units=GPa)
#
#
# Indices 1 2 3 4 5 6 
#
# 1 66.9098 43.2301 50.0216 0.0000 0.0000 0.0000
# 2 43.2301 105.6490 63.7277 0.0000 0.0000 0.0000
# 3 50.0216 63.7277 103.9960 0.0000 0.0000 0.0000
# 4 0.0000 0.0000 0.0000 36.6416 0.0000 0.0000
# 5 0.0000 0.0000 0.0000 0.0000 21.6065 0.0000
# 6 0.0000 0.0000 0.0000 0.0000 0.0000 28.0054
#
#
#
# Elastic Compliance Matrix: (Units=1/GPa)
#
#
# Indices 1 2 3 4 5 6 
#
# 1 0.024707 -0.004666 -0.009025 0.000000 0.000000 0.000000
# 2 -0.004666 0.015897 -0.007497 0.000000 0.000000 0.000000
# 3 -0.009025 -0.007497 0.018551 0.000000 0.000000 0.000000
# 4 0.000000 0.000000 0.000000 0.027291 0.000000 0.000000
# 5 0.000000 0.000000 0.000000 0.000000 0.046282 0.000000
# 6 0.000000 0.000000 0.000000 0.000000 0.000000 0.035707
#
#
# Mechanical properties :
#
#
# Convention : Reuss Voigt Hill
#
# Bulk Modulus (GPa) = 59.59837 65.61263 62.60550
# Shear Modulus (GPa) = 23.10491 25.22240 24.16365
#
# Velocity S-wave (km/s) = 3.48987 3.64628 3.56893
# Velocity P-wave (km/s) = 6.90324 7.23279 7.06994
#
# Compressibility (1/GPa) = 0.01677898
#
# Stress axis : x y z
#
# Youngs Moduli (GPa) = 40.47429 62.90559 53.90638
#
# Poissons Ratio (x) = 0.29352 0.48649
# Poissons Ratio (y) = 0.18886 0.40414
# Poissons Ratio (z) = 0.36527 0.47161
#
# Static dielectric constant tensor:
#      x y z
#    x 3.359040 0.000000 0.000000 
#    y 0.000000 3.502990 0.000000 
#    z 0.000000 0.000000 3.601370 
# 
# 
# High freq. dielectric constant tensor:
#      x y z
#    x 1.723770 0.000000 0.000000 
#    y 0.000000 1.735660 0.000000 
#    z 0.000000 0.000000 1.741180 
# 
# From -- ./inp_files/21616.got.cif
#   From: 2010.03.12/outbox.cif.g09.slc.cpg/sg59_11_cif.got.tgz:21616.got - 2010.04.16 16:29:54.
