data_PCOD8242669
_publ_section_title
;
Structure prediction by ZEFSAII (Michael W. Deem and Ramdas Pophale) SiO2 
 PCOD8242669
Probable space group: P M M N
;
_chemical_formula_sum "Si O2"
_cell_formula_units_Z 48
_cell_length_a 23.391692
_cell_length_b 9.491721
_cell_length_c 11.182613
_cell_angle_alpha 90.000000
_cell_angle_beta 90.000000
_cell_angle_gamma 90.000000
_cell_volume 2482.846648
_symmetry_space_group_name_H-M "P M M N"
_symmetry_group_IT_number 59
_space_group.IT_coordinate_system_code '2'
_symmetry_cell_setting 'orthorhombic'
loop_
_space_group_symop_operation_xyz
x,y,z
1/2-x,1/2-y,z
1/2+x,-y,-z
-x,1/2+y,-z
-x,-y,-z
1/2+x,1/2+y,-z
1/2-x,y,z
x,1/2-y,z
loop_
_atom_site_type_symbol
_atom_site_label
_atom_site_fract_x
_atom_site_fract_y
_atom_site_fract_z
Si Si1 0.381560 0.911969 0.912199
Si Si2 0.404789 0.085388 0.545186
Si Si3 0.185636 0.583423 0.140749
Si Si4 0.087668 0.587613 0.315456
Si Si5 0.530046 0.590284 0.213830
Si Si6 0.315711 0.909917 0.669351
O O1 0.398059 0.750000 0.934969
O O2 0.339698 0.932200 0.801243
O O3 0.440922 0.993087 0.886881
O O4 0.347701 0.977213 0.025156
O O5 0.396865 0.250000 0.521353
O O6 0.448269 0.052983 0.652689
O O7 0.428000 0.012471 0.425605
O O8 0.343880 0.015948 0.575423
O O9 0.250000 0.519563 0.151482
O O10 0.190157 0.750000 0.125503
O O11 0.148743 0.544875 0.258267
O O12 0.087922 0.750000 0.358966
O O13 0.038380 0.567604 0.214506
O O14 0.546598 0.750000 0.182020
O O15 0.250000 0.948986 0.673853
O O16 0.326220 0.750000 0.625562
#
# Coordination Sequence:
#
# PCOD8242669 Si02
#       6
#     8   8   8   8   8   8
#     4   9  17  31  53  78 100 125 162 206 250 297
#     4  10  20  33  49  71 101 134 167 209 257 299
#     4   9  18  33  53  76 101 130 165 205 247 291
#     4  10  20  34  52  73 100 136 173 206 244 298
#     4   9  19  34  51  74 103 132 164 206 256 302
#     4   9  17  30  50  74  98 127 165 207 249 297
#
# _framework density 19.332647000000001
#
# number of rings (size 3 to 8) (size 9 to 14) (size 15 to 20)
#    0.000    2.667    0.000    1.500    0.000    5.000 
#    0.000    2.500    0.000    2.500    0.000    0.000 
#    0.000    0.000    0.000    0.000    0.000    0.000 
#
# Total GULP energy -595164.596936 kJ/mol
# GULP energy per Si atom -12399.262436 kJ/mol
# Density = 1.928865 g / cm^3
# Si number density = 19.332647 Si / 1000 Ang^3
#
#
#
# Elastic Constant Matrix: (Units=GPa)
#
#
# Indices 1 2 3 4 5 6 
#
# 1 101.9231 30.5201 17.4911 0.0000 0.0000 0.0000
# 2 30.5201 62.1760 22.7522 0.0000 0.0000 0.0000
# 3 17.4911 22.7522 44.0519 0.0000 0.0000 0.0000
# 4 0.0000 0.0000 0.0000 18.9605 0.0000 0.0000
# 5 0.0000 0.0000 0.0000 0.0000 24.3170 0.0000
# 6 0.0000 0.0000 0.0000 0.0000 0.0000 26.6938
#
#
#
# Elastic Compliance Matrix: (Units=1/GPa)
#
#
# Indices 1 2 3 4 5 6 
#
# 1 0.011652 -0.004965 -0.002062 0.000000 0.000000 0.000000
# 2 -0.004965 0.021947 -0.009364 0.000000 0.000000 0.000000
# 3 -0.002062 -0.009364 0.028356 0.000000 0.000000 0.000000
# 4 0.000000 0.000000 0.000000 0.052741 0.000000 0.000000
# 5 0.000000 0.000000 0.000000 0.000000 0.041124 0.000000
# 6 0.000000 0.000000 0.000000 0.000000 0.000000 0.037462
#
#
# Mechanical properties :
#
#
# Convention : Reuss Voigt Hill
#
# Bulk Modulus (GPa) = 34.27885 38.85308 36.56597
# Shear Modulus (GPa) = 21.20553 23.15343 22.17948
#
# Velocity S-wave (km/s) = 3.31551 3.46444 3.39079
# Velocity P-wave (km/s) = 5.69441 6.01198 5.85535
#
# Compressibility (1/GPa) = 0.02917251
#
# Stress axis : x y z
#
# Youngs Moduli (GPa) = 85.82277 45.56417 35.26630
#
# Poissons Ratio (x) = 0.22622 0.07273
# Poissons Ratio (y) = 0.42610 0.33023
# Poissons Ratio (z) = 0.17698 0.42666
#
# Static dielectric constant tensor:
#      x y z
#    x 3.685380 0.000000 0.000000 
#    y 0.000000 3.334530 0.000000 
#    z 0.000000 0.000000 3.389810 
# 
# 
# High freq. dielectric constant tensor:
#      x y z
#    x 1.760570 0.000000 0.000000 
#    y 0.000000 1.722730 0.000000 
#    z 0.000000 0.000000 1.745120 
# 
# From -- ./inp_files/18583.got.cif
#   From: 2010.03.12/outbox.cif.g09.slc.cpg/sg59_10_cif.got.tgz:18583.got - 2010.04.16 16:29:54.
