data_PCOD8242923
_publ_section_title
;
Structure prediction by ZEFSAII (Michael W. Deem and Ramdas Pophale) SiO2 
 PCOD8242923
Probable space group: P M M N
;
_chemical_formula_sum "Si O2"
_cell_formula_units_Z 64
_cell_length_a 9.137775
_cell_length_b 14.372487
_cell_length_c 25.237702
_cell_angle_alpha 90.000000
_cell_angle_beta 90.000000
_cell_angle_gamma 90.000000
_cell_volume 3314.531820
_symmetry_space_group_name_H-M "P M M N"
_symmetry_group_IT_number 59
_space_group.IT_coordinate_system_code '2'
_symmetry_cell_setting 'orthorhombic'
loop_
_space_group_symop_operation_xyz
x,y,z
1/2-x,1/2-y,z
1/2+x,-y,-z
-x,1/2+y,-z
-x,-y,-z
1/2+x,1/2+y,-z
1/2-x,y,z
x,1/2-y,z
loop_
_atom_site_type_symbol
_atom_site_label
_atom_site_fract_x
_atom_site_fract_y
_atom_site_fract_z
Si Si1 0.423120 0.851172 0.915261
Si Si2 0.089432 0.117610 0.465548
Si Si3 0.083877 0.642080 0.034188
Si Si4 0.589875 0.406107 0.560702
Si Si5 0.577202 0.543287 0.126707
Si Si6 0.077685 0.856951 0.223325
Si Si7 0.922885 0.469810 0.673072
Si Si8 0.418943 0.853014 0.639711
O O1 0.250000 0.844235 0.919195
O O2 0.484952 0.750000 0.895942
O O3 0.468636 0.933699 0.875190
O O4 0.477917 0.873196 0.974813
O O5 0.250000 0.163992 0.460787
O O6 0.019186 0.149738 0.521923
O O7 0.986818 0.152852 0.418634
O O8 0.107921 0.007777 0.463739
O O9 0.250000 0.603974 0.040723
O O10 0.081222 0.750000 0.049698
O O11 0.973463 0.588782 0.072213
O O12 0.750000 0.357401 0.561943
O O13 0.526314 0.413693 0.620502
O O14 0.750000 0.555808 0.132573
O O15 0.499926 0.591003 0.175752
O O16 0.250000 0.863191 0.214097
O O17 0.025896 0.750000 0.225983
O O18 0.030496 0.907732 0.277242
O O19 0.750000 0.488574 0.670370
O O20 0.000565 0.570544 0.676266
O O21 0.250000 0.881887 0.634509
O O22 0.434728 0.750000 0.665793
#
# Coordination Sequence:
#
# PCOD8242923 Si02
#       8
#     8   8   8   8   8   8   8   8
#     4   8  16  32  52  75 106 144 181 213 252 307
#     4   9  16  26  44  71 102 137 172 204 243 297
#     4   9  17  31  52  76 105 144 183 215 254 308
#     4   8  14  26  45  70  98 126 162 209 257 302
#     4  11  21  32  52  81 109 138 174 219 265 304
#     4  10  22  41  61  78 100 133 172 213 260 316
#     4   9  19  36  57  77  98 132 177 221 263 307
#     4  10  20  33  51  77 108 140 173 210 255 308
#
# _framework density 19.308910999999998
#
# number of rings (size 3 to 8) (size 9 to 14) (size 15 to 20)
#    0.000    2.750    0.000    3.375    0.000    6.500 
#    0.000    1.875    0.000    7.500    0.000    0.000 
#    0.000    0.000    0.000    0.000    0.000    0.000 
#
# Total GULP energy -793207.785690 kJ/mol
# GULP energy per Si atom -12393.871651 kJ/mol
# Density = 1.926496 g / cm^3
# Si number density = 19.308911 Si / 1000 Ang^3
#
#
#
# Elastic Constant Matrix: (Units=GPa)
#
#
# Indices 1 2 3 4 5 6 
#
# 1 57.2137 43.2826 38.9860 0.0000 0.0000 0.0000
# 2 43.2826 125.8589 79.9546 0.0000 0.0000 0.0000
# 3 38.9860 79.9546 101.6447 0.0000 0.0000 0.0000
# 4 0.0000 0.0000 0.0000 5.8123 0.0000 0.0000
# 5 0.0000 0.0000 0.0000 0.0000 23.3692 0.0000
# 6 0.0000 0.0000 0.0000 0.0000 0.0000 16.0178
#
#
#
# Elastic Compliance Matrix: (Units=1/GPa)
#
#
# Indices 1 2 3 4 5 6 
#
# 1 0.025168 -0.005043 -0.005687 0.000000 0.000000 0.000000
# 2 -0.005043 0.016892 -0.011353 0.000000 0.000000 0.000000
# 3 -0.005687 -0.011353 0.020950 0.000000 0.000000 0.000000
# 4 0.000000 0.000000 0.000000 0.172048 0.000000 0.000000
# 5 0.000000 0.000000 0.000000 0.000000 0.042791 0.000000
# 6 0.000000 0.000000 0.000000 0.000000 0.000000 0.062431
#
#
# Mechanical properties :
#
#
# Convention : Reuss Voigt Hill
#
# Bulk Modulus (GPa) = 53.06506 67.68484 60.37495
# Shear Modulus (GPa) = 12.79667 17.20614 15.00141
#
# Velocity S-wave (km/s) = 2.57715 2.98837 2.79035
# Velocity P-wave (km/s) = 6.03303 6.85834 6.45888
#
# Compressibility (1/GPa) = 0.01884479
#
# Stress axis : x y z
#
# Youngs Moduli (GPa) = 39.73287 59.19979 47.73302
#
# Poissons Ratio (x) = 0.29853 0.27144
# Poissons Ratio (y) = 0.20036 0.54192
# Poissons Ratio (z) = 0.22595 0.67211
#
# Static dielectric constant tensor:
#      x y z
#    x 3.575620 0.000000 0.000000 
#    y 0.000000 3.738220 0.000000 
#    z 0.000000 0.000000 3.450220 
# 
# 
# High freq. dielectric constant tensor:
#      x y z
#    x 1.739230 0.000000 0.000000 
#    y 0.000000 1.753310 0.000000 
#    z 0.000000 0.000000 1.732070 
# 
# From -- ./inp_files/31626.got.cif
#   From: 2010.03.12/outbox.cif.g09.slc.cpg/sg59_16_cif.got.tgz:31626.got - 2010.04.16 16:29:54.
