data_PCOD8242609
_publ_section_title
;
Structure prediction by ZEFSAII (Michael W. Deem and Ramdas Pophale) SiO2 
 PCOD8242609
Probable space group: P M M N
;
_chemical_formula_sum "Si O2"
_cell_formula_units_Z 56
_cell_length_a 19.667839
_cell_length_b 8.940986
_cell_length_c 17.718802
_cell_angle_alpha 90.000000
_cell_angle_beta 90.000000
_cell_angle_gamma 90.000000
_cell_volume 3115.849084
_symmetry_space_group_name_H-M "P M M N"
_symmetry_group_IT_number 59
_space_group.IT_coordinate_system_code '2'
_symmetry_cell_setting 'orthorhombic'
loop_
_space_group_symop_operation_xyz
x,y,z
1/2-x,1/2-y,z
1/2+x,-y,-z
-x,1/2+y,-z
-x,-y,-z
1/2+x,1/2+y,-z
1/2-x,y,z
x,1/2-y,z
loop_
_atom_site_type_symbol
_atom_site_label
_atom_site_fract_x
_atom_site_fract_y
_atom_site_fract_z
Si Si1 0.825021 0.928242 0.076851
Si Si2 0.551946 0.081212 0.807327
Si Si3 0.934200 0.072656 0.640642
Si Si4 0.914851 0.571371 0.385692
Si Si5 0.564192 0.573396 0.960438
Si Si6 0.104741 0.417988 0.779073
Si Si7 0.328390 0.927293 0.483132
O O1 0.750000 0.987952 0.060149
O O2 0.828430 0.750000 0.083346
O O3 0.849595 0.998938 0.157135
O O4 0.871003 0.981691 0.007816
O O5 0.579678 0.250000 0.818268
O O6 0.575915 0.012823 0.726332
O O7 0.471081 0.081365 0.810669
O O8 0.578473 0.978558 0.875034
O O9 0.938185 0.250000 0.646698
O O10 0.870512 0.018307 0.590447
O O11 0.006182 0.019119 0.603897
O O12 0.909749 0.750000 0.391451
O O13 0.890576 0.508470 0.303892
O O14 0.864521 0.498267 0.445087
O O15 0.554038 0.750000 0.961628
O O16 0.500000 0.500000 0.000000
O O17 0.131023 0.250000 0.768637
O O18 0.250000 0.981650 0.476562
O O19 0.331881 0.750000 0.490926
#
# Coordination Sequence:
#
# PCOD8242609 Si02
#       7
#     8   8   8   8   8   8   8
#     4   9  17  29  46  69  97 129 164 198 234 285
#     4   9  16  31  53  75  96 121 161 210 248 283
#     4   8  16  32  53  73  95 127 166 206 245 291
#     4   9  17  30  52  76  95 120 163 212 249 281
#     4  11  20  31  51  76 100 129 165 202 243 288
#     4   8  14  27  47  72  95 119 156 200 244 288
#     4  10  20  33  48  69 101 138 168 195 242 304
#
# _framework density 17.972629000000001
#
# number of rings (size 3 to 8) (size 9 to 14) (size 15 to 20)
#    0.000    2.857    1.429    2.571    0.000    0.857 
#    0.000    5.714    0.000    2.571    0.000    0.000 
#    0.000    0.000    0.000    0.000    0.000    0.000 
#
# Total GULP energy -693926.089424 kJ/mol
# GULP energy per Si atom -12391.537311 kJ/mol
# Density = 1.793172 g / cm^3
# Si number density = 17.972629 Si / 1000 Ang^3
#
#
#
# Elastic Constant Matrix: (Units=GPa)
#
#
# Indices 1 2 3 4 5 6 
#
# 1 139.9948 25.8327 96.1430 0.0000 0.0000 0.0000
# 2 25.8327 29.8215 30.2563 0.0000 0.0000 0.0000
# 3 96.1430 30.2563 164.2099 0.0000 0.0000 0.0000
# 4 0.0000 0.0000 0.0000 27.6926 0.0000 0.0000
# 5 0.0000 0.0000 0.0000 0.0000 27.3164 0.0000
# 6 0.0000 0.0000 0.0000 0.0000 0.0000 16.9938
#
#
#
# Elastic Compliance Matrix: (Units=1/GPa)
#
#
# Indices 1 2 3 4 5 6 
#
# 1 0.012348 -0.004134 -0.006468 0.000000 0.000000 0.000000
# 2 -0.004134 0.042627 -0.005434 0.000000 0.000000 0.000000
# 3 -0.006468 -0.005434 0.010878 0.000000 0.000000 0.000000
# 4 0.000000 0.000000 0.000000 0.036111 0.000000 0.000000
# 5 0.000000 0.000000 0.000000 0.000000 0.036608 0.000000
# 6 0.000000 0.000000 0.000000 0.000000 0.000000 0.058845
#
#
# Mechanical properties :
#
#
# Convention : Reuss Voigt Hill
#
# Bulk Modulus (GPa) = 29.60220 70.94334 50.27277
# Shear Modulus (GPa) = 20.76864 26.52018 23.64441
#
# Velocity S-wave (km/s) = 3.40306 3.84550 3.63103
# Velocity P-wave (km/s) = 5.65221 7.69908 6.75364
#
# Compressibility (1/GPa) = 0.03378127
#
# Stress axis : x y z
#
# Youngs Moduli (GPa) = 80.98616 23.45940 91.93088
#
# Poissons Ratio (x) = 0.09698 0.59459
# Poissons Ratio (y) = 0.33481 0.49952
# Poissons Ratio (z) = 0.52380 0.12747
#
# Static dielectric constant tensor:
#      x y z
#    x 3.384200 0.000000 0.000000 
#    y 0.000000 2.896680 0.000000 
#    z 0.000000 0.000000 3.660460 
# 
# 
# High freq. dielectric constant tensor:
#      x y z
#    x 1.682270 0.000000 0.000000 
#    y 0.000000 1.646640 0.000000 
#    z 0.000000 0.000000 1.714520 
# 
# From -- ./inp_files/28114.got.cif
#   From: 2010.03.12/outbox.cif.g09.slc.cpg/sg59_15_cif.got.tgz:28114.got - 2010.04.16 16:29:54.
