data_PCOD8242721
_publ_section_title
;
Structure prediction by ZEFSAII (Michael W. Deem and Ramdas Pophale) SiO2 
 PCOD8242721
Probable space group: P M M N
;
_chemical_formula_sum "Si O2"
_cell_formula_units_Z 64
_cell_length_a 15.664380
_cell_length_b 8.985386
_cell_length_c 23.397562
_cell_angle_alpha 90.000000
_cell_angle_beta 90.000000
_cell_angle_gamma 90.000000
_cell_volume 3293.218568
_symmetry_space_group_name_H-M "P M M N"
_symmetry_group_IT_number 59
_space_group.IT_coordinate_system_code '2'
_symmetry_cell_setting 'orthorhombic'
loop_
_space_group_symop_operation_xyz
x,y,z
1/2-x,1/2-y,z
1/2+x,-y,-z
-x,1/2+y,-z
-x,-y,-z
1/2+x,1/2+y,-z
1/2-x,y,z
x,1/2-y,z
loop_
_atom_site_type_symbol
_atom_site_label
_atom_site_fract_x
_atom_site_fract_y
_atom_site_fract_z
Si Si1 0.507348 0.073017 0.372244
Si Si2 0.657409 0.578280 0.818194
Si Si3 0.652363 0.074457 0.570410
Si Si4 0.583561 0.578471 0.138504
Si Si5 0.652297 0.924914 0.448458
Si Si6 0.010521 0.924265 0.758508
Si Si7 0.093045 0.576829 0.077518
Si Si8 0.154230 0.914552 0.959721
O O1 0.502868 0.250000 0.382833
O O2 0.526969 0.032666 0.306742
O O3 0.415759 0.001155 0.387374
O O4 0.585924 0.002103 0.406149
O O5 0.750000 0.551937 0.788939
O O6 0.640224 0.750000 0.830225
O O7 0.584053 0.516724 0.775928
O O8 0.659230 0.498997 0.879468
O O9 0.750000 0.045080 0.591632
O O10 0.634114 0.250000 0.565837
O O11 0.638092 0.000229 0.509284
O O12 0.600551 0.750000 0.149446
O O13 0.580259 0.502645 0.200867
O O14 0.500025 0.542231 0.101570
O O15 0.656523 0.511727 0.098186
O O16 0.750000 0.950979 0.427385
O O17 0.631853 0.750000 0.453183
O O18 0.019372 0.750000 0.767864
O O19 0.114763 0.750000 0.076013
O O20 0.101248 0.513341 0.012810
O O21 0.250000 0.904195 0.982523
O O22 0.118363 0.750000 0.944737
#
# Coordination Sequence:
#
# PCOD8242721 Si02
#       8
#     8   8   8   8   8   8   8   8
#     4  11  22  36  58  85 113 148 188 232 277 323
#     4   9  17  30  49  73 101 133 169 211 257 305
#     4  10  21  37  58  86 121 156 187 222 266 320
#     4  10  20  34  53  74  97 128 166 211 257 300
#     4  10  21  38  60  85 114 148 186 230 279 329
#     4   9  20  37  54  73 101 140 181 216 255 309
#     4   9  18  32  50  73  99 128 162 200 250 312
#     4  10  20  33  50  72  99 130 162 200 251 312
#
# _framework density 19.433876999999999
#
# number of rings (size 3 to 8) (size 9 to 14) (size 15 to 20)
#    0.000    2.250    0.000    2.625    0.000    5.000 
#    0.000    1.875    0.000    0.750    0.000    0.000 
#    0.000    0.000    0.000    0.000    0.000    0.000 
#
# Total GULP energy -793356.652110 kJ/mol
# GULP energy per Si atom -12396.197689 kJ/mol
# Density = 1.938964 g / cm^3
# Si number density = 19.433877 Si / 1000 Ang^3
#
#
#
# Elastic Constant Matrix: (Units=GPa)
#
#
# Indices 1 2 3 4 5 6 
#
# 1 63.6280 33.3910 34.0005 0.0000 0.0000 0.0000
# 2 33.3910 84.8155 54.7189 0.0000 0.0000 0.0000
# 3 34.0005 54.7189 115.2414 0.0000 0.0000 0.0000
# 4 0.0000 0.0000 0.0000 32.5522 0.0000 0.0000
# 5 0.0000 0.0000 0.0000 0.0000 21.2794 0.0000
# 6 0.0000 0.0000 0.0000 0.0000 0.0000 27.8973
#
#
#
# Elastic Compliance Matrix: (Units=1/GPa)
#
#
# Indices 1 2 3 4 5 6 
#
# 1 0.020601 -0.006039 -0.003211 0.000000 0.000000 0.000000
# 2 -0.006039 0.018767 -0.007129 0.000000 0.000000 0.000000
# 3 -0.003211 -0.007129 0.013010 0.000000 0.000000 0.000000
# 4 0.000000 0.000000 0.000000 0.030720 0.000000 0.000000
# 5 0.000000 0.000000 0.000000 0.000000 0.046994 0.000000
# 6 0.000000 0.000000 0.000000 0.000000 0.000000 0.035846
#
#
# Mechanical properties :
#
#
# Convention : Reuss Voigt Hill
#
# Bulk Modulus (GPa) = 50.96788 56.43397 53.70093
# Shear Modulus (GPa) = 24.36218 25.78409 25.07314
#
# Velocity S-wave (km/s) = 3.54445 3.64642 3.59580
# Velocity P-wave (km/s) = 6.56004 6.84328 6.70316
#
# Compressibility (1/GPa) = 0.01962020
#
# Stress axis : x y z
#
# Youngs Moduli (GPa) = 48.54076 53.28403 76.86499
#
# Poissons Ratio (x) = 0.32179 0.24678
# Poissons Ratio (y) = 0.29315 0.54800
# Poissons Ratio (z) = 0.15585 0.37988
#
# Static dielectric constant tensor:
#      x y z
#    x 3.587310 0.000000 0.000000 
#    y 0.000000 3.541930 0.000000 
#    z 0.000000 0.000000 3.540230 
# 
# 
# High freq. dielectric constant tensor:
#      x y z
#    x 1.753960 0.000000 0.000000 
#    y 0.000000 1.758060 0.000000 
#    z 0.000000 0.000000 1.748950 
# 
# From -- ./inp_files/30663.got.cif
#   From: 2010.03.12/outbox.cif.g09.slc.cpg/sg59_16_cif.got.tgz:30663.got - 2010.04.16 16:29:54.
