data_PCOD8242788
_publ_section_title
;
Structure prediction by ZEFSAII (Michael W. Deem and Ramdas Pophale) SiO2 
 PCOD8242788
Probable space group: P M M N
;
_chemical_formula_sum "Si O2"
_cell_formula_units_Z 56
_cell_length_a 15.036421
_cell_length_b 9.156482
_cell_length_c 19.793186
_cell_angle_alpha 90.000000
_cell_angle_beta 90.000000
_cell_angle_gamma 90.000000
_cell_volume 2725.140065
_symmetry_space_group_name_H-M "P M M N"
_symmetry_group_IT_number 59
_space_group.IT_coordinate_system_code '2'
_symmetry_cell_setting 'orthorhombic'
loop_
_space_group_symop_operation_xyz
x,y,z
1/2-x,1/2-y,z
1/2+x,-y,-z
-x,1/2+y,-z
-x,-y,-z
1/2+x,1/2+y,-z
1/2-x,y,z
x,1/2-y,z
loop_
_atom_site_type_symbol
_atom_site_label
_atom_site_fract_x
_atom_site_fract_y
_atom_site_fract_z
Si Si1 0.902237 0.409936 0.565117
Si Si2 0.854477 0.916264 0.694616
Si Si3 0.146270 0.412625 0.704011
Si Si4 0.892980 0.589632 0.442853
Si Si5 0.144691 0.580198 0.834563
Si Si6 0.491060 0.422283 0.928987
Si Si7 0.148619 0.581620 0.171341
O O1 0.858256 0.250000 0.575636
O O2 0.900976 0.500333 0.633785
O O3 0.851677 0.491695 0.503245
O O4 0.003445 0.390503 0.543638
O O5 0.750000 0.929578 0.684088
O O6 0.887204 0.750000 0.694270
O O7 0.883583 0.987363 0.765049
O O8 0.250000 0.397403 0.714330
O O9 0.102305 0.250000 0.710260
O O10 0.125161 0.482163 0.630609
O O11 0.109803 0.519117 0.762339
O O12 0.846979 0.750000 0.444800
O O13 0.250000 0.556912 0.844659
O O14 0.119332 0.750000 0.838953
O O15 0.094200 0.490611 0.892141
O O16 0.475262 0.250000 0.937946
O O17 0.582972 0.454704 0.889932
O O18 0.500000 0.500000 0.000000
O O19 0.250000 0.541408 0.149879
O O20 0.142327 0.750000 0.192785
#
# Coordination Sequence:
#
# PCOD8242788 Si02
#       7
#     8   8   8   8   8   8   8
#     4  10  20  33  50  74 107 146 189 235 284 339
#     4  10  21  36  55  80 109 143 186 235 286 340
#     4   9  18  34  56  80 107 143 188 238 292 347
#     4   9  19  34  50  73 107 146 189 234 285 341
#     4  10  22  40  61  88 123 160 200 247 295 346
#     4  11  24  41  64  94 125 158 198 238 289 354
#     4   9  20  40  63  87 118 155 194 239 291 347
#
# _framework density 20.549402000000001
#
# number of rings (size 3 to 8) (size 9 to 14) (size 15 to 20)
#    0.000    2.286    0.000    1.714    2.000    5.143 
#    0.000    2.857    0.000    0.000    0.000    0.000 
#    0.000    0.000    0.000    0.000    0.000    0.000 
#
# Total GULP energy -694331.262721 kJ/mol
# GULP energy per Si atom -12398.772549 kJ/mol
# Density = 2.050263 g / cm^3
# Si number density = 20.549402 Si / 1000 Ang^3
#
#
#
# Elastic Constant Matrix: (Units=GPa)
#
#
# Indices 1 2 3 4 5 6 
#
# 1 47.9171 39.5360 37.9342 0.0000 0.0000 0.0000
# 2 39.5360 152.1813 99.0115 0.0000 0.0000 0.0000
# 3 37.9342 99.0115 177.3178 0.0000 0.0000 0.0000
# 4 0.0000 0.0000 0.0000 41.5282 0.0000 0.0000
# 5 0.0000 0.0000 0.0000 0.0000 -131.3567 0.0000
# 6 0.0000 0.0000 0.0000 0.0000 0.0000 20.5401
#
#
#
# Elastic Compliance Matrix: (Units=1/GPa)
#
#
# Indices 1 2 3 4 5 6 
#
# 1 0.027529 -0.005215 -0.002978 0.000000 0.000000 0.000000
# 2 -0.005215 0.011308 -0.005199 0.000000 0.000000 0.000000
# 3 -0.002978 -0.005199 0.009180 0.000000 0.000000 0.000000
# 4 0.000000 0.000000 0.000000 0.024080 0.000000 0.000000
# 5 0.000000 0.000000 0.000000 0.000000 -0.007613 0.000000
# 6 0.000000 0.000000 0.000000 0.000000 0.000000 0.048685
#
#
# Mechanical properties :
#
#
# Convention : Reuss Voigt Hill
#
# Bulk Modulus (GPa) = 47.09235 81.15330 64.12282
# Shear Modulus (GPa) = 34.00671 -0.46204 16.77233
#
# Velocity S-wave (km/s) = 4.07243 -0.47469 2.86001
# Velocity P-wave (km/s) = 6.71411 6.26714 6.49447
#
# Compressibility (1/GPa) = 0.02123487
#
# Stress axis : x y z
#
# Youngs Moduli (GPa) = 36.32501 88.43096 108.93821
#
# Poissons Ratio (x) = 0.46114 0.32438
# Poissons Ratio (y) = 0.18942 0.56634
# Poissons Ratio (z) = 0.10816 0.45973
#
# Static dielectric constant tensor:
#      x y z
#    x 3.585300 0.000000 0.000000 
#    y 0.000000 4.086620 0.000000 
#    z 0.000000 0.000000 3.713800 
# 
# 
# High freq. dielectric constant tensor:
#      x y z
#    x 1.793750 0.000000 0.000000 
#    y 0.000000 1.807940 0.000000 
#    z 0.000000 0.000000 1.804350 
# 
# From -- ./inp_files/30392.got.cif
#   From: 2010.03.12/outbox.cif.g09.slc.cpg/sg59_16_cif.got.tgz:30392.got - 2010.04.16 16:29:54.
