data_PCOD8242662
_publ_section_title
;
Structure prediction by ZEFSAII (Michael W. Deem and Ramdas Pophale) SiO2 
 PCOD8242662
Probable space group: P M M N
;
_chemical_formula_sum "Si O2"
_cell_formula_units_Z 56
_cell_length_a 9.232839
_cell_length_b 14.297826
_cell_length_c 23.445816
_cell_angle_alpha 90.000000
_cell_angle_beta 90.000000
_cell_angle_gamma 90.000000
_cell_volume 3095.071045
_symmetry_space_group_name_H-M "P M M N"
_symmetry_group_IT_number 59
_space_group.IT_coordinate_system_code '2'
_symmetry_cell_setting 'orthorhombic'
loop_
_space_group_symop_operation_xyz
x,y,z
1/2-x,1/2-y,z
1/2+x,-y,-z
-x,1/2+y,-z
-x,-y,-z
1/2+x,1/2+y,-z
1/2-x,y,z
x,1/2-y,z
loop_
_atom_site_type_symbol
_atom_site_label
_atom_site_fract_x
_atom_site_fract_y
_atom_site_fract_z
Si Si1 0.418273 0.494811 0.649508
Si Si2 0.081713 0.008900 0.233780
Si Si3 0.581572 0.856962 0.448540
Si Si4 0.419718 0.009537 0.940763
Si Si5 0.582216 0.355543 0.441748
Si Si6 0.918149 0.357780 0.152824
Si Si7 0.916923 0.357912 0.860107
O O1 0.250000 0.488556 0.667056
O O2 0.515605 0.489759 0.704910
O O3 0.465063 0.409956 0.608615
O O4 0.453590 0.590023 0.616059
O O5 0.250000 0.031761 0.239761
O O6 0.007775 0.099115 0.205051
O O7 0.053653 0.914938 0.197693
O O8 0.750000 0.871673 0.460239
O O9 0.537670 0.750000 0.438913
O O10 0.501150 0.898274 0.503949
O O11 0.250000 0.024066 0.951002
O O12 0.481744 0.101132 0.909547
O O13 0.451808 0.915676 0.904599
O O14 0.500000 0.000000 0.000000
O O15 0.750000 0.363732 0.456949
O O16 0.531704 0.250000 0.430424
O O17 0.750000 0.365620 0.169143
O O18 0.964134 0.250000 0.142988
O O19 0.750000 0.368334 0.879340
O O20 0.958133 0.250000 0.849325
#
# Coordination Sequence:
#
# PCOD8242662 Si02
#       7
#     8   8   8   8   8   8   8
#     4  10  20  33  49  70  98 131 164 200 248 306
#     4  10  21  35  52  77 104 130 169 219 261 300
#     4   9  18  32  49  70  96 125 159 202 251 300
#     4  10  20  34  54  83 114 141 174 214 254 301
#     4   9  18  32  49  69  93 123 160 200 244 299
#     4   9  19  37  58  76 100 139 178 209 250 304
#     4   9  19  37  57  75 102 141 178 215 262 308
#
# _framework density 18.093285000000002
#
# number of rings (size 3 to 8) (size 9 to 14) (size 15 to 20)
#    0.000    2.571    0.000    1.286    0.000    4.571 
#    0.000    2.857    0.000    0.000    0.000    0.000 
#    0.000    0.000    0.000    0.000    0.000    0.000 
#
# Total GULP energy -694475.086025 kJ/mol
# GULP energy per Si atom -12401.340822 kJ/mol
# Density = 1.805210 g / cm^3
# Si number density = 18.093285 Si / 1000 Ang^3
#
#
#
# Elastic Constant Matrix: (Units=GPa)
#
#
# Indices 1 2 3 4 5 6 
#
# 1 80.4972 45.4565 68.5759 0.0000 0.0000 0.0000
# 2 45.4565 118.3514 49.4730 0.0000 0.0000 0.0000
# 3 68.5759 49.4730 132.9537 0.0000 0.0000 0.0000
# 4 0.0000 0.0000 0.0000 17.7209 0.0000 0.0000
# 5 0.0000 0.0000 0.0000 0.0000 40.8796 0.0000
# 6 0.0000 0.0000 0.0000 0.0000 0.0000 28.7335
#
#
#
# Elastic Compliance Matrix: (Units=1/GPa)
#
#
# Indices 1 2 3 4 5 6 
#
# 1 0.024302 -0.004848 -0.010731 0.000000 0.000000 0.000000
# 2 -0.004848 0.010973 -0.001582 0.000000 0.000000 0.000000
# 3 -0.010731 -0.001582 0.013645 0.000000 0.000000 0.000000
# 4 0.000000 0.000000 0.000000 0.056430 0.000000 0.000000
# 5 0.000000 0.000000 0.000000 0.000000 0.024462 0.000000
# 6 0.000000 0.000000 0.000000 0.000000 0.000000 0.034803
#
#
# Mechanical properties :
#
#
# Convention : Reuss Voigt Hill
#
# Bulk Modulus (GPa) = 68.50579 73.20144 70.85361
# Shear Modulus (GPa) = 24.53340 28.68660 26.61000
#
# Velocity S-wave (km/s) = 3.68630 3.98613 3.83915
# Velocity P-wave (km/s) = 7.48754 7.85693 7.67445
#
# Compressibility (1/GPa) = 0.01459731
#
# Stress axis : x y z
#
# Youngs Moduli (GPa) = 41.14872 91.13228 73.28716
#
# Poissons Ratio (x) = 0.44184 0.78642
# Poissons Ratio (y) = 0.19950 0.11597
# Poissons Ratio (z) = 0.44155 0.14421
#
# Static dielectric constant tensor:
#      x y z
#    x 3.358010 0.000000 0.000000 
#    y 0.000000 3.588330 0.000000 
#    z 0.000000 0.000000 3.273360 
# 
# 
# High freq. dielectric constant tensor:
#      x y z
#    x 1.701070 0.000000 0.000000 
#    y 0.000000 1.707810 0.000000 
#    z 0.000000 0.000000 1.697750 
# 
# From -- ./inp_files/29088.got.cif
#   From: 2010.03.12/outbox.cif.g09.slc.cpg/sg59_15_cif.got.tgz:29088.got - 2010.04.16 16:29:54.
