data_PCOD8242760
_publ_section_title
;
Structure prediction by ZEFSAII (Michael W. Deem and Ramdas Pophale) SiO2 
 PCOD8242760
Probable space group: P M M N
;
_chemical_formula_sum "Si O2"
_cell_formula_units_Z 56
_cell_length_a 9.232402
_cell_length_b 13.389282
_cell_length_c 23.773356
_cell_angle_alpha 90.000000
_cell_angle_beta 90.000000
_cell_angle_gamma 90.000000
_cell_volume 2938.748963
_symmetry_space_group_name_H-M "P M M N"
_symmetry_group_IT_number 59
_space_group.IT_coordinate_system_code '2'
_symmetry_cell_setting 'orthorhombic'
loop_
_space_group_symop_operation_xyz
x,y,z
1/2-x,1/2-y,z
1/2+x,-y,-z
-x,1/2+y,-z
-x,-y,-z
1/2+x,1/2+y,-z
1/2-x,y,z
x,1/2-y,z
loop_
_atom_site_type_symbol
_atom_site_label
_atom_site_fract_x
_atom_site_fract_y
_atom_site_fract_z
Si Si1 0.080869 0.446016 0.416220
Si Si2 0.086115 0.869220 0.019062
Si Si3 0.084499 0.361999 0.871819
Si Si4 0.914918 0.138837 0.517641
Si Si5 0.916395 0.444384 0.189854
Si Si6 0.420039 0.633967 0.689920
Si Si7 0.589272 0.866847 0.913515
O O1 0.250000 0.424019 0.410049
O O2 0.047642 0.560797 0.433078
O O3 0.018148 0.373800 0.464103
O O4 0.004427 0.425806 0.357567
O O5 0.250000 0.909089 0.015697
O O6 0.081842 0.750000 0.016236
O O7 0.015371 0.903678 0.077920
O O8 0.996594 0.915412 0.966447
O O9 0.250000 0.362909 0.893383
O O10 0.039388 0.250000 0.852981
O O11 0.064136 0.436218 0.818960
O O12 0.750000 0.122446 0.496865
O O13 0.937381 0.250000 0.542218
O O14 0.750000 0.411544 0.182250
O O15 0.971183 0.414583 0.251490
O O16 0.007686 0.383943 0.144660
O O17 0.250000 0.619607 0.680104
O O18 0.463535 0.750000 0.688898
O O19 0.750000 0.914196 0.910955
O O20 0.600611 0.750000 0.923947
#
# Coordination Sequence:
#
# PCOD8242760 Si02
#       7
#     8   8   8   8   8   8   8
#     4  10  20  33  53  82 111 140 179 221 256 296
#     4   9  17  30  50  74  99 129 164 201 247 309
#     4   9  18  34  54  74  97 125 161 209 260 305
#     4   9  18  34  55  79 111 148 179 211 257 307
#     4  10  21  36  54  74  97 131 173 211 250 302
#     4  10  21  37  55  75 104 141 175 208 252 307
#     4  10  20  33  50  74 103 131 161 205 259 307
#
# _framework density 19.055728999999999
#
# number of rings (size 3 to 8) (size 9 to 14) (size 15 to 20)
#    0.000    2.429    0.000    2.143    0.000    7.714 
#    0.000    0.714    0.000    0.857    0.000    0.000 
#    0.000    0.000    0.000    0.000    0.000    0.000 
#
# Total GULP energy -694499.176397 kJ/mol
# GULP energy per Si atom -12401.771007 kJ/mol
# Density = 1.901236 g / cm^3
# Si number density = 19.055729 Si / 1000 Ang^3
#
#
#
# Elastic Constant Matrix: (Units=GPa)
#
#
# Indices 1 2 3 4 5 6 
#
# 1 93.2971 35.5111 68.3246 0.0000 0.0000 0.0000
# 2 35.5111 85.0494 57.0833 0.0000 0.0000 0.0000
# 3 68.3246 57.0833 152.6878 0.0000 0.0000 0.0000
# 4 0.0000 0.0000 0.0000 25.6284 0.0000 0.0000
# 5 0.0000 0.0000 0.0000 0.0000 34.0748 0.0000
# 6 0.0000 0.0000 0.0000 0.0000 0.0000 20.9305
#
#
#
# Elastic Compliance Matrix: (Units=1/GPa)
#
#
# Indices 1 2 3 4 5 6 
#
# 1 0.016350 -0.002558 -0.006360 0.000000 0.000000 0.000000
# 2 -0.002558 0.016097 -0.004873 0.000000 0.000000 0.000000
# 3 -0.006360 -0.004873 0.011217 0.000000 0.000000 0.000000
# 4 0.000000 0.000000 0.000000 0.039019 0.000000 0.000000
# 5 0.000000 0.000000 0.000000 0.000000 0.029347 0.000000
# 6 0.000000 0.000000 0.000000 0.000000 0.000000 0.047777
#
#
# Mechanical properties :
#
#
# Convention : Reuss Voigt Hill
#
# Bulk Modulus (GPa) = 62.18362 72.54135 67.36249
# Shear Modulus (GPa) = 25.94045 27.46777 26.70411
#
# Velocity S-wave (km/s) = 3.69357 3.80075 3.74755
# Velocity P-wave (km/s) = 7.13396 7.57705 7.35884
#
# Compressibility (1/GPa) = 0.01608141
#
# Stress axis : x y z
#
# Youngs Moduli (GPa) = 61.16381 62.12455 89.14997
#
# Poissons Ratio (x) = 0.15891 0.56697
# Poissons Ratio (y) = 0.15645 0.43445
# Poissons Ratio (z) = 0.38899 0.30275
#
# Static dielectric constant tensor:
#      x y z
#    x 3.609570 0.000000 0.000000 
#    y 0.000000 3.580590 0.000000 
#    z 0.000000 0.000000 3.303090 
# 
# 
# High freq. dielectric constant tensor:
#      x y z
#    x 1.744510 0.000000 0.000000 
#    y 0.000000 1.752870 0.000000 
#    z 0.000000 0.000000 1.718670 
# 
# From -- ./inp_files/29141.got.cif
#   From: 2010.03.12/outbox.cif.g09.slc.cpg/sg59_15_cif.got.tgz:29141.got - 2010.04.16 16:29:54.
