data_PCOD8242436
_publ_section_title
;
Structure prediction by ZEFSAII (Michael W. Deem and Ramdas Pophale) SiO2 
 PCOD8242436
Probable space group: P M M N
;
_chemical_formula_sum "Si O2"
_cell_formula_units_Z 64
_cell_length_a 9.022211
_cell_length_b 23.043454
_cell_length_c 17.865688
_cell_angle_alpha 90.000000
_cell_angle_beta 90.000000
_cell_angle_gamma 90.000000
_cell_volume 3714.328420
_symmetry_space_group_name_H-M "P M M N"
_symmetry_group_IT_number 59
_space_group.IT_coordinate_system_code '2'
_symmetry_cell_setting 'orthorhombic'
loop_
_space_group_symop_operation_xyz
x,y,z
1/2-x,1/2-y,z
1/2+x,-y,-z
-x,1/2+y,-z
-x,-y,-z
1/2+x,1/2+y,-z
1/2-x,y,z
x,1/2-y,z
loop_
_atom_site_type_symbol
_atom_site_label
_atom_site_fract_x
_atom_site_fract_y
_atom_site_fract_z
Si Si1 0.424056 0.683300 0.767921
Si Si2 0.916702 0.318937 0.936602
Si Si3 0.924873 0.372472 0.645702
Si Si4 0.583070 0.819039 0.917964
Si Si5 0.421427 0.117313 0.363531
Si Si6 0.919011 0.816274 0.488020
Si Si7 0.424595 0.317188 0.785799
Si Si8 0.078605 0.993733 0.421254
O O1 0.250000 0.676834 0.779189
O O2 0.468494 0.750000 0.751596
O O3 0.501954 0.659902 0.842872
O O4 0.475749 0.643752 0.699865
O O5 0.750000 0.343850 0.932383
O O6 0.913433 0.250000 0.941501
O O7 0.007478 0.338897 0.863972
O O8 0.996845 0.344571 0.010211
O O9 0.750000 0.367568 0.657891
O O10 0.976826 0.437006 0.622787
O O11 0.973952 0.327951 0.581462
O O12 0.006073 0.356849 0.722039
O O13 0.750000 0.843550 0.918128
O O14 0.583468 0.750000 0.921715
O O15 0.250000 0.131662 0.345803
O O16 0.468825 0.144367 0.442756
O O17 0.451787 0.048669 0.367765
O O18 0.750000 0.830284 0.464105
O O19 0.936180 0.750000 0.513198
O O20 0.250000 0.326573 0.788759
O O21 0.464735 0.250000 0.770304
O O22 0.250000 0.988096 0.440860
O O23 0.000000 0.000000 0.500000
#
# Coordination Sequence:
#
# PCOD8242436 Si02
#       8
#     8   8   8   8   8   8   8   8
#     4  10  20  32  47  72 105 135 165 205 250 294
#     4   9  16  27  45  70 101 134 166 203 246 289
#     4  11  22  34  50  73  98 126 162 207 256 297
#     4   9  16  27  45  69  99 136 172 201 236 290
#     4  10  20  35  53  71  94 128 167 206 249 297
#     4  10  20  33  50  71  96 129 165 198 240 299
#     4  10  20  33  49  71 101 136 171 204 242 295
#     4  10  21  37  56  74  93 122 165 213 255 298
#
# _framework density 17.230571000000001
#
# number of rings (size 3 to 8) (size 9 to 14) (size 15 to 20)
#    0.000    2.125    1.250    2.625    0.000    8.250 
#    0.000    0.000    0.000    0.000    0.000    0.875 
#    0.000    0.000    0.000    0.000    0.000    0.000 
#
# Total GULP energy -793769.718892 kJ/mol
# GULP energy per Si atom -12402.651858 kJ/mol
# Density = 1.719135 g / cm^3
# Si number density = 17.230571 Si / 1000 Ang^3
#
#
#
# Elastic Constant Matrix: (Units=GPa)
#
#
# Indices 1 2 3 4 5 6 
#
# 1 95.7877 27.2101 59.3821 0.0000 0.0000 0.0000
# 2 27.2101 57.9040 31.6712 0.0000 0.0000 0.0000
# 3 59.3821 31.6712 124.1908 0.0000 0.0000 0.0000
# 4 0.0000 0.0000 0.0000 6.0125 0.0000 0.0000
# 5 0.0000 0.0000 0.0000 0.0000 38.9921 0.0000
# 6 0.0000 0.0000 0.0000 0.0000 0.0000 19.6861
#
#
#
# Elastic Compliance Matrix: (Units=1/GPa)
#
#
# Indices 1 2 3 4 5 6 
#
# 1 0.015511 -0.003756 -0.006459 0.000000 0.000000 0.000000
# 2 -0.003756 0.020979 -0.003554 0.000000 0.000000 0.000000
# 3 -0.006459 -0.003554 0.012047 0.000000 0.000000 0.000000
# 4 0.000000 0.000000 0.000000 0.166321 0.000000 0.000000
# 5 0.000000 0.000000 0.000000 0.000000 0.025646 0.000000
# 6 0.000000 0.000000 0.000000 0.000000 0.000000 0.050797
#
#
# Mechanical properties :
#
#
# Convention : Reuss Voigt Hill
#
# Bulk Modulus (GPa) = 47.62189 57.15660 52.38925
# Shear Modulus (GPa) = 15.34504 23.57940 19.46222
#
# Velocity S-wave (km/s) = 2.98748 3.70329 3.36447
# Velocity P-wave (km/s) = 6.29270 7.17840 6.75009
#
# Compressibility (1/GPa) = 0.02099875
#
# Stress axis : x y z
#
# Youngs Moduli (GPa) = 64.47190 47.66676 83.01061
#
# Poissons Ratio (x) = 0.17904 0.53613
# Poissons Ratio (y) = 0.24217 0.29502
# Poissons Ratio (z) = 0.41639 0.16941
#
# Static dielectric constant tensor:
#      x y z
#    x 3.328150 0.000000 0.000000 
#    y 0.000000 3.020510 0.000000 
#    z 0.000000 0.000000 3.268750 
# 
# 
# High freq. dielectric constant tensor:
#      x y z
#    x 1.676810 0.000000 0.000000 
#    y 0.000000 1.625360 0.000000 
#    z 0.000000 0.000000 1.671320 
# 
# From -- ./inp_files/26437.got.cif
#   From: 2010.03.12/outbox.cif.g09.slc.cpg/sg59_14_cif.got.tgz:26437.got - 2010.04.16 16:29:54.
