data_PCOD8242269
_publ_section_title
;
Structure prediction by ZEFSAII (Michael W. Deem and Ramdas Pophale) SiO2 
 PCOD8242269
Probable space group: P M M N
;
_chemical_formula_sum "Si O2"
_cell_formula_units_Z 44
_cell_length_a 8.104120
_cell_length_b 32.125773
_cell_length_c 9.060579
_cell_angle_alpha 90.000000
_cell_angle_beta 90.000000
_cell_angle_gamma 90.000000
_cell_volume 2358.931886
_symmetry_space_group_name_H-M "P M M N"
_symmetry_group_IT_number 59
_space_group.IT_coordinate_system_code '2'
_symmetry_cell_setting 'orthorhombic'
loop_
_space_group_symop_operation_xyz
x,y,z
1/2-x,1/2-y,z
1/2+x,-y,-z
-x,1/2+y,-z
-x,-y,-z
1/2+x,1/2+y,-z
1/2-x,y,z
x,1/2-y,z
loop_
_atom_site_type_symbol
_atom_site_label
_atom_site_fract_x
_atom_site_fract_y
_atom_site_fract_z
Si Si1 0.429944 0.154893 0.164193
Si Si2 0.001882 0.434113 0.250065
Si Si3 0.750000 0.055857 0.005755
Si Si4 0.750000 0.331551 0.638684
Si Si5 0.750000 0.496086 0.713670
Si Si6 0.437581 0.201355 0.465832
Si Si7 0.750000 0.080634 0.496999
Si Si8 0.250000 0.651290 0.031528
O O1 0.250000 0.170971 0.103502
O O2 0.399298 0.105896 0.193006
O O3 0.476283 0.178092 0.314272
O O4 0.582516 0.163891 0.054875
O O5 0.097225 0.473710 0.310157
O O6 0.904831 0.416938 0.390237
O O7 0.904589 0.451840 0.110526
O O8 0.750000 0.102118 0.939363
O O9 0.750000 0.022657 0.876522
O O10 0.580246 0.311220 0.580864
O O11 0.750000 0.380506 0.605914
O O12 0.750000 0.324601 0.814303
O O13 0.750000 0.461350 0.589983
O O14 0.250000 0.190236 0.522267
O O15 0.451041 0.250000 0.434909
#
# Coordination Sequence:
#
# PCOD8242269 Si02
#       8
#     8   8   4   4   4   8   4   4
#     4  10  19  38  63  86 114 153 201 244 293 346
#     4  10  20  35  54  77 110 150 192 243 294 339
#     4   9  20  35  52  76 110 149 189 243 284 335
#     4  12  21  39  62  85 130 162 188 238 306 355
#     4  12  20  34  55  80 111 152 193 240 297 343
#     4  10  22  40  66  95 117 149 199 244 290 359
#     4  11  22  36  51  80 118 149 192 248 286 351
#     4  10  22  36  58  87 122 158 194 239 293 352
#
# _framework density 18.652508999999998
#
# number of rings (size 3 to 8) (size 9 to 14) (size 15 to 20)
#    0.000    1.636    3.636    2.455    0.000    0.727 
#    0.000    1.818    0.000    2.182    0.000    0.000 
#    0.000    0.000    0.000    0.000    0.000    0.000 
#
# Total GULP energy -545211.404059 kJ/mol
# GULP energy per Si atom -12391.168274 kJ/mol
# Density = 1.861006 g / cm^3
# Si number density = 18.652509 Si / 1000 Ang^3
#
#
#
# Elastic Constant Matrix: (Units=GPa)
#
#
# Indices 1 2 3 4 5 6 
#
# 1 143.2968 31.7840 60.0950 0.0000 0.0000 0.0000
# 2 31.7840 61.4770 22.9678 0.0000 0.0000 0.0000
# 3 60.0950 22.9678 101.9118 0.0000 0.0000 0.0000
# 4 0.0000 0.0000 0.0000 17.0904 0.0000 0.0000
# 5 0.0000 0.0000 0.0000 0.0000 -9.1940 0.0000
# 6 0.0000 0.0000 0.0000 0.0000 0.0000 20.3073
#
#
#
# Elastic Compliance Matrix: (Units=1/GPa)
#
#
# Indices 1 2 3 4 5 6 
#
# 1 0.009809 -0.003178 -0.005068 0.000000 0.000000 0.000000
# 2 -0.003178 0.018791 -0.002361 0.000000 0.000000 0.000000
# 3 -0.005068 -0.002361 0.013333 0.000000 0.000000 0.000000
# 4 0.000000 0.000000 0.000000 0.058512 0.000000 0.000000
# 5 0.000000 0.000000 0.000000 0.000000 -0.108766 0.000000
# 6 0.000000 0.000000 0.000000 0.000000 0.000000 0.049243
#
#
# Mechanical properties :
#
#
# Convention : Reuss Voigt Hill
#
# Bulk Modulus (GPa) = 48.26379 59.59769 53.93074
# Shear Modulus (GPa) = 72.41957 18.43000 45.42478
#
# Velocity S-wave (km/s) = 6.23778 3.14677 4.94025
# Velocity P-wave (km/s) = 8.82107 6.72486 7.84331
#
# Compressibility (1/GPa) = 0.02071947
#
# Stress axis : x y z
#
# Youngs Moduli (GPa) = 101.95074 53.21613 75.00269
#
# Poissons Ratio (x) = 0.16911 0.38009
# Poissons Ratio (y) = 0.32398 0.17709
# Poissons Ratio (z) = 0.51666 0.12565
#
# Static dielectric constant tensor:
#      x y z
#    x 3.646380 0.000000 0.000000 
#    y 0.000000 3.370800 0.000000 
#    z 0.000000 0.000000 3.232650 
# 
# 
# High freq. dielectric constant tensor:
#      x y z
#    x 1.738230 0.000000 0.000000 
#    y 0.000000 1.725200 0.000000 
#    z 0.000000 0.000000 1.711520 
# 
# From -- ./inp_files/6162.got.cif
#   From: 2010.03.12/outbox.cif.g09.slc.cpg/sg59_4_cif.got.tgz:6162.got - 2010.04.16 16:29:54.
