data_PCOD8242641
_publ_section_title
;
Structure prediction by ZEFSAII (Michael W. Deem and Ramdas Pophale) SiO2 
 PCOD8242641
Probable space group: P M M N
;
_chemical_formula_sum "Si O2"
_cell_formula_units_Z 48
_cell_length_a 18.457904
_cell_length_b 9.019481
_cell_length_c 16.261271
_cell_angle_alpha 90.000000
_cell_angle_beta 90.000000
_cell_angle_gamma 90.000000
_cell_volume 2707.188014
_symmetry_space_group_name_H-M "P M M N"
_symmetry_group_IT_number 59
_space_group.IT_coordinate_system_code '2'
_symmetry_cell_setting 'orthorhombic'
loop_
_space_group_symop_operation_xyz
x,y,z
1/2-x,1/2-y,z
1/2+x,-y,-z
-x,1/2+y,-z
-x,-y,-z
1/2+x,1/2+y,-z
1/2-x,y,z
x,1/2-y,z
loop_
_atom_site_type_symbol
_atom_site_label
_atom_site_fract_x
_atom_site_fract_y
_atom_site_fract_z
Si Si1 0.668869 0.576876 0.827718
Si Si2 0.834489 0.578646 0.522914
Si Si3 0.899313 0.425454 0.676777
Si Si4 0.033893 0.920891 0.748268
Si Si5 0.971704 0.921096 0.919872
Si Si6 0.831545 0.079456 0.356339
O O1 0.750000 0.544231 0.860768
O O2 0.657638 0.750000 0.807985
O O3 0.657067 0.490507 0.742850
O O4 0.609747 0.525276 0.895432
O O5 0.750000 0.553315 0.540246
O O6 0.856284 0.750000 0.530495
O O7 0.879905 0.483219 0.586858
O O8 0.855039 0.522748 0.432197
O O9 0.894256 0.250000 0.678520
O O10 0.980697 0.476187 0.696049
O O11 0.011956 0.750000 0.732488
O O12 0.115952 0.954030 0.720573
O O13 0.026304 0.957427 0.844916
O O14 0.970492 0.750000 0.941649
O O15 0.000000 0.000000 0.000000
O O16 0.750000 0.041899 0.327177
O O17 0.837750 0.250000 0.384656
#
# Coordination Sequence:
#
# PCOD8242641 Si02
#       6
#     8   8   8   8   8   8
#     4   9  18  34  54  74 100 134 168 203 249 303
#     4  10  20  33  49  70 100 137 170 201 245 298
#     4  11  21  31  48  75 103 131 167 209 248 290
#     4   9  19  36  54  72  98 132 166 201 250 306
#     4   9  18  33  53  76 101 130 162 197 242 296
#     4   9  18  34  55  75  95 124 167 215 252 284
#
# _framework density 17.730574000000001
#
# number of rings (size 3 to 8) (size 9 to 14) (size 15 to 20)
#    0.000    2.500    0.000    3.500    0.000    7.333 
#    0.000    0.833    0.000    1.000    0.000    0.000 
#    0.000    0.000    0.000    0.000    0.000    0.000 
#
# Total GULP energy -595197.140998 kJ/mol
# GULP energy per Si atom -12399.940437 kJ/mol
# Density = 1.769022 g / cm^3
# Si number density = 17.730574 Si / 1000 Ang^3
#
#
#
# Elastic Constant Matrix: (Units=GPa)
#
#
# Indices 1 2 3 4 5 6 
#
# 1 119.0187 43.2408 80.0426 0.0000 0.0000 0.0000
# 2 43.2408 80.2157 49.3671 0.0000 0.0000 0.0000
# 3 80.0426 49.3671 120.0471 0.0000 0.0000 0.0000
# 4 0.0000 0.0000 0.0000 32.1894 0.0000 0.0000
# 5 0.0000 0.0000 0.0000 0.0000 24.8993 0.0000
# 6 0.0000 0.0000 0.0000 0.0000 0.0000 21.0989
#
#
#
# Elastic Compliance Matrix: (Units=1/GPa)
#
#
# Indices 1 2 3 4 5 6 
#
# 1 0.015657 -0.002698 -0.009330 0.000000 0.000000 0.000000
# 2 -0.002698 0.017155 -0.005256 0.000000 0.000000 0.000000
# 3 -0.009330 -0.005256 0.016712 0.000000 0.000000 0.000000
# 4 0.000000 0.000000 0.000000 0.031066 0.000000 0.000000
# 5 0.000000 0.000000 0.000000 0.000000 0.040162 0.000000
# 6 0.000000 0.000000 0.000000 0.000000 0.000000 0.047396
#
#
# Mechanical properties :
#
#
# Convention : Reuss Voigt Hill
#
# Bulk Modulus (GPa) = 66.85876 73.84251 70.35064
# Shear Modulus (GPa) = 24.07307 25.41293 24.74300
#
# Velocity S-wave (km/s) = 3.68872 3.78998 3.73969
# Velocity P-wave (km/s) = 7.47878 7.80316 7.64269
#
# Compressibility (1/GPa) = 0.01495690
#
# Stress axis : x y z
#
# Youngs Moduli (GPa) = 63.87032 58.29065 59.83676
#
# Poissons Ratio (x) = 0.15727 0.55826
# Poissons Ratio (y) = 0.17233 0.31449
# Poissons Ratio (z) = 0.59589 0.30637
#
# Static dielectric constant tensor:
#      x y z
#    x 3.459560 0.000000 0.000000 
#    y 0.000000 3.310590 0.000000 
#    z 0.000000 0.000000 3.131620 
# 
# 
# High freq. dielectric constant tensor:
#      x y z
#    x 1.687000 0.000000 0.000000 
#    y 0.000000 1.684390 0.000000 
#    z 0.000000 0.000000 1.670060 
# 
# From -- ./inp_files/20391.got.cif
#   From: 2010.03.12/outbox.cif.g09.slc.cpg/sg59_11_cif.got.tgz:20391.got - 2010.04.16 16:29:54.
