data_PCOD8242539
_publ_section_title
;
Structure prediction by ZEFSAII (Michael W. Deem and Ramdas Pophale) SiO2 
 PCOD8242539
Probable space group: P M M N
;
_chemical_formula_sum "Si O2"
_cell_formula_units_Z 64
_cell_length_a 21.679674
_cell_length_b 9.028129
_cell_length_c 16.686960
_cell_angle_alpha 90.000000
_cell_angle_beta 90.000000
_cell_angle_gamma 90.000000
_cell_volume 3266.086844
_symmetry_space_group_name_H-M "P M M N"
_symmetry_group_IT_number 59
_space_group.IT_coordinate_system_code '2'
_symmetry_cell_setting 'orthorhombic'
loop_
_space_group_symop_operation_xyz
x,y,z
1/2-x,1/2-y,z
1/2+x,-y,-z
-x,1/2+y,-z
-x,-y,-z
1/2+x,1/2+y,-z
1/2-x,y,z
x,1/2-y,z
loop_
_atom_site_type_symbol
_atom_site_label
_atom_site_fract_x
_atom_site_fract_y
_atom_site_fract_z
Si Si1 0.985648 0.574477 0.192713
Si Si2 0.319504 0.924123 0.540078
Si Si3 0.180249 0.079775 0.058904
Si Si4 0.103538 0.918880 0.930978
Si Si5 0.888041 0.919640 0.781644
Si Si6 0.820609 0.408578 0.215837
Si Si7 0.604727 0.919674 0.329418
Si Si8 0.321249 0.580335 0.356543
O O1 0.981569 0.750000 0.181237
O O2 0.951496 0.500799 0.116462
O O3 0.956671 0.529422 0.280256
O O4 0.055136 0.520254 0.191380
O O5 0.250000 0.981139 0.564236
O O6 0.320721 0.750000 0.552795
O O7 0.332700 0.965701 0.448346
O O8 0.376439 0.991352 0.590829
O O9 0.250000 0.017768 0.044288
O O10 0.177258 0.250000 0.031688
O O11 0.165937 0.063270 0.153043
O O12 0.125192 0.994527 0.013123
O O13 0.082803 0.750000 0.948628
O O14 0.164746 0.929190 0.877183
O O15 0.909894 0.750000 0.773569
O O16 0.862636 0.973197 0.696613
O O17 0.750000 0.394483 0.229106
O O18 0.850778 0.250000 0.244960
O O19 0.841564 0.550854 0.265409
O O20 0.600920 0.750000 0.354356
O O21 0.250000 0.559401 0.333992
O O22 0.341442 0.750000 0.342044
#
# Coordination Sequence:
#
# PCOD8242539 Si02
#       8
#     8   8   8   8   8   8   8   8
#     4  10  22  40  58  78 110 151 190 228 274 328
#     4   9  18  33  54  81 113 147 181 220 271 330
#     4  10  22  39  58  83 115 145 174 218 278 336
#     4  10  20  35  56  82 110 142 184 228 268 318
#     4  11  23  39  60  84 109 142 187 235 280 325
#     4   9  17  29  46  70 103 141 177 216 264 316
#     4  10  20  32  49  76 107 140 182 227 268 318
#     4   9  19  37  60  85 113 145 180 221 275 334
#
# _framework density 19.595316
#
# number of rings (size 3 to 8) (size 9 to 14) (size 15 to 20)
#    0.000    2.250    0.000    3.375    0.000    7.500 
#    0.000    1.875    0.000    0.000    0.000    0.000 
#    0.000    0.000    0.000    0.000    0.000    0.000 
#
# Total GULP energy -793069.229953 kJ/mol
# GULP energy per Si atom -12391.706718 kJ/mol
# Density = 1.955072 g / cm^3
# Si number density = 19.595316 Si / 1000 Ang^3
#
#
#
# Elastic Constant Matrix: (Units=GPa)
#
#
# Indices 1 2 3 4 5 6 
#
# 1 74.2429 31.6537 26.1200 0.0000 0.0000 0.0000
# 2 31.6537 72.0488 31.3797 0.0000 0.0000 0.0000
# 3 26.1200 31.3797 83.1876 0.0000 0.0000 0.0000
# 4 0.0000 0.0000 0.0000 33.6845 0.0000 0.0000
# 5 0.0000 0.0000 0.0000 0.0000 22.0682 0.0000
# 6 0.0000 0.0000 0.0000 0.0000 0.0000 28.5091
#
#
#
# Elastic Compliance Matrix: (Units=1/GPa)
#
#
# Indices 1 2 3 4 5 6 
#
# 1 0.017197 -0.006227 -0.003051 0.000000 0.000000 0.000000
# 2 -0.006227 0.018862 -0.005160 0.000000 0.000000 0.000000
# 3 -0.003051 -0.005160 0.014925 0.000000 0.000000 0.000000
# 4 0.000000 0.000000 0.000000 0.029687 0.000000 0.000000
# 5 0.000000 0.000000 0.000000 0.000000 0.045314 0.000000
# 6 0.000000 0.000000 0.000000 0.000000 0.000000 0.035077
#
#
# Mechanical properties :
#
#
# Convention : Reuss Voigt Hill
#
# Bulk Modulus (GPa) = 45.22875 45.30956 45.26916
# Shear Modulus (GPa) = 25.34097 26.20741 25.77419
#
# Velocity S-wave (km/s) = 3.60003 3.66106 3.63067
# Velocity P-wave (km/s) = 6.35703 6.40656 6.38184
#
# Compressibility (1/GPa) = 0.02210983
#
# Stress axis : x y z
#
# Youngs Moduli (GPa) = 58.14811 53.01527 66.99947
#
# Poissons Ratio (x) = 0.33011 0.20442
# Poissons Ratio (y) = 0.36207 0.34573
# Poissons Ratio (z) = 0.17741 0.27357
#
# Static dielectric constant tensor:
#      x y z
#    x 3.465690 0.000000 0.000000 
#    y 0.000000 3.451560 0.000000 
#    z 0.000000 0.000000 3.544660 
# 
# 
# High freq. dielectric constant tensor:
#      x y z
#    x 1.750150 0.000000 0.000000 
#    y 0.000000 1.762620 0.000000 
#    z 0.000000 0.000000 1.763890 
# 
# From -- ./inp_files/24714.got.cif
#   From: 2010.03.12/outbox.cif.g09.slc.cpg/sg59_13_cif.got.tgz:24714.got - 2010.04.16 16:29:54.
