data_PCOD8242108
_publ_section_title
;
Structure prediction by ZEFSAII (Michael W. Deem and Ramdas Pophale) SiO2 
 PCOD8242108
Probable space group: P M M N
;
_chemical_formula_sum "Si O2"
_cell_formula_units_Z 64
_cell_length_a 24.589639
_cell_length_b 9.191835
_cell_length_c 14.531506
_cell_angle_alpha 90.000000
_cell_angle_beta 90.000000
_cell_angle_gamma 90.000000
_cell_volume 3284.467723
_symmetry_space_group_name_H-M "P M M N"
_symmetry_group_IT_number 59
_space_group.IT_coordinate_system_code '2'
_symmetry_cell_setting 'orthorhombic'
loop_
_space_group_symop_operation_xyz
x,y,z
1/2-x,1/2-y,z
1/2+x,-y,-z
-x,1/2+y,-z
-x,-y,-z
1/2+x,1/2+y,-z
1/2-x,y,z
x,1/2-y,z
loop_
_atom_site_type_symbol
_atom_site_label
_atom_site_fract_x
_atom_site_fract_y
_atom_site_fract_z
Si Si1 0.557591 0.578434 0.514624
Si Si2 0.834715 0.915991 0.010860
Si Si3 0.811093 0.083230 0.827859
Si Si4 0.983040 0.088732 0.215576
Si Si5 0.893725 0.413601 0.355926
Si Si6 0.901603 0.580218 0.716678
Si Si7 0.044732 0.412215 0.947287
Si Si8 0.811877 0.416417 0.197855
O O1 0.500000 0.500000 0.500000
O O2 0.548284 0.750000 0.502786
O O3 0.602896 0.521896 0.442091
O O4 0.584497 0.539590 0.612140
O O5 0.813190 0.750000 0.009482
O O6 0.810053 0.003574 0.926161
O O7 0.899408 0.918454 0.997375
O O8 0.817990 0.986620 0.107221
O O9 0.750000 0.074406 0.787590
O O10 0.829038 0.250000 0.843054
O O11 0.850676 0.010404 0.753443
O O12 0.981066 0.250000 0.171623
O O13 0.954818 0.089801 0.314837
O O14 0.045487 0.038791 0.223050
O O15 0.947759 0.981200 0.153127
O O16 0.877375 0.250000 0.387391
O O17 0.850348 0.472457 0.280778
O O18 0.887655 0.750000 0.726720
O O19 0.023474 0.250000 0.934726
O O20 0.000000 0.500000 0.000000
O O21 0.750000 0.426524 0.232914
O O22 0.827988 0.250000 0.173163
#
# Coordination Sequence:
#
# PCOD8242108 Si02
#       8
#     8   8   8   8   8   8   8   8
#     4  11  22  38  62  92 123 155 194 239 291 354
#     4  11  23  38  58  86 118 155 199 244 292 349
#     4  11  25  43  62  86 115 151 199 248 294 347
#     4  10  19  35  57  82 116 154 189 232 289 346
#     4  10  20  37  59  86 122 158 191 239 293 342
#     4  10  22  40  61  88 119 152 194 240 291 353
#     4  11  23  35  50  79 116 154 196 238 289 348
#     4  10  21  38  61  87 117 158 204 245 289 343
#
# _framework density 19.485654
#
# number of rings (size 3 to 8) (size 9 to 14) (size 15 to 20)
#    0.000    1.500    2.500    2.625    0.000    9.750 
#    0.000    0.625    0.000    2.250    0.000    0.000 
#    0.000    0.000    0.000    0.000    0.000    0.000 
#
# Total GULP energy -793620.407425 kJ/mol
# GULP energy per Si atom -12400.318866 kJ/mol
# Density = 1.944130 g / cm^3
# Si number density = 19.485654 Si / 1000 Ang^3
#
#
#
# Elastic Constant Matrix: (Units=GPa)
#
#
# Indices 1 2 3 4 5 6 
#
# 1 105.2758 48.0335 43.3198 0.0000 0.0000 0.0000
# 2 48.0335 117.2578 59.2599 0.0000 0.0000 0.0000
# 3 43.3198 59.2599 104.3419 0.0000 0.0000 0.0000
# 4 0.0000 0.0000 0.0000 38.6031 0.0000 0.0000
# 5 0.0000 0.0000 0.0000 0.0000 19.3479 0.0000
# 6 0.0000 0.0000 0.0000 0.0000 0.0000 27.9266
#
#
#
# Elastic Compliance Matrix: (Units=1/GPa)
#
#
# Indices 1 2 3 4 5 6 
#
# 1 0.012388 -0.003472 -0.003171 0.000000 0.000000 0.000000
# 2 -0.003472 0.012934 -0.005905 0.000000 0.000000 0.000000
# 3 -0.003171 -0.005905 0.014254 0.000000 0.000000 0.000000
# 4 0.000000 0.000000 0.000000 0.025905 0.000000 0.000000
# 5 0.000000 0.000000 0.000000 0.000000 0.051685 0.000000
# 6 0.000000 0.000000 0.000000 0.000000 0.000000 0.035808
#
#
# Mechanical properties :
#
#
# Convention : Reuss Voigt Hill
#
# Bulk Modulus (GPa) = 69.05671 69.78909 69.42290
# Shear Modulus (GPa) = 27.33783 28.92635 28.13209
#
# Velocity S-wave (km/s) = 3.74969 3.85709 3.80377
# Velocity P-wave (km/s) = 7.36638 7.46523 7.41597
#
# Compressibility (1/GPa) = 0.01448085
#
# Stress axis : x y z
#
# Youngs Moduli (GPa) = 80.72395 77.31266 70.15600
#
# Poissons Ratio (x) = 0.26842 0.22249
# Poissons Ratio (y) = 0.28026 0.41424
# Poissons Ratio (z) = 0.25600 0.45650
#
# Static dielectric constant tensor:
#      x y z
#    x 3.599540 0.000000 0.000000 
#    y 0.000000 3.681170 0.000000 
#    z 0.000000 0.000000 3.685500 
# 
# 
# High freq. dielectric constant tensor:
#      x y z
#    x 1.760750 0.000000 0.000000 
#    y 0.000000 1.761930 0.000000 
#    z 0.000000 0.000000 1.752090 
# 
# From -- ./inp_files/24657.got.cif
#   From: 2010.03.12/outbox.cif.g09.slc.cpg/sg59_13_cif.got.tgz:24657.got - 2010.04.16 16:29:54.
