data_PCOD8242092
_publ_section_title
;
Structure prediction by ZEFSAII (Michael W. Deem and Ramdas Pophale) SiO2 
 PCOD8242092
Probable space group: P M M N
;
_chemical_formula_sum "Si O2"
_cell_formula_units_Z 64
_cell_length_a 18.761272
_cell_length_b 18.554078
_cell_length_c 9.858904
_cell_angle_alpha 90.000000
_cell_angle_beta 90.000000
_cell_angle_gamma 90.000000
_cell_volume 3431.865791
_symmetry_space_group_name_H-M "P M M N"
_symmetry_group_IT_number 59
_space_group.IT_coordinate_system_code '2'
_symmetry_cell_setting 'orthorhombic'
loop_
_space_group_symop_operation_xyz
x,y,z
1/2-x,1/2-y,z
1/2+x,-y,-z
-x,1/2+y,-z
-x,-y,-z
1/2+x,1/2+y,-z
1/2-x,y,z
x,1/2-y,z
loop_
_atom_site_type_symbol
_atom_site_label
_atom_site_fract_x
_atom_site_fract_y
_atom_site_fract_z
Si Si1 0.592496 0.166211 0.296554
Si Si2 0.167800 0.105400 0.082859
Si Si3 0.332233 0.165497 0.785861
Si Si4 0.087870 0.570062 0.464695
Si Si5 0.570565 0.668067 0.698377
Si Si6 0.665689 0.331591 0.024816
Si Si7 0.166109 0.948965 0.184531
Si Si8 0.573677 0.585869 0.436122
O O1 0.604928 0.250000 0.317811
O O2 0.621268 0.129472 0.434472
O O3 0.510348 0.145575 0.268136
O O4 0.636326 0.138553 0.167104
O O5 0.250000 0.117374 0.123681
O O6 0.119526 0.158628 0.170693
O O7 0.143614 0.023309 0.111527
O O8 0.154787 0.126080 0.927961
O O9 0.250000 0.157049 0.740378
O O10 0.352718 0.250000 0.795220
O O11 0.383011 0.124182 0.682404
O O12 0.135564 0.557147 0.334362
O O13 0.086439 0.499184 0.558464
O O14 0.010629 0.597982 0.415039
O O15 0.573716 0.750000 0.648965
O O16 0.600784 0.619338 0.577444
O O17 0.750000 0.334834 0.032932
O O18 0.638768 0.250000 0.996358
O O19 0.636453 0.382903 0.905640
O O20 0.250000 0.943860 0.198108
#
# Coordination Sequence:
#
# PCOD8242092 Si02
#       8
#     8   8   8   8   8   8   8   8
#     4   9  20  36  56  84 111 140 182 229 276 328
#     4  10  21  37  55  81 114 146 186 231 278 331
#     4  10  22  39  58  83 115 151 192 235 280 333
#     4  10  21  37  56  81 113 148 184 230 279 332
#     4  10  19  35  57  79 110 147 183 225 270 322
#     4   9  19  37  58  80 108 142 181 225 277 335
#     4  10  21  37  56  82 112 145 185 230 278 332
#     4  10  21  37  55  81 112 147 188 228 275 329
#
# _framework density 18.648748000000001
#
# number of rings (size 3 to 8) (size 9 to 14) (size 15 to 20)
#    0.000    2.250    1.250    0.750    1.750    4.250 
#    0.000    2.500    0.000    0.000    0.000    0.000 
#    0.000    0.000    0.000    0.000    0.000    0.000 
#
# Total GULP energy -793640.579448 kJ/mol
# GULP energy per Si atom -12400.634054 kJ/mol
# Density = 1.860630 g / cm^3
# Si number density = 18.648748 Si / 1000 Ang^3
#
#
#
# Elastic Constant Matrix: (Units=GPa)
#
#
# Indices 1 2 3 4 5 6 
#
# 1 23.8872 30.3006 25.8760 0.0000 0.0000 0.0000
# 2 30.3006 81.0217 48.8873 0.0000 0.0000 0.0000
# 3 25.8760 48.8873 97.0870 0.0000 0.0000 0.0000
# 4 0.0000 0.0000 0.0000 39.1142 0.0000 0.0000
# 5 0.0000 0.0000 0.0000 0.0000 33.2665 0.0000
# 6 0.0000 0.0000 0.0000 0.0000 0.0000 25.5381
#
#
#
# Elastic Compliance Matrix: (Units=1/GPa)
#
#
# Indices 1 2 3 4 5 6 
#
# 1 0.085453 -0.026165 -0.009600 0.000000 0.000000 0.000000
# 2 -0.026165 0.025741 -0.005988 0.000000 0.000000 0.000000
# 3 -0.009600 -0.005988 0.015874 0.000000 0.000000 0.000000
# 4 0.000000 0.000000 0.000000 0.025566 0.000000 0.000000
# 5 0.000000 0.000000 0.000000 0.000000 0.030060 0.000000
# 6 0.000000 0.000000 0.000000 0.000000 0.000000 0.039157
#
#
# Mechanical properties :
#
#
# Convention : Reuss Voigt Hill
#
# Bulk Modulus (GPa) = 22.95618 45.79154 34.37386
# Shear Modulus (GPa) = 15.63097 26.04591 20.83844
#
# Velocity S-wave (km/s) = 2.89827 3.74124 3.34641
# Velocity P-wave (km/s) = 4.85144 6.57804 5.77958
#
# Compressibility (1/GPa) = 0.04356125
#
# Stress axis : x y z
#
# Youngs Moduli (GPa) = 11.70233 38.84898 62.99705
#
# Poissons Ratio (x) = 1.01650 0.60477
# Poissons Ratio (y) = 0.30620 0.37721
# Poissons Ratio (z) = 0.11234 0.23262
#
# Static dielectric constant tensor:
#      x y z
#    x 3.334340 0.000000 0.000000 
#    y 0.000000 3.628490 0.000000 
#    z 0.000000 0.000000 3.416580 
# 
# 
# High freq. dielectric constant tensor:
#      x y z
#    x 1.712350 0.000000 0.000000 
#    y 0.000000 1.736510 0.000000 
#    z 0.000000 0.000000 1.725250 
# 
# From -- ./inp_files/11602.got.cif
#   From: 2010.03.12/outbox.cif.g09.slc.cpg/sg59_6_cif.got.tgz:11602.got - 2010.04.16 16:29:54.
