data_PCOD8242876
_publ_section_title
;
Structure prediction by ZEFSAII (Michael W. Deem and Ramdas Pophale) SiO2 
 PCOD8242876
Probable space group: P M M N
;
_chemical_formula_sum "Si O2"
_cell_formula_units_Z 64
_cell_length_a 9.036739
_cell_length_b 9.425973
_cell_length_c 41.058486
_cell_angle_alpha 90.000000
_cell_angle_beta 90.000000
_cell_angle_gamma 90.000000
_cell_volume 3497.364212
_symmetry_space_group_name_H-M "P M M N"
_symmetry_group_IT_number 59
_space_group.IT_coordinate_system_code '2'
_symmetry_cell_setting 'orthorhombic'
loop_
_space_group_symop_operation_xyz
x,y,z
1/2-x,1/2-y,z
1/2+x,-y,-z
-x,1/2+y,-z
-x,-y,-z
1/2+x,1/2+y,-z
1/2-x,y,z
x,1/2-y,z
loop_
_atom_site_type_symbol
_atom_site_label
_atom_site_fract_x
_atom_site_fract_y
_atom_site_fract_z
Si Si1 0.585901 0.418500 0.722282
Si Si2 0.421633 0.415603 0.028432
Si Si3 0.921459 0.415681 0.649546
Si Si4 0.579762 0.082403 0.848515
Si Si5 0.578394 0.414212 0.405744
Si Si6 0.077690 0.415574 0.471496
Si Si7 0.914982 0.918704 0.215909
Si Si8 0.922777 0.414102 0.095025
O O1 0.750000 0.479871 0.728560
O O2 0.592669 0.250000 0.724559
O O3 0.531545 0.461505 0.686171
O O4 0.477808 0.480562 0.750030
O O5 0.250000 0.456755 0.029640
O O6 0.445845 0.250000 0.021840
O O7 0.494550 0.461883 0.062337
O O8 0.500000 0.500000 0.000000
O O9 0.750000 0.453591 0.643351
O O10 0.949062 0.250000 0.644029
O O11 0.025934 0.500347 0.625483
O O12 0.750000 0.035603 0.851353
O O13 0.561239 0.250000 0.852741
O O14 0.518901 0.030995 0.813604
O O15 0.483586 0.007730 0.875854
O O16 0.750000 0.444123 0.412135
O O17 0.546086 0.250000 0.398964
O O18 0.489353 0.467298 0.437289
O O19 0.250000 0.451727 0.471465
O O20 0.046417 0.250000 0.476942
O O21 0.000000 0.500000 0.500000
O O22 0.750000 0.979470 0.210710
O O23 0.911571 0.750000 0.217439
O O24 0.750000 0.444199 0.090376
O O25 0.954573 0.250000 0.102893
#
# Coordination Sequence:
#
# PCOD8242876 Si02
#       8
#     8   8   8   8   8   8   8   8
#     4   8  14  26  44  67  97 130 163 203 252 303
#     4  10  21  37  57  80 105 135 171 209 251 300
#     4   9  18  32  51  76 103 132 169 211 253 298
#     4  10  20  33  51  76 104 135 172 212 253 299
#     4  10  21  36  53  74 102 136 171 206 248 298
#     4  10  21  37  57  79 102 131 167 205 248 298
#     4   9  16  26  43  69 100 132 166 207 255 302
#     4  10  21  37  56  77 103 136 171 208 254 305
#
# _framework density 18.299496000000001
#
# number of rings (size 3 to 8) (size 9 to 14) (size 15 to 20)
#    0.000    2.500    0.000    3.000    0.000    7.000 
#    0.000    1.250    0.000    0.750    0.000    3.500 
#    0.000    0.000    0.000    0.000    0.000    0.000 
#
# Total GULP energy -793654.260161 kJ/mol
# GULP energy per Si atom -12400.847815 kJ/mol
# Density = 1.825785 g / cm^3
# Si number density = 18.299496 Si / 1000 Ang^3
#
#
#
# Elastic Constant Matrix: (Units=GPa)
#
#
# Indices 1 2 3 4 5 6 
#
# 1 119.2471 36.5141 75.0066 0.0000 0.0000 0.0000
# 2 36.5141 33.2675 45.3104 0.0000 0.0000 0.0000
# 3 75.0066 45.3104 155.3026 0.0000 0.0000 0.0000
# 4 0.0000 0.0000 0.0000 23.6328 0.0000 0.0000
# 5 0.0000 0.0000 0.0000 0.0000 42.5066 0.0000
# 6 0.0000 0.0000 0.0000 0.0000 0.0000 26.4643
#
#
#
# Elastic Compliance Matrix: (Units=1/GPa)
#
#
# Indices 1 2 3 4 5 6 
#
# 1 0.013823 -0.010088 -0.003733 0.000000 0.000000 0.000000
# 2 -0.010088 0.057242 -0.011829 0.000000 0.000000 0.000000
# 3 -0.003733 -0.011829 0.011693 0.000000 0.000000 0.000000
# 4 0.000000 0.000000 0.000000 0.042314 0.000000 0.000000
# 5 0.000000 0.000000 0.000000 0.000000 0.023526 0.000000
# 6 0.000000 0.000000 0.000000 0.000000 0.000000 0.037787
#
#
# Mechanical properties :
#
#
# Convention : Reuss Voigt Hill
#
# Bulk Modulus (GPa) = 31.78684 69.05326 50.42005
# Shear Modulus (GPa) = 20.14753 28.58647 24.36700
#
# Velocity S-wave (km/s) = 3.32171 3.95669 3.65302
# Velocity P-wave (km/s) = 5.66743 7.66099 6.73834
#
# Compressibility (1/GPa) = 0.03145956
#
# Stress axis : x y z
#
# Youngs Moduli (GPa) = 72.34411 17.46967 85.52109
#
# Poissons Ratio (x) = 0.17623 0.31924
# Poissons Ratio (y) = 0.72978 1.01160
# Poissons Ratio (z) = 0.27005 0.20664
#
# Static dielectric constant tensor:
#      x y z
#    x 3.616610 0.000000 0.000000 
#    y 0.000000 3.040120 0.000000 
#    z 0.000000 0.000000 3.598120 
# 
# 
# High freq. dielectric constant tensor:
#      x y z
#    x 1.722960 0.000000 0.000000 
#    y 0.000000 1.671740 0.000000 
#    z 0.000000 0.000000 1.724930 
# 
# From -- ./inp_files/33165.got.cif
#   From: 2010.03.12/outbox.cif.g09.slc.cpg/sg59_17_cif.got.tgz:33165.got - 2010.04.16 16:29:54.
