data_PCOD8242205
_publ_section_title
;
Structure prediction by ZEFSAII (Michael W. Deem and Ramdas Pophale) SiO2 
 PCOD8242205
Probable space group: P M M N
;
_chemical_formula_sum "Si O2"
_cell_formula_units_Z 48
_cell_length_a 14.586953
_cell_length_b 9.563657
_cell_length_c 18.288956
_cell_angle_alpha 90.000000
_cell_angle_beta 90.000000
_cell_angle_gamma 90.000000
_cell_volume 2551.393769
_symmetry_space_group_name_H-M "P M M N"
_symmetry_group_IT_number 59
_space_group.IT_coordinate_system_code '2'
_symmetry_cell_setting 'orthorhombic'
loop_
_space_group_symop_operation_xyz
x,y,z
1/2-x,1/2-y,z
1/2+x,-y,-z
-x,1/2+y,-z
-x,-y,-z
1/2+x,1/2+y,-z
1/2-x,y,z
x,1/2-y,z
loop_
_atom_site_type_symbol
_atom_site_label
_atom_site_fract_x
_atom_site_fract_y
_atom_site_fract_z
Si Si1 0.900150 0.592126 0.815495
Si Si2 0.250000 0.414269 0.910962
Si Si3 0.750000 0.084213 0.741624
Si Si4 0.444238 0.588832 0.708722
Si Si5 0.585247 0.907435 0.985098
Si Si6 0.250000 0.918055 0.761261
Si Si7 0.454653 0.088212 0.436604
Si Si8 0.250000 0.091743 0.398485
O O1 0.870527 0.750000 0.791408
O O2 0.839305 0.473166 0.780649
O O3 0.886836 0.575884 0.901252
O O4 0.002965 0.563338 0.785702
O O5 0.250000 0.250000 0.890210
O O6 0.250000 0.509402 0.839853
O O7 0.335394 0.456174 0.961044
O O8 0.750000 0.250000 0.743374
O O9 0.750000 0.030042 0.659932
O O10 0.432697 0.750000 0.692261
O O11 0.340635 0.528546 0.717212
O O12 0.503749 0.528530 0.640480
O O13 0.556919 0.750000 0.002360
O O14 0.500000 0.000000 0.000000
O O15 0.250000 0.750000 0.772620
O O16 0.480956 0.250000 0.446993
O O17 0.344219 0.070386 0.443506
O O18 0.500000 0.000000 0.500000
O O19 0.250000 0.250000 0.364874
#
# Coordination Sequence:
#
# PCOD8242205 Si02
#       8
#     8   4   4   8   8   4   8   4
#     4  10  19  36  58  78 108 156 197 228 280 358
#     4  10  21  37  52  79 119 153 184 229 295 352
#     4  12  23  33  54  89 116 138 180 247 299 322
#     4   9  18  34  58  84 109 143 194 239 275 329
#     4  10  21  36  57  81 110 150 195 239 288 345
#     4  10  20  36  60  85 106 144 200 243 274 327
#     4  10  21  38  61  89 119 155 190 233 283 338
#     4  10  20  40  64  83 115 159 192 219 274 353
#
# _framework density 18.813247
#
# number of rings (size 3 to 8) (size 9 to 14) (size 15 to 20)
#    0.000    2.000    1.667    2.250    0.000    5.333 
#    0.000    3.333    0.000    0.000    0.000    0.000 
#    0.000    0.000    0.000    0.000    0.000    0.000 
#
# Total GULP energy -594876.302395 kJ/mol
# GULP energy per Si atom -12393.256300 kJ/mol
# Density = 1.877043 g / cm^3
# Si number density = 18.813247 Si / 1000 Ang^3
#
#
#
# Elastic Constant Matrix: (Units=GPa)
#
#
# Indices 1 2 3 4 5 6 
#
# 1 159.2299 54.3989 59.1198 0.0000 0.0000 0.0000
# 2 54.3989 86.8241 37.6759 0.0000 0.0000 0.0000
# 3 59.1198 37.6759 98.9975 0.0000 0.0000 0.0000
# 4 0.0000 0.0000 0.0000 33.5804 0.0000 0.0000
# 5 0.0000 0.0000 0.0000 0.0000 35.5016 0.0000
# 6 0.0000 0.0000 0.0000 0.0000 0.0000 28.6665
#
#
#
# Elastic Compliance Matrix: (Units=1/GPa)
#
#
# Indices 1 2 3 4 5 6 
#
# 1 0.009100 -0.004005 -0.003910 0.000000 0.000000 0.000000
# 2 -0.004005 0.015558 -0.003529 0.000000 0.000000 0.000000
# 3 -0.003910 -0.003529 0.013780 0.000000 0.000000 0.000000
# 4 0.000000 0.000000 0.000000 0.029779 0.000000 0.000000
# 5 0.000000 0.000000 0.000000 0.000000 0.028168 0.000000
# 6 0.000000 0.000000 0.000000 0.000000 0.000000 0.034884
#
#
# Mechanical properties :
#
#
# Convention : Reuss Voigt Hill
#
# Bulk Modulus (GPa) = 64.31329 71.93785 68.12557
# Shear Modulus (GPa) = 31.37910 32.47350 31.92630
#
# Velocity S-wave (km/s) = 4.08846 4.15914 4.12395
# Velocity P-wave (km/s) = 7.51975 7.83489 7.67894
#
# Compressibility (1/GPa) = 0.01554889
#
# Stress axis : x y z
#
# Youngs Moduli (GPa) = 109.88620 64.27436 72.57031
#
# Poissons Ratio (x) = 0.25741 0.28378
# Poissons Ratio (y) = 0.44008 0.25613
# Poissons Ratio (z) = 0.42970 0.22685
#
# Static dielectric constant tensor:
#      x y z
#    x 3.763600 0.000000 0.000000 
#    y 0.000000 3.232520 0.000000 
#    z 0.000000 0.000000 3.404430 
# 
# 
# High freq. dielectric constant tensor:
#      x y z
#    x 1.747190 0.000000 0.000000 
#    y 0.000000 1.706470 0.000000 
#    z 0.000000 0.000000 1.725990 
# 
# From -- ./inp_files/27502.got.cif
#   From: 2010.03.12/outbox.cif.g09.slc.cpg/sg59_14_cif.got.tgz:27502.got - 2010.04.16 16:29:54.
