data_PCOD8242315
_publ_section_title
;
Structure prediction by ZEFSAII (Michael W. Deem and Ramdas Pophale) SiO2 
 PCOD8242315
Probable space group: P M M N
;
_chemical_formula_sum "Si O2"
_cell_formula_units_Z 48
_cell_length_a 18.632253
_cell_length_b 15.353168
_cell_length_c 9.811900
_cell_angle_alpha 90.000000
_cell_angle_beta 90.000000
_cell_angle_gamma 90.000000
_cell_volume 2806.832446
_symmetry_space_group_name_H-M "P M M N"
_symmetry_group_IT_number 59
_space_group.IT_coordinate_system_code '2'
_symmetry_cell_setting 'orthorhombic'
loop_
_space_group_symop_operation_xyz
x,y,z
1/2-x,1/2-y,z
1/2+x,-y,-z
-x,1/2+y,-z
-x,-y,-z
1/2+x,1/2+y,-z
1/2-x,y,z
x,1/2-y,z
loop_
_atom_site_type_symbol
_atom_site_label
_atom_site_fract_x
_atom_site_fract_y
_atom_site_fract_z
Si Si1 0.583775 0.350904 0.261560
Si Si2 0.668883 0.657326 0.483116
Si Si3 0.833652 0.349343 0.992125
Si Si4 0.332952 0.991305 0.222903
Si Si5 0.582581 0.654200 0.754915
Si Si6 0.168375 0.530015 0.541102
O O1 0.598780 0.250000 0.292076
O O2 0.500420 0.371638 0.247559
O O3 0.614312 0.404452 0.388357
O O4 0.623104 0.380982 0.124107
O O5 0.750000 0.650564 0.545170
O O6 0.661705 0.750000 0.400196
O O7 0.611361 0.660186 0.602233
O O8 0.656526 0.568519 0.397030
O O9 0.750000 0.359790 0.025801
O O10 0.852879 0.250000 0.953969
O O11 0.857606 0.408093 0.864605
O O12 0.250000 0.011132 0.199474
O O13 0.349924 0.971545 0.380532
O O14 0.375254 0.076871 0.168167
O O15 0.592723 0.750000 0.825275
O O16 0.250000 0.561487 0.565692
#
# Coordination Sequence:
#
# PCOD8242315 Si02
#       6
#     8   8   8   8   8   8
#     4  10  20  31  45  67  94 125 155 182 221 272
#     4   8  14  26  44  65  89 117 148 184 228 273
#     4   9  18  33  49  64  88 122 154 184 224 274
#     4   9  18  31  49  72  92 115 151 191 229 266
#     4   9  17  29  46  68  94 121 150 185 225 270
#     4   9  17  29  47  70  91 114 150 192 225 258
#
# _framework density 17.101127999999999
#
# number of rings (size 3 to 8) (size 9 to 14) (size 15 to 20)
#    0.000    3.000    0.000    2.000    0.000    6.000 
#    0.000    1.667    0.000    2.000    0.000    2.333 
#    0.000    0.000    0.000    0.000    0.000    0.000 
#
# Total GULP energy -594732.505789 kJ/mol
# GULP energy per Si atom -12390.260537 kJ/mol
# Density = 1.706220 g / cm^3
# Si number density = 17.101128 Si / 1000 Ang^3
#
#
#
# Elastic Constant Matrix: (Units=GPa)
#
#
# Indices 1 2 3 4 5 6 
#
# 1 76.1046 58.8862 37.5048 0.0000 0.0000 0.0000
# 2 58.8862 120.6424 52.6704 0.0000 0.0000 0.0000
# 3 37.5048 52.6704 55.8772 0.0000 0.0000 0.0000
# 4 0.0000 0.0000 0.0000 14.6397 0.0000 0.0000
# 5 0.0000 0.0000 0.0000 0.0000 11.9969 0.0000
# 6 0.0000 0.0000 0.0000 0.0000 0.0000 29.7261
#
#
#
# Elastic Compliance Matrix: (Units=1/GPa)
#
#
# Indices 1 2 3 4 5 6 
#
# 1 0.023186 -0.007686 -0.008318 0.000000 0.000000 0.000000
# 2 -0.007686 0.016633 -0.010520 0.000000 0.000000 0.000000
# 3 -0.008318 -0.010520 0.033395 0.000000 0.000000 0.000000
# 4 0.000000 0.000000 0.000000 0.068307 0.000000 0.000000
# 5 0.000000 0.000000 0.000000 0.000000 0.083355 0.000000
# 6 0.000000 0.000000 0.000000 0.000000 0.000000 0.033640
#
#
# Mechanical properties :
#
#
# Convention : Reuss Voigt Hill
#
# Bulk Modulus (GPa) = 49.58430 61.19412 55.38921
# Shear Modulus (GPa) = 15.70916 18.17675 16.94295
#
# Velocity S-wave (km/s) = 3.03414 3.26375 3.15103
# Velocity P-wave (km/s) = 6.42902 7.07560 6.76005
#
# Compressibility (1/GPa) = 0.02016767
#
# Stress axis : x y z
#
# Youngs Moduli (GPa) = 43.13024 60.12063 29.94428
#
# Poissons Ratio (x) = 0.46207 0.24906
# Poissons Ratio (y) = 0.33149 0.31501
# Poissons Ratio (z) = 0.35874 0.63247
#
# Static dielectric constant tensor:
#      x y z
#    x 3.186290 0.000000 0.000000 
#    y 0.000000 3.703050 0.000000 
#    z 0.000000 0.000000 2.774850 
# 
# 
# High freq. dielectric constant tensor:
#      x y z
#    x 1.661160 0.000000 0.000000 
#    y 0.000000 1.681290 0.000000 
#    z 0.000000 0.000000 1.605710 
# 
# From -- ./inp_files/9011.got.cif
#   From: 2010.03.12/outbox.cif.g09.slc.cpg/sg59_5_cif.got.tgz:9011.got - 2010.04.16 16:29:54.
