data_PCOD8242739
_publ_section_title
;
Structure prediction by ZEFSAII (Michael W. Deem and Ramdas Pophale) SiO2 
 PCOD8242739
Probable space group: P M M N
;
_chemical_formula_sum "Si O2"
_cell_formula_units_Z 56
_cell_length_a 13.863934
_cell_length_b 31.328344
_cell_length_c 7.091884
_cell_angle_alpha 90.000000
_cell_angle_beta 90.000000
_cell_angle_gamma 90.000000
_cell_volume 3080.247009
_symmetry_space_group_name_H-M "P M M N"
_symmetry_group_IT_number 59
_space_group.IT_coordinate_system_code '2'
_symmetry_cell_setting 'orthorhombic'
loop_
_space_group_symop_operation_xyz
x,y,z
1/2-x,1/2-y,z
1/2+x,-y,-z
-x,1/2+y,-z
-x,-y,-z
1/2+x,1/2+y,-z
1/2-x,y,z
x,1/2-y,z
loop_
_atom_site_type_symbol
_atom_site_label
_atom_site_fract_x
_atom_site_fract_y
_atom_site_fract_z
Si Si1 0.642584 0.945425 0.538305
Si Si2 0.360316 0.700665 0.528413
Si Si3 0.013342 0.299720 0.782557
Si Si4 0.507719 0.940863 0.878011
Si Si5 0.490680 0.657528 0.818148
Si Si6 0.639219 0.987061 0.149645
Si Si7 0.139872 0.151960 0.501720
O O1 0.750000 0.948150 0.628349
O O2 0.562607 0.956885 0.691399
O O3 0.625762 0.898050 0.457306
O O4 0.633229 0.979630 0.372480
O O5 0.250000 0.688957 0.489098
O O6 0.374086 0.750000 0.584806
O O7 0.416967 0.689872 0.336289
O O8 0.396713 0.672192 0.702599
O O9 0.036998 0.250000 0.783208
O O10 0.102879 0.323485 0.685877
O O11 0.999792 0.314809 0.994999
O O12 0.478658 0.891715 0.872899
O O13 0.409713 0.967786 0.901819
O O14 0.580865 0.948706 0.050488
O O15 0.584109 0.665658 0.688175
O O16 0.750000 0.987758 0.080152
O O17 0.250000 0.164664 0.467836
#
# Coordination Sequence:
#
# PCOD8242739 Si02
#       7
#     8   8   8   8   8   8   8
#     4   9  17  32  54  74  94 127 169 207 249 302
#     4   9  19  36  56  77 101 130 167 212 259 307
#     4  10  20  34  52  75 103 135 170 207 250 302
#     4  10  20  33  51  74 103 133 166 209 253 296
#     4  10  20  34  54  78 104 135 173 214 256 305
#     4  10  20  33  50  73 101 133 168 206 250 302
#     4   9  19  34  51  74 103 134 171 214 255 298
#
# _framework density 18.180361999999999
#
# number of rings (size 3 to 8) (size 9 to 14) (size 15 to 20)
#    0.000    2.429    0.000    2.143    0.000    3.143 
#    0.000    1.429    0.000    0.000    0.000    0.000 
#    0.000    0.000    0.000    0.000    0.000    0.000 
#
# Total GULP energy -694511.922006 kJ/mol
# GULP energy per Si atom -12401.998607 kJ/mol
# Density = 1.813898 g / cm^3
# Si number density = 18.180362 Si / 1000 Ang^3
#
#
#
# Elastic Constant Matrix: (Units=GPa)
#
#
# Indices 1 2 3 4 5 6 
#
# 1 107.1506 24.9807 24.5722 0.0000 0.0000 0.0000
# 2 24.9807 41.9670 7.8011 0.0000 0.0000 0.0000
# 3 24.5722 7.8011 68.8457 0.0000 0.0000 0.0000
# 4 0.0000 0.0000 0.0000 29.9408 0.0000 0.0000
# 5 0.0000 0.0000 0.0000 0.0000 21.6138 0.0000
# 6 0.0000 0.0000 0.0000 0.0000 0.0000 17.1279
#
#
#
# Elastic Compliance Matrix: (Units=1/GPa)
#
#
# Indices 1 2 3 4 5 6 
#
# 1 0.011576 -0.006254 -0.003423 0.000000 0.000000 0.000000
# 2 -0.006254 0.027720 -0.000909 0.000000 0.000000 0.000000
# 3 -0.003423 -0.000909 0.015850 0.000000 0.000000 0.000000
# 4 0.000000 0.000000 0.000000 0.033399 0.000000 0.000000
# 5 0.000000 0.000000 0.000000 0.000000 0.046267 0.000000
# 6 0.000000 0.000000 0.000000 0.000000 0.000000 0.058384
#
#
# Mechanical properties :
#
#
# Convention : Reuss Voigt Hill
#
# Bulk Modulus (GPa) = 29.43441 36.96349 33.19895
# Shear Modulus (GPa) = 22.15408 24.44378 23.29893
#
# Velocity S-wave (km/s) = 3.49459 3.67074 3.58375
# Velocity P-wave (km/s) = 5.70160 6.19205 5.95188
#
# Compressibility (1/GPa) = 0.03397384
#
# Stress axis : x y z
#
# Youngs Moduli (GPa) = 86.38813 36.07518 63.09186
#
# Poissons Ratio (x) = 0.22562 0.21596
# Poissons Ratio (y) = 0.54028 0.05734
# Poissons Ratio (z) = 0.29570 0.03279
#
# Static dielectric constant tensor:
#      x y z
#    x 3.401410 0.000000 0.000000 
#    y 0.000000 3.262480 0.000000 
#    z 0.000000 0.000000 3.295450 
# 
# 
# High freq. dielectric constant tensor:
#      x y z
#    x 1.706040 0.000000 0.000000 
#    y 0.000000 1.700610 0.000000 
#    z 0.000000 0.000000 1.705930 
# 
# From -- ./inp_files/2333.got.cif
#   From: 2010.03.12/outbox.cif.g09.slc.cpg/sg59_2_cif.got.tgz:2333.got - 2010.04.16 16:29:54.
