data_PCOD8242720
_publ_section_title
;
Structure prediction by ZEFSAII (Michael W. Deem and Ramdas Pophale) SiO2 
 PCOD8242720
Probable space group: P M M N
;
_chemical_formula_sum "Si O2"
_cell_formula_units_Z 64
_cell_length_a 9.181748
_cell_length_b 22.377400
_cell_length_c 16.445663
_cell_angle_alpha 90.000000
_cell_angle_beta 90.000000
_cell_angle_gamma 90.000000
_cell_volume 3378.985909
_symmetry_space_group_name_H-M "P M M N"
_symmetry_group_IT_number 59
_space_group.IT_coordinate_system_code '2'
_symmetry_cell_setting 'orthorhombic'
loop_
_space_group_symop_operation_xyz
x,y,z
1/2-x,1/2-y,z
1/2+x,-y,-z
-x,1/2+y,-z
-x,-y,-z
1/2+x,1/2+y,-z
1/2-x,y,z
x,1/2-y,z
loop_
_atom_site_type_symbol
_atom_site_label
_atom_site_fract_x
_atom_site_fract_y
_atom_site_fract_z
Si Si1 0.920629 0.040665 0.393477
Si Si2 0.583135 0.429751 0.215245
Si Si3 0.591025 0.818270 0.025285
Si Si4 0.078837 0.506546 0.086320
Si Si5 0.914609 0.183268 0.124560
Si Si6 0.418960 0.412458 0.540483
Si Si7 0.079161 0.319800 0.676866
Si Si8 0.079319 0.633755 0.167032
O O1 0.750000 0.051783 0.399515
O O2 0.979299 0.054943 0.303687
O O3 0.994116 0.087097 0.455919
O O4 0.963844 0.972030 0.410091
O O5 0.750000 0.452525 0.205319
O O6 0.481140 0.457347 0.147103
O O7 0.573368 0.358094 0.204085
O O8 0.750000 0.849184 0.037145
O O9 0.613859 0.750000 0.002909
O O10 0.495437 0.819760 0.106424
O O11 0.508352 0.846906 0.948217
O O12 0.250000 0.497997 0.072360
O O13 0.043571 0.569202 0.129836
O O14 0.000000 0.500000 0.000000
O O15 0.750000 0.184381 0.091227
O O16 0.965819 0.250000 0.148862
O O17 0.250000 0.413953 0.518635
O O18 0.457727 0.353108 0.592004
O O19 0.250000 0.325380 0.697017
O O20 0.032474 0.250000 0.671094
O O21 0.990795 0.355872 0.744928
O O22 0.250000 0.646321 0.173729
#
# Coordination Sequence:
#
# PCOD8242720 Si02
#       8
#     8   8   8   8   8   8   8   8
#     4   9  18  33  55  81 106 134 170 213 260 310
#     4  10  20  35  55  78 104 135 173 215 260 311
#     4  10  20  33  50  72  98 132 175 217 254 297
#     4  11  24  38  53  77 109 144 181 224 273 322
#     4   9  18  33  52  73  99 131 166 207 254 301
#     4   9  18  34  55  78 105 136 170 211 259 310
#     4  10  21  37  57  81 110 145 183 222 269 327
#     4  11  23  36  51  75 106 139 177 220 267 318
#
# _framework density 18.940594000000001
#
# number of rings (size 3 to 8) (size 9 to 14) (size 15 to 20)
#    0.000    2.125    0.000    3.000    0.000   10.000 
#    0.000    3.125    0.000    0.750    0.000    0.000 
#    0.000    0.000    0.000    0.000    0.000    0.000 
#
# Total GULP energy -793470.345986 kJ/mol
# GULP energy per Si atom -12397.974156 kJ/mol
# Density = 1.889748 g / cm^3
# Si number density = 18.940594 Si / 1000 Ang^3
#
#
#
# Elastic Constant Matrix: (Units=GPa)
#
#
# Indices 1 2 3 4 5 6 
#
# 1 79.9821 47.0850 56.8410 0.0000 0.0000 0.0000
# 2 47.0850 85.1627 60.9250 0.0000 0.0000 0.0000
# 3 56.8410 60.9250 146.3986 0.0000 0.0000 0.0000
# 4 0.0000 0.0000 0.0000 30.1007 0.0000 0.0000
# 5 0.0000 0.0000 0.0000 0.0000 35.0138 0.0000
# 6 0.0000 0.0000 0.0000 0.0000 0.0000 21.5147
#
#
#
# Elastic Compliance Matrix: (Units=1/GPa)
#
#
# Indices 1 2 3 4 5 6 
#
# 1 0.020520 -0.008039 -0.004622 0.000000 0.000000 0.000000
# 2 -0.008039 0.019869 -0.005148 0.000000 0.000000 0.000000
# 3 -0.004622 -0.005148 0.010767 0.000000 0.000000 0.000000
# 4 0.000000 0.000000 0.000000 0.033222 0.000000 0.000000
# 5 0.000000 0.000000 0.000000 0.000000 0.028560 0.000000
# 6 0.000000 0.000000 0.000000 0.000000 0.000000 0.046480
#
#
# Mechanical properties :
#
#
# Convention : Reuss Voigt Hill
#
# Bulk Modulus (GPa) = 64.34879 71.24949 67.79914
# Shear Modulus (GPa) = 24.97329 27.10532 26.03931
#
# Velocity S-wave (km/s) = 3.63506 3.78705 3.71184
# Velocity P-wave (km/s) = 7.18791 7.53800 7.36503
#
# Compressibility (1/GPa) = 0.01554031
#
# Stress axis : x y z
#
# Youngs Moduli (GPa) = 48.73405 50.32897 92.87362
#
# Poissons Ratio (x) = 0.40457 0.42923
# Poissons Ratio (y) = 0.39175 0.47808
# Poissons Ratio (z) = 0.22523 0.25908
#
# Static dielectric constant tensor:
#      x y z
#    x 3.601770 0.000000 0.000000 
#    y 0.000000 3.525720 0.000000 
#    z 0.000000 0.000000 3.441330 
# 
# 
# High freq. dielectric constant tensor:
#      x y z
#    x 1.736800 0.000000 0.000000 
#    y 0.000000 1.733520 0.000000 
#    z 0.000000 0.000000 1.729590 
# 
# From -- ./inp_files/21455.got.cif
#   From: 2010.03.12/outbox.cif.g09.slc.cpg/sg59_11_cif.got.tgz:21455.got - 2010.04.16 16:29:54.
