data_PCOD8242869
_publ_section_title
;
Structure prediction by ZEFSAII (Michael W. Deem and Ramdas Pophale) SiO2 
 PCOD8242869
Probable space group: P M M N
;
_chemical_formula_sum "Si O2"
_cell_formula_units_Z 64
_cell_length_a 20.946741
_cell_length_b 9.647644
_cell_length_c 16.970314
_cell_angle_alpha 90.000000
_cell_angle_beta 90.000000
_cell_angle_gamma 90.000000
_cell_volume 3429.474756
_symmetry_space_group_name_H-M "P M M N"
_symmetry_group_IT_number 59
_space_group.IT_coordinate_system_code '2'
_symmetry_cell_setting 'orthorhombic'
loop_
_space_group_symop_operation_xyz
x,y,z
1/2-x,1/2-y,z
1/2+x,-y,-z
-x,1/2+y,-z
-x,-y,-z
1/2+x,1/2+y,-z
1/2-x,y,z
x,1/2-y,z
loop_
_atom_site_type_symbol
_atom_site_label
_atom_site_fract_x
_atom_site_fract_y
_atom_site_fract_z
Si Si1 0.559869 0.589591 0.908079
Si Si2 0.640488 0.090957 0.653206
Si Si3 0.377121 0.093457 0.638788
Si Si4 0.438447 0.411466 0.908523
Si Si5 0.509916 0.091931 0.577439
Si Si6 0.320116 0.901466 0.515626
Si Si7 0.322085 0.410560 0.199833
Si Si8 0.677957 0.585072 0.198460
O O1 0.543067 0.750000 0.892247
O O2 0.499983 0.497681 0.878279
O O3 0.625010 0.544247 0.864352
O O4 0.572857 0.561870 0.999660
O O5 0.640269 0.250000 0.682505
O O6 0.570459 0.040233 0.626922
O O7 0.685188 0.069664 0.577306
O O8 0.667918 0.996772 0.721536
O O9 0.352499 0.250000 0.629718
O O10 0.453495 0.084116 0.642064
O O11 0.345239 0.027003 0.716585
O O12 0.361014 0.015631 0.558721
O O13 0.451225 0.250000 0.889474
O O14 0.373660 0.465369 0.866034
O O15 0.519531 0.250000 0.548158
O O16 0.500000 0.000000 0.500000
O O17 0.250000 0.904821 0.552519
O O18 0.351770 0.750000 0.529280
O O19 0.250000 0.438129 0.167175
O O20 0.330713 0.250000 0.221154
O O21 0.750000 0.530015 0.179770
O O22 0.678300 0.750000 0.200199
#
# Coordination Sequence:
#
# PCOD8242869 Si02
#       8
#     8   8   8   8   8   8   8   8
#     4   9  19  36  56  82 112 141 173 215 265 313
#     4  10  21  36  54  76 104 138 177 222 268 316
#     4  10  20  33  51  76 104 133 170 217 264 309
#     4   9  18  34  59  84 108 141 179 214 256 315
#     4  10  20  34  53  76 101 132 174 222 269 317
#     4  10  20  34  51  70  97 136 177 215 259 312
#     4  10  22  38  55  79 111 144 180 223 269 320
#     4   9  18  32  52  80 109 136 173 219 261 305
#
# _framework density 18.661750000000001
#
# number of rings (size 3 to 8) (size 9 to 14) (size 15 to 20)
#    0.000    2.375    1.250    0.750    1.750    3.500 
#    0.000    3.125    0.000    1.125    0.000    3.500 
#    0.000    0.000    0.000    0.000    0.000    0.000 
#
# Total GULP energy -793299.406986 kJ/mol
# GULP energy per Si atom -12395.303234 kJ/mol
# Density = 1.861928 g / cm^3
# Si number density = 18.661750 Si / 1000 Ang^3
#
#
#
# Elastic Constant Matrix: (Units=GPa)
#
#
# Indices 1 2 3 4 5 6 
#
# 1 154.5653 44.0501 54.5223 0.0000 0.0000 0.0000
# 2 44.0501 55.3970 37.2580 0.0000 0.0000 0.0000
# 3 54.5223 37.2580 77.5199 0.0000 0.0000 0.0000
# 4 0.0000 0.0000 0.0000 21.4451 0.0000 0.0000
# 5 0.0000 0.0000 0.0000 0.0000 33.5575 0.0000
# 6 0.0000 0.0000 0.0000 0.0000 0.0000 25.6284
#
#
#
# Elastic Compliance Matrix: (Units=1/GPa)
#
#
# Indices 1 2 3 4 5 6 
#
# 1 0.009283 -0.004419 -0.004405 0.000000 0.000000 0.000000
# 2 -0.004419 0.028777 -0.010723 0.000000 0.000000 0.000000
# 3 -0.004405 -0.010723 0.021152 0.000000 0.000000 0.000000
# 4 0.000000 0.000000 0.000000 0.046631 0.000000 0.000000
# 5 0.000000 0.000000 0.000000 0.000000 0.029800 0.000000
# 6 0.000000 0.000000 0.000000 0.000000 0.000000 0.039019
#
#
# Mechanical properties :
#
#
# Convention : Reuss Voigt Hill
#
# Bulk Modulus (GPa) = 49.70701 62.12700 55.91700
# Shear Modulus (GPa) = 22.67961 26.23631 24.45796
#
# Velocity S-wave (km/s) = 3.48990 3.75358 3.62414
# Velocity P-wave (km/s) = 6.55231 7.22144 6.89500
#
# Compressibility (1/GPa) = 0.02011789
#
# Stress axis : x y z
#
# Youngs Moduli (GPa) = 107.72352 34.74976 47.27654
#
# Poissons Ratio (x) = 0.15355 0.20827
# Poissons Ratio (y) = 0.47600 0.50695
# Poissons Ratio (z) = 0.47455 0.37263
#
# Static dielectric constant tensor:
#      x y z
#    x 4.190820 0.000000 0.000000 
#    y 0.000000 3.274170 0.000000 
#    z 0.000000 0.000000 3.306030 
# 
# 
# High freq. dielectric constant tensor:
#      x y z
#    x 1.743640 0.000000 0.000000 
#    y 0.000000 1.702070 0.000000 
#    z 0.000000 0.000000 1.712480 
# 
# From -- ./inp_files/28281.got.cif
#   From: 2010.03.12/outbox.cif.g09.slc.cpg/sg59_15_cif.got.tgz:28281.got - 2010.04.16 16:29:54.
