data_PCOD8242733
_publ_section_title
;
Structure prediction by ZEFSAII (Michael W. Deem and Ramdas Pophale) SiO2 
 PCOD8242733
Probable space group: P M M N
;
_chemical_formula_sum "Si O2"
_cell_formula_units_Z 48
_cell_length_a 9.017327
_cell_length_b 9.282788
_cell_length_c 31.023600
_cell_angle_alpha 90.000000
_cell_angle_beta 90.000000
_cell_angle_gamma 90.000000
_cell_volume 2596.859441
_symmetry_space_group_name_H-M "P M M N"
_symmetry_group_IT_number 59
_space_group.IT_coordinate_system_code '2'
_symmetry_cell_setting 'orthorhombic'
loop_
_space_group_symop_operation_xyz
x,y,z
1/2-x,1/2-y,z
1/2+x,-y,-z
-x,1/2+y,-z
-x,-y,-z
1/2+x,1/2+y,-z
1/2-x,y,z
x,1/2-y,z
loop_
_atom_site_type_symbol
_atom_site_label
_atom_site_fract_x
_atom_site_fract_y
_atom_site_fract_z
Si Si1 0.426413 0.589411 0.120337
Si Si2 0.925676 0.915177 0.961459
Si Si3 0.415033 0.578795 0.214546
Si Si4 0.078476 0.581375 0.538439
Si Si5 0.418755 0.079142 0.701609
Si Si6 0.423140 0.083632 0.373986
O O1 0.250000 0.596733 0.120483
O O2 0.490394 0.750000 0.111406
O O3 0.484397 0.482041 0.083473
O O4 0.477209 0.530736 0.167490
O O5 0.750000 0.931001 0.965449
O O6 0.976588 0.750000 0.963163
O O7 0.000000 0.000000 0.000000
O O8 0.250000 0.515223 0.222910
O O9 0.405677 0.750000 0.214578
O O10 0.524640 0.523534 0.251848
O O11 0.250000 0.538482 0.539506
O O12 0.054212 0.750000 0.531202
O O13 0.000000 0.500000 0.500000
O O14 0.006288 0.530795 0.583169
O O15 0.250000 0.027702 0.695670
O O16 0.433083 0.250000 0.698018
O O17 0.521031 0.010388 0.665486
O O18 0.250000 0.056646 0.380830
O O19 0.458940 0.250000 0.364325
#
# Coordination Sequence:
#
# PCOD8242733 Si02
#       6
#     8   8   8   8   8   8
#     4   8  14  27  48  70  93 126 166 206 249 295
#     4  10  20  33  50  73 100 131 167 206 250 300
#     4   8  14  27  48  71  95 127 167 208 248 291
#     4  10  21  37  57  80 106 137 172 211 257 307
#     4  10  20  33  51  77 107 138 171 207 249 298
#     4  10  21  37  56  77 102 135 174 214 257 303
#
# _framework density 18.483865999999999
#
# number of rings (size 3 to 8) (size 9 to 14) (size 15 to 20)
#    0.000    2.667    0.000    3.000    0.000    4.667 
#    0.000    1.667    0.000    6.000    0.000    0.000 
#    0.000    0.000    0.000    0.000    0.000    0.000 
#
# Total GULP energy -595143.409000 kJ/mol
# GULP energy per Si atom -12398.821021 kJ/mol
# Density = 1.844180 g / cm^3
# Si number density = 18.483866 Si / 1000 Ang^3
#
#
#
# Elastic Constant Matrix: (Units=GPa)
#
#
# Indices 1 2 3 4 5 6 
#
# 1 77.3079 33.0106 57.4011 0.0000 0.0000 0.0000
# 2 33.0106 66.3963 61.6824 0.0000 0.0000 0.0000
# 3 57.4011 61.6824 176.4856 0.0000 0.0000 0.0000
# 4 0.0000 0.0000 0.0000 31.7784 0.0000 0.0000
# 5 0.0000 0.0000 0.0000 0.0000 34.5581 0.0000
# 6 0.0000 0.0000 0.0000 0.0000 0.0000 23.4481
#
#
#
# Elastic Compliance Matrix: (Units=1/GPa)
#
#
# Indices 1 2 3 4 5 6 
#
# 1 0.018215 -0.005260 -0.004086 0.000000 0.000000 0.000000
# 2 -0.005260 0.023822 -0.006615 0.000000 0.000000 0.000000
# 3 -0.004086 -0.006615 0.009307 0.000000 0.000000 0.000000
# 4 0.000000 0.000000 0.000000 0.031468 0.000000 0.000000
# 5 0.000000 0.000000 0.000000 0.000000 0.028937 0.000000
# 6 0.000000 0.000000 0.000000 0.000000 0.000000 0.042647
#
#
# Mechanical properties :
#
#
# Convention : Reuss Voigt Hill
#
# Bulk Modulus (GPa) = 51.48885 69.37535 60.43210
# Shear Modulus (GPa) = 25.93469 29.16332 27.54901
#
# Velocity S-wave (km/s) = 3.74986 3.97643 3.86480
# Velocity P-wave (km/s) = 6.83119 7.66140 7.25817
#
# Compressibility (1/GPa) = 0.01942168
#
# Stress axis : x y z
#
# Youngs Moduli (GPa) = 54.89910 41.97867 107.44575
#
# Poissons Ratio (x) = 0.22082 0.43901
# Poissons Ratio (y) = 0.28879 0.71074
# Poissons Ratio (z) = 0.22431 0.27768
#
# Static dielectric constant tensor:
#      x y z
#    x 2.762820 0.000000 0.000000 
#    y 0.000000 3.205730 0.000000 
#    z 0.000000 0.000000 3.859820 
# 
# 
# High freq. dielectric constant tensor:
#      x y z
#    x 1.703850 0.000000 0.000000 
#    y 0.000000 1.692990 0.000000 
#    z 0.000000 0.000000 1.735940 
# 
# From -- ./inp_files/32798.got.cif
#   From: 2010.03.12/outbox.cif.g09.slc.cpg/sg59_17_cif.got.tgz:32798.got - 2010.04.16 16:29:54.
