data_PCOD8242502
_publ_section_title
;
Structure prediction by ZEFSAII (Michael W. Deem and Ramdas Pophale) SiO2 
 PCOD8242502
Probable space group: P M M N
;
_chemical_formula_sum "Si O2"
_cell_formula_units_Z 64
_cell_length_a 8.849330
_cell_length_b 23.660841
_cell_length_c 16.362064
_cell_angle_alpha 90.000000
_cell_angle_beta 90.000000
_cell_angle_gamma 90.000000
_cell_volume 3425.931339
_symmetry_space_group_name_H-M "P M M N"
_symmetry_group_IT_number 59
_space_group.IT_coordinate_system_code '2'
_symmetry_cell_setting 'orthorhombic'
loop_
_space_group_symop_operation_xyz
x,y,z
1/2-x,1/2-y,z
1/2+x,-y,-z
-x,1/2+y,-z
-x,-y,-z
1/2+x,1/2+y,-z
1/2-x,y,z
x,1/2-y,z
loop_
_atom_site_type_symbol
_atom_site_label
_atom_site_fract_x
_atom_site_fract_y
_atom_site_fract_z
Si Si1 0.072318 0.557080 0.467508
Si Si2 0.922742 0.685672 0.032510
Si Si3 0.425756 0.684813 0.200822
Si Si4 0.576443 0.978711 0.764092
Si Si5 0.082553 0.684581 0.727523
Si Si6 0.423090 0.103373 0.384403
Si Si7 0.072098 0.414630 0.704627
Si Si8 0.074390 0.127357 0.132728
O O1 0.250000 0.549293 0.458111
O O2 0.000000 0.500000 0.500000
O O3 0.030658 0.602771 0.536529
O O4 0.006878 0.576545 0.381786
O O5 0.750000 0.679076 0.061968
O O6 0.950413 0.750000 0.000908
O O7 0.031581 0.671172 0.107415
O O8 0.958698 0.639502 0.962292
O O9 0.250000 0.671698 0.213225
O O10 0.464013 0.750000 0.221392
O O11 0.522168 0.645902 0.261032
O O12 0.750000 0.996760 0.773707
O O13 0.548644 0.949577 0.676051
O O14 0.529752 0.936307 0.838273
O O15 0.476019 0.035339 0.767329
O O16 0.250000 0.657870 0.716415
O O17 0.089660 0.750000 0.711600
O O18 0.963972 0.659914 0.663406
O O19 0.025043 0.672493 0.818647
O O20 0.250000 0.105331 0.413037
O O21 0.250000 0.415580 0.692814
O O22 0.250000 0.137665 0.153930
#
# Coordination Sequence:
#
# PCOD8242502 Si02
#       8
#     8   8   8   8   8   8   8   8
#     4  12  23  37  59  86 115 144 182 228 273 328
#     4   9  17  32  56  84 112 144 187 237 284 334
#     4  10  22  41  63  85 111 144 183 232 287 339
#     4   9  18  33  53  79 114 149 184 228 275 329
#     4  10  20  32  48  74 111 152 190 230 277 331
#     4  10  20  35  55  79 109 145 185 231 276 323
#     4  12  24  38  60  86 113 147 186 230 281 336
#     4   9  18  32  53  80 112 149 190 233 278 331
#
# _framework density 18.681051
#
# number of rings (size 3 to 8) (size 9 to 14) (size 15 to 20)
#    0.000    1.875    1.250    4.500    0.000    4.750 
#    0.000    2.500    0.000    3.750    0.000    0.000 
#    0.000    0.000    0.000    0.000    0.000    0.000 
#
# Total GULP energy -793603.262453 kJ/mol
# GULP energy per Si atom -12400.050976 kJ/mol
# Density = 1.863853 g / cm^3
# Si number density = 18.681051 Si / 1000 Ang^3
#
#
#
# Elastic Constant Matrix: (Units=GPa)
#
#
# Indices 1 2 3 4 5 6 
#
# 1 116.1237 50.6605 46.0619 0.0000 0.0000 0.0000
# 2 50.6605 87.0673 49.9311 0.0000 0.0000 0.0000
# 3 46.0619 49.9311 95.6701 0.0000 0.0000 0.0000
# 4 0.0000 0.0000 0.0000 24.1709 0.0000 0.0000
# 5 0.0000 0.0000 0.0000 0.0000 31.8034 0.0000
# 6 0.0000 0.0000 0.0000 0.0000 0.0000 29.9127
#
#
#
# Elastic Compliance Matrix: (Units=1/GPa)
#
#
# Indices 1 2 3 4 5 6 
#
# 1 0.012146 -0.005300 -0.003082 0.000000 0.000000 0.000000
# 2 -0.005300 0.018704 -0.007210 0.000000 0.000000 0.000000
# 3 -0.003082 -0.007210 0.015699 0.000000 0.000000 0.000000
# 4 0.000000 0.000000 0.000000 0.041372 0.000000 0.000000
# 5 0.000000 0.000000 0.000000 0.000000 0.031443 0.000000
# 6 0.000000 0.000000 0.000000 0.000000 0.000000 0.033431
#
#
# Mechanical properties :
#
#
# Convention : Reuss Voigt Hill
#
# Bulk Modulus (GPa) = 65.07948 65.79645 65.43797
# Shear Modulus (GPa) = 26.44092 27.32457 26.88274
#
# Velocity S-wave (km/s) = 3.76624 3.82866 3.79758
# Velocity P-wave (km/s) = 7.33659 7.40556 7.37116
#
# Compressibility (1/GPa) = 0.01536583
#
# Stress axis : x y z
#
# Youngs Moduli (GPa) = 82.33089 53.46480 63.69672
#
# Poissons Ratio (x) = 0.28336 0.19631
# Poissons Ratio (y) = 0.43634 0.45926
# Poissons Ratio (z) = 0.25373 0.38548
#
# Static dielectric constant tensor:
#      x y z
#    x 3.686360 0.000000 0.000000 
#    y 0.000000 3.210470 0.000000 
#    z 0.000000 0.000000 3.485380 
# 
# 
# High freq. dielectric constant tensor:
#      x y z
#    x 1.733990 0.000000 0.000000 
#    y 0.000000 1.714440 0.000000 
#    z 0.000000 0.000000 1.715640 
# 
# From -- ./inp_files/21524.got.cif
#   From: 2010.03.12/outbox.cif.g09.slc.cpg/sg59_11_cif.got.tgz:21524.got - 2010.04.16 16:29:54.
