data_PCOD8242579
_publ_section_title
;
Structure prediction by ZEFSAII (Michael W. Deem and Ramdas Pophale) SiO2 
 PCOD8242579
Probable space group: P M M N
;
_chemical_formula_sum "Si O2"
_cell_formula_units_Z 64
_cell_length_a 9.089789
_cell_length_b 15.075203
_cell_length_c 23.829663
_cell_angle_alpha 90.000000
_cell_angle_beta 90.000000
_cell_angle_gamma 90.000000
_cell_volume 3265.388596
_symmetry_space_group_name_H-M "P M M N"
_symmetry_group_IT_number 59
_space_group.IT_coordinate_system_code '2'
_symmetry_cell_setting 'orthorhombic'
loop_
_space_group_symop_operation_xyz
x,y,z
1/2-x,1/2-y,z
1/2+x,-y,-z
-x,1/2+y,-z
-x,-y,-z
1/2+x,1/2+y,-z
1/2-x,y,z
x,1/2-y,z
loop_
_atom_site_type_symbol
_atom_site_label
_atom_site_fract_x
_atom_site_fract_y
_atom_site_fract_z
Si Si1 0.923114 0.492260 0.262346
Si Si2 0.422246 0.853883 0.318737
Si Si3 0.425146 0.347549 0.927632
Si Si4 0.416588 0.146797 0.053305
Si Si5 0.924163 0.149721 0.353507
Si Si6 0.922368 0.481799 0.134878
Si Si7 0.924748 0.088420 0.476668
Si Si8 0.910009 0.848008 0.425785
O O1 0.750000 0.508907 0.271071
O O2 0.981759 0.414629 0.303919
O O3 0.961575 0.462715 0.199408
O O4 0.006354 0.585714 0.270655
O O5 0.250000 0.871424 0.322685
O O6 0.454893 0.750000 0.306947
O O7 0.494441 0.891896 0.376337
O O8 0.250000 0.342999 0.927890
O O9 0.486326 0.250000 0.909816
O O10 0.485574 0.422287 0.885015
O O11 0.478243 0.371434 0.990663
O O12 0.250000 0.112358 0.058380
O O13 0.426285 0.250000 0.067568
O O14 0.513560 0.096812 0.098447
O O15 0.750000 0.155490 0.351257
O O16 0.988550 0.250000 0.346439
O O17 0.973636 0.108758 0.413196
O O18 0.750000 0.482086 0.125026
O O19 0.750000 0.087248 0.483441
O O20 0.996035 0.161406 0.517261
O O21 0.000000 0.000000 0.500000
O O22 0.750000 0.898182 0.432922
O O23 0.874499 0.750000 0.405453
#
# Coordination Sequence:
#
# PCOD8242579 Si02
#       8
#     8   8   8   8   8   8   8   8
#     4  10  21  36  55  80 108 141 183 228 273 320
#     4  10  21  37  57  80 108 144 183 223 270 327
#     4   8  15  30  51  76 108 143 177 215 266 331
#     4   9  18  33  53  75 103 143 183 218 265 325
#     4   9  19  36  55  74 102 143 185 221 262 318
#     4  10  20  32  52  82 109 137 177 227 278 322
#     4  11  21  33  53  78 103 134 174 221 275 333
#     4  10  20  34  53  77 104 131 162 208 267 328
#
# _framework density 19.599504
#
# number of rings (size 3 to 8) (size 9 to 14) (size 15 to 20)
#    0.000    2.375    0.000    3.375    0.000    4.750 
#    0.000    3.125    0.000    3.000    0.000    0.000 
#    0.000    0.000    0.000    0.000    0.000    0.000 
#
# Total GULP energy -793192.755204 kJ/mol
# GULP energy per Si atom -12393.636800 kJ/mol
# Density = 1.955489 g / cm^3
# Si number density = 19.599504 Si / 1000 Ang^3
#
#
#
# Elastic Constant Matrix: (Units=GPa)
#
#
# Indices 1 2 3 4 5 6 
#
# 1 59.3014 31.8891 39.6534 0.0000 0.0000 0.0000
# 2 31.8891 103.9442 61.4718 0.0000 0.0000 0.0000
# 3 39.6534 61.4718 121.2272 0.0000 0.0000 0.0000
# 4 0.0000 0.0000 0.0000 26.7286 0.0000 0.0000
# 5 0.0000 0.0000 0.0000 0.0000 23.5531 0.0000
# 6 0.0000 0.0000 0.0000 0.0000 0.0000 27.8076
#
#
#
# Elastic Compliance Matrix: (Units=1/GPa)
#
#
# Indices 1 2 3 4 5 6 
#
# 1 0.022511 -0.003644 -0.005515 0.000000 0.000000 0.000000
# 2 -0.003644 0.014331 -0.006075 0.000000 0.000000 0.000000
# 3 -0.005515 -0.006075 0.013134 0.000000 0.000000 0.000000
# 4 0.000000 0.000000 0.000000 0.037413 0.000000 0.000000
# 5 0.000000 0.000000 0.000000 0.000000 0.042457 0.000000
# 6 0.000000 0.000000 0.000000 0.000000 0.000000 0.035961
#
#
# Mechanical properties :
#
#
# Convention : Reuss Voigt Hill
#
# Bulk Modulus (GPa) = 51.26575 61.16682 56.21629
# Shear Modulus (GPa) = 24.65743 25.71511 25.18627
#
# Velocity S-wave (km/s) = 3.55077 3.62612 3.58864
# Velocity P-wave (km/s) = 6.55927 6.98626 6.77613
#
# Compressibility (1/GPa) = 0.01950620
#
# Stress axis : x y z
#
# Youngs Moduli (GPa) = 44.42331 69.77711 76.14095
#
# Poissons Ratio (x) = 0.25430 0.41994
# Poissons Ratio (y) = 0.16190 0.46256
# Poissons Ratio (z) = 0.24501 0.42390
#
# Static dielectric constant tensor:
#      x y z
#    x 3.485880 0.000000 0.000000 
#    y 0.000000 2.524300 0.000000 
#    z 0.000000 0.000000 3.772700 
# 
# 
# High freq. dielectric constant tensor:
#      x y z
#    x 1.735940 0.000000 0.000000 
#    y 0.000000 1.771690 0.000000 
#    z 0.000000 0.000000 1.760800 
# 
# From -- ./inp_files/31512.got.cif
#   From: 2010.03.12/outbox.cif.g09.slc.cpg/sg59_16_cif.got.tgz:31512.got - 2010.04.16 16:29:54.
