data_PCOD8242034
_publ_section_title
;
Structure prediction by ZEFSAII (Michael W. Deem and Ramdas Pophale) SiO2 
 PCOD8242034
Probable space group: P M M N
;
_chemical_formula_sum "Si O2"
_cell_formula_units_Z 64
_cell_length_a 8.867320
_cell_length_b 15.438530
_cell_length_c 23.942537
_cell_angle_alpha 90.000000
_cell_angle_beta 90.000000
_cell_angle_gamma 90.000000
_cell_volume 3277.694668
_symmetry_space_group_name_H-M "P M M N"
_symmetry_group_IT_number 59
_space_group.IT_coordinate_system_code '2'
_symmetry_cell_setting 'orthorhombic'
loop_
_space_group_symop_operation_xyz
x,y,z
1/2-x,1/2-y,z
1/2+x,-y,-z
-x,1/2+y,-z
-x,-y,-z
1/2+x,1/2+y,-z
1/2-x,y,z
x,1/2-y,z
loop_
_atom_site_type_symbol
_atom_site_label
_atom_site_fract_x
_atom_site_fract_y
_atom_site_fract_z
Si Si1 0.429026 0.845493 0.133615
Si Si2 0.927541 0.402936 0.747144
Si Si3 0.070381 0.494998 0.060535
Si Si4 0.427482 0.398347 0.248755
Si Si5 0.575535 0.348992 0.134503
Si Si6 0.576170 0.846380 0.363318
Si Si7 0.577499 0.346645 0.359841
Si Si8 0.928009 0.000449 0.439809
O O1 0.250000 0.851164 0.135164
O O2 0.482214 0.750000 0.113258
O O3 0.491958 0.862067 0.195798
O O4 0.490322 0.919626 0.092566
O O5 0.750000 0.392910 0.744096
O O6 0.977028 0.502476 0.744972
O O7 0.994821 0.351072 0.695754
O O8 0.250000 0.493392 0.056714
O O9 0.016939 0.409284 0.092385
O O10 0.000000 0.500000 0.000000
O O11 0.250000 0.388037 0.238515
O O12 0.513304 0.356332 0.196992
O O13 0.474830 0.349903 0.304988
O O14 0.750000 0.376782 0.133592
O O15 0.556242 0.250000 0.114268
O O16 0.750000 0.867335 0.352464
O O17 0.552335 0.750000 0.388192
O O18 0.510344 0.916185 0.406836
O O19 0.750000 0.368542 0.343227
O O20 0.564418 0.250000 0.385209
O O21 0.519267 0.413984 0.406378
O O22 0.750000 0.997680 0.447216
O O23 0.000000 0.000000 0.500000
#
# Coordination Sequence:
#
# PCOD8242034 Si02
#       8
#     8   8   8   8   8   8   8   8
#     4   9  18  35  59  85 115 150 187 230 283 343
#     4  10  19  34  58  87 116 148 186 227 280 344
#     4  11  23  41  62  88 119 157 202 249 297 348
#     4  11  21  35  59  91 121 150 188 236 291 349
#     4  11  24  41  62  88 119 159 202 244 296 354
#     4  10  21  37  57  83 114 148 184 226 282 340
#     4  10  21  38  59  83 113 151 190 228 281 347
#     4  10  22  39  57  79 109 147 190 239 283 332
#
# _framework density 19.525921
#
# number of rings (size 3 to 8) (size 9 to 14) (size 15 to 20)
#    0.000    1.750    2.500    1.875    0.000    6.000 
#    0.000    1.250    0.000    1.875    0.000    0.000 
#    0.000    0.000    0.000    0.000    0.000    0.000 
#
# Total GULP energy -793728.086139 kJ/mol
# GULP energy per Si atom -12402.001346 kJ/mol
# Density = 1.948148 g / cm^3
# Si number density = 19.525921 Si / 1000 Ang^3
#
#
#
# Elastic Constant Matrix: (Units=GPa)
#
#
# Indices 1 2 3 4 5 6 
#
# 1 52.2065 37.5979 35.7255 0.0000 0.0000 0.0000
# 2 37.5979 153.0589 72.3723 0.0000 0.0000 0.0000
# 3 35.7255 72.3723 158.1154 0.0000 0.0000 0.0000
# 4 0.0000 0.0000 0.0000 14.4208 0.0000 0.0000
# 5 0.0000 0.0000 0.0000 0.0000 34.7072 0.0000
# 6 0.0000 0.0000 0.0000 0.0000 0.0000 24.2776
#
#
#
# Elastic Compliance Matrix: (Units=1/GPa)
#
#
# Indices 1 2 3 4 5 6 
#
# 1 0.024770 -0.004388 -0.003588 0.000000 0.000000 0.000000
# 2 -0.004388 0.009115 -0.003181 0.000000 0.000000 0.000000
# 3 -0.003588 -0.003181 0.008591 0.000000 0.000000 0.000000
# 4 0.000000 0.000000 0.000000 0.069344 0.000000 0.000000
# 5 0.000000 0.000000 0.000000 0.000000 0.028813 0.000000
# 6 0.000000 0.000000 0.000000 0.000000 0.000000 0.041190
#
#
# Mechanical properties :
#
#
# Convention : Reuss Voigt Hill
#
# Bulk Modulus (GPa) = 49.59660 72.75246 61.17453
# Shear Modulus (GPa) = 23.71253 29.19344 26.45298
#
# Velocity S-wave (km/s) = 3.48862 3.87086 3.68470
# Velocity P-wave (km/s) = 6.45623 7.57089 7.03567
#
# Compressibility (1/GPa) = 0.02016267
#
# Stress axis : x y z
#
# Youngs Moduli (GPa) = 40.37083 109.70542 116.39861
#
# Poissons Ratio (x) = 0.48139 0.41767
# Poissons Ratio (y) = 0.17715 0.37024
# Poissons Ratio (z) = 0.14486 0.34895
#
# Static dielectric constant tensor:
#      x y z
#    x 3.409860 0.000000 0.000000 
#    y 0.000000 3.901220 0.000000 
#    z 0.000000 0.000000 3.909500 
# 
# 
# High freq. dielectric constant tensor:
#      x y z
#    x 1.744570 0.000000 0.000000 
#    y 0.000000 1.780360 0.000000 
#    z 0.000000 0.000000 1.755530 
# 
# From -- ./inp_files/31597.got.cif
#   From: 2010.03.12/outbox.cif.g09.slc.cpg/sg59_16_cif.got.tgz:31597.got - 2010.04.16 16:29:54.
