data_PCOD8242883
_publ_section_title
;
Structure prediction by ZEFSAII (Michael W. Deem and Ramdas Pophale) SiO2 
 PCOD8242883
Probable space group: P M M N
;
_chemical_formula_sum "Si O2"
_cell_formula_units_Z 64
_cell_length_a 8.935331
_cell_length_b 23.001900
_cell_length_c 15.907496
_cell_angle_alpha 90.000000
_cell_angle_beta 90.000000
_cell_angle_gamma 90.000000
_cell_volume 3269.461133
_symmetry_space_group_name_H-M "P M M N"
_symmetry_group_IT_number 59
_space_group.IT_coordinate_system_code '2'
_symmetry_cell_setting 'orthorhombic'
loop_
_space_group_symop_operation_xyz
x,y,z
1/2-x,1/2-y,z
1/2+x,-y,-z
-x,1/2+y,-z
-x,-y,-z
1/2+x,1/2+y,-z
1/2-x,y,z
x,1/2-y,z
loop_
_atom_site_type_symbol
_atom_site_label
_atom_site_fract_x
_atom_site_fract_y
_atom_site_fract_z
Si Si1 0.425724 0.413013 0.444096
Si Si2 0.078679 0.009535 0.089321
Si Si3 0.076708 0.474668 0.614089
Si Si4 0.574105 0.119530 0.168755
Si Si5 0.084579 0.318268 0.025687
Si Si6 0.583017 0.422934 0.765211
Si Si7 0.427314 0.682608 0.659915
Si Si8 0.420857 0.684857 0.137557
O O1 0.250000 0.406153 0.431212
O O2 0.484398 0.465526 0.386124
O O3 0.468688 0.430236 0.539676
O O4 0.502250 0.351753 0.419466
O O5 0.250000 0.025882 0.070857
O O6 0.007059 0.059322 0.147780
O O7 0.064506 0.951123 0.142998
O O8 0.000000 0.000000 0.000000
O O9 0.250000 0.491380 0.608273
O O10 0.042948 0.443706 0.701497
O O11 0.750000 0.108219 0.170050
O O12 0.520172 0.147932 0.256672
O O13 0.532113 0.165151 0.097276
O O14 0.250000 0.345109 0.041872
O O15 0.093436 0.250000 0.023439
O O16 0.024121 0.340720 0.936518
O O17 0.750000 0.435645 0.729186
O O18 0.558368 0.354269 0.779486
O O19 0.250000 0.681587 0.651166
O O20 0.483565 0.750000 0.661749
O O21 0.250000 0.682718 0.105365
O O22 0.468197 0.750000 0.162942
#
# Coordination Sequence:
#
# PCOD8242883 Si02
#       8
#     8   8   8   8   8   8   8   8
#     4  10  21  38  60  86 114 144 181 226 277 333
#     4  11  23  37  54  80 114 151 191 235 284 335
#     4  10  21  37  60  87 112 143 182 226 279 335
#     4  11  22  36  54  77 108 146 188 232 278 331
#     4  10  20  33  51  76 104 137 180 226 270 317
#     4  10  21  36  55  81 110 140 179 224 269 322
#     4  10  22  39  59  85 117 154 194 234 281 341
#     4   9  18  34  55  77 104 139 177 218 265 317
#
# _framework density 19.575092000000001
#
# number of rings (size 3 to 8) (size 9 to 14) (size 15 to 20)
#    0.000    1.875    0.000    3.750    0.000    8.500 
#    0.000    0.625    0.000    2.250    0.000    0.000 
#    0.000    0.000    0.000    0.000    0.000    0.000 
#
# Total GULP energy -793568.631467 kJ/mol
# GULP energy per Si atom -12399.509867 kJ/mol
# Density = 1.953054 g / cm^3
# Si number density = 19.575092 Si / 1000 Ang^3
#
#
#
# Elastic Constant Matrix: (Units=GPa)
#
#
# Indices 1 2 3 4 5 6 
#
# 1 61.9220 42.4574 24.8116 0.0000 0.0000 0.0000
# 2 42.4574 105.5161 52.6898 0.0000 0.0000 0.0000
# 3 24.8116 52.6898 71.9495 0.0000 0.0000 0.0000
# 4 0.0000 0.0000 0.0000 32.7377 0.0000 0.0000
# 5 0.0000 0.0000 0.0000 0.0000 33.3248 0.0000
# 6 0.0000 0.0000 0.0000 0.0000 0.0000 28.8868
#
#
#
# Elastic Compliance Matrix: (Units=1/GPa)
#
#
# Indices 1 2 3 4 5 6 
#
# 1 0.022445 -0.008145 -0.001776 0.000000 0.000000 0.000000
# 2 -0.008145 0.017896 -0.010297 0.000000 0.000000 0.000000
# 3 -0.001776 -0.010297 0.022052 0.000000 0.000000 0.000000
# 4 0.000000 0.000000 0.000000 0.030546 0.000000 0.000000
# 5 0.000000 0.000000 0.000000 0.000000 0.030008 0.000000
# 6 0.000000 0.000000 0.000000 0.000000 0.000000 0.034618
#
#
# Mechanical properties :
#
#
# Convention : Reuss Voigt Hill
#
# Bulk Modulus (GPa) = 45.54081 53.25614 49.39847
# Shear Modulus (GPa) = 24.35226 26.95178 25.65202
#
# Velocity S-wave (km/s) = 3.53093 3.71461 3.62393
# Velocity P-wave (km/s) = 6.31969 6.75743 6.54222
#
# Compressibility (1/GPa) = 0.02195833
#
# Stress axis : x y z
#
# Youngs Moduli (GPa) = 44.55249 55.87696 45.34793
#
# Poissons Ratio (x) = 0.45511 0.08052
# Poissons Ratio (y) = 0.36288 0.46695
# Poissons Ratio (z) = 0.07911 0.57537
#
# Static dielectric constant tensor:
#      x y z
#    x 3.693050 0.000000 0.000000 
#    y 0.000000 3.695570 0.000000 
#    z 0.000000 0.000000 3.451800 
# 
# 
# High freq. dielectric constant tensor:
#      x y z
#    x 1.766470 0.000000 0.000000 
#    y 0.000000 1.769180 0.000000 
#    z 0.000000 0.000000 1.750090 
# 
# From -- ./inp_files/21536.got.cif
#   From: 2010.03.12/outbox.cif.g09.slc.cpg/sg59_11_cif.got.tgz:21536.got - 2010.04.16 16:29:54.
