data_PCOD8242761
_publ_section_title
;
Structure prediction by ZEFSAII (Michael W. Deem and Ramdas Pophale) SiO2 
 PCOD8242761
Probable space group: P M M N
;
_chemical_formula_sum "Si O2"
_cell_formula_units_Z 48
_cell_length_a 19.476240
_cell_length_b 9.098993
_cell_length_c 15.184559
_cell_angle_alpha 90.000000
_cell_angle_beta 90.000000
_cell_angle_gamma 90.000000
_cell_volume 2690.919042
_symmetry_space_group_name_H-M "P M M N"
_symmetry_group_IT_number 59
_space_group.IT_coordinate_system_code '2'
_symmetry_cell_setting 'orthorhombic'
loop_
_space_group_symop_operation_xyz
x,y,z
1/2-x,1/2-y,z
1/2+x,-y,-z
-x,1/2+y,-z
-x,-y,-z
1/2+x,1/2+y,-z
1/2-x,y,z
x,1/2-y,z
loop_
_atom_site_type_symbol
_atom_site_label
_atom_site_fract_x
_atom_site_fract_y
_atom_site_fract_z
Si Si1 0.831768 0.415745 0.922827
Si Si2 0.563377 0.580284 0.603161
Si Si3 0.671657 0.921064 0.749363
Si Si4 0.074718 0.078918 0.599430
Si Si5 0.668216 0.915954 0.093233
Si Si6 0.330881 0.580255 0.732677
O O1 0.750000 0.418270 0.925756
O O2 0.860029 0.250000 0.926459
O O3 0.857625 0.491377 0.833234
O O4 0.861436 0.504040 0.006524
O O5 0.542292 0.750000 0.614843
O O6 0.627015 0.536388 0.664621
O O7 0.498839 0.481524 0.630672
O O8 0.586172 0.547677 0.503622
O O9 0.750000 0.965910 0.728116
O O10 0.666327 0.750000 0.772493
O O11 0.078841 0.250000 0.622435
O O12 0.135130 0.994321 0.648455
O O13 0.750000 0.916757 0.090783
O O14 0.639789 0.750000 0.096070
O O15 0.641654 0.002341 0.178902
O O16 0.250000 0.559676 0.722249
O O17 0.351902 0.750000 0.737848
#
# Coordination Sequence:
#
# PCOD8242761 Si02
#       6
#     8   8   8   8   8   8
#     4   9  16  26  42  67  99 131 161 196 240 288
#     4   9  19  35  53  72  97 131 168 205 246 294
#     4   9  17  30  49  73  99 128 164 204 244 286
#     4  10  20  34  53  74  97 129 168 207 247 296
#     4   9  16  27  45  69  97 129 164 200 238 285
#     4  10  20  33  50  74 103 132 163 203 249 293
#
# _framework density 17.837772999999999
#
# number of rings (size 3 to 8) (size 9 to 14) (size 15 to 20)
#    0.000    2.667    0.000    2.000    0.000    7.000 
#    0.000    1.667    0.000    3.000    0.000    0.000 
#    0.000    0.000    0.000    0.000    0.000    0.000 
#
# Total GULP energy -595279.623972 kJ/mol
# GULP energy per Si atom -12401.658833 kJ/mol
# Density = 1.779717 g / cm^3
# Si number density = 17.837773 Si / 1000 Ang^3
#
#
#
# Elastic Constant Matrix: (Units=GPa)
#
#
# Indices 1 2 3 4 5 6 
#
# 1 43.2608 42.4038 47.2428 0.0000 0.0000 0.0000
# 2 42.4038 131.5498 73.3640 0.0000 0.0000 0.0000
# 3 47.2428 73.3640 123.8665 0.0000 0.0000 0.0000
# 4 0.0000 0.0000 0.0000 33.8633 0.0000 0.0000
# 5 0.0000 0.0000 0.0000 0.0000 5.5825 0.0000
# 6 0.0000 0.0000 0.0000 0.0000 0.0000 23.9910
#
#
#
# Elastic Compliance Matrix: (Units=1/GPa)
#
#
# Indices 1 2 3 4 5 6 
#
# 1 0.043704 -0.007155 -0.012431 0.000000 0.000000 0.000000
# 2 -0.007155 0.012522 -0.004688 0.000000 0.000000 0.000000
# 3 -0.012431 -0.004688 0.015591 0.000000 0.000000 0.000000
# 4 0.000000 0.000000 0.000000 0.029531 0.000000 0.000000
# 5 0.000000 0.000000 0.000000 0.000000 0.179133 0.000000
# 6 0.000000 0.000000 0.000000 0.000000 0.000000 0.041682
#
#
# Mechanical properties :
#
#
# Convention : Reuss Voigt Hill
#
# Bulk Modulus (GPa) = 42.97429 69.41094 56.19262
# Shear Modulus (GPa) = 13.21118 21.73178 17.47148
#
# Velocity S-wave (km/s) = 2.72440 3.49420 3.13304
# Velocity P-wave (km/s) = 5.83443 7.43479 6.68269
#
# Compressibility (1/GPa) = 0.02326973
#
# Stress axis : x y z
#
# Youngs Moduli (GPa) = 22.88114 79.85681 64.13955
#
# Poissons Ratio (x) = 0.57137 0.79732
# Poissons Ratio (y) = 0.16371 0.30068
# Poissons Ratio (z) = 0.28444 0.37436
#
# Static dielectric constant tensor:
#      x y z
#    x 2.916050 0.000000 0.000000 
#    y 0.000000 3.468770 0.000000 
#    z 0.000000 0.000000 3.412420 
# 
# 
# High freq. dielectric constant tensor:
#      x y z
#    x 1.645050 0.000000 0.000000 
#    y 0.000000 1.703030 0.000000 
#    z 0.000000 0.000000 1.700080 
# 
# From -- ./inp_files/20390.got.cif
#   From: 2010.03.12/outbox.cif.g09.slc.cpg/sg59_11_cif.got.tgz:20390.got - 2010.04.16 16:29:54.
