data_PCOD8242724
_publ_section_title
;
Structure prediction by ZEFSAII (Michael W. Deem and Ramdas Pophale) SiO2 
 PCOD8242724
Probable space group: P M M N
;
_chemical_formula_sum "Si O2"
_cell_formula_units_Z 48
_cell_length_a 9.247324
_cell_length_b 9.050273
_cell_length_c 30.907191
_cell_angle_alpha 90.000000
_cell_angle_beta 90.000000
_cell_angle_gamma 90.000000
_cell_volume 2586.647748
_symmetry_space_group_name_H-M "P M M N"
_symmetry_group_IT_number 59
_space_group.IT_coordinate_system_code '2'
_symmetry_cell_setting 'orthorhombic'
loop_
_space_group_symop_operation_xyz
x,y,z
1/2-x,1/2-y,z
1/2+x,-y,-z
-x,1/2+y,-z
-x,-y,-z
1/2+x,1/2+y,-z
1/2-x,y,z
x,1/2-y,z
loop_
_atom_site_type_symbol
_atom_site_label
_atom_site_fract_x
_atom_site_fract_y
_atom_site_fract_z
Si Si1 0.910509 0.425433 0.296303
Si Si2 0.580518 0.578932 0.961331
Si Si3 0.087681 0.074135 0.376896
Si Si4 0.582848 0.078584 0.874480
Si Si5 0.921099 0.417371 0.199925
Si Si6 0.083238 0.924760 0.538920
O O1 0.750000 0.490728 0.304595
O O2 0.901571 0.250000 0.299658
O O3 0.965841 0.468377 0.248363
O O4 0.019127 0.489310 0.332478
O O5 0.750000 0.552295 0.967539
O O6 0.538873 0.750000 0.961283
O O7 0.526676 0.510005 0.916232
O O8 0.500000 0.500000 0.000000
O O9 0.250000 0.010904 0.381824
O O10 0.090932 0.250000 0.375452
O O11 0.990328 0.019594 0.416802
O O12 0.750000 0.043896 0.865635
O O13 0.554778 0.250000 0.883311
O O14 0.494588 0.029317 0.832808
O O15 0.750000 0.426279 0.194583
O O16 0.974652 0.250000 0.190972
O O17 0.250000 0.975079 0.539057
O O18 0.069186 0.750000 0.533906
O O19 0.000000 0.000000 0.500000
#
# Coordination Sequence:
#
# PCOD8242724 Si02
#       6
#     8   8   8   8   8   8
#     4   8  14  26  44  67  96 126 157 198 247 296
#     4  10  21  37  57  80 105 135 171 210 254 303
#     4   9  16  26  43  69  98 127 162 204 249 298
#     4  10  21  36  53  74 102 136 172 209 250 296
#     4   9  18  32  51  76 103 131 165 205 249 297
#     4  10  20  33  50  72  99 132 168 207 253 303
#
# _framework density 18.556837999999999
#
# number of rings (size 3 to 8) (size 9 to 14) (size 15 to 20)
#    0.000    2.667    0.000    3.000    0.000    6.667 
#    0.000    1.667    0.000    1.000    0.000    4.667 
#    0.000    0.000    0.000    0.000    0.000    0.000 
#
# Total GULP energy -595187.370063 kJ/mol
# GULP energy per Si atom -12399.736876 kJ/mol
# Density = 1.851460 g / cm^3
# Si number density = 18.556838 Si / 1000 Ang^3
#
#
#
# Elastic Constant Matrix: (Units=GPa)
#
#
# Indices 1 2 3 4 5 6 
#
# 1 103.8399 34.4525 82.1596 0.0000 0.0000 0.0000
# 2 34.4525 54.9826 50.4058 0.0000 0.0000 0.0000
# 3 82.1596 50.4058 177.5098 0.0000 0.0000 0.0000
# 4 0.0000 0.0000 0.0000 27.0288 0.0000 0.0000
# 5 0.0000 0.0000 0.0000 0.0000 39.4101 0.0000
# 6 0.0000 0.0000 0.0000 0.0000 0.0000 24.0008
#
#
#
# Elastic Compliance Matrix: (Units=1/GPa)
#
#
# Indices 1 2 3 4 5 6 
#
# 1 0.015931 -0.004357 -0.006136 0.000000 0.000000 0.000000
# 2 -0.004357 0.025780 -0.005304 0.000000 0.000000 0.000000
# 3 -0.006136 -0.005304 0.009980 0.000000 0.000000 0.000000
# 4 0.000000 0.000000 0.000000 0.036998 0.000000 0.000000
# 5 0.000000 0.000000 0.000000 0.000000 0.025374 0.000000
# 6 0.000000 0.000000 0.000000 0.000000 0.000000 0.041665
#
#
# Mechanical properties :
#
#
# Convention : Reuss Voigt Hill
#
# Bulk Modulus (GPa) = 49.76016 74.48535 62.12275
# Shear Modulus (GPa) = 25.77041 29.37559 27.57300
#
# Velocity S-wave (km/s) = 3.73061 3.98302 3.85888
# Velocity P-wave (km/s) = 6.74016 7.83446 7.30782
#
# Compressibility (1/GPa) = 0.02009640
#
# Stress axis : x y z
#
# Youngs Moduli (GPa) = 62.77096 38.78965 100.20224
#
# Poissons Ratio (x) = 0.16900 0.61488
# Poissons Ratio (y) = 0.27348 0.53147
# Poissons Ratio (z) = 0.38519 0.20574
#
# Static dielectric constant tensor:
#      x y z
#    x 3.521050 0.000000 0.000000 
#    y 0.000000 3.069760 0.000000 
#    z 0.000000 0.000000 3.651420 
# 
# 
# High freq. dielectric constant tensor:
#      x y z
#    x 1.720340 0.000000 0.000000 
#    y 0.000000 1.682130 0.000000 
#    z 0.000000 0.000000 1.736810 
# 
# From -- ./inp_files/32830.got.cif
#   From: 2010.03.12/outbox.cif.g09.slc.cpg/sg59_17_cif.got.tgz:32830.got - 2010.04.16 16:29:54.
