data_PCOD8242279
_publ_section_title
;
Structure prediction by ZEFSAII (Michael W. Deem and Ramdas Pophale) SiO2 
 PCOD8242279
Probable space group: P M M N
;
_chemical_formula_sum "Si O2"
_cell_formula_units_Z 64
_cell_length_a 9.431397
_cell_length_b 24.499059
_cell_length_c 17.737699
_cell_angle_alpha 90.000000
_cell_angle_beta 90.000000
_cell_angle_gamma 90.000000
_cell_volume 4098.478967
_symmetry_space_group_name_H-M "P M M N"
_symmetry_group_IT_number 59
_space_group.IT_coordinate_system_code '2'
_symmetry_cell_setting 'orthorhombic'
loop_
_space_group_symop_operation_xyz
x,y,z
1/2-x,1/2-y,z
1/2+x,-y,-z
-x,1/2+y,-z
-x,-y,-z
1/2+x,1/2+y,-z
1/2-x,y,z
x,1/2-y,z
loop_
_atom_site_type_symbol
_atom_site_label
_atom_site_fract_x
_atom_site_fract_y
_atom_site_fract_z
Si Si1 0.086302 0.312542 0.724073
Si Si2 0.409613 0.684972 0.133062
Si Si3 0.913913 0.601201 0.401702
Si Si4 0.412456 0.685405 0.688710
Si Si5 0.910450 0.618195 0.575407
Si Si6 0.909426 0.814947 0.995211
Si Si7 0.408866 0.314837 0.171457
Si Si8 0.413732 0.997233 0.423515
O O1 0.250000 0.318280 0.747681
O O2 0.048204 0.250000 0.704984
O O3 0.049816 0.347296 0.650266
O O4 0.993524 0.335173 0.793283
O O5 0.250000 0.662083 0.136097
O O6 0.410903 0.750000 0.130148
O O7 0.485054 0.660821 0.058229
O O8 0.750000 0.583646 0.395151
O O9 0.951539 0.617396 0.487234
O O10 0.010660 0.549978 0.373915
O O11 0.250000 0.667358 0.691793
O O12 0.429700 0.750000 0.681990
O O13 0.483696 0.659347 0.615620
O O14 0.486039 0.662370 0.764694
O O15 0.750000 0.639864 0.585120
O O16 0.923799 0.557689 0.612762
O O17 0.750000 0.835611 0.011929
O O18 0.911938 0.750000 0.998287
O O19 0.957874 0.834922 0.911769
O O20 0.250000 0.336076 0.188724
O O21 0.410198 0.250000 0.172611
O O22 0.250000 0.981665 0.438485
O O23 0.500000 0.000000 0.500000
#
# Coordination Sequence:
#
# PCOD8242279 Si02
#       8
#     8   8   8   8   8   8   8   8
#     4   9  17  29  43  59  84 117 148 176 206 246
#     4   9  16  24  35  54  80 109 140 173 209 246
#     4   9  18  31  47  66  84 107 142 180 217 253
#     4  10  20  30  40  59  87 116 144 174 210 249
#     4   9  18  31  46  63  82 108 142 175 210 254
#     4   8  13  22  37  55  74 101 138 173 205 244
#     4   8  14  25  40  56  76 106 141 173 206 246
#     4   9  17  30  48  67  84 103 132 174 220 259
#
# _framework density 15.615549
#
# number of rings (size 3 to 8) (size 9 to 14) (size 15 to 20)
#    0.000    3.125    0.000    2.625    0.000    6.250 
#    0.000    3.750    0.000    1.500    0.000    0.000 
#    0.000    1.000    0.000    3.250    0.000    4.375 
#
# Total GULP energy -793210.966692 kJ/mol
# GULP energy per Si atom -12393.921355 kJ/mol
# Density = 1.558001 g / cm^3
# Si number density = 15.615549 Si / 1000 Ang^3
#
#
#
# Elastic Constant Matrix: (Units=GPa)
#
#
# Indices 1 2 3 4 5 6 
#
# 1 108.3273 32.4631 63.2668 0.0000 0.0000 0.0000
# 2 32.4631 30.6073 29.6367 0.0000 0.0000 0.0000
# 3 63.2668 29.6367 102.5780 0.0000 0.0000 0.0000
# 4 0.0000 0.0000 0.0000 1.5419 0.0000 0.0000
# 5 0.0000 0.0000 0.0000 0.0000 22.8598 0.0000
# 6 0.0000 0.0000 0.0000 0.0000 0.0000 21.2553
#
#
#
# Elastic Compliance Matrix: (Units=1/GPa)
#
#
# Indices 1 2 3 4 5 6 
#
# 1 0.016617 -0.010692 -0.007160 0.000000 0.000000 0.000000
# 2 -0.010692 0.052242 -0.008499 0.000000 0.000000 0.000000
# 3 -0.007160 -0.008499 0.016620 0.000000 0.000000 0.000000
# 4 0.000000 0.000000 0.000000 0.648531 0.000000 0.000000
# 5 0.000000 0.000000 0.000000 0.000000 0.043745 0.000000
# 6 0.000000 0.000000 0.000000 0.000000 0.000000 0.047047
#
#
# Mechanical properties :
#
#
# Convention : Reuss Voigt Hill
#
# Bulk Modulus (GPa) = 30.50896 54.69397 42.60146
# Shear Modulus (GPa) = 5.62791 16.87448 11.25120
#
# Velocity S-wave (km/s) = 1.90049 3.29085 2.68715
# Velocity P-wave (km/s) = 4.93921 7.03853 6.08016
#
# Compressibility (1/GPa) = 0.03277726
#
# Stress axis : x y z
#
# Youngs Moduli (GPa) = 60.17994 19.14183 60.16796
#
# Poissons Ratio (x) = 0.20466 0.43078
# Poissons Ratio (y) = 0.64343 0.51138
# Poissons Ratio (z) = 0.43087 0.16269
#
# Static dielectric constant tensor:
#      x y z
#    x 3.202350 0.000000 0.000000 
#    y 0.000000 2.799090 0.000000 
#    z 0.000000 0.000000 3.047590 
# 
# 
# High freq. dielectric constant tensor:
#      x y z
#    x 1.608390 0.000000 0.000000 
#    y 0.000000 1.547190 0.000000 
#    z 0.000000 0.000000 1.592050 
# 
# From -- ./inp_files/26495.got.cif
#   From: 2010.03.12/outbox.cif.g09.slc.cpg/sg59_14_cif.got.tgz:26495.got - 2010.04.16 16:29:54.
