data_PCOD8242880
_publ_section_title
;
Structure prediction by ZEFSAII (Michael W. Deem and Ramdas Pophale) SiO2 
 PCOD8242880
Probable space group: P M M N
;
_chemical_formula_sum "Si O2"
_cell_formula_units_Z 32
_cell_length_a 9.255774
_cell_length_b 8.945212
_cell_length_c 20.535517
_cell_angle_alpha 90.000000
_cell_angle_beta 90.000000
_cell_angle_gamma 90.000000
_cell_volume 1700.235268
_symmetry_space_group_name_H-M "P M M N"
_symmetry_group_IT_number 59
_space_group.IT_coordinate_system_code '2'
_symmetry_cell_setting 'orthorhombic'
loop_
_space_group_symop_operation_xyz
x,y,z
1/2-x,1/2-y,z
1/2+x,-y,-z
-x,1/2+y,-z
-x,-y,-z
1/2+x,1/2+y,-z
1/2-x,y,z
x,1/2-y,z
loop_
_atom_site_type_symbol
_atom_site_label
_atom_site_fract_x
_atom_site_fract_y
_atom_site_fract_z
Si Si1 0.916111 0.073911 0.058996
Si Si2 0.580991 0.423234 0.826693
Si Si3 0.409537 0.572650 0.318994
Si Si4 0.914657 0.927225 0.441435
O O1 0.750000 0.022176 0.056958
O O2 0.930024 0.250000 0.051805
O O3 0.985290 0.024417 0.126796
O O4 0.000000 0.000000 0.000000
O O5 0.750000 0.448915 0.841046
O O6 0.541235 0.250000 0.837644
O O7 0.541963 0.476140 0.753339
O O8 0.250000 0.507859 0.334757
O O9 0.401811 0.750000 0.320388
O O10 0.520712 0.512848 0.373088
O O11 0.750000 0.980504 0.444856
O O12 0.929185 0.750000 0.446591
O O13 0.000000 0.000000 0.500000
#
# Coordination Sequence:
#
# PCOD8242880 Si02
#       4
#     8   8   8   8
#     4  11  24  39  55  78 107 138 174 214 255 303
#     4   9  18  34  57  83 107 133 169 211 256 309
#     4   8  15  30  52  76 103 135 170 210 256 306
#     4  10  20  33  51  76 104 136 176 218 260 309
#
# _framework density 18.820923000000001
#
# number of rings (size 3 to 8) (size 9 to 14) (size 15 to 20)
#    0.000    2.500    0.000    3.750    0.000    8.000 
#    0.000    3.750    0.000    1.500    0.000    0.000 
#    0.000    0.000    0.000    0.000    0.000    0.000 
#
# Total GULP energy -396776.609748 kJ/mol
# GULP energy per Si atom -12399.269055 kJ/mol
# Density = 1.877809 g / cm^3
# Si number density = 18.820923 Si / 1000 Ang^3
#
#
#
# Elastic Constant Matrix: (Units=GPa)
#
#
# Indices 1 2 3 4 5 6 
#
# 1 151.6460 42.4040 104.8810 0.0000 0.0000 0.0000
# 2 42.4040 36.4191 37.0780 0.0000 0.0000 0.0000
# 3 104.8810 37.0780 172.1691 0.0000 0.0000 0.0000
# 4 0.0000 0.0000 0.0000 32.6629 0.0000 0.0000
# 5 0.0000 0.0000 0.0000 0.0000 41.0847 0.0000
# 6 0.0000 0.0000 0.0000 0.0000 0.0000 27.3004
#
#
#
# Elastic Compliance Matrix: (Units=1/GPa)
#
#
# Indices 1 2 3 4 5 6 
#
# 1 0.013524 -0.009425 -0.006209 0.000000 0.000000 0.000000
# 2 -0.009425 0.041738 -0.003247 0.000000 0.000000 0.000000
# 3 -0.006209 -0.003247 0.010290 0.000000 0.000000 0.000000
# 4 0.000000 0.000000 0.000000 0.030616 0.000000 0.000000
# 5 0.000000 0.000000 0.000000 0.000000 0.024340 0.000000
# 6 0.000000 0.000000 0.000000 0.000000 0.000000 0.036630
#
#
# Mechanical properties :
#
#
# Convention : Reuss Voigt Hill
#
# Bulk Modulus (GPa) = 35.98446 80.99556 58.49001
# Shear Modulus (GPa) = 24.49041 31.93435 28.21238
#
# Velocity S-wave (km/s) = 3.61117 4.12363 3.87588
# Velocity P-wave (km/s) = 6.04552 8.11176 7.15364
#
# Compressibility (1/GPa) = 0.02778978
#
# Stress axis : x y z
#
# Youngs Moduli (GPa) = 73.94377 23.95896 97.18592
#
# Poissons Ratio (x) = 0.22582 0.60338
# Poissons Ratio (y) = 0.69695 0.31555
# Poissons Ratio (z) = 0.45908 0.07779
#
# Static dielectric constant tensor:
#      x y z
#    x 3.428440 0.000000 0.000000 
#    y 0.000000 3.105010 0.000000 
#    z 0.000000 0.000000 3.787720 
# 
# 
# High freq. dielectric constant tensor:
#      x y z
#    x 1.736440 0.000000 0.000000 
#    y 0.000000 1.698940 0.000000 
#    z 0.000000 0.000000 1.749680 
# 
# From -- ./inp_files/28570.got.cif
#   From: 2010.03.12/outbox.cif.g09.slc.cpg/sg59_15_cif.got.tgz:28570.got - 2010.04.16 16:29:54.
