data_PCOD8242080
_publ_section_title
;
Structure prediction by ZEFSAII (Michael W. Deem and Ramdas Pophale) SiO2 
 PCOD8242080
Probable space group: P M M N
;
_chemical_formula_sum "Si O2"
_cell_formula_units_Z 64
_cell_length_a 8.717333
_cell_length_b 20.049693
_cell_length_c 20.003724
_cell_angle_alpha 90.000000
_cell_angle_beta 90.000000
_cell_angle_gamma 90.000000
_cell_volume 3496.247889
_symmetry_space_group_name_H-M "P M M N"
_symmetry_group_IT_number 59
_space_group.IT_coordinate_system_code '2'
_symmetry_cell_setting 'orthorhombic'
loop_
_space_group_symop_operation_xyz
x,y,z
1/2-x,1/2-y,z
1/2+x,-y,-z
-x,1/2+y,-z
-x,-y,-z
1/2+x,1/2+y,-z
1/2-x,y,z
x,1/2-y,z
loop_
_atom_site_type_symbol
_atom_site_label
_atom_site_fract_x
_atom_site_fract_y
_atom_site_fract_z
Si Si1 0.569758 0.436385 0.687046
Si Si2 0.927744 0.672857 0.403957
Si Si3 0.566902 0.175882 0.069666
Si Si4 0.571894 0.173826 0.455511
Si Si5 0.568435 0.434290 0.967276
Si Si6 0.575728 0.549711 0.171213
Si Si7 0.076848 0.602967 0.804524
Si Si8 0.067233 0.574606 0.660892
O O1 0.750000 0.445627 0.691098
O O2 0.529431 0.370706 0.645532
O O3 0.504928 0.426257 0.761228
O O4 0.499442 0.500791 0.649386
O O5 0.750000 0.655534 0.393780
O O6 0.962965 0.750000 0.388190
O O7 0.972801 0.656111 0.479883
O O8 0.750000 0.173013 0.073894
O O9 0.506143 0.250000 0.055175
O O10 0.497002 0.151548 0.141302
O O11 0.509793 0.128611 0.010269
O O12 0.750000 0.161937 0.472300
O O13 0.543824 0.250000 0.432148
O O14 0.515045 0.124411 0.397326
O O15 0.750000 0.441132 0.967391
O O16 0.511065 0.420232 0.892418
O O17 0.500000 0.500000 0.000000
O O18 0.750000 0.575770 0.172257
O O19 0.570513 0.470365 0.164156
O O20 0.250000 0.627227 0.794146
O O21 0.998981 0.603628 0.731036
O O22 0.250000 0.567482 0.665396
#
# Coordination Sequence:
#
# PCOD8242080 Si02
#       8
#     8   8   8   8   8   8   8   8
#     4  11  22  36  56  83 111 141 176 222 275 329
#     4  10  21  38  59  80 104 140 183 227 279 334
#     4   9  17  29  47  75 108 138 176 223 265 310
#     4   9  18  33  53  79 110 145 187 231 272 321
#     4  11  20  32  53  80 105 140 183 223 271 323
#     4  10  19  35  56  79 105 136 177 225 268 318
#     4   8  14  27  47  72 100 134 173 212 260 309
#     4   9  18  32  52  79 113 147 180 222 268 317
#
# _framework density 18.305339
#
# number of rings (size 3 to 8) (size 9 to 14) (size 15 to 20)
#    0.000    2.375    1.250    3.000    0.000    2.250 
#    0.000    3.125    0.000    3.750    0.000    0.000 
#    0.000    0.000    0.000    0.000    0.000    0.000 
#
# Total GULP energy -793496.642239 kJ/mol
# GULP energy per Si atom -12398.385035 kJ/mol
# Density = 1.826368 g / cm^3
# Si number density = 18.305339 Si / 1000 Ang^3
#
#
#
# Elastic Constant Matrix: (Units=GPa)
#
#
# Indices 1 2 3 4 5 6 
#
# 1 64.6066 32.5932 37.1633 0.0000 0.0000 0.0000
# 2 32.5932 110.7262 76.1337 0.0000 0.0000 0.0000
# 3 37.1633 76.1337 123.8889 0.0000 0.0000 0.0000
# 4 0.0000 0.0000 0.0000 33.9166 0.0000 0.0000
# 5 0.0000 0.0000 0.0000 0.0000 29.2290 0.0000
# 6 0.0000 0.0000 0.0000 0.0000 0.0000 20.1206
#
#
#
# Elastic Compliance Matrix: (Units=1/GPa)
#
#
# Indices 1 2 3 4 5 6 
#
# 1 0.019242 -0.002936 -0.003968 0.000000 0.000000 0.000000
# 2 -0.002936 0.016088 -0.009006 0.000000 0.000000 0.000000
# 3 -0.003968 -0.009006 0.014796 0.000000 0.000000 0.000000
# 4 0.000000 0.000000 0.000000 0.029484 0.000000 0.000000
# 5 0.000000 0.000000 0.000000 0.000000 0.034213 0.000000
# 6 0.000000 0.000000 0.000000 0.000000 0.000000 0.049700
#
#
# Mechanical properties :
#
#
# Convention : Reuss Voigt Hill
#
# Bulk Modulus (GPa) = 54.62388 65.66691 60.14539
# Shear Modulus (GPa) = 24.82080 26.87532 25.84806
#
# Velocity S-wave (km/s) = 3.68629 3.83583 3.76180
# Velocity P-wave (km/s) = 6.92990 7.45446 7.19696
#
# Compressibility (1/GPa) = 0.01830701
#
# Stress axis : x y z
#
# Youngs Moduli (GPa) = 51.97026 62.15946 67.58423
#
# Poissons Ratio (x) = 0.18248 0.26817
# Poissons Ratio (y) = 0.15257 0.60865
# Poissons Ratio (z) = 0.20622 0.55979
#
# Static dielectric constant tensor:
#      x y z
#    x 3.176670 0.000000 0.000000 
#    y 0.000000 3.341600 0.000000 
#    z 0.000000 0.000000 3.549130 
# 
# 
# High freq. dielectric constant tensor:
#      x y z
#    x 1.688820 0.000000 0.000000 
#    y 0.000000 1.698010 0.000000 
#    z 0.000000 0.000000 1.720540 
# 
# From -- ./inp_files/26199.got.cif
#   From: 2010.03.12/outbox.cif.g09.slc.cpg/sg59_14_cif.got.tgz:26199.got - 2010.04.16 16:29:54.
