data_PCOD8242713
_publ_section_title
;
Structure prediction by ZEFSAII (Michael W. Deem and Ramdas Pophale) SiO2 
 PCOD8242713
Probable space group: P M M N
;
_chemical_formula_sum "Si O2"
_cell_formula_units_Z 48
_cell_length_a 9.020831
_cell_length_b 9.142766
_cell_length_c 31.178882
_cell_angle_alpha 90.000000
_cell_angle_beta 90.000000
_cell_angle_gamma 90.000000
_cell_volume 2571.489111
_symmetry_space_group_name_H-M "P M M N"
_symmetry_group_IT_number 59
_space_group.IT_coordinate_system_code '2'
_symmetry_cell_setting 'orthorhombic'
loop_
_space_group_symop_operation_xyz
x,y,z
1/2-x,1/2-y,z
1/2+x,-y,-z
-x,1/2+y,-z
-x,-y,-z
1/2+x,1/2+y,-z
1/2-x,y,z
x,1/2-y,z
loop_
_atom_site_type_symbol
_atom_site_label
_atom_site_fract_x
_atom_site_fract_y
_atom_site_fract_z
Si Si1 0.426558 0.587109 0.121212
Si Si2 0.925167 0.917328 0.961203
Si Si3 0.415410 0.575560 0.214878
Si Si4 0.076129 0.578742 0.539552
Si Si5 0.415299 0.076456 0.703134
Si Si6 0.423278 0.920909 0.382643
O O1 0.250000 0.592172 0.122018
O O2 0.489161 0.750000 0.112323
O O3 0.485297 0.481634 0.083781
O O4 0.479545 0.528809 0.168050
O O5 0.750000 0.937632 0.964821
O O6 0.973952 0.750000 0.963212
O O7 0.000000 0.000000 0.000000
O O8 0.250000 0.512520 0.221795
O O9 0.409394 0.750000 0.216658
O O10 0.518867 0.511701 0.252568
O O11 0.250000 0.546528 0.537963
O O12 0.041587 0.750000 0.536866
O O13 0.000000 0.500000 0.500000
O O14 0.010930 0.515679 0.583158
O O15 0.250000 0.013186 0.696397
O O16 0.410444 0.250000 0.706152
O O17 0.519370 0.028555 0.663867
O O18 0.250000 0.955287 0.385914
O O19 0.455597 0.750000 0.390901
#
# Coordination Sequence:
#
# PCOD8242713 Si02
#       6
#     8   8   8   8   8   8
#     4   8  14  26  45  67  92 124 161 202 248 296
#     4  10  20  33  50  72  97 127 164 205 250 301
#     4   8  13  23  41  64  89 121 163 206 246 291
#     4  11  24  40  58  81 108 138 173 213 258 308
#     4   9  16  26  43  70 103 135 166 205 253 299
#     4  10  20  34  54  80 108 139 177 218 257 299
#
# _framework density 18.666226000000002
#
# number of rings (size 3 to 8) (size 9 to 14) (size 15 to 20)
#    0.000    2.667    0.000    3.500    0.000    7.333 
#    0.000    0.833    0.000    4.000    0.000    2.333 
#    0.000    0.000    0.000    0.000    0.000    0.000 
#
# Total GULP energy -595072.410325 kJ/mol
# GULP energy per Si atom -12397.341882 kJ/mol
# Density = 1.862374 g / cm^3
# Si number density = 18.666226 Si / 1000 Ang^3
#
#
#
# Elastic Constant Matrix: (Units=GPa)
#
#
# Indices 1 2 3 4 5 6 
#
# 1 85.2300 48.4715 63.8691 0.0000 0.0000 0.0000
# 2 48.4715 80.6872 72.1028 0.0000 0.0000 0.0000
# 3 63.8691 72.1028 187.9747 0.0000 0.0000 0.0000
# 4 0.0000 0.0000 0.0000 25.1639 0.0000 0.0000
# 5 0.0000 0.0000 0.0000 0.0000 35.1369 0.0000
# 6 0.0000 0.0000 0.0000 0.0000 0.0000 19.3852
#
#
#
# Elastic Compliance Matrix: (Units=1/GPa)
#
#
# Indices 1 2 3 4 5 6 
#
# 1 0.018978 -0.008579 -0.003158 0.000000 0.000000 0.000000
# 2 -0.008579 0.022736 -0.005806 0.000000 0.000000 0.000000
# 3 -0.003158 -0.005806 0.008620 0.000000 0.000000 0.000000
# 4 0.000000 0.000000 0.000000 0.039739 0.000000 0.000000
# 5 0.000000 0.000000 0.000000 0.000000 0.028460 0.000000
# 6 0.000000 0.000000 0.000000 0.000000 0.000000 0.051586
#
#
# Mechanical properties :
#
#
# Convention : Reuss Voigt Hill
#
# Bulk Modulus (GPa) = 65.58130 80.30876 72.94503
# Shear Modulus (GPa) = 23.77704 27.23377 25.50540
#
# Velocity S-wave (km/s) = 3.57291 3.82381 3.70049
# Velocity P-wave (km/s) = 7.22709 7.91280 7.57770
#
# Compressibility (1/GPa) = 0.01524825
#
# Stress axis : x y z
#
# Youngs Moduli (GPa) = 52.69173 43.98402 116.01362
#
# Poissons Ratio (x) = 0.37735 0.36632
# Poissons Ratio (y) = 0.45206 0.67355
# Poissons Ratio (z) = 0.16638 0.25536
#
# Static dielectric constant tensor:
#      x y z
#    x 3.403610 0.000000 0.000000 
#    y 0.000000 3.216720 0.000000 
#    z 0.000000 0.000000 3.800000 
# 
# 
# High freq. dielectric constant tensor:
#      x y z
#    x 1.710900 0.000000 0.000000 
#    y 0.000000 1.684080 0.000000 
#    z 0.000000 0.000000 1.747630 
# 
# From -- ./inp_files/32882.got.cif
#   From: 2010.03.12/outbox.cif.g09.slc.cpg/sg59_17_cif.got.tgz:32882.got - 2010.04.16 16:29:54.
