data_PCOD8242654
_publ_section_title
;
Structure prediction by ZEFSAII (Michael W. Deem and Ramdas Pophale) SiO2 
 PCOD8242654
Probable space group: P M M N
;
_chemical_formula_sum "Si O2"
_cell_formula_units_Z 64
_cell_length_a 19.439000
_cell_length_b 9.090194
_cell_length_c 20.431973
_cell_angle_alpha 90.000000
_cell_angle_beta 90.000000
_cell_angle_gamma 90.000000
_cell_volume 3610.417102
_symmetry_space_group_name_H-M "P M M N"
_symmetry_group_IT_number 59
_space_group.IT_coordinate_system_code '2'
_symmetry_cell_setting 'orthorhombic'
loop_
_space_group_symop_operation_xyz
x,y,z
1/2-x,1/2-y,z
1/2+x,-y,-z
-x,1/2+y,-z
-x,-y,-z
1/2+x,1/2+y,-z
1/2-x,y,z
x,1/2-y,z
loop_
_atom_site_type_symbol
_atom_site_label
_atom_site_fract_x
_atom_site_fract_y
_atom_site_fract_z
Si Si1 0.332057 0.083788 0.058314
Si Si2 0.668922 0.080237 0.326621
Si Si3 0.668092 0.415884 0.814641
Si Si4 0.331914 0.416257 0.802807
Si Si5 0.563486 0.919889 0.576696
Si Si6 0.667959 0.083662 0.069636
Si Si7 0.828480 0.578728 0.685736
Si Si8 0.075039 0.078813 0.573793
O O1 0.250000 0.082979 0.058642
O O2 0.360186 0.250000 0.056655
O O3 0.361213 0.004016 0.122995
O O4 0.360087 0.998152 0.994816
O O5 0.750000 0.060431 0.334074
O O6 0.647624 0.250000 0.322216
O O7 0.641237 0.000658 0.261329
O O8 0.635285 0.006510 0.389635
O O9 0.750000 0.418723 0.816480
O O10 0.639822 0.250000 0.817408
O O11 0.641943 0.491556 0.748115
O O12 0.250000 0.416486 0.804272
O O13 0.360450 0.250000 0.802100
O O14 0.360784 0.499207 0.866735
O O15 0.542307 0.750000 0.585322
O O16 0.626987 0.963956 0.622648
O O17 0.586657 0.952358 0.502787
O O18 0.498800 0.018903 0.596848
O O19 0.750000 0.083641 0.070067
O O20 0.639742 0.250000 0.070137
O O21 0.750000 0.533446 0.670161
O O22 0.833738 0.750000 0.702757
O O23 0.079480 0.250000 0.590958
#
# Coordination Sequence:
#
# PCOD8242654 Si02
#       8
#     8   8   8   8   8   8   8   8
#     4   9  15  22  33  50  75 111 153 191 227 272
#     4  10  20  33  49  70  97 128 160 196 240 288
#     4   9  16  25  37  56  84 116 149 188 234 279
#     4   9  16  26  40  59  85 117 153 192 233 278
#     4   9  19  35  53  72  96 126 158 194 237 285
#     4   9  15  22  33  51  78 113 151 189 230 276
#     4   9  17  30  48  69  93 123 158 194 234 282
#     4  10  20  34  53  74  96 124 158 197 239 284
#
# _framework density 17.726483999999999
#
# number of rings (size 3 to 8) (size 9 to 14) (size 15 to 20)
#    0.000    2.750    0.000    2.250    0.000    8.250 
#    0.000    1.250    0.000    1.500    0.000    0.000 
#    0.000    1.000    0.000    3.750    0.000    8.500 
#
# Total GULP energy -793638.494370 kJ/mol
# GULP energy per Si atom -12400.601475 kJ/mol
# Density = 1.768614 g / cm^3
# Si number density = 17.726484 Si / 1000 Ang^3
#
#
#
# Elastic Constant Matrix: (Units=GPa)
#
#
# Indices 1 2 3 4 5 6 
#
# 1 28.4259 33.2028 38.1857 0.0000 0.0000 0.0000
# 2 33.2028 149.2266 81.0855 0.0000 0.0000 0.0000
# 3 38.1857 81.0855 138.4611 0.0000 0.0000 0.0000
# 4 0.0000 0.0000 0.0000 36.6006 0.0000 0.0000
# 5 0.0000 0.0000 0.0000 0.0000 2.1466 0.0000
# 6 0.0000 0.0000 0.0000 0.0000 0.0000 18.0359
#
#
#
# Elastic Compliance Matrix: (Units=1/GPa)
#
#
# Indices 1 2 3 4 5 6 
#
# 1 0.059738 -0.006365 -0.012747 0.000000 0.000000 0.000000
# 2 -0.006365 0.010507 -0.004398 0.000000 0.000000 0.000000
# 3 -0.012747 -0.004398 0.013313 0.000000 0.000000 0.000000
# 4 0.000000 0.000000 0.000000 0.027322 0.000000 0.000000
# 5 0.000000 0.000000 0.000000 0.000000 0.465864 0.000000
# 6 0.000000 0.000000 0.000000 0.000000 0.000000 0.055445
#
#
# Mechanical properties :
#
#
# Convention : Reuss Voigt Hill
#
# Bulk Modulus (GPa) = 27.36887 69.00682 48.18784
# Shear Modulus (GPa) = 7.23182 22.26591 14.74887
#
# Velocity S-wave (km/s) = 2.02201 3.54797 2.88761
# Velocity P-wave (km/s) = 4.57432 7.46976 6.19361
#
# Compressibility (1/GPa) = 0.03653786
#
# Stress axis : x y z
#
# Youngs Moduli (GPa) = 16.73974 95.17424 75.11338
#
# Poissons Ratio (x) = 0.60579 0.95750
# Poissons Ratio (y) = 0.10655 0.33033
# Poissons Ratio (z) = 0.21339 0.41855
#
# Static dielectric constant tensor:
#      x y z
#    x 2.697540 0.000000 0.000000 
#    y 0.000000 3.487630 0.000000 
#    z 0.000000 0.000000 3.446460 
# 
# 
# High freq. dielectric constant tensor:
#      x y z
#    x 1.615920 0.000000 0.000000 
#    y 0.000000 1.701720 0.000000 
#    z 0.000000 0.000000 1.699770 
# 
# From -- ./inp_files/26508.got.cif
#   From: 2010.03.12/outbox.cif.g09.slc.cpg/sg59_14_cif.got.tgz:26508.got - 2010.04.16 16:29:54.
