data_PCOD8242757
_publ_section_title
;
Structure prediction by ZEFSAII (Michael W. Deem and Ramdas Pophale) SiO2 
 PCOD8242757
Probable space group: P M M N
;
_chemical_formula_sum "Si O2"
_cell_formula_units_Z 64
_cell_length_a 15.020298
_cell_length_b 9.064289
_cell_length_c 24.129773
_cell_angle_alpha 90.000000
_cell_angle_beta 90.000000
_cell_angle_gamma 90.000000
_cell_volume 3285.228103
_symmetry_space_group_name_H-M "P M M N"
_symmetry_group_IT_number 59
_space_group.IT_coordinate_system_code '2'
_symmetry_cell_setting 'orthorhombic'
loop_
_space_group_symop_operation_xyz
x,y,z
1/2-x,1/2-y,z
1/2+x,-y,-z
-x,1/2+y,-z
-x,-y,-z
1/2+x,1/2+y,-z
1/2-x,y,z
x,1/2-y,z
loop_
_atom_site_type_symbol
_atom_site_label
_atom_site_fract_x
_atom_site_fract_y
_atom_site_fract_z
Si Si1 0.597258 0.085132 0.890160
Si Si2 0.516301 0.075197 0.705194
Si Si3 0.998509 0.423076 0.579537
Si Si4 0.153867 0.075214 0.768384
Si Si5 0.354128 0.923978 0.510848
Si Si6 0.893220 0.585665 0.115291
Si Si7 0.649588 0.915705 0.785014
Si Si8 0.647031 0.582300 0.996294
O O1 0.638097 0.250000 0.892711
O O2 0.496561 0.091088 0.870144
O O3 0.650373 0.988873 0.845735
O O4 0.596912 0.014430 0.950963
O O5 0.523485 0.250000 0.710891
O O6 0.523086 0.025068 0.641644
O O7 0.422761 0.012505 0.728755
O O8 0.595919 0.006544 0.739737
O O9 0.017634 0.250000 0.575879
O O10 0.090425 0.501296 0.560652
O O11 0.910155 0.466287 0.544471
O O12 0.250000 0.034821 0.742318
O O13 0.140941 0.250000 0.773968
O O14 0.149914 0.007042 0.830877
O O15 0.250000 0.979095 0.507442
O O16 0.354479 0.750000 0.520536
O O17 0.853131 0.750000 0.108850
O O18 0.870769 0.507260 0.056709
O O19 0.750000 0.912640 0.763177
O O20 0.611081 0.750000 0.790145
O O21 0.750000 0.579301 0.981225
O O22 0.609464 0.750000 0.994652
#
# Coordination Sequence:
#
# PCOD8242757 Si02
#       8
#     8   8   8   8   8   8   8   8
#     4  11  21  35  55  77 102 134 177 227 278 331
#     4  10  20  36  58  86 115 144 183 231 278 322
#     4   9  19  34  55  84 117 150 188 234 280 327
#     4   9  16  29  52  80 108 138 175 220 270 327
#     4   9  18  34  55  80 114 157 197 230 272 326
#     4   9  17  31  51  75 101 133 174 216 265 330
#     4  11  24  40  57  78 107 146 188 228 275 333
#     4  10  20  33  50  74 102 133 171 215 269 335
#
# _framework density 19.481141999999998
#
# number of rings (size 3 to 8) (size 9 to 14) (size 15 to 20)
#    0.000    2.250    1.250    1.875    0.000    6.000 
#    0.000    3.125    0.000    0.375    0.000    0.000 
#    0.000    0.000    0.000    0.000    0.000    0.000 
#
# Total GULP energy -793295.514427 kJ/mol
# GULP energy per Si atom -12395.242413 kJ/mol
# Density = 1.943680 g / cm^3
# Si number density = 19.481142 Si / 1000 Ang^3
#
#
#
# Elastic Constant Matrix: (Units=GPa)
#
#
# Indices 1 2 3 4 5 6 
#
# 1 107.0181 21.9454 36.4423 0.0000 0.0000 0.0000
# 2 21.9454 49.1252 34.6604 0.0000 0.0000 0.0000
# 3 36.4423 34.6604 129.6905 0.0000 0.0000 0.0000
# 4 0.0000 0.0000 0.0000 20.6378 0.0000 0.0000
# 5 0.0000 0.0000 0.0000 0.0000 16.5179 0.0000
# 6 0.0000 0.0000 0.0000 0.0000 0.0000 22.7433
#
#
#
# Elastic Compliance Matrix: (Units=1/GPa)
#
#
# Indices 1 2 3 4 5 6 
#
# 1 0.010748 -0.003291 -0.002141 0.000000 0.000000 0.000000
# 2 -0.003291 0.026094 -0.006049 0.000000 0.000000 0.000000
# 3 -0.002141 -0.006049 0.009929 0.000000 0.000000 0.000000
# 4 0.000000 0.000000 0.000000 0.048455 0.000000 0.000000
# 5 0.000000 0.000000 0.000000 0.000000 0.060541 0.000000
# 6 0.000000 0.000000 0.000000 0.000000 0.000000 0.043969
#
#
# Mechanical properties :
#
#
# Convention : Reuss Voigt Hill
#
# Bulk Modulus (GPa) = 41.99979 52.43668 47.21824
# Shear Modulus (GPa) = 21.67941 24.83216 23.25578
#
# Velocity S-wave (km/s) = 3.33955 3.57413 3.45883
# Velocity P-wave (km/s) = 6.03954 6.63383 6.34365
#
# Compressibility (1/GPa) = 0.02380964
#
# Stress axis : x y z
#
# Youngs Moduli (GPa) = 93.04047 38.32254 100.71723
#
# Poissons Ratio (x) = 0.12612 0.21559
# Poissons Ratio (y) = 0.30621 0.60924
# Poissons Ratio (z) = 0.19916 0.23181
#
# Static dielectric constant tensor:
#      x y z
#    x 3.601100 0.000000 0.000000 
#    y 0.000000 3.301150 0.000000 
#    z 0.000000 0.000000 3.621090 
# 
# 
# High freq. dielectric constant tensor:
#      x y z
#    x 1.766810 0.000000 0.000000 
#    y 0.000000 1.721260 0.000000 
#    z 0.000000 0.000000 1.761170 
# 
# From -- ./inp_files/32267.got.cif
#   From: 2010.03.12/outbox.cif.g09.slc.cpg/sg59_17_cif.got.tgz:32267.got - 2010.04.16 16:29:54.
