data_PCOD8242687
_publ_section_title
;
Structure prediction by ZEFSAII (Michael W. Deem and Ramdas Pophale) SiO2 
 PCOD8242687
Probable space group: P M M N
;
_chemical_formula_sum "Si O2"
_cell_formula_units_Z 48
_cell_length_a 25.398360
_cell_length_b 8.837462
_cell_length_c 11.805710
_cell_angle_alpha 90.000000
_cell_angle_beta 90.000000
_cell_angle_gamma 90.000000
_cell_volume 2649.874738
_symmetry_space_group_name_H-M "P M M N"
_symmetry_group_IT_number 59
_space_group.IT_coordinate_system_code '2'
_symmetry_cell_setting 'orthorhombic'
loop_
_space_group_symop_operation_xyz
x,y,z
1/2-x,1/2-y,z
1/2+x,-y,-z
-x,1/2+y,-z
-x,-y,-z
1/2+x,1/2+y,-z
1/2-x,y,z
x,1/2-y,z
loop_
_atom_site_type_symbol
_atom_site_label
_atom_site_fract_x
_atom_site_fract_y
_atom_site_fract_z
Si Si1 0.600398 0.572488 0.771992
Si Si2 0.557562 0.070955 0.994376
Si Si3 0.811222 0.424007 0.634814
Si Si4 0.997555 0.571588 0.621910
Si Si5 0.904255 0.429354 0.235526
Si Si6 0.808069 0.430166 0.379199
O O1 0.598142 0.750000 0.796456
O O2 0.591032 0.486286 0.888926
O O3 0.656829 0.526927 0.722379
O O4 0.556134 0.521887 0.682608
O O5 0.550585 0.250000 0.989531
O O6 0.590569 0.020612 0.105291
O O7 0.500000 0.000000 0.000000
O O8 0.750000 0.443595 0.663738
O O9 0.828659 0.250000 0.649200
O O10 0.822860 0.480600 0.506848
O O11 0.001272 0.750000 0.609253
O O12 0.000000 0.500000 0.500000
O O13 0.045805 0.507001 0.695727
O O14 0.903292 0.250000 0.245723
O O15 0.850713 0.496605 0.290747
O O16 0.750000 0.492674 0.346351
O O17 0.806770 0.250000 0.376250
#
# Coordination Sequence:
#
# PCOD8242687 Si02
#       6
#     8   8   8   8   8   8
#     4  11  22  36  53  77 108 142 182 223 270 327
#     4  11  21  36  55  75 104 145 185 226 273 322
#     4   9  18  34  57  83 108 138 177 217 263 323
#     4  10  20  33  49  74 105 136 172 218 271 326
#     4   9  17  31  49  71 104 137 172 218 265 312
#     4   8  14  27  51  80 106 133 167 212 267 320
#
# _framework density 18.114065
#
# number of rings (size 3 to 8) (size 9 to 14) (size 15 to 20)
#    0.000    2.333    1.667    3.000    0.000    3.000 
#    0.000    0.833    0.000    4.000    0.000    0.000 
#    0.000    0.000    0.000    0.000    0.000    0.000 
#
# Total GULP energy -595175.977288 kJ/mol
# GULP energy per Si atom -12399.499527 kJ/mol
# Density = 1.807284 g / cm^3
# Si number density = 18.114065 Si / 1000 Ang^3
#
#
#
# Elastic Constant Matrix: (Units=GPa)
#
#
# Indices 1 2 3 4 5 6 
#
# 1 119.8837 30.0475 75.7345 0.0000 0.0000 0.0000
# 2 30.0475 39.6086 40.2185 0.0000 0.0000 0.0000
# 3 75.7345 40.2185 158.8065 0.0000 0.0000 0.0000
# 4 0.0000 0.0000 0.0000 25.5803 0.0000 0.0000
# 5 0.0000 0.0000 0.0000 0.0000 30.6907 0.0000
# 6 0.0000 0.0000 0.0000 0.0000 0.0000 23.3194
#
#
#
# Elastic Compliance Matrix: (Units=1/GPa)
#
#
# Indices 1 2 3 4 5 6 
#
# 1 0.012539 -0.004631 -0.004807 0.000000 0.000000 0.000000
# 2 -0.004631 0.035698 -0.006832 0.000000 0.000000 0.000000
# 3 -0.004807 -0.006832 0.010320 0.000000 0.000000 0.000000
# 4 0.000000 0.000000 0.000000 0.039093 0.000000 0.000000
# 5 0.000000 0.000000 0.000000 0.000000 0.032583 0.000000
# 6 0.000000 0.000000 0.000000 0.000000 0.000000 0.042883
#
#
# Mechanical properties :
#
#
# Convention : Reuss Voigt Hill
#
# Bulk Modulus (GPa) = 38.43808 67.81110 53.12459
# Shear Modulus (GPa) = 23.32890 27.40464 25.36677
#
# Velocity S-wave (km/s) = 3.59261 3.89381 3.74624
# Velocity P-wave (km/s) = 6.20284 7.59820 6.93570
#
# Compressibility (1/GPa) = 0.02601587
#
# Stress axis : x y z
#
# Youngs Moduli (GPa) = 79.75227 28.01316 96.90315
#
# Poissons Ratio (x) = 0.12973 0.46580
# Poissons Ratio (y) = 0.36935 0.66204
# Poissons Ratio (z) = 0.38336 0.19138
#
# Static dielectric constant tensor:
#      x y z
#    x 3.295670 0.000000 0.000000 
#    y 0.000000 3.033850 0.000000 
#    z 0.000000 0.000000 3.660980 
# 
# 
# High freq. dielectric constant tensor:
#      x y z
#    x 1.706680 0.000000 0.000000 
#    y 0.000000 1.670170 0.000000 
#    z 0.000000 0.000000 1.706200 
# 
# From -- ./inp_files/14293.got.cif
#   From: 2010.03.12/outbox.cif.g09.slc.cpg/sg59_8_cif.got.tgz:14293.got - 2010.04.16 16:29:54.
