data_PCOD8242952
_publ_section_title
;
Structure prediction by ZEFSAII (Michael W. Deem and Ramdas Pophale) SiO2 
 PCOD8242952
Probable space group: P M M N
;
_chemical_formula_sum "Si O2"
_cell_formula_units_Z 56
_cell_length_a 22.049644
_cell_length_b 15.545075
_cell_length_c 7.675486
_cell_angle_alpha 90.000000
_cell_angle_beta 90.000000
_cell_angle_gamma 90.000000
_cell_volume 2630.875445
_symmetry_space_group_name_H-M "P M M N"
_symmetry_group_IT_number 59
_space_group.IT_coordinate_system_code '2'
_symmetry_cell_setting 'orthorhombic'
loop_
_space_group_symop_operation_xyz
x,y,z
1/2-x,1/2-y,z
1/2+x,-y,-z
-x,1/2+y,-z
-x,-y,-z
1/2+x,1/2+y,-z
1/2-x,y,z
x,1/2-y,z
loop_
_atom_site_type_symbol
_atom_site_label
_atom_site_fract_x
_atom_site_fract_y
_atom_site_fract_z
Si Si1 0.314114 0.480055 0.161335
Si Si2 0.419783 0.347601 0.538832
Si Si3 0.183133 0.025726 0.558103
Si Si4 0.179607 0.655289 0.701348
Si Si5 0.856942 0.156970 0.918557
Si Si6 0.058286 0.420210 0.157844
Si Si7 0.987865 0.108976 0.828501
O O1 0.250000 0.451195 0.070594
O O2 0.312140 0.449190 0.358174
O O3 0.315366 0.583600 0.163552
O O4 0.374489 0.440580 0.075871
O O5 0.395411 0.250000 0.542015
O O6 0.368721 0.409702 0.627435
O O7 0.437565 0.369538 0.339345
O O8 0.479175 0.355317 0.657666
O O9 0.250000 0.040562 0.645767
O O10 0.162855 0.925433 0.577564
O O11 0.250000 0.651052 0.755040
O O12 0.165598 0.750000 0.615586
O O13 0.139293 0.643144 0.873409
O O14 0.827668 0.250000 0.875982
O O15 0.923981 0.156020 0.839722
O O16 0.021180 0.507087 0.194238
O O17 0.025037 0.367586 0.005229
#
# Coordination Sequence:
#
# PCOD8242952 Si02
#       7
#     8   8   8   8   8   8   8
#     4   9  18  34  55  81 108 141 184 231 291 351
#     4  11  23  38  60  86 118 158 202 248 294 349
#     4   9  20  37  57  81 113 150 193 244 297 351
#     4   9  18  33  54  81 112 148 188 233 292 359
#     4  10  20  33  51  82 116 145 181 230 290 355
#     4   9  21  39  61  84 112 153 196 247 301 344
#     4  10  21  39  61  83 116 154 198 246 291 355
#
# _framework density 21.285689999999999
#
# number of rings (size 3 to 8) (size 9 to 14) (size 15 to 20)
#    0.000    2.429    0.000    1.286    6.000    2.857 
#    0.000    1.429    0.000    0.000    0.000    2.000 
#    0.000    0.000    0.000    0.000    0.000    0.000 
#
# Total GULP energy -693853.490726 kJ/mol
# GULP energy per Si atom -12390.240906 kJ/mol
# Density = 2.123724 g / cm^3
# Si number density = 21.285690 Si / 1000 Ang^3
#
#
#
# Elastic Constant Matrix: (Units=GPa)
#
#
# Indices 1 2 3 4 5 6 
#
# 1 88.9806 22.8748 21.9288 0.0000 0.0000 0.0000
# 2 22.8748 98.3277 17.9773 0.0000 0.0000 0.0000
# 3 21.9288 17.9773 56.4373 0.0000 0.0000 0.0000
# 4 0.0000 0.0000 0.0000 17.2845 0.0000 0.0000
# 5 0.0000 0.0000 0.0000 0.0000 25.8517 0.0000
# 6 0.0000 0.0000 0.0000 0.0000 0.0000 19.1496
#
#
#
# Elastic Compliance Matrix: (Units=1/GPa)
#
#
# Indices 1 2 3 4 5 6 
#
# 1 0.012864 -0.002207 -0.004295 0.000000 0.000000 0.000000
# 2 -0.002207 0.011178 -0.002703 0.000000 0.000000 0.000000
# 3 -0.004295 -0.002703 0.020249 0.000000 0.000000 0.000000
# 4 0.000000 0.000000 0.000000 0.057855 0.000000 0.000000
# 5 0.000000 0.000000 0.000000 0.000000 0.038682 0.000000
# 6 0.000000 0.000000 0.000000 0.000000 0.000000 0.052220
#
#
# Mechanical properties :
#
#
# Convention : Reuss Voigt Hill
#
# Bulk Modulus (GPa) = 38.64035 41.03416 39.83725
# Shear Modulus (GPa) = 22.71832 24.52146 23.61989
#
# Velocity S-wave (km/s) = 3.27051 3.39782 3.33477
# Velocity P-wave (km/s) = 5.69686 5.89179 5.79515
#
# Compressibility (1/GPa) = 0.02587968
#
# Stress axis : x y z
#
# Youngs Moduli (GPa) = 77.73351 89.46330 49.38589
#
# Poissons Ratio (x) = 0.19749 0.21213
# Poissons Ratio (y) = 0.17159 0.13348
# Poissons Ratio (z) = 0.33389 0.24180
#
# Static dielectric constant tensor:
#      x y z
#    x 4.287010 0.000000 0.000000 
#    y 0.000000 3.794670 0.000000 
#    z 0.000000 0.000000 3.563320 
# 
# 
# High freq. dielectric constant tensor:
#      x y z
#    x 1.839360 0.000000 0.000000 
#    y 0.000000 1.819800 0.000000 
#    z 0.000000 0.000000 1.815570 
# 
# From -- ./inp_files/11462.got.cif
#   From: 2010.03.12/outbox.cif.g09.slc.cpg/sg59_6_cif.got.tgz:11462.got - 2010.04.16 16:29:54.
