data_PCOD8242419
_publ_section_title
;
Structure prediction by ZEFSAII (Michael W. Deem and Ramdas Pophale) SiO2 
 PCOD8242419
Probable space group: P M M N
;
_chemical_formula_sum "Si O2"
_cell_formula_units_Z 64
_cell_length_a 18.318545
_cell_length_b 9.483512
_cell_length_c 20.523900
_cell_angle_alpha 90.000000
_cell_angle_beta 90.000000
_cell_angle_gamma 90.000000
_cell_volume 3565.496904
_symmetry_space_group_name_H-M "P M M N"
_symmetry_group_IT_number 59
_space_group.IT_coordinate_system_code '2'
_symmetry_cell_setting 'orthorhombic'
loop_
_space_group_symop_operation_xyz
x,y,z
1/2-x,1/2-y,z
1/2+x,-y,-z
-x,1/2+y,-z
-x,-y,-z
1/2+x,1/2+y,-z
1/2-x,y,z
x,1/2-y,z
loop_
_atom_site_type_symbol
_atom_site_label
_atom_site_fract_x
_atom_site_fract_y
_atom_site_fract_z
Si Si1 0.166196 0.413092 0.255277
Si Si2 0.573928 0.083506 0.495435
Si Si3 0.167949 0.917682 0.768385
Si Si4 0.573154 0.082575 0.113775
Si Si5 0.407502 0.084058 0.120859
Si Si6 0.833988 0.087181 0.621502
Si Si7 0.331292 0.582646 0.624031
Si Si8 0.334414 0.913513 0.009495
O O1 0.250000 0.452468 0.239207
O O2 0.158238 0.250000 0.273084
O O3 0.116590 0.453286 0.193888
O O4 0.136471 0.499625 0.316958
O O5 0.558987 0.250000 0.491481
O O6 0.622047 0.043387 0.557679
O O7 0.614379 0.025219 0.430941
O O8 0.500000 0.000000 0.500000
O O9 0.250000 0.973329 0.782126
O O10 0.168294 0.750000 0.772701
O O11 0.112780 0.981225 0.822118
O O12 0.141992 0.965240 0.696096
O O13 0.574526 0.250000 0.117937
O O14 0.490020 0.028639 0.110721
O O15 0.616462 0.030272 0.050187
O O16 0.400240 0.250000 0.107040
O O17 0.353694 0.003222 0.072741
O O18 0.750000 0.050599 0.607361
O O19 0.844793 0.250000 0.638690
O O20 0.250000 0.522855 0.611048
O O21 0.328322 0.750000 0.619863
O O22 0.250000 0.936638 0.991103
O O23 0.350610 0.750000 0.024108
#
# Coordination Sequence:
#
# PCOD8242419 Si02
#       8
#     8   8   8   8   8   8   8   8
#     4   9  18  32  49  70  95 122 155 196 240 286
#     4  10  20  32  47  70 100 129 158 196 239 283
#     4   8  13  23  42  68  95 121 152 192 235 277
#     4   9  17  29  45  68  98 127 154 189 237 286
#     4  10  20  33  50  72  99 128 156 192 239 289
#     4   9  18  33  52  71  93 126 166 204 241 282
#     4   8  14  26  46  70  93 120 156 195 232 272
#     4  10  20  33  50  71  95 125 161 199 235 275
#
# _framework density 17.949812999999999
#
# number of rings (size 3 to 8) (size 9 to 14) (size 15 to 20)
#    0.000    2.875    0.000    2.250    0.000    5.750 
#    0.000    3.750    0.000    1.125    0.000    0.875 
#    0.000    2.000    0.000    0.000    0.000    0.000 
#
# Total GULP energy -793510.394452 kJ/mol
# GULP energy per Si atom -12398.599913 kJ/mol
# Density = 1.790896 g / cm^3
# Si number density = 17.949813 Si / 1000 Ang^3
#
#
#
# Elastic Constant Matrix: (Units=GPa)
#
#
# Indices 1 2 3 4 5 6 
#
# 1 90.7763 29.2849 57.4002 0.0000 0.0000 0.0000
# 2 29.2849 29.7260 42.6447 0.0000 0.0000 0.0000
# 3 57.4002 42.6447 135.1980 0.0000 0.0000 0.0000
# 4 0.0000 0.0000 0.0000 21.7288 0.0000 0.0000
# 5 0.0000 0.0000 0.0000 0.0000 25.9249 0.0000
# 6 0.0000 0.0000 0.0000 0.0000 0.0000 22.5567
#
#
#
# Elastic Compliance Matrix: (Units=1/GPa)
#
#
# Indices 1 2 3 4 5 6 
#
# 1 0.017028 -0.011697 -0.003540 0.000000 0.000000 0.000000
# 2 -0.011697 0.069480 -0.016949 0.000000 0.000000 0.000000
# 3 -0.003540 -0.016949 0.014246 0.000000 0.000000 0.000000
# 4 0.000000 0.000000 0.000000 0.046022 0.000000 0.000000
# 5 0.000000 0.000000 0.000000 0.000000 0.038573 0.000000
# 6 0.000000 0.000000 0.000000 0.000000 0.000000 0.044333
#
#
# Mechanical properties :
#
#
# Convention : Reuss Voigt Hill
#
# Bulk Modulus (GPa) = 27.48711 57.15110 42.31911
# Shear Modulus (GPa) = 16.33024 22.46678 19.39851
#
# Velocity S-wave (km/s) = 3.01952 3.54170 3.29098
# Velocity P-wave (km/s) = 5.24435 6.97376 6.16995
#
# Compressibility (1/GPa) = 0.03638069
#
# Stress axis : x y z
#
# Youngs Moduli (GPa) = 58.72692 14.39272 70.19616
#
# Poissons Ratio (x) = 0.16835 0.24849
# Poissons Ratio (y) = 0.68692 1.18979
# Poissons Ratio (z) = 0.20789 0.24395
#
# Static dielectric constant tensor:
#      x y z
#    x 3.412540 0.000000 0.000000 
#    y 0.000000 2.885930 0.000000 
#    z 0.000000 0.000000 3.580540 
# 
# 
# High freq. dielectric constant tensor:
#      x y z
#    x 1.698060 0.000000 0.000000 
#    y 0.000000 1.644500 0.000000 
#    z 0.000000 0.000000 1.710210 
# 
# From -- ./inp_files/28301.got.cif
#   From: 2010.03.12/outbox.cif.g09.slc.cpg/sg59_15_cif.got.tgz:28301.got - 2010.04.16 16:29:54.
