data_PCOD8242051
_publ_section_title
;
Structure prediction by ZEFSAII (Michael W. Deem and Ramdas Pophale) SiO2 
 PCOD8242051
Probable space group: P M M N
;
_chemical_formula_sum "Si O2"
_cell_formula_units_Z 64
_cell_length_a 18.069204
_cell_length_b 20.447843
_cell_length_c 7.909973
_cell_angle_alpha 90.000000
_cell_angle_beta 90.000000
_cell_angle_gamma 90.000000
_cell_volume 2922.547134
_symmetry_space_group_name_H-M "P M M N"
_symmetry_group_IT_number 59
_space_group.IT_coordinate_system_code '2'
_symmetry_cell_setting 'orthorhombic'
loop_
_space_group_symop_operation_xyz
x,y,z
1/2-x,1/2-y,z
1/2+x,-y,-z
-x,1/2+y,-z
-x,-y,-z
1/2+x,1/2+y,-z
1/2-x,y,z
x,1/2-y,z
loop_
_atom_site_type_symbol
_atom_site_label
_atom_site_fract_x
_atom_site_fract_y
_atom_site_fract_z
Si Si1 0.969685 0.375626 0.238109
Si Si2 0.665536 0.061725 0.647741
Si Si3 0.443510 0.012470 0.149768
Si Si4 0.332651 0.437367 0.576562
Si Si5 0.666136 0.174221 0.398045
Si Si6 0.834286 0.595781 0.050424
Si Si7 0.557433 0.676374 0.466715
Si Si8 0.966762 0.823221 0.095426
O O1 0.881852 0.364650 0.256921
O O2 0.004619 0.447255 0.284317
O O3 0.002749 0.324221 0.373113
O O4 0.988637 0.366480 0.039628
O O5 0.750000 0.053318 0.720564
O O6 0.657491 0.134784 0.573942
O O7 0.597230 0.052667 0.779923
O O8 0.648676 0.007198 0.505185
O O9 0.372494 0.055971 0.099555
O O10 0.500000 0.000000 0.000000
O O11 0.250000 0.415878 0.532073
O O12 0.342079 0.446448 0.777917
O O13 0.380554 0.378056 0.501727
O O14 0.750000 0.170086 0.331659
O O15 0.642685 0.250000 0.425660
O O16 0.750000 0.611481 0.001812
O O17 0.878512 0.663738 0.075915
O O18 0.591164 0.750000 0.452841
O O19 0.512791 0.660867 0.291262
O O20 0.985386 0.750000 0.045482
#
# Coordination Sequence:
#
# PCOD8242051 Si02
#       8
#     8   8   8   8   8   8   8   8
#     4  11  22  40  64  87 127 166 205 264 318 380
#     4  10  21  40  66  94 126 163 205 265 325 384
#     4  11  24  39  60  95 127 161 211 262 319 387
#     4   9  18  34  57  88 125 165 207 251 305 367
#     4  10  23  42  66  95 122 159 214 271 335 399
#     4   9  19  35  56  82 122 165 201 249 302 361
#     4  10  19  34  59  90 128 173 209 251 304 363
#     4   9  19  34  56  90 126 163 210 248 298 368
#
# _framework density 21.898707000000002
#
# number of rings (size 3 to 8) (size 9 to 14) (size 15 to 20)
#    0.000    2.125    1.250    1.500    1.750    4.000 
#    0.000    3.125    0.000    3.750    0.000    8.750 
#    0.000    0.000    0.000    0.000    0.000    0.000 
#
# Total GULP energy -792849.337524 kJ/mol
# GULP energy per Si atom -12388.270899 kJ/mol
# Density = 2.184886 g / cm^3
# Si number density = 21.898707 Si / 1000 Ang^3
#
#
#
# Elastic Constant Matrix: (Units=GPa)
#
#
# Indices 1 2 3 4 5 6 
#
# 1 121.7281 43.5405 44.4233 0.0000 0.0000 0.0000
# 2 43.5405 82.5432 21.9940 0.0000 0.0000 0.0000
# 3 44.4233 21.9940 81.4493 0.0000 0.0000 0.0000
# 4 0.0000 0.0000 0.0000 25.2424 0.0000 0.0000
# 5 0.0000 0.0000 0.0000 0.0000 37.7427 0.0000
# 6 0.0000 0.0000 0.0000 0.0000 0.0000 25.7989
#
#
#
# Elastic Compliance Matrix: (Units=1/GPa)
#
#
# Indices 1 2 3 4 5 6 
#
# 1 0.011833 -0.004873 -0.005138 0.000000 0.000000 0.000000
# 2 -0.004873 0.015061 -0.001409 0.000000 0.000000 0.000000
# 3 -0.005138 -0.001409 0.015460 0.000000 0.000000 0.000000
# 4 0.000000 0.000000 0.000000 0.039616 0.000000 0.000000
# 5 0.000000 0.000000 0.000000 0.000000 0.026495 0.000000
# 6 0.000000 0.000000 0.000000 0.000000 0.000000 0.038761
#
#
# Mechanical properties :
#
#
# Convention : Reuss Voigt Hill
#
# Bulk Modulus (GPa) = 51.24496 56.18178 53.71337
# Shear Modulus (GPa) = 28.31719 29.47433 28.89576
#
# Velocity S-wave (km/s) = 3.59987 3.67268 3.63646
# Velocity P-wave (km/s) = 6.38204 6.61028 6.49716
#
# Compressibility (1/GPa) = 0.01951412
#
# Stress axis : x y z
#
# Youngs Moduli (GPa) = 84.50942 66.39823 64.68110
#
# Poissons Ratio (x) = 0.32354 0.33233
# Poissons Ratio (y) = 0.41179 0.09115
# Poissons Ratio (z) = 0.43421 0.09357
#
# Static dielectric constant tensor:
#      x y z
#    x 4.087720 0.000000 0.000000 
#    y 0.000000 4.027250 0.000000 
#    z 0.000000 0.000000 3.908330 
# 
# 
# High freq. dielectric constant tensor:
#      x y z
#    x 1.861730 0.000000 0.000000 
#    y 0.000000 1.858540 0.000000 
#    z 0.000000 0.000000 1.845740 
# 
# From -- ./inp_files/10661.got.cif
#   From: 2010.03.12/outbox.cif.g09.slc.cpg/sg59_6_cif.got.tgz:10661.got - 2010.04.16 16:29:54.
