data_PCOD8242164
_publ_section_title
;
Structure prediction by ZEFSAII (Michael W. Deem and Ramdas Pophale) SiO2 
 PCOD8242164
Probable space group: P M M N
;
_chemical_formula_sum "Si O2"
_cell_formula_units_Z 48
_cell_length_a 18.261788
_cell_length_b 7.767002
_cell_length_c 18.158810
_cell_angle_alpha 90.000000
_cell_angle_beta 90.000000
_cell_angle_gamma 90.000000
_cell_volume 2575.633697
_symmetry_space_group_name_H-M "P M M N"
_symmetry_group_IT_number 59
_space_group.IT_coordinate_system_code '2'
_symmetry_cell_setting 'orthorhombic'
loop_
_space_group_symop_operation_xyz
x,y,z
1/2-x,1/2-y,z
1/2+x,-y,-z
-x,1/2+y,-z
-x,-y,-z
1/2+x,1/2+y,-z
1/2-x,y,z
x,1/2-y,z
loop_
_atom_site_type_symbol
_atom_site_label
_atom_site_fract_x
_atom_site_fract_y
_atom_site_fract_z
Si Si1 0.665796 0.052604 0.669685
Si Si2 0.476389 0.548392 0.919035
Si Si3 0.609834 0.056030 0.299360
Si Si4 0.328842 0.952990 0.855696
Si Si5 0.663913 0.750000 0.563893
Si Si6 0.534431 0.445111 0.770187
Si Si7 0.162200 0.250000 0.602202
O O1 0.750000 0.015806 0.692030
O O2 0.656194 0.250000 0.642210
O O3 0.616286 0.014783 0.741550
O O4 0.638526 0.923973 0.605603
O O5 0.473519 0.750000 0.908873
O O6 0.395248 0.468771 0.904170
O O7 0.533137 0.477885 0.858158
O O8 0.500000 0.500000 0.000000
O O9 0.628437 0.250000 0.326464
O O10 0.659017 0.001919 0.229707
O O11 0.524890 0.057305 0.274153
O O12 0.628106 0.922540 0.363448
O O13 0.250000 0.031753 0.879973
O O14 0.327412 0.750000 0.866558
O O15 0.750000 0.750000 0.558485
O O16 0.632744 0.750000 0.481496
O O17 0.512735 0.250000 0.753737
O O18 0.250000 0.250000 0.608974
#
# Coordination Sequence:
#
# PCOD8242164 Si02
#       7
#     8   8   8   8   4   8   4
#     4   9  19  36  59  83 105 140 191 235 276 327
#     4  10  20  33  52  78 109 144 177 219 275 329
#     4  10  20  34  54  80 113 146 182 226 275 330
#     4   8  15  30  52  75  97 134 182 219 260 316
#     4   9  20  36  56  80 111 144 180 233 287 330
#     4  10  19  35  60  81 107 142 182 232 273 329
#     4  11  22  36  54  82 112 144 186 227 278 336
#
# _framework density 18.636191
#
# number of rings (size 3 to 8) (size 9 to 14) (size 15 to 20)
#    0.000    2.500    0.833    2.500    2.333    1.667 
#    0.000    3.333    0.000    5.000    0.000    0.000 
#    0.000    0.000    0.000    0.000    0.000    0.000 
#
# Total GULP energy -594944.653610 kJ/mol
# GULP energy per Si atom -12394.680284 kJ/mol
# Density = 1.859377 g / cm^3
# Si number density = 18.636191 Si / 1000 Ang^3
#
#
#
# Elastic Constant Matrix: (Units=GPa)
#
#
# Indices 1 2 3 4 5 6 
#
# 1 103.9187 36.8196 71.1890 0.0000 0.0000 0.0000
# 2 36.8196 84.6878 52.6072 0.0000 0.0000 0.0000
# 3 71.1890 52.6072 148.1439 0.0000 0.0000 0.0000
# 4 0.0000 0.0000 0.0000 29.1594 0.0000 0.0000
# 5 0.0000 0.0000 0.0000 0.0000 23.1834 0.0000
# 6 0.0000 0.0000 0.0000 0.0000 0.0000 19.8846
#
#
#
# Elastic Compliance Matrix: (Units=1/GPa)
#
#
# Indices 1 2 3 4 5 6 
#
# 1 0.014773 -0.002583 -0.006182 0.000000 0.000000 0.000000
# 2 -0.002583 0.015602 -0.004299 0.000000 0.000000 0.000000
# 3 -0.006182 -0.004299 0.011247 0.000000 0.000000 0.000000
# 4 0.000000 0.000000 0.000000 0.034294 0.000000 0.000000
# 5 0.000000 0.000000 0.000000 0.000000 0.043134 0.000000
# 6 0.000000 0.000000 0.000000 0.000000 0.000000 0.050290
#
#
# Mechanical properties :
#
#
# Convention : Reuss Voigt Hill
#
# Bulk Modulus (GPa) = 64.53888 73.10911 68.82399
# Shear Modulus (GPa) = 24.92118 26.18780 25.55449
#
# Velocity S-wave (km/s) = 3.66081 3.75268 3.70703
# Velocity P-wave (km/s) = 7.25085 7.62179 7.43863
#
# Compressibility (1/GPa) = 0.01549454
#
# Stress axis : x y z
#
# Youngs Moduli (GPa) = 67.69212 64.09624 88.90906
#
# Poissons Ratio (x) = 0.16554 0.54962
# Poissons Ratio (y) = 0.17483 0.38223
# Poissons Ratio (z) = 0.41846 0.27556
#
# Static dielectric constant tensor:
#      x y z
#    x 3.568710 0.000000 0.000000 
#    y 0.000000 3.535120 0.000000 
#    z 0.000000 0.000000 3.251850 
# 
# 
# High freq. dielectric constant tensor:
#      x y z
#    x 1.719650 0.000000 0.000000 
#    y 0.000000 1.730400 0.000000 
#    z 0.000000 0.000000 1.698130 
# 
# From -- ./inp_files/23685.got.cif
#   From: 2010.03.12/outbox.cif.g09.slc.cpg/sg59_12_cif.got.tgz:23685.got - 2010.04.16 16:29:54.
