data_PCOD8242594
_publ_section_title
;
Structure prediction by ZEFSAII (Michael W. Deem and Ramdas Pophale) SiO2 
 PCOD8242594
Probable space group: P M M N
;
_chemical_formula_sum "Si O2"
_cell_formula_units_Z 64
_cell_length_a 9.231560
_cell_length_b 17.732900
_cell_length_c 21.245823
_cell_angle_alpha 90.000000
_cell_angle_beta 90.000000
_cell_angle_gamma 90.000000
_cell_volume 3477.990735
_symmetry_space_group_name_H-M "P M M N"
_symmetry_group_IT_number 59
_space_group.IT_coordinate_system_code '2'
_symmetry_cell_setting 'orthorhombic'
loop_
_space_group_symop_operation_xyz
x,y,z
1/2-x,1/2-y,z
1/2+x,-y,-z
-x,1/2+y,-z
-x,-y,-z
1/2+x,1/2+y,-z
1/2-x,y,z
x,1/2-y,z
loop_
_atom_site_type_symbol
_atom_site_label
_atom_site_fract_x
_atom_site_fract_y
_atom_site_fract_z
Si Si1 0.917442 0.833709 0.630249
Si Si2 0.079051 0.065493 0.908386
Si Si3 0.419681 0.592210 0.737204
Si Si4 0.583125 0.450007 0.693812
Si Si5 0.581012 0.337240 0.801238
Si Si6 0.416403 0.014927 0.436875
Si Si7 0.087999 0.165592 0.162749
Si Si8 0.411830 0.076531 0.048201
O O1 0.750000 0.842339 0.648867
O O2 0.948476 0.750000 0.601847
O O3 0.010517 0.844067 0.692932
O O4 0.961929 0.900121 0.582660
O O5 0.250000 0.062540 0.893258
O O6 0.004632 0.115246 0.853848
O O7 0.043395 0.100273 0.977421
O O8 0.016095 0.981342 0.914732
O O9 0.250000 0.593053 0.728570
O O10 0.476955 0.508940 0.725518
O O11 0.467574 0.611662 0.807410
O O12 0.750000 0.475609 0.702699
O O13 0.554917 0.370883 0.730153
O O14 0.548499 0.453009 0.618366
O O15 0.750000 0.342438 0.818174
O O16 0.528565 0.250000 0.800643
O O17 0.250000 0.011040 0.454836
O O18 0.500000 0.000000 0.500000
O O19 0.250000 0.147219 0.188512
O O20 0.043915 0.250000 0.178111
O O21 0.084463 0.153432 0.087739
O O22 0.250000 0.040762 0.046776
#
# Coordination Sequence:
#
# PCOD8242594 Si02
#       8
#     8   8   8   8   8   8   8   8
#     4   9  18  34  54  74 100 137 177 210 245 299
#     4  10  20  34  54  78 102 129 166 217 271 316
#     4  11  21  31  48  76 105 130 162 208 258 301
#     4   9  19  37  57  75 100 137 176 207 242 299
#     4  10  21  37  57  79 103 135 177 222 265 312
#     4   9  18  33  54  79 105 135 170 207 248 297
#     4  10  20  33  48  66  93 132 171 201 238 296
#     4   9  19  35  53  72  97 133 175 214 254 311
#
# _framework density 18.401430000000001
#
# number of rings (size 3 to 8) (size 9 to 14) (size 15 to 20)
#    0.000    2.375    0.000    3.375    0.000    9.250 
#    0.000    1.875    0.000    0.750    0.000    0.000 
#    0.000    0.000    0.000    0.000    0.000    0.000 
#
# Total GULP energy -792962.192846 kJ/mol
# GULP energy per Si atom -12390.034263 kJ/mol
# Density = 1.835955 g / cm^3
# Si number density = 18.401430 Si / 1000 Ang^3
#
#
#
# Elastic Constant Matrix: (Units=GPa)
#
#
# Indices 1 2 3 4 5 6 
#
# 1 75.0740 37.2155 46.0910 0.0000 0.0000 0.0000
# 2 37.2155 77.6613 59.0971 0.0000 0.0000 0.0000
# 3 46.0910 59.0971 130.6445 0.0000 0.0000 0.0000
# 4 0.0000 0.0000 0.0000 21.2169 0.0000 0.0000
# 5 0.0000 0.0000 0.0000 0.0000 29.8008 0.0000
# 6 0.0000 0.0000 0.0000 0.0000 0.0000 12.2039
#
#
#
# Elastic Compliance Matrix: (Units=1/GPa)
#
#
# Indices 1 2 3 4 5 6 
#
# 1 0.018673 -0.006001 -0.003873 0.000000 0.000000 0.000000
# 2 -0.006001 0.021564 -0.007637 0.000000 0.000000 0.000000
# 3 -0.003873 -0.007637 0.012476 0.000000 0.000000 0.000000
# 4 0.000000 0.000000 0.000000 0.047132 0.000000 0.000000
# 5 0.000000 0.000000 0.000000 0.000000 0.033556 0.000000
# 6 0.000000 0.000000 0.000000 0.000000 0.000000 0.081941
#
#
# Mechanical properties :
#
#
# Convention : Reuss Voigt Hill
#
# Bulk Modulus (GPa) = 56.53069 63.13190 59.83129
# Shear Modulus (GPa) = 19.51138 22.04271 20.77705
#
# Velocity S-wave (km/s) = 3.25979 3.46480 3.36385
# Velocity P-wave (km/s) = 6.70491 7.09852 6.90452
#
# Compressibility (1/GPa) = 0.01768951
#
# Stress axis : x y z
#
# Youngs Moduli (GPa) = 53.55390 46.37432 80.15646
#
# Poissons Ratio (x) = 0.27827 0.31047
# Poissons Ratio (y) = 0.32136 0.61218
# Poissons Ratio (z) = 0.20743 0.35418
#
# Static dielectric constant tensor:
#      x y z
#    x 3.360920 0.000000 0.000000 
#    y 0.000000 3.456320 0.000000 
#    z 0.000000 0.000000 3.430540 
# 
# 
# High freq. dielectric constant tensor:
#      x y z
#    x 1.708890 0.000000 0.000000 
#    y 0.000000 1.699160 0.000000 
#    z 0.000000 0.000000 1.711800 
# 
# From -- ./inp_files/29619.got.cif
#   From: 2010.03.12/outbox.cif.g09.slc.cpg/sg59_15_cif.got.tgz:29619.got - 2010.04.16 16:29:54.
