data_PCOD8242607
_publ_section_title
;
Structure prediction by ZEFSAII (Michael W. Deem and Ramdas Pophale) SiO2 
 PCOD8242607
Probable space group: P M M N
;
_chemical_formula_sum "Si O2"
_cell_formula_units_Z 64
_cell_length_a 8.671778
_cell_length_b 20.121091
_cell_length_c 17.834184
_cell_angle_alpha 90.000000
_cell_angle_beta 90.000000
_cell_angle_gamma 90.000000
_cell_volume 3111.808907
_symmetry_space_group_name_H-M "P M M N"
_symmetry_group_IT_number 59
_space_group.IT_coordinate_system_code '2'
_symmetry_cell_setting 'orthorhombic'
loop_
_space_group_symop_operation_xyz
x,y,z
1/2-x,1/2-y,z
1/2+x,-y,-z
-x,1/2+y,-z
-x,-y,-z
1/2+x,1/2+y,-z
1/2-x,y,z
x,1/2-y,z
loop_
_atom_site_type_symbol
_atom_site_label
_atom_site_fract_x
_atom_site_fract_y
_atom_site_fract_z
Si Si1 0.069351 0.039438 0.285793
Si Si2 0.582691 0.673353 0.220739
Si Si3 0.568087 0.965200 0.428031
Si Si4 0.430624 0.126345 0.932596
Si Si5 0.072207 0.823366 0.758377
Si Si6 0.073235 0.868557 0.919848
Si Si7 0.572397 0.498970 0.878933
Si Si8 0.066063 0.176550 0.617202
O O1 0.250000 0.037864 0.301079
O O2 0.024891 0.000342 0.209498
O O3 0.022001 0.117366 0.280786
O O4 0.985770 0.002208 0.353323
O O5 0.750000 0.636664 0.221810
O O6 0.612239 0.750000 0.211354
O O7 0.492155 0.649462 0.146653
O O8 0.495665 0.660867 0.299797
O O9 0.750000 0.969874 0.431253
O O10 0.515564 0.886902 0.432472
O O11 0.500000 0.000000 0.500000
O O12 0.250000 0.143250 0.938245
O O13 0.463992 0.047664 0.929781
O O14 0.519567 0.163635 0.000916
O O15 0.250000 0.835645 0.737978
O O16 0.018838 0.750000 0.729163
O O17 0.051028 0.820646 0.848750
O O18 0.250000 0.892732 0.924778
O O19 0.953351 0.928243 0.911014
O O20 0.750000 0.478730 0.888677
O O21 0.250000 0.180228 0.624631
O O22 0.007628 0.250000 0.587828
#
# Coordination Sequence:
#
# PCOD8242607 Si02
#       8
#     8   8   8   8   8   8   8   8
#     4  10  21  37  58  84 112 143 182 229 280 338
#     4   8  15  28  46  70  98 127 164 210 256 305
#     4  11  22  37  60  89 121 153 183 223 275 329
#     4  11  20  29  45  70 100 134 173 218 271 328
#     4   9  19  37  59  80 104 141 190 240 291 346
#     4  10  20  33  48  68  98 135 175 222 276 329
#     4  10  20  34  51  71  97 130 172 221 270 323
#     4   8  15  31  56  83 109 141 184 228 268 316
#
# _framework density 20.566815999999999
#
# number of rings (size 3 to 8) (size 9 to 14) (size 15 to 20)
#    0.000    2.375    0.000    3.750    0.000    3.750 
#    0.000    0.625    0.000    4.875    0.000    8.750 
#    0.000    0.000    0.000    0.000    0.000    0.000 
#
# Total GULP energy -792840.337978 kJ/mol
# GULP energy per Si atom -12388.130281 kJ/mol
# Density = 2.052000 g / cm^3
# Si number density = 20.566816 Si / 1000 Ang^3
#
#
#
# Elastic Constant Matrix: (Units=GPa)
#
#
# Indices 1 2 3 4 5 6 
#
# 1 60.3107 27.7298 27.9663 0.0000 0.0000 0.0000
# 2 27.7298 98.9191 50.8615 0.0000 0.0000 0.0000
# 3 27.9663 50.8615 91.5227 0.0000 0.0000 0.0000
# 4 0.0000 0.0000 0.0000 18.5484 0.0000 0.0000
# 5 0.0000 0.0000 0.0000 0.0000 72.9550 0.0000
# 6 0.0000 0.0000 0.0000 0.0000 0.0000 17.2771
#
#
#
# Elastic Compliance Matrix: (Units=1/GPa)
#
#
# Indices 1 2 3 4 5 6 
#
# 1 0.020136 -0.003474 -0.004223 0.000000 0.000000 0.000000
# 2 -0.003474 0.014753 -0.007137 0.000000 0.000000 0.000000
# 3 -0.004223 -0.007137 0.016183 0.000000 0.000000 0.000000
# 4 0.000000 0.000000 0.000000 0.053913 0.000000 0.000000
# 5 0.000000 0.000000 0.000000 0.000000 0.013707 0.000000
# 6 0.000000 0.000000 0.000000 0.000000 0.000000 0.057880
#
#
# Mechanical properties :
#
#
# Convention : Reuss Voigt Hill
#
# Bulk Modulus (GPa) = 46.71787 51.54087 49.12937
# Shear Modulus (GPa) = 23.43317 31.36909 27.40113
#
# Velocity S-wave (km/s) = 3.37911 3.90965 3.65403
# Velocity P-wave (km/s) = 6.16352 6.74501 6.46081
#
# Compressibility (1/GPa) = 0.02140509
#
# Stress axis : x y z
#
# Youngs Moduli (GPa) = 49.66259 67.78431 61.79419
#
# Poissons Ratio (x) = 0.23545 0.26093
# Poissons Ratio (y) = 0.17251 0.44103
# Poissons Ratio (z) = 0.20970 0.48378
#
# Static dielectric constant tensor:
#      x y z
#    x 3.208620 0.000000 0.000000 
#    y 0.000000 3.814270 0.000000 
#    z 0.000000 0.000000 3.898130 
# 
# 
# High freq. dielectric constant tensor:
#      x y z
#    x 1.776240 0.000000 0.000000 
#    y 0.000000 1.802510 0.000000 
#    z 0.000000 0.000000 1.794960 
# 
# From -- ./inp_files/26338.got.cif
#   From: 2010.03.12/outbox.cif.g09.slc.cpg/sg59_14_cif.got.tgz:26338.got - 2010.04.16 16:29:54.
