data_PCOD8242040
_publ_section_title
;
Structure prediction by ZEFSAII (Michael W. Deem and Ramdas Pophale) SiO2 
 PCOD8242040
Probable space group: P M M N
;
_chemical_formula_sum "Si O2"
_cell_formula_units_Z 52
_cell_length_a 18.472147
_cell_length_b 17.582323
_cell_length_c 8.666625
_cell_angle_alpha 90.000000
_cell_angle_beta 90.000000
_cell_angle_gamma 90.000000
_cell_volume 2814.774678
_symmetry_space_group_name_H-M "P M M N"
_symmetry_group_IT_number 59
_space_group.IT_coordinate_system_code '2'
_symmetry_cell_setting 'orthorhombic'
loop_
_space_group_symop_operation_xyz
x,y,z
1/2-x,1/2-y,z
1/2+x,-y,-z
-x,1/2+y,-z
-x,-y,-z
1/2+x,1/2+y,-z
1/2-x,y,z
x,1/2-y,z
loop_
_atom_site_type_symbol
_atom_site_label
_atom_site_fract_x
_atom_site_fract_y
_atom_site_fract_z
Si Si1 0.750000 0.905758 0.297351
Si Si2 0.900065 0.666669 0.255145
Si Si3 0.750000 0.425867 0.285581
Si Si4 0.463821 0.163042 0.082686
Si Si5 0.115902 0.485662 0.176760
Si Si6 0.109216 0.925707 0.868230
Si Si7 0.480153 0.467103 0.660825
Si Si8 0.750000 0.506899 0.592511
O O1 0.682124 0.858819 0.236929
O O2 0.750000 0.988177 0.216554
O O3 0.750000 0.917300 0.484898
O O4 0.901630 0.750000 0.326890
O O5 0.945941 0.615230 0.372529
O O6 0.940573 0.662396 0.093194
O O7 0.821293 0.384858 0.213240
O O8 0.750000 0.432869 0.475211
O O9 0.456224 0.250000 0.148584
O O10 0.411222 0.102533 0.169210
O O11 0.547681 0.136507 0.094248
O O12 0.180482 0.492664 0.297933
O O13 0.050046 0.538218 0.232337
O O14 0.135653 0.523691 0.013708
O O15 0.082334 0.984456 0.740292
O O16 0.500000 0.500000 0.500000
#
# Coordination Sequence:
#
# PCOD8242040 Si02
#       8
#     4   8   4   8   8   8   8   4
#     4  10  19  36  49  82 114 159 182 223 287 346
#     4  11  20  35  56  84 119 157 193 230 286 354
#     4  10  19  34  59  79 112 150 189 235 297 339
#     4  10  21  36  56  85 117 150 192 241 292 340
#     4  11  19  35  57  83 111 148 193 239 282 337
#     4  11  19  36  58  86 111 148 199 240 283 342
#     4  11  19  34  55  82 114 152 190 237 280 333
#     4  10  23  36  57  85 118 145 189 246 285 341
#
# _framework density 18.473948
#
# number of rings (size 3 to 8) (size 9 to 14) (size 15 to 20)
#    0.462    0.923    4.615    3.462    0.000    0.615 
#    0.000    9.231    0.000    0.000    0.000    2.692 
#    0.000    0.000    0.000    0.000    0.000    0.000 
#
# Total GULP energy -644334.629610 kJ/mol
# GULP energy per Si atom -12391.050569 kJ/mol
# Density = 1.843190 g / cm^3
# Si number density = 18.473948 Si / 1000 Ang^3
#
#
#
# Elastic Constant Matrix: (Units=GPa)
#
#
# Indices 1 2 3 4 5 6 
#
# 1 113.8217 23.2748 31.2500 0.0000 0.0000 0.0000
# 2 23.2748 80.6293 9.5734 0.0000 0.0000 0.0000
# 3 31.2500 9.5734 83.9545 0.0000 0.0000 0.0000
# 4 0.0000 0.0000 0.0000 16.1477 0.0000 0.0000
# 5 0.0000 0.0000 0.0000 0.0000 37.1922 0.0000
# 6 0.0000 0.0000 0.0000 0.0000 0.0000 11.8643
#
#
#
# Elastic Compliance Matrix: (Units=1/GPa)
#
#
# Indices 1 2 3 4 5 6 
#
# 1 0.010277 -0.002547 -0.003535 0.000000 0.000000 0.000000
# 2 -0.002547 0.013204 -0.000558 0.000000 0.000000 0.000000
# 3 -0.003535 -0.000558 0.013291 0.000000 0.000000 0.000000
# 4 0.000000 0.000000 0.000000 0.061928 0.000000 0.000000
# 5 0.000000 0.000000 0.000000 0.000000 0.026887 0.000000
# 6 0.000000 0.000000 0.000000 0.000000 0.000000 0.084287
#
#
# Mechanical properties :
#
#
# Convention : Reuss Voigt Hill
#
# Bulk Modulus (GPa) = 42.56674 45.17800 43.87237
# Shear Modulus (GPa) = 21.64657 27.32800 24.48728
#
# Velocity S-wave (km/s) = 3.42678 3.85030 3.64470
# Velocity P-wave (km/s) = 6.22483 6.65391 6.44295
#
# Compressibility (1/GPa) = 0.02349252
#
# Stress axis : x y z
#
# Youngs Moduli (GPa) = 97.30470 75.73553 75.24121
#
# Poissons Ratio (x) = 0.19289 0.26597
# Poissons Ratio (y) = 0.24782 0.04196
# Poissons Ratio (z) = 0.34397 0.04223
#
# Static dielectric constant tensor:
#      x y z
#    x 3.533280 0.000000 0.000000 
#    y 0.000000 1.117210 0.000000 
#    z 0.000000 0.000000 3.982620 
# 
# 
# High freq. dielectric constant tensor:
#      x y z
#    x 1.733480 0.000000 0.000000 
#    y 0.000000 1.684220 0.000000 
#    z 0.000000 0.000000 1.713110 
# 
# From -- ./inp_files/10491.got.cif
#   From: 2010.03.12/outbox.cif.g09.slc.cpg/sg59_6_cif.got.tgz:10491.got - 2010.04.16 16:29:54.
