data_PCOD8242968
_publ_section_title
;
Structure prediction by ZEFSAII (Michael W. Deem and Ramdas Pophale) SiO2 
 PCOD8242968
Probable space group: P M M N
;
_chemical_formula_sum "Si O2"
_cell_formula_units_Z 56
_cell_length_a 8.803621
_cell_length_b 20.988816
_cell_length_c 16.612691
_cell_angle_alpha 90.000000
_cell_angle_beta 90.000000
_cell_angle_gamma 90.000000
_cell_volume 3069.652862
_symmetry_space_group_name_H-M "P M M N"
_symmetry_group_IT_number 59
_space_group.IT_coordinate_system_code '2'
_symmetry_cell_setting 'orthorhombic'
loop_
_space_group_symop_operation_xyz
x,y,z
1/2-x,1/2-y,z
1/2+x,-y,-z
-x,1/2+y,-z
-x,-y,-z
1/2+x,1/2+y,-z
1/2-x,y,z
x,1/2-y,z
loop_
_atom_site_type_symbol
_atom_site_label
_atom_site_fract_x
_atom_site_fract_y
_atom_site_fract_z
Si Si1 0.922537 0.324054 0.866424
Si Si2 0.926314 0.591703 0.015764
Si Si3 0.075087 0.481155 0.297252
Si Si4 0.073289 0.322821 0.542791
Si Si5 0.072599 0.527660 0.874782
Si Si6 0.929219 0.059953 0.453797
Si Si7 0.575005 0.128485 0.696235
O O1 0.750000 0.345379 0.884522
O O2 0.935705 0.250000 0.851110
O O3 0.983756 0.358756 0.786367
O O4 0.026485 0.342259 0.942507
O O5 0.750000 0.590332 0.994349
O O6 0.019286 0.584913 0.932898
O O7 0.971877 0.537355 0.079933
O O8 0.250000 0.460514 0.301126
O O9 0.054704 0.554321 0.322873
O O10 0.015852 0.467433 0.208338
O O11 0.980169 0.439715 0.360801
O O12 0.250000 0.338803 0.533012
O O13 0.038800 0.250000 0.515970
O O14 0.977819 0.372109 0.489683
O O15 0.027036 0.330679 0.635856
O O16 0.250000 0.532904 0.857121
O O17 0.750000 0.053657 0.461023
O O18 0.000000 0.000000 0.500000
O O19 0.750000 0.150144 0.687593
#
# Coordination Sequence:
#
# PCOD8242968 Si02
#       7
#     8   8   8   8   8   8   8
#     4  10  20  34  52  76 110 150 188 225 269 328
#     4  10  20  33  52  77 107 142 182 226 270 321
#     4  11  21  35  58  86 116 148 185 234 285 335
#     4  11  24  40  59  84 116 153 194 240 288 344
#     4  10  20  34  54  79 108 142 180 225 275 327
#     4  12  24  39  60  85 115 152 194 240 289 343
#     4  10  20  34  55  81 114 154 191 228 277 339
#
# _framework density 18.243106000000001
#
# number of rings (size 3 to 8) (size 9 to 14) (size 15 to 20)
#    0.000    1.429    2.857    3.429    0.000    4.286 
#    0.000    0.000    0.000    0.857    0.000    0.000 
#    0.000    0.000    0.000    0.000    0.000    0.000 
#
# Total GULP energy -694618.904251 kJ/mol
# GULP energy per Si atom -12403.909004 kJ/mol
# Density = 1.820158 g / cm^3
# Si number density = 18.243106 Si / 1000 Ang^3
#
#
#
# Elastic Constant Matrix: (Units=GPa)
#
#
# Indices 1 2 3 4 5 6 
#
# 1 106.3701 43.6164 51.9885 0.0000 0.0000 0.0000
# 2 43.6164 69.3959 38.2774 0.0000 0.0000 0.0000
# 3 51.9885 38.2774 100.0407 0.0000 0.0000 0.0000
# 4 0.0000 0.0000 0.0000 26.7132 0.0000 0.0000
# 5 0.0000 0.0000 0.0000 0.0000 37.5476 0.0000
# 6 0.0000 0.0000 0.0000 0.0000 0.0000 26.5090
#
#
#
# Elastic Compliance Matrix: (Units=1/GPa)
#
#
# Indices 1 2 3 4 5 6 
#
# 1 0.014478 -0.006273 -0.005123 0.000000 0.000000 0.000000
# 2 -0.006273 0.020983 -0.004768 0.000000 0.000000 0.000000
# 3 -0.005123 -0.004768 0.014483 0.000000 0.000000 0.000000
# 4 0.000000 0.000000 0.000000 0.037435 0.000000 0.000000
# 5 0.000000 0.000000 0.000000 0.000000 0.026633 0.000000
# 6 0.000000 0.000000 0.000000 0.000000 0.000000 0.037723
#
#
# Mechanical properties :
#
#
# Convention : Reuss Voigt Hill
#
# Bulk Modulus (GPa) = 56.77519 60.39680 58.58599
# Shear Modulus (GPa) = 26.32473 27.61559 26.97016
#
# Velocity S-wave (km/s) = 3.80280 3.89492 3.84914
# Velocity P-wave (km/s) = 7.10428 7.30792 7.20682
#
# Compressibility (1/GPa) = 0.01761333
#
# Stress axis : x y z
#
# Youngs Moduli (GPa) = 69.07251 47.65714 69.04733
#
# Poissons Ratio (x) = 0.29898 0.35375
# Poissons Ratio (y) = 0.43333 0.32924
# Poissons Ratio (z) = 0.35388 0.22725
#
# Static dielectric constant tensor:
#      x y z
#    x 3.434670 0.000000 0.000000 
#    y 0.000000 3.215560 0.000000 
#    z 0.000000 0.000000 3.398810 
# 
# 
# High freq. dielectric constant tensor:
#      x y z
#    x 1.716240 0.000000 0.000000 
#    y 0.000000 1.683890 0.000000 
#    z 0.000000 0.000000 1.708860 
# 
# From -- ./inp_files/20925.got.cif
#   From: 2010.03.12/outbox.cif.g09.slc.cpg/sg59_11_cif.got.tgz:20925.got - 2010.04.16 16:29:54.
