data_PCOD8242600
_publ_section_title
;
Structure prediction by ZEFSAII (Michael W. Deem and Ramdas Pophale) SiO2 
 PCOD8242600
Probable space group: P M M N
;
_chemical_formula_sum "Si O2"
_cell_formula_units_Z 64
_cell_length_a 9.488243
_cell_length_b 23.644143
_cell_length_c 16.616651
_cell_angle_alpha 90.000000
_cell_angle_beta 90.000000
_cell_angle_gamma 90.000000
_cell_volume 3727.802322
_symmetry_space_group_name_H-M "P M M N"
_symmetry_group_IT_number 59
_space_group.IT_coordinate_system_code '2'
_symmetry_cell_setting 'orthorhombic'
loop_
_space_group_symop_operation_xyz
x,y,z
1/2-x,1/2-y,z
1/2+x,-y,-z
-x,1/2+y,-z
-x,-y,-z
1/2+x,1/2+y,-z
1/2-x,y,z
x,1/2-y,z
loop_
_atom_site_type_symbol
_atom_site_label
_atom_site_fract_x
_atom_site_fract_y
_atom_site_fract_z
Si Si1 0.915769 0.522557 0.808609
Si Si2 0.588396 0.313820 0.123839
Si Si3 0.587950 0.902055 0.960915
Si Si4 0.913646 0.113375 0.279770
Si Si5 0.906086 0.182848 0.604357
Si Si6 0.582359 0.313145 0.427694
Si Si7 0.912625 0.813925 0.247054
Si Si8 0.413005 0.419208 0.857552
O O1 0.750000 0.517650 0.790615
O O2 0.946906 0.549776 0.895800
O O3 0.989338 0.559240 0.738639
O O4 0.986875 0.461053 0.807671
O O5 0.750000 0.317176 0.097452
O O6 0.533382 0.250000 0.127611
O O7 0.500945 0.346106 0.056086
O O8 0.565081 0.340062 0.211251
O O9 0.750000 0.883994 0.957262
O O10 0.546962 0.924518 0.048799
O O11 0.750000 0.094614 0.285870
O O12 0.970834 0.141889 0.361754
O O13 0.750000 0.157563 0.619349
O O14 0.898669 0.250000 0.604786
O O15 0.964014 0.164401 0.516225
O O16 0.007163 0.161250 0.675090
O O17 0.750000 0.309050 0.423894
O O18 0.520642 0.250000 0.410748
O O19 0.750000 0.813719 0.270828
O O20 0.962345 0.750000 0.224322
O O21 0.942300 0.855114 0.171881
O O22 0.250000 0.436108 0.843196
#
# Coordination Sequence:
#
# PCOD8242600 Si02
#       8
#     8   8   8   8   8   8   8   8
#     4  10  20  33  48  68  94 120 150 192 237 273
#     4   9  17  28  43  66  96 127 156 186 223 268
#     4   9  19  33  48  67  90 119 155 194 234 273
#     4   9  16  28  47  68  93 126 159 189 221 262
#     4   8  14  26  45  69  96 123 150 182 222 268
#     4   8  13  23  44  73  98 122 156 191 220 260
#     4   9  18  32  49  70  95 119 145 182 227 273
#     4  10  20  34  52  70  87 115 156 192 224 272
#
# _framework density 17.168292999999998
#
# number of rings (size 3 to 8) (size 9 to 14) (size 15 to 20)
#    0.000    3.000    0.000    1.875    0.000    3.750 
#    0.000    1.875    0.000    4.125    0.000    0.000 
#    0.000    0.000    0.000    0.000    0.000    0.000 
#
# Total GULP energy -793427.080484 kJ/mol
# GULP energy per Si atom -12397.298133 kJ/mol
# Density = 1.712922 g / cm^3
# Si number density = 17.168293 Si / 1000 Ang^3
#
#
#
# Elastic Constant Matrix: (Units=GPa)
#
#
# Indices 1 2 3 4 5 6 
#
# 1 53.4937 35.1011 26.5017 0.0000 0.0000 0.0000
# 2 35.1011 78.6408 25.1898 0.0000 0.0000 0.0000
# 3 26.5017 25.1898 76.8812 0.0000 0.0000 0.0000
# 4 0.0000 0.0000 0.0000 18.4259 0.0000 0.0000
# 5 0.0000 0.0000 0.0000 0.0000 24.2106 0.0000
# 6 0.0000 0.0000 0.0000 0.0000 0.0000 24.2450
#
#
#
# Elastic Compliance Matrix: (Units=1/GPa)
#
#
# Indices 1 2 3 4 5 6 
#
# 1 0.029033 -0.010897 -0.006438 0.000000 0.000000 0.000000
# 2 -0.010897 0.018297 -0.002239 0.000000 0.000000 0.000000
# 3 -0.006438 -0.002239 0.015960 0.000000 0.000000 0.000000
# 4 0.000000 0.000000 0.000000 0.054271 0.000000 0.000000
# 5 0.000000 0.000000 0.000000 0.000000 0.041304 0.000000
# 6 0.000000 0.000000 0.000000 0.000000 0.000000 0.041246
#
#
# Mechanical properties :
#
#
# Convention : Reuss Voigt Hill
#
# Bulk Modulus (GPa) = 41.41911 42.51121 41.96516
# Shear Modulus (GPa) = 20.21788 21.52450 20.87119
#
# Velocity S-wave (km/s) = 3.43538 3.54465 3.49045
# Velocity P-wave (km/s) = 6.31772 6.44732 6.38285
#
# Compressibility (1/GPa) = 0.02414345
#
# Stress axis : x y z
#
# Youngs Moduli (GPa) = 34.44306 54.65401 62.65775
#
# Poissons Ratio (x) = 0.59556 0.40338
# Poissons Ratio (y) = 0.37532 0.14027
# Poissons Ratio (z) = 0.22174 0.12235
#
# Static dielectric constant tensor:
#      x y z
#    x 3.147390 0.000000 0.000000 
#    y 0.000000 3.072890 0.000000 
#    z 0.000000 0.000000 3.343860 
# 
# 
# High freq. dielectric constant tensor:
#      x y z
#    x 1.648390 0.000000 0.000000 
#    y 0.000000 1.644780 0.000000 
#    z 0.000000 0.000000 1.656110 
# 
# From -- ./inp_files/26445.got.cif
#   From: 2010.03.12/outbox.cif.g09.slc.cpg/sg59_14_cif.got.tgz:26445.got - 2010.04.16 16:29:54.
