data_PCOD8242667
_publ_section_title
;
Structure prediction by ZEFSAII (Michael W. Deem and Ramdas Pophale) SiO2 
 PCOD8242667
Probable space group: P M M N
;
_chemical_formula_sum "Si O2"
_cell_formula_units_Z 64
_cell_length_a 18.049900
_cell_length_b 9.178262
_cell_length_c 20.339608
_cell_angle_alpha 90.000000
_cell_angle_beta 90.000000
_cell_angle_gamma 90.000000
_cell_volume 3369.595966
_symmetry_space_group_name_H-M "P M M N"
_symmetry_group_IT_number 59
_space_group.IT_coordinate_system_code '2'
_symmetry_cell_setting 'orthorhombic'
loop_
_space_group_symop_operation_xyz
x,y,z
1/2-x,1/2-y,z
1/2+x,-y,-z
-x,1/2+y,-z
-x,-y,-z
1/2+x,1/2+y,-z
1/2-x,y,z
x,1/2-y,z
loop_
_atom_site_type_symbol
_atom_site_label
_atom_site_fract_x
_atom_site_fract_y
_atom_site_fract_z
Si Si1 0.167333 0.922456 0.792123
Si Si2 0.928098 0.924678 0.469857
Si Si3 0.329954 0.422484 0.411333
Si Si4 0.160979 0.412142 0.271105
Si Si5 0.164566 0.591631 0.152345
Si Si6 0.836376 0.078085 0.357496
Si Si7 0.595131 0.580951 0.955276
Si Si8 0.569472 0.079883 0.086118
O O1 0.250000 0.981724 0.810150
O O2 0.169589 0.750000 0.793586
O O3 0.146275 0.970635 0.717851
O O4 0.106486 0.977628 0.845688
O O5 0.938477 0.750000 0.463128
O O6 0.870676 0.974957 0.524613
O O7 0.895647 0.990061 0.402030
O O8 0.000000 0.000000 0.500000
O O9 0.250000 0.497716 0.415185
O O10 0.322305 0.250000 0.409861
O O11 0.368946 0.467929 0.342231
O O12 0.250000 0.410236 0.272399
O O13 0.131327 0.250000 0.255372
O O14 0.126906 0.517388 0.215925
O O15 0.250000 0.611781 0.168145
O O16 0.127412 0.750000 0.140190
O O17 0.158172 0.489152 0.089335
O O18 0.750000 0.040021 0.374163
O O19 0.850031 0.250000 0.367129
O O20 0.609907 0.750000 0.964632
O O21 0.518280 0.549070 0.916795
O O22 0.604347 0.507842 0.025962
O O23 0.586437 0.250000 0.075724
#
# Coordination Sequence:
#
# PCOD8242667 Si02
#       8
#     8   8   8   8   8   8   8   8
#     4   8  15  31  57  84 106 132 172 221 268 319
#     4  11  22  36  53  76 110 146 180 222 268 319
#     4   8  15  30  53  76  95 126 173 216 257 310
#     4   8  14  28  50  72  93 118 156 206 251 295
#     4  10  20  33  49  71 100 134 171 211 256 306
#     4   9  18  35  59  84 109 139 177 222 274 331
#     4  10  20  33  50  73 104 141 177 216 260 310
#     4   9  18  34  54  76 103 136 176 216 258 315
#
# _framework density 18.993375
#
# number of rings (size 3 to 8) (size 9 to 14) (size 15 to 20)
#    0.000    2.875    0.000    3.000    0.000    2.500 
#    2.250    3.125    0.000    3.750    0.000    0.000 
#    0.000    0.000    0.000    0.000    0.000    0.000 
#
# Total GULP energy -792864.665504 kJ/mol
# GULP energy per Si atom -12388.510399 kJ/mol
# Density = 1.895015 g / cm^3
# Si number density = 18.993375 Si / 1000 Ang^3
#
#
#
# Elastic Constant Matrix: (Units=GPa)
#
#
# Indices 1 2 3 4 5 6 
#
# 1 57.4831 31.3565 52.4499 0.0000 0.0000 0.0000
# 2 31.3565 63.9892 57.6271 0.0000 0.0000 0.0000
# 3 52.4499 57.6271 158.0946 0.0000 0.0000 0.0000
# 4 0.0000 0.0000 0.0000 31.4441 0.0000 0.0000
# 5 0.0000 0.0000 0.0000 0.0000 29.0844 0.0000
# 6 0.0000 0.0000 0.0000 0.0000 0.0000 19.1197
#
#
#
# Elastic Compliance Matrix: (Units=1/GPa)
#
#
# Indices 1 2 3 4 5 6 
#
# 1 0.027324 -0.007779 -0.006229 0.000000 0.000000 0.000000
# 2 -0.007779 0.025480 -0.006707 0.000000 0.000000 0.000000
# 3 -0.006229 -0.006707 0.010837 0.000000 0.000000 0.000000
# 4 0.000000 0.000000 0.000000 0.031802 0.000000 0.000000
# 5 0.000000 0.000000 0.000000 0.000000 0.034383 0.000000
# 6 0.000000 0.000000 0.000000 0.000000 0.000000 0.052302
#
#
# Mechanical properties :
#
#
# Convention : Reuss Voigt Hill
#
# Bulk Modulus (GPa) = 45.02630 62.49265 53.75948
# Shear Modulus (GPa) = 21.64862 25.13853 23.39358
#
# Velocity S-wave (km/s) = 3.37975 3.64200 3.51332
# Velocity P-wave (km/s) = 6.24404 7.11754 6.69505
#
# Compressibility (1/GPa) = 0.02220924
#
# Stress axis : x y z
#
# Youngs Moduli (GPa) = 36.59792 39.24709 92.27961
#
# Poissons Ratio (x) = 0.30532 0.57484
# Poissons Ratio (y) = 0.28471 0.61888
# Poissons Ratio (z) = 0.22798 0.26322
#
# Static dielectric constant tensor:
#      x y z
#    x 3.341280 0.000000 0.000000 
#    y 0.000000 3.412040 0.000000 
#    z 0.000000 0.000000 3.876610 
# 
# 
# High freq. dielectric constant tensor:
#      x y z
#    x 1.712180 0.000000 0.000000 
#    y 0.000000 1.715310 0.000000 
#    z 0.000000 0.000000 1.754030 
# 
# From -- ./inp_files/30669.got.cif
#   From: 2010.03.12/outbox.cif.g09.slc.cpg/sg59_16_cif.got.tgz:30669.got - 2010.04.16 16:29:54.
