data_PCOD8242492
_publ_section_title
;
Structure prediction by ZEFSAII (Michael W. Deem and Ramdas Pophale) SiO2 
 PCOD8242492
Probable space group: P M M N
;
_chemical_formula_sum "Si O2"
_cell_formula_units_Z 48
_cell_length_a 9.443731
_cell_length_b 8.946337
_cell_length_c 31.380939
_cell_angle_alpha 90.000000
_cell_angle_beta 90.000000
_cell_angle_gamma 90.000000
_cell_volume 2651.275119
_symmetry_space_group_name_H-M "P M M N"
_symmetry_group_IT_number 59
_space_group.IT_coordinate_system_code '2'
_symmetry_cell_setting 'orthorhombic'
loop_
_space_group_symop_operation_xyz
x,y,z
1/2-x,1/2-y,z
1/2+x,-y,-z
-x,1/2+y,-z
-x,-y,-z
1/2+x,1/2+y,-z
1/2-x,y,z
x,1/2-y,z
loop_
_atom_site_type_symbol
_atom_site_label
_atom_site_fract_x
_atom_site_fract_y
_atom_site_fract_z
Si Si1 0.412262 0.074288 0.874638
Si Si2 0.584700 0.574862 0.800224
Si Si3 0.088795 0.927587 0.536983
Si Si4 0.414907 0.923199 0.962616
Si Si5 0.918058 0.086186 0.371447
Si Si6 0.408836 0.571572 0.719869
O O1 0.250000 0.031922 0.863553
O O2 0.431673 0.250000 0.879922
O O3 0.514308 0.015598 0.838147
O O4 0.460533 0.997543 0.918319
O O5 0.750000 0.538340 0.798866
O O6 0.554955 0.750000 0.806976
O O7 0.516415 0.516626 0.756102
O O8 0.250000 0.974222 0.528854
O O9 0.070868 0.750000 0.536498
O O10 0.037018 0.991744 0.583671
O O11 0.000000 0.000000 0.500000
O O12 0.250000 0.948602 0.971594
O O13 0.455179 0.750000 0.960483
O O14 0.500000 0.000000 0.000000
O O15 0.750000 0.104092 0.372242
O O16 0.988821 0.250000 0.370973
O O17 0.958770 0.004589 0.326555
O O18 0.250000 0.515562 0.731280
O O19 0.408822 0.750000 0.716355
#
# Coordination Sequence:
#
# PCOD8242492 Si02
#       6
#     8   8   8   8   8   8
#     4  10  21  37  56  76  99 132 174 213 245 282
#     4  10  20  32  48  74 105 132 158 194 244 297
#     4   9  17  29  45  66  93 123 156 196 240 287
#     4  10  21  37  58  83 109 137 169 206 249 294
#     4   7  11  22  41  64  88 116 153 196 239 282
#     4   8  13  24  45  69  91 119 157 200 243 286
#
# _framework density 18.104496000000001
#
# number of rings (size 3 to 8) (size 9 to 14) (size 15 to 20)
#    0.000    3.000    0.000    3.500    0.000    4.000 
#    0.000    0.833    0.000    4.000    0.000    2.333 
#    0.000    0.000    0.000    0.000    0.000    0.000 
#
# Total GULP energy -594744.021958 kJ/mol
# GULP energy per Si atom -12390.500457 kJ/mol
# Density = 1.806329 g / cm^3
# Si number density = 18.104496 Si / 1000 Ang^3
#
#
#
# Elastic Constant Matrix: (Units=GPa)
#
#
# Indices 1 2 3 4 5 6 
#
# 1 80.8463 36.6045 85.2388 0.0000 0.0000 0.0000
# 2 36.6045 51.2667 57.5877 0.0000 0.0000 0.0000
# 3 85.2388 57.5877 207.6213 0.0000 0.0000 0.0000
# 4 0.0000 0.0000 0.0000 24.5949 0.0000 0.0000
# 5 0.0000 0.0000 0.0000 0.0000 33.8386 0.0000
# 6 0.0000 0.0000 0.0000 0.0000 0.0000 23.0865
#
#
#
# Elastic Compliance Matrix: (Units=1/GPa)
#
#
# Indices 1 2 3 4 5 6 
#
# 1 0.024336 -0.008938 -0.007512 0.000000 0.000000 0.000000
# 2 -0.008938 0.031616 -0.005100 0.000000 0.000000 0.000000
# 3 -0.007512 -0.005100 0.009315 0.000000 0.000000 0.000000
# 4 0.000000 0.000000 0.000000 0.040659 0.000000 0.000000
# 5 0.000000 0.000000 0.000000 0.000000 0.029552 0.000000
# 6 0.000000 0.000000 0.000000 0.000000 0.000000 0.043315
#
#
# Mechanical properties :
#
#
# Convention : Reuss Voigt Hill
#
# Bulk Modulus (GPa) = 45.11039 77.62181 61.36610
# Shear Modulus (GPa) = 21.80714 26.99087 24.39901
#
# Velocity S-wave (km/s) = 3.47438 3.86533 3.67505
# Velocity P-wave (km/s) = 6.40826 7.93022 7.20952
#
# Compressibility (1/GPa) = 0.02216784
#
# Stress axis : x y z
#
# Youngs Moduli (GPa) = 41.09118 31.62942 107.35191
#
# Poissons Ratio (x) = 0.28269 0.80645
# Poissons Ratio (y) = 0.36726 0.54749
# Poissons Ratio (z) = 0.30868 0.16131
#
# Static dielectric constant tensor:
#      x y z
#    x 3.126190 0.000000 0.000000 
#    y 0.000000 3.005780 0.000000 
#    z 0.000000 0.000000 187.560000 
# 
# 
# High freq. dielectric constant tensor:
#      x y z
#    x 1.677720 0.000000 0.000000 
#    y 0.000000 1.661840 0.000000 
#    z 0.000000 0.000000 1.728760 
# 
# From -- ./inp_files/32916.got.cif
#   From: 2010.03.12/outbox.cif.g09.slc.cpg/sg59_17_cif.got.tgz:32916.got - 2010.04.16 16:29:54.
