data_PCOD8242805
_publ_section_title
;
Structure prediction by ZEFSAII (Michael W. Deem and Ramdas Pophale) SiO2 
 PCOD8242805
Probable space group: P M M N
;
_chemical_formula_sum "Si O2"
_cell_formula_units_Z 64
_cell_length_a 9.370702
_cell_length_b 18.747581
_cell_length_c 19.576584
_cell_angle_alpha 90.000000
_cell_angle_beta 90.000000
_cell_angle_gamma 90.000000
_cell_volume 3439.175022
_symmetry_space_group_name_H-M "P M M N"
_symmetry_group_IT_number 59
_space_group.IT_coordinate_system_code '2'
_symmetry_cell_setting 'orthorhombic'
loop_
_space_group_symop_operation_xyz
x,y,z
1/2-x,1/2-y,z
1/2+x,-y,-z
-x,1/2+y,-z
-x,-y,-z
1/2+x,1/2+y,-z
1/2-x,y,z
x,1/2-y,z
loop_
_atom_site_type_symbol
_atom_site_label
_atom_site_fract_x
_atom_site_fract_y
_atom_site_fract_z
Si Si1 0.087488 0.562994 0.143062
Si Si2 0.080614 0.446423 0.718548
Si Si3 0.586107 0.404208 0.344142
Si Si4 0.582930 0.668193 0.539317
Si Si5 0.580432 0.671085 0.385921
Si Si6 0.415415 0.091204 0.094924
Si Si7 0.584461 0.332255 0.975734
Si Si8 0.088247 0.831874 0.793211
O O1 0.250000 0.562800 0.169824
O O2 0.060554 0.493822 0.095476
O O3 0.055446 0.632787 0.097887
O O4 0.983604 0.564611 0.207036
O O5 0.250000 0.443148 0.726329
O O6 0.031241 0.521380 0.687048
O O7 0.020030 0.384920 0.668747
O O8 0.750000 0.410310 0.366644
O O9 0.496985 0.385526 0.410798
O O10 0.563093 0.343305 0.287244
O O11 0.750000 0.655070 0.547955
O O12 0.544127 0.750000 0.556691
O O13 0.531918 0.649957 0.462402
O O14 0.750000 0.671766 0.384276
O O15 0.522319 0.750000 0.367196
O O16 0.250000 0.111595 0.090040
O O17 0.476988 0.121006 0.165575
O O18 0.494711 0.125982 0.031610
O O19 0.750000 0.338811 0.996179
O O20 0.536014 0.250000 0.972573
O O21 0.250000 0.855055 0.812328
O O22 0.062139 0.750000 0.811832
#
# Coordination Sequence:
#
# PCOD8242805 Si02
#       8
#     8   8   8   8   8   8   8   8
#     4  10  22  39  57  80 111 144 176 216 268 318
#     4  10  20  35  57  81 106 141 182 221 263 316
#     4  10  20  33  50  76 109 141 178 222 265 315
#     4   9  18  33  53  76 105 143 182 220 267 321
#     4   8  16  33  55  79 107 139 178 223 270 318
#     4  11  22  36  56  82 110 139 174 221 266 308
#     4  10  22  40  60  81 108 143 179 215 262 320
#     4  10  20  34  52  74 105 146 182 213 259 317
#
# _framework density 18.609114000000002
#
# number of rings (size 3 to 8) (size 9 to 14) (size 15 to 20)
#    0.000    2.250    1.250    2.250    0.000    5.750 
#    0.000    0.625    0.000    0.750    0.000    0.000 
#    0.000    0.000    0.000    0.000    0.000    0.000 
#
# Total GULP energy -793678.765901 kJ/mol
# GULP energy per Si atom -12401.230717 kJ/mol
# Density = 1.856676 g / cm^3
# Si number density = 18.609114 Si / 1000 Ang^3
#
#
#
# Elastic Constant Matrix: (Units=GPa)
#
#
# Indices 1 2 3 4 5 6 
#
# 1 58.1209 40.5262 51.8724 0.0000 0.0000 0.0000
# 2 40.5262 90.6830 64.6061 0.0000 0.0000 0.0000
# 3 51.8724 64.6061 116.0330 0.0000 0.0000 0.0000
# 4 0.0000 0.0000 0.0000 36.3266 0.0000 0.0000
# 5 0.0000 0.0000 0.0000 0.0000 27.0064 0.0000
# 6 0.0000 0.0000 0.0000 0.0000 0.0000 17.3501
#
#
#
# Elastic Compliance Matrix: (Units=1/GPa)
#
#
# Indices 1 2 3 4 5 6 
#
# 1 0.030814 -0.006558 -0.010124 0.000000 0.000000 0.000000
# 2 -0.006558 0.019674 -0.008022 0.000000 0.000000 0.000000
# 3 -0.010124 -0.008022 0.017611 0.000000 0.000000 0.000000
# 4 0.000000 0.000000 0.000000 0.027528 0.000000 0.000000
# 5 0.000000 0.000000 0.000000 0.000000 0.037028 0.000000
# 6 0.000000 0.000000 0.000000 0.000000 0.000000 0.057637
#
#
# Mechanical properties :
#
#
# Convention : Reuss Voigt Hill
#
# Bulk Modulus (GPa) = 53.50504 64.31626 58.91065
# Shear Modulus (GPa) = 20.33106 23.32542 21.82824
#
# Velocity S-wave (km/s) = 3.30893 3.54424 3.42860
# Velocity P-wave (km/s) = 6.58887 7.16837 6.88472
#
# Compressibility (1/GPa) = 0.01868983
#
# Stress axis : x y z
#
# Youngs Moduli (GPa) = 32.45319 50.82941 56.78345
#
# Poissons Ratio (x) = 0.33334 0.57486
# Poissons Ratio (y) = 0.21283 0.45554
# Poissons Ratio (z) = 0.32855 0.40777
#
# Static dielectric constant tensor:
#      x y z
#    x 3.239300 0.000000 0.000000 
#    y 0.000000 3.670050 0.000000 
#    z 0.000000 0.000000 3.369620 
# 
# 
# High freq. dielectric constant tensor:
#      x y z
#    x 1.703120 0.000000 0.000000 
#    y 0.000000 1.730410 0.000000 
#    z 0.000000 0.000000 1.725070 
# 
# From -- ./inp_files/28215.got.cif
#   From: 2010.03.12/outbox.cif.g09.slc.cpg/sg59_15_cif.got.tgz:28215.got - 2010.04.16 16:29:54.
