data_PCOD8242431
_publ_section_title
;
Structure prediction by ZEFSAII (Michael W. Deem and Ramdas Pophale) SiO2 
 PCOD8242431
Probable space group: P M M N
;
_chemical_formula_sum "Si O2"
_cell_formula_units_Z 48
_cell_length_a 15.211838
_cell_length_b 8.816010
_cell_length_c 19.071220
_cell_angle_alpha 90.000000
_cell_angle_beta 90.000000
_cell_angle_gamma 90.000000
_cell_volume 2557.597754
_symmetry_space_group_name_H-M "P M M N"
_symmetry_group_IT_number 59
_space_group.IT_coordinate_system_code '2'
_symmetry_cell_setting 'orthorhombic'
loop_
_space_group_symop_operation_xyz
x,y,z
1/2-x,1/2-y,z
1/2+x,-y,-z
-x,1/2+y,-z
-x,-y,-z
1/2+x,1/2+y,-z
1/2-x,y,z
x,1/2-y,z
loop_
_atom_site_type_symbol
_atom_site_label
_atom_site_fract_x
_atom_site_fract_y
_atom_site_fract_z
Si Si1 0.347350 0.069836 0.172558
Si Si2 0.852174 0.573219 0.327794
Si Si3 0.498461 0.928980 0.924159
Si Si4 0.994361 0.069845 0.423872
Si Si5 0.649591 0.426287 0.182300
Si Si6 0.847416 0.569792 0.670797
O O1 0.250000 0.018239 0.148102
O O2 0.353770 0.250000 0.174036
O O3 0.418896 0.003484 0.118978
O O4 0.366640 0.008033 0.250835
O O5 0.750000 0.536647 0.340516
O O6 0.872697 0.750000 0.335119
O O7 0.905384 0.482495 0.386373
O O8 0.880489 0.519259 0.250440
O O9 0.505557 0.750000 0.932124
O O10 0.409526 0.975914 0.883616
O O11 0.500000 0.000000 0.000000
O O12 0.995314 0.250000 0.429006
O O13 0.078569 0.005886 0.381200
O O14 0.000000 0.000000 0.500000
O O15 0.750000 0.462547 0.161843
O O16 0.635533 0.250000 0.200342
O O17 0.750000 0.515955 0.646249
O O18 0.850818 0.750000 0.671632
#
# Coordination Sequence:
#
# PCOD8242431 Si02
#       6
#     8   8   8   8   8   8
#     4   8  14  27  48  71  92 118 158 204 244 286
#     4  10  21  37  57  80 105 136 178 226 271 317
#     4  10  20  32  47  71 102 134 166 202 249 305
#     4  11  22  35  53  79 111 145 177 212 260 316
#     4   9  18  34  55  76  99 131 172 217 265 316
#     4   8  15  30  53  77  98 125 166 214 259 303
#
# _framework density 18.767610000000001
#
# number of rings (size 3 to 8) (size 9 to 14) (size 15 to 20)
#    0.000    2.667    0.000    3.000    0.000    5.667 
#    0.000    1.667    0.000    1.500    0.000    4.667 
#    0.000    0.000    0.000    0.000    0.000    0.000 
#
# Total GULP energy -595134.512493 kJ/mol
# GULP energy per Si atom -12398.635677 kJ/mol
# Density = 1.872489 g / cm^3
# Si number density = 18.767610 Si / 1000 Ang^3
#
#
#
# Elastic Constant Matrix: (Units=GPa)
#
#
# Indices 1 2 3 4 5 6 
#
# 1 137.3890 35.2118 99.3849 0.0000 0.0000 0.0000
# 2 35.2118 43.4220 39.7951 0.0000 0.0000 0.0000
# 3 99.3849 39.7951 163.9326 0.0000 0.0000 0.0000
# 4 0.0000 0.0000 0.0000 34.1269 0.0000 0.0000
# 5 0.0000 0.0000 0.0000 0.0000 23.4862 0.0000
# 6 0.0000 0.0000 0.0000 0.0000 0.0000 18.5963
#
#
#
# Elastic Compliance Matrix: (Units=1/GPa)
#
#
# Indices 1 2 3 4 5 6 
#
# 1 0.013606 -0.004468 -0.007164 0.000000 0.000000 0.000000
# 2 -0.004468 0.031086 -0.004838 0.000000 0.000000 0.000000
# 3 -0.007164 -0.004838 0.011618 0.000000 0.000000 0.000000
# 4 0.000000 0.000000 0.000000 0.029302 0.000000 0.000000
# 5 0.000000 0.000000 0.000000 0.000000 0.042578 0.000000
# 6 0.000000 0.000000 0.000000 0.000000 0.000000 0.053774
#
#
# Mechanical properties :
#
#
# Convention : Reuss Voigt Hill
#
# Bulk Modulus (GPa) = 42.78806 77.05856 59.92331
# Shear Modulus (GPa) = 22.45225 26.59867 24.52546
#
# Velocity S-wave (km/s) = 3.46255 3.76874 3.61889
# Velocity P-wave (km/s) = 6.23170 7.75154 7.03280
#
# Compressibility (1/GPa) = 0.02337101
#
# Stress axis : x y z
#
# Youngs Moduli (GPa) = 73.49641 32.16838 86.07474
#
# Poissons Ratio (x) = 0.14372 0.61666
# Poissons Ratio (y) = 0.32835 0.41641
# Poissons Ratio (z) = 0.52655 0.15562
#
# Static dielectric constant tensor:
#      x y z
#    x 3.953530 0.000000 0.000000 
#    y 0.000000 3.096660 0.000000 
#    z 0.000000 0.000000 3.476900 
# 
# 
# High freq. dielectric constant tensor:
#      x y z
#    x 1.745240 0.000000 0.000000 
#    y 0.000000 1.693120 0.000000 
#    z 0.000000 0.000000 1.727140 
# 
# From -- ./inp_files/25467.got.cif
#   From: 2010.03.12/outbox.cif.g09.slc.cpg/sg59_13_cif.got.tgz:25467.got - 2010.04.16 16:29:54.
