data_PCOD8242637
_publ_section_title
;
Structure prediction by ZEFSAII (Michael W. Deem and Ramdas Pophale) SiO2 
 PCOD8242637
Probable space group: P M M N
;
_chemical_formula_sum "Si O2"
_cell_formula_units_Z 48
_cell_length_a 13.639756
_cell_length_b 9.616087
_cell_length_c 20.833097
_cell_angle_alpha 90.000000
_cell_angle_beta 90.000000
_cell_angle_gamma 90.000000
_cell_volume 2732.491510
_symmetry_space_group_name_H-M "P M M N"
_symmetry_group_IT_number 59
_space_group.IT_coordinate_system_code '2'
_symmetry_cell_setting 'orthorhombic'
loop_
_space_group_symop_operation_xyz
x,y,z
1/2-x,1/2-y,z
1/2+x,-y,-z
-x,1/2+y,-z
-x,-y,-z
1/2+x,1/2+y,-z
1/2-x,y,z
x,1/2-y,z
loop_
_atom_site_type_symbol
_atom_site_label
_atom_site_fract_x
_atom_site_fract_y
_atom_site_fract_z
Si Si1 0.859682 0.090328 0.409067
Si Si2 0.634118 0.593420 0.526319
Si Si3 0.859630 0.909460 0.020803
Si Si4 0.863725 0.087428 0.774266
Si Si5 0.952700 0.590008 0.660996
Si Si6 0.445734 0.588639 0.089351
O O1 0.750000 0.040869 0.390022
O O2 0.859851 0.250000 0.431177
O O3 0.929800 0.069942 0.347301
O O4 0.904062 0.004615 0.468969
O O5 0.750000 0.586931 0.527870
O O6 0.595943 0.750000 0.513688
O O7 0.596542 0.540123 0.594840
O O8 0.750000 0.938762 0.047649
O O9 0.870565 0.750000 0.998701
O O10 0.877582 0.003611 0.958889
O O11 0.939132 0.943399 0.076282
O O12 0.750000 0.046138 0.780124
O O13 0.876244 0.250000 0.760475
O O14 0.919803 0.042467 0.838863
O O15 0.914316 0.005267 0.717338
O O16 0.925718 0.750000 0.676245
O O17 0.420513 0.750000 0.078904
#
# Coordination Sequence:
#
# PCOD8242637 Si02
#       6
#     8   8   8   8   8   8
#     4   9  18  32  49  69  93 122 157 197 241 286
#     4   9  17  29  46  69  94 119 152 196 243 287
#     4   9  17  30  51  78 103 127 159 198 236 276
#     4  10  21  35  50  70  97 128 160 194 234 282
#     4  10  20  33  49  69  95 127 160 196 238 282
#     4   9  18  33  51  72 101 133 161 193 236 281
#
# _framework density 17.566386000000001
#
# number of rings (size 3 to 8) (size 9 to 14) (size 15 to 20)
#    0.000    2.667    0.000    1.500    0.000    4.000 
#    0.000    2.500    0.000    1.000    0.000    0.000 
#    0.000    0.000    0.000    0.000    0.000    0.000 
#
# Total GULP energy -595128.326188 kJ/mol
# GULP energy per Si atom -12398.506796 kJ/mol
# Density = 1.752640 g / cm^3
# Si number density = 17.566386 Si / 1000 Ang^3
#
#
#
# Elastic Constant Matrix: (Units=GPa)
#
#
# Indices 1 2 3 4 5 6 
#
# 1 101.7049 41.8407 72.9404 0.0000 0.0000 0.0000
# 2 41.8407 57.8811 61.7642 0.0000 0.0000 0.0000
# 3 72.9404 61.7642 126.9982 0.0000 0.0000 0.0000
# 4 0.0000 0.0000 0.0000 3.5392 0.0000 0.0000
# 5 0.0000 0.0000 0.0000 0.0000 23.7137 0.0000
# 6 0.0000 0.0000 0.0000 0.0000 0.0000 23.2783
#
#
#
# Elastic Compliance Matrix: (Units=1/GPa)
#
#
# Indices 1 2 3 4 5 6 
#
# 1 0.017136 -0.003919 -0.007936 0.000000 0.000000 0.000000
# 2 -0.003919 0.036812 -0.015653 0.000000 0.000000 0.000000
# 3 -0.007936 -0.015653 0.020045 0.000000 0.000000 0.000000
# 4 0.000000 0.000000 0.000000 0.282552 0.000000 0.000000
# 5 0.000000 0.000000 0.000000 0.000000 0.042170 0.000000
# 6 0.000000 0.000000 0.000000 0.000000 0.000000 0.042959
#
#
# Mechanical properties :
#
#
# Convention : Reuss Voigt Hill
#
# Bulk Modulus (GPa) = 52.69219 71.07499 61.88359
# Shear Modulus (GPa) = 9.94007 17.44215 13.69111
#
# Velocity S-wave (km/s) = 2.38136 3.15449 2.79479
# Velocity P-wave (km/s) = 6.13370 7.33597 6.76161
#
# Compressibility (1/GPa) = 0.01897815
#
# Stress axis : x y z
#
# Youngs Moduli (GPa) = 58.35625 27.16499 49.88856
#
# Poissons Ratio (x) = 0.10645 0.39593
# Poissons Ratio (y) = 0.22868 0.78088
# Poissons Ratio (z) = 0.46313 0.42520
#
# Static dielectric constant tensor:
#      x y z
#    x 3.565310 0.000000 0.000000 
#    y 0.000000 3.361610 0.000000 
#    z 0.000000 0.000000 3.067570 
# 
# 
# High freq. dielectric constant tensor:
#      x y z
#    x 1.696270 0.000000 0.000000 
#    y 0.000000 1.677190 0.000000 
#    z 0.000000 0.000000 1.654330 
# 
# From -- ./inp_files/22395.got.cif
#   From: 2010.03.12/outbox.cif.g09.slc.cpg/sg59_12_cif.got.tgz:22395.got - 2010.04.16 16:29:54.
