data_PCOD8242980
_publ_section_title
;
Structure prediction by ZEFSAII (Michael W. Deem and Ramdas Pophale) SiO2 
 PCOD8242980
Probable space group: P M M N
;
_chemical_formula_sum "Si O2"
_cell_formula_units_Z 56
_cell_length_a 9.217054
_cell_length_b 14.783697
_cell_length_c 21.730734
_cell_angle_alpha 90.000000
_cell_angle_beta 90.000000
_cell_angle_gamma 90.000000
_cell_volume 2961.076179
_symmetry_space_group_name_H-M "P M M N"
_symmetry_group_IT_number 59
_space_group.IT_coordinate_system_code '2'
_symmetry_cell_setting 'orthorhombic'
loop_
_space_group_symop_operation_xyz
x,y,z
1/2-x,1/2-y,z
1/2+x,-y,-z
-x,1/2+y,-z
-x,-y,-z
1/2+x,1/2+y,-z
1/2-x,y,z
x,1/2-y,z
loop_
_atom_site_type_symbol
_atom_site_label
_atom_site_fract_x
_atom_site_fract_y
_atom_site_fract_z
Si Si1 0.586577 0.642555 0.499982
Si Si2 0.914507 0.855830 0.924710
Si Si3 0.077301 0.349896 0.938035
Si Si4 0.581127 0.986102 0.291876
Si Si5 0.082701 0.646916 0.619229
Si Si6 0.421497 0.504403 0.848332
Si Si7 0.080974 0.856228 0.379973
O O1 0.750000 0.604120 0.496825
O O2 0.585715 0.750000 0.499555
O O3 0.510773 0.608617 0.562356
O O4 0.497484 0.606653 0.441377
O O5 0.750000 0.890491 0.917655
O O6 0.923855 0.750000 0.911886
O O7 0.973770 0.878003 0.993383
O O8 0.013367 0.903398 0.874186
O O9 0.250000 0.346938 0.937452
O O10 0.017035 0.250000 0.921258
O O11 0.016668 0.420519 0.888218
O O12 0.750000 0.959684 0.297388
O O13 0.529249 0.991929 0.221711
O O14 0.486934 0.907205 0.322065
O O15 0.550532 0.083625 0.322474
O O16 0.250000 0.642639 0.599028
O O17 0.039163 0.750000 0.636692
O O18 0.250000 0.511278 0.853462
O O19 0.250000 0.878722 0.385640
O O20 0.053524 0.750000 0.370515
#
# Coordination Sequence:
#
# PCOD8242980 Si02
#       7
#     8   8   8   8   8   8   8
#     4   9  17  31  54  81 103 126 164 215 265 308
#     4   9  18  33  53  76 103 137 173 209 256 311
#     4   8  15  30  52  77 104 134 170 212 259 310
#     4  10  22  36  51  76 106 139 177 211 252 305
#     4   9  18  34  53  72 100 136 171 210 257 309
#     4  10  20  33  52  78 105 135 173 216 258 300
#     4  10  21  37  56  77 103 136 172 211 257 307
#
# _framework density 18.912043000000001
#
# number of rings (size 3 to 8) (size 9 to 14) (size 15 to 20)
#    0.000    2.714    0.000    2.143    0.000    5.714 
#    0.000    2.857    0.000    3.000    0.000    0.000 
#    0.000    0.000    0.000    0.000    0.000    0.000 
#
# Total GULP energy -694443.174344 kJ/mol
# GULP energy per Si atom -12400.770970 kJ/mol
# Density = 1.886900 g / cm^3
# Si number density = 18.912043 Si / 1000 Ang^3
#
#
#
# Elastic Constant Matrix: (Units=GPa)
#
#
# Indices 1 2 3 4 5 6 
#
# 1 72.6849 40.4477 59.5980 0.0000 0.0000 0.0000
# 2 40.4477 70.8750 57.1644 0.0000 0.0000 0.0000
# 3 59.5980 57.1644 146.8386 0.0000 0.0000 0.0000
# 4 0.0000 0.0000 0.0000 26.7183 0.0000 0.0000
# 5 0.0000 0.0000 0.0000 0.0000 20.6982 0.0000
# 6 0.0000 0.0000 0.0000 0.0000 0.0000 26.5437
#
#
#
# Elastic Compliance Matrix: (Units=1/GPa)
#
#
# Indices 1 2 3 4 5 6 
#
# 1 0.023597 -0.008370 -0.006319 0.000000 0.000000 0.000000
# 2 -0.008370 0.023536 -0.005766 0.000000 0.000000 0.000000
# 3 -0.006319 -0.005766 0.011619 0.000000 0.000000 0.000000
# 4 0.000000 0.000000 0.000000 0.037427 0.000000 0.000000
# 5 0.000000 0.000000 0.000000 0.000000 0.048313 0.000000
# 6 0.000000 0.000000 0.000000 0.000000 0.000000 0.037674
#
#
# Mechanical properties :
#
#
# Convention : Reuss Voigt Hill
#
# Bulk Modulus (GPa) = 56.04222 67.20207 61.62215
# Shear Modulus (GPa) = 21.83178 23.67127 22.75152
#
# Velocity S-wave (km/s) = 3.40131 3.54171 3.47222
# Velocity P-wave (km/s) = 6.71734 7.23437 6.98064
#
# Compressibility (1/GPa) = 0.01784369
#
# Stress axis : x y z
#
# Youngs Moduli (GPa) = 42.37836 42.48773 86.06288
#
# Poissons Ratio (x) = 0.35562 0.54383
# Poissons Ratio (y) = 0.35471 0.49620
# Poissons Ratio (z) = 0.26779 0.24496
#
# Static dielectric constant tensor:
#      x y z
#    x 3.330620 0.000000 0.000000 
#    y 0.000000 3.462130 0.000000 
#    z 0.000000 0.000000 3.510780 
# 
# 
# High freq. dielectric constant tensor:
#      x y z
#    x 1.717070 0.000000 0.000000 
#    y 0.000000 1.735960 0.000000 
#    z 0.000000 0.000000 1.732740 
# 
# From -- ./inp_files/28997.got.cif
#   From: 2010.03.12/outbox.cif.g09.slc.cpg/sg59_15_cif.got.tgz:28997.got - 2010.04.16 16:29:54.
