data_PCOD8242021
_publ_section_title
;
Structure prediction by ZEFSAII (Michael W. Deem and Ramdas Pophale) SiO2 
 PCOD8242021
Probable space group: P M M N
;
_chemical_formula_sum "Si O2"
_cell_formula_units_Z 48
_cell_length_a 9.068553
_cell_length_b 15.056449
_cell_length_c 19.019565
_cell_angle_alpha 90.000000
_cell_angle_beta 90.000000
_cell_angle_gamma 90.000000
_cell_volume 2596.935318
_symmetry_space_group_name_H-M "P M M N"
_symmetry_group_IT_number 59
_space_group.IT_coordinate_system_code '2'
_symmetry_cell_setting 'orthorhombic'
loop_
_space_group_symop_operation_xyz
x,y,z
1/2-x,1/2-y,z
1/2+x,-y,-z
-x,1/2+y,-z
-x,-y,-z
1/2+x,1/2+y,-z
1/2-x,y,z
x,1/2-y,z
loop_
_atom_site_type_symbol
_atom_site_label
_atom_site_fract_x
_atom_site_fract_y
_atom_site_fract_z
Si Si1 0.076870 0.250000 0.928206
Si Si2 0.423883 0.100928 0.820338
Si Si3 0.075311 0.902129 0.821362
Si Si4 0.425595 0.750000 0.922828
Si Si5 0.424477 0.005063 0.425262
Si Si6 0.419626 0.649970 0.321855
Si Si7 0.420156 0.852887 0.666751
O O1 0.250000 0.250000 0.943798
O O2 0.028351 0.337029 0.884884
O O3 0.989647 0.250000 0.999991
O O4 0.250000 0.102347 0.809822
O O5 0.489952 0.137383 0.748814
O O6 0.481349 0.001653 0.836919
O O7 0.250000 0.896499 0.821754
O O8 0.014209 0.836689 0.881529
O O9 0.018970 0.870814 0.745139
O O10 0.250000 0.750000 0.927491
O O11 0.250000 0.009128 0.435009
O O12 0.479348 0.093431 0.386953
O O13 0.500000 0.000000 0.500000
O O14 0.474100 0.918383 0.381198
O O15 0.250000 0.631909 0.303351
O O16 0.443851 0.750000 0.350442
O O17 0.250000 0.883541 0.659884
O O18 0.436752 0.750000 0.647934
#
# Coordination Sequence:
#
# PCOD8242021 Si02
#       7
#     4   8   8   4   8   8   8
#     4  10  22  36  50  80 117 146 181 234 289 332
#     4  10  19  34  58  82 108 144 187 231 278 337
#     4   9  17  32  57  84 107 140 189 232 272 332
#     4  10  20  36  56  80 111 150 189 228 275 336
#     4  11  24  40  58  85 120 154 189 236 289 342
#     4  10  21  37  58  84 113 144 186 236 283 334
#     4  10  19  35  62  89 113 147 192 239 287 341
#
# _framework density 18.483325000000001
#
# number of rings (size 3 to 8) (size 9 to 14) (size 15 to 20)
#    0.000    2.000    3.333    0.500    0.000    3.000 
#    0.000    3.333    0.000    0.000    0.000    0.000 
#    0.000    0.000    0.000    0.000    0.000    0.000 
#
# Total GULP energy -595271.404054 kJ/mol
# GULP energy per Si atom -12401.487584 kJ/mol
# Density = 1.844126 g / cm^3
# Si number density = 18.483325 Si / 1000 Ang^3
#
#
#
# Elastic Constant Matrix: (Units=GPa)
#
#
# Indices 1 2 3 4 5 6 
#
# 1 42.6379 34.0302 44.7926 0.0000 0.0000 0.0000
# 2 34.0302 144.8705 68.9552 0.0000 0.0000 0.0000
# 3 44.7926 68.9552 151.8330 0.0000 0.0000 0.0000
# 4 0.0000 0.0000 0.0000 33.9814 0.0000 0.0000
# 5 0.0000 0.0000 0.0000 0.0000 32.8935 0.0000
# 6 0.0000 0.0000 0.0000 0.0000 0.0000 22.8370
#
#
#
# Elastic Compliance Matrix: (Units=1/GPa)
#
#
# Indices 1 2 3 4 5 6 
#
# 1 0.036005 -0.004340 -0.008651 0.000000 0.000000 0.000000
# 2 -0.004340 0.009329 -0.002957 0.000000 0.000000 0.000000
# 3 -0.008651 -0.002957 0.010481 0.000000 0.000000 0.000000
# 4 0.000000 0.000000 0.000000 0.029428 0.000000 0.000000
# 5 0.000000 0.000000 0.000000 0.000000 0.030401 0.000000
# 6 0.000000 0.000000 0.000000 0.000000 0.000000 0.043789
#
#
# Mechanical properties :
#
#
# Convention : Reuss Voigt Hill
#
# Bulk Modulus (GPa) = 41.80491 70.54415 56.17453
# Shear Modulus (GPa) = 25.08752 30.71328 27.90040
#
# Velocity S-wave (km/s) = 3.68816 4.08079 3.88943
# Velocity P-wave (km/s) = 6.38776 7.77515 7.11535
#
# Compressibility (1/GPa) = 0.02392064
#
# Stress axis : x y z
#
# Youngs Moduli (GPa) = 27.77366 107.18711 95.40983
#
# Poissons Ratio (x) = 0.46519 0.82539
# Poissons Ratio (y) = 0.12054 0.28209
# Poissons Ratio (z) = 0.24027 0.31691
#
# Static dielectric constant tensor:
#      x y z
#    x 3.184670 0.000000 0.000000 
#    y 0.000000 3.622670 0.000000 
#    z 0.000000 0.000000 3.365170 
# 
# 
# High freq. dielectric constant tensor:
#      x y z
#    x 1.693870 0.000000 0.000000 
#    y 0.000000 1.736690 0.000000 
#    z 0.000000 0.000000 1.715590 
# 
# From -- ./inp_files/25541.got.cif
#   From: 2010.03.12/outbox.cif.g09.slc.cpg/sg59_13_cif.got.tgz:25541.got - 2010.04.16 16:29:54.
