data_PCOD8242573
_publ_section_title
;
Structure prediction by ZEFSAII (Michael W. Deem and Ramdas Pophale) SiO2 
 PCOD8242573
Probable space group: P M M N
;
_chemical_formula_sum "Si O2"
_cell_formula_units_Z 64
_cell_length_a 14.592638
_cell_length_b 8.761112
_cell_length_c 24.710924
_cell_angle_alpha 90.000000
_cell_angle_beta 90.000000
_cell_angle_gamma 90.000000
_cell_volume 3159.235685
_symmetry_space_group_name_H-M "P M M N"
_symmetry_group_IT_number 59
_space_group.IT_coordinate_system_code '2'
_symmetry_cell_setting 'orthorhombic'
loop_
_space_group_symop_operation_xyz
x,y,z
1/2-x,1/2-y,z
1/2+x,-y,-z
-x,1/2+y,-z
-x,-y,-z
1/2+x,1/2+y,-z
1/2-x,y,z
x,1/2-y,z
loop_
_atom_site_type_symbol
_atom_site_label
_atom_site_fract_x
_atom_site_fract_y
_atom_site_fract_z
Si Si1 0.467831 0.070224 0.132905
Si Si2 0.649042 0.432095 0.080402
Si Si3 0.485304 0.426914 0.441940
Si Si4 0.143006 0.579447 0.040634
Si Si5 0.644077 0.069742 0.646731
Si Si6 0.848052 0.420391 0.281230
Si Si7 0.851301 0.578213 0.389934
Si Si8 0.547666 0.925644 0.750165
O O1 0.476811 0.250000 0.138541
O O2 0.570324 0.004698 0.120598
O O3 0.424416 0.011445 0.190196
O O4 0.401189 0.031566 0.084236
O O5 0.750000 0.495395 0.097242
O O6 0.652681 0.250000 0.079895
O O7 0.623416 0.485507 0.019433
O O8 0.500000 0.500000 0.500000
O O9 0.462435 0.250000 0.448283
O O10 0.403781 0.500200 0.406504
O O11 0.582027 0.450563 0.413101
O O12 0.250000 0.582220 0.051998
O O13 0.102368 0.750000 0.047521
O O14 0.750000 0.016014 0.648369
O O15 0.636727 0.250000 0.642138
O O16 0.593516 0.020453 0.701969
O O17 0.750000 0.433865 0.248874
O O18 0.853768 0.250000 0.307291
O O19 0.846941 0.550669 0.326333
O O20 0.937487 0.445650 0.245253
O O21 0.750000 0.559736 0.415861
O O22 0.888471 0.750000 0.400625
O O23 0.576058 0.750000 0.740350
#
# Coordination Sequence:
#
# PCOD8242573 Si02
#       8
#     8   8   8   8   8   8   8   8
#     4  10  20  32  51  81 112 143 187 239 291 342
#     4   8  15  30  52  77 107 144 185 232 288 352
#     4  12  25  42  66  94 125 158 193 238 289 342
#     4   9  18  33  52  73 101 142 190 237 291 351
#     4  11  25  45  67  89 116 156 204 247 290 343
#     4   9  17  31  53  80 109 144 184 225 276 339
#     4  10  20  35  58  88 120 152 187 229 277 330
#     4  10  21  36  55  83 117 153 190 236 291 347
#
# _framework density 20.258064000000001
#
# number of rings (size 3 to 8) (size 9 to 14) (size 15 to 20)
#    0.000    2.125    1.250    3.000    0.000    4.000 
#    0.000    5.000    0.000    1.125    0.000    1.750 
#    0.000    0.000    0.000    0.000    0.000    0.000 
#
# Total GULP energy -792989.260458 kJ/mol
# GULP energy per Si atom -12390.457195 kJ/mol
# Density = 2.021196 g / cm^3
# Si number density = 20.258064 Si / 1000 Ang^3
#
#
#
# Elastic Constant Matrix: (Units=GPa)
#
#
# Indices 1 2 3 4 5 6 
#
# 1 97.4093 31.3728 47.4426 0.0000 0.0000 0.0000
# 2 31.3728 60.7460 32.0480 0.0000 0.0000 0.0000
# 3 47.4426 32.0480 114.7144 0.0000 0.0000 0.0000
# 4 0.0000 0.0000 0.0000 26.6862 0.0000 0.0000
# 5 0.0000 0.0000 0.0000 0.0000 12.5191 0.0000
# 6 0.0000 0.0000 0.0000 0.0000 0.0000 26.8734
#
#
#
# Elastic Compliance Matrix: (Units=1/GPa)
#
#
# Indices 1 2 3 4 5 6 
#
# 1 0.013996 -0.004896 -0.004420 0.000000 0.000000 0.000000
# 2 -0.004896 0.021021 -0.003848 0.000000 0.000000 0.000000
# 3 -0.004420 -0.003848 0.011620 0.000000 0.000000 0.000000
# 4 0.000000 0.000000 0.000000 0.037473 0.000000 0.000000
# 5 0.000000 0.000000 0.000000 0.000000 0.079878 0.000000
# 6 0.000000 0.000000 0.000000 0.000000 0.000000 0.037211
#
#
# Mechanical properties :
#
#
# Convention : Reuss Voigt Hill
#
# Bulk Modulus (GPa) = 49.24090 54.95517 52.09804
# Shear Modulus (GPa) = 21.34047 24.01616 22.67832
#
# Velocity S-wave (km/s) = 3.24918 3.44686 3.34948
# Velocity P-wave (km/s) = 6.19966 6.55954 6.38214
#
# Compressibility (1/GPa) = 0.02030832
#
# Stress axis : x y z
#
# Youngs Moduli (GPa) = 71.44985 47.57238 86.05567
#
# Poissons Ratio (x) = 0.23292 0.38040
# Poissons Ratio (y) = 0.34983 0.33111
# Poissons Ratio (z) = 0.31584 0.18304
#
# Static dielectric constant tensor:
#      x y z
#    x 6.205770 0.000000 0.000000 
#    y 0.000000 3.498940 0.000000 
#    z 0.000000 0.000000 4.469580 
# 
# 
# High freq. dielectric constant tensor:
#      x y z
#    x 1.800710 0.000000 0.000000 
#    y 0.000000 1.769090 0.000000 
#    z 0.000000 0.000000 1.783620 
# 
# From -- ./inp_files/32097.got.cif
#   From: 2010.03.12/outbox.cif.g09.slc.cpg/sg59_17_cif.got.tgz:32097.got - 2010.04.16 16:29:54.
