data_PCOD8242251
_publ_section_title
;
Structure prediction by ZEFSAII (Michael W. Deem and Ramdas Pophale) SiO2 
 PCOD8242251
Probable space group: P M M N
;
_chemical_formula_sum "Si O2"
_cell_formula_units_Z 56
_cell_length_a 14.057948
_cell_length_b 15.715305
_cell_length_c 12.040001
_cell_angle_alpha 90.000000
_cell_angle_beta 90.000000
_cell_angle_gamma 90.000000
_cell_volume 2659.936504
_symmetry_space_group_name_H-M "P M M N"
_symmetry_group_IT_number 59
_space_group.IT_coordinate_system_code '2'
_symmetry_cell_setting 'orthorhombic'
loop_
_space_group_symop_operation_xyz
x,y,z
1/2-x,1/2-y,z
1/2+x,-y,-z
-x,1/2+y,-z
-x,-y,-z
1/2+x,1/2+y,-z
1/2-x,y,z
x,1/2-y,z
loop_
_atom_site_type_symbol
_atom_site_label
_atom_site_fract_x
_atom_site_fract_y
_atom_site_fract_z
Si Si1 0.640067 0.013312 0.209973
Si Si2 0.146035 0.656348 0.370438
Si Si3 0.958964 0.089737 0.830225
Si Si4 0.637816 0.586823 0.821161
Si Si5 0.356267 0.157291 0.410410
Si Si6 0.107110 0.506669 0.533853
Si Si7 0.039164 0.845397 0.929767
O O1 0.750000 0.990308 0.182701
O O2 0.569852 0.937466 0.173147
O O3 0.627245 0.030842 0.340152
O O4 0.609106 0.096605 0.142736
O O5 0.250000 0.654691 0.312357
O O6 0.128316 0.750000 0.424840
O O7 0.063843 0.644145 0.279156
O O8 0.150730 0.582959 0.462739
O O9 0.884611 0.012317 0.830722
O O10 0.940423 0.143588 0.940135
O O11 0.750000 0.603401 0.842268
O O12 0.597964 0.617033 0.700595
O O13 0.573128 0.635799 0.910628
O O14 0.250000 0.177591 0.375692
O O15 0.403712 0.250000 0.442556
O O16 0.353676 0.088303 0.509418
O O17 0.000000 0.500000 0.500000
O O18 0.063295 0.750000 0.895010
#
# Coordination Sequence:
#
# PCOD8242251 Si02
#       7
#     8   8   8   8   8   8   8
#     4  11  24  42  66  93 129 176 222 268 333 400
#     4  11  23  40  66  98 129 168 220 273 327 389
#     4  11  22  42  65  90 127 171 218 275 329 386
#     4  10  19  36  64  92 123 162 212 269 327 391
#     4  10  20  35  59  91 124 160 207 259 310 375
#     4  12  22  41  65  93 134 177 212 266 328 387
#     4  11  25  42  61  91 129 168 218 275 331 394
#
# _framework density 21.053135000000001
#
# number of rings (size 3 to 8) (size 9 to 14) (size 15 to 20)
#    0.000    1.143    2.857    5.143    0.000    5.143 
#    0.000    0.000    0.000    2.143    0.000    0.000 
#    0.000    0.000    0.000    0.000    0.000    0.000 
#
# Total GULP energy -694003.942197 kJ/mol
# GULP energy per Si atom -12392.927539 kJ/mol
# Density = 2.100522 g / cm^3
# Si number density = 21.053135 Si / 1000 Ang^3
#
#
#
# Elastic Constant Matrix: (Units=GPa)
#
#
# Indices 1 2 3 4 5 6 
#
# 1 117.1418 26.0096 12.6262 0.0000 0.0000 0.0000
# 2 26.0096 132.0000 26.5047 0.0000 0.0000 0.0000
# 3 12.6262 26.5047 100.8771 0.0000 0.0000 0.0000
# 4 0.0000 0.0000 0.0000 5.2168 0.0000 0.0000
# 5 0.0000 0.0000 0.0000 0.0000 23.4513 0.0000
# 6 0.0000 0.0000 0.0000 0.0000 0.0000 12.4289
#
#
#
# Elastic Compliance Matrix: (Units=1/GPa)
#
#
# Indices 1 2 3 4 5 6 
#
# 1 0.008973 -0.001629 -0.000695 0.000000 0.000000 0.000000
# 2 -0.001629 0.008293 -0.001975 0.000000 0.000000 0.000000
# 3 -0.000695 -0.001975 0.010519 0.000000 0.000000 0.000000
# 4 0.000000 0.000000 0.000000 0.191688 0.000000 0.000000
# 5 0.000000 0.000000 0.000000 0.000000 0.042642 0.000000
# 6 0.000000 0.000000 0.000000 0.000000 0.000000 0.080458
#
#
# Mechanical properties :
#
#
# Convention : Reuss Voigt Hill
#
# Bulk Modulus (GPa) = 52.11684 53.36665 52.74174
# Shear Modulus (GPa) = 13.98340 27.21129 20.59734
#
# Velocity S-wave (km/s) = 2.57999 3.59904 3.13125
# Velocity P-wave (km/s) = 5.80378 6.53256 6.17892
#
# Compressibility (1/GPa) = 0.01918766
#
# Stress axis : x y z
#
# Youngs Moduli (GPa) = 111.44312 120.58016 95.06578
#
# Poissons Ratio (x) = 0.19636 0.06609
# Poissons Ratio (y) = 0.18149 0.18777
# Poissons Ratio (z) = 0.07748 0.23816
#
# Static dielectric constant tensor:
#      x y z
#    x 3.932340 0.000000 0.000000 
#    y 0.000000 3.902510 0.000000 
#    z 0.000000 0.000000 3.606070 
# 
# 
# High freq. dielectric constant tensor:
#      x y z
#    x 1.825970 0.000000 0.000000 
#    y 0.000000 1.828200 0.000000 
#    z 0.000000 0.000000 1.816450 
# 
# From -- ./inp_files/16908.got.cif
#   From: 2010.03.12/outbox.cif.g09.slc.cpg/sg59_9_cif.got.tgz:16908.got - 2010.04.16 16:29:54.
