data_PCOD8242078
_publ_section_title
;
Structure prediction by ZEFSAII (Michael W. Deem and Ramdas Pophale) SiO2 
 PCOD8242078
Probable space group: P M M N
;
_chemical_formula_sum "Si O2"
_cell_formula_units_Z 64
_cell_length_a 8.723713
_cell_length_b 18.623168
_cell_length_c 20.079938
_cell_angle_alpha 90.000000
_cell_angle_beta 90.000000
_cell_angle_gamma 90.000000
_cell_volume 3262.250437
_symmetry_space_group_name_H-M "P M M N"
_symmetry_group_IT_number 59
_space_group.IT_coordinate_system_code '2'
_symmetry_cell_setting 'orthorhombic'
loop_
_space_group_symop_operation_xyz
x,y,z
1/2-x,1/2-y,z
1/2+x,-y,-z
-x,1/2+y,-z
-x,-y,-z
1/2+x,1/2+y,-z
1/2-x,y,z
x,1/2-y,z
loop_
_atom_site_type_symbol
_atom_site_label
_atom_site_fract_x
_atom_site_fract_y
_atom_site_fract_z
Si Si1 0.570225 0.829639 0.277731
Si Si2 0.430277 0.604289 0.783632
Si Si3 0.077533 0.667003 0.409564
Si Si4 0.430429 0.069586 0.969421
Si Si5 0.569772 0.072443 0.468442
Si Si6 0.068293 0.333773 0.350479
Si Si7 0.923480 0.833486 0.911764
Si Si8 0.067247 0.445992 0.821789
O O1 0.750000 0.825296 0.268195
O O2 0.497400 0.750000 0.268243
O O3 0.532778 0.860029 0.350870
O O4 0.497530 0.884208 0.225117
O O5 0.250000 0.607197 0.768649
O O6 0.517570 0.643321 0.723507
O O7 0.464045 0.645210 0.852288
O O8 0.490149 0.522803 0.794308
O O9 0.250000 0.646341 0.389206
O O10 0.056089 0.750000 0.422714
O O11 0.028362 0.631842 0.477826
O O12 0.250000 0.062080 0.964921
O O13 0.496871 0.074866 0.894622
O O14 0.479650 0.134820 0.017306
O O15 0.500000 0.000000 0.000000
O O16 0.750000 0.060599 0.456772
O O17 0.499661 0.105631 0.400595
O O18 0.500000 0.000000 0.500000
O O19 0.250000 0.337994 0.355285
O O20 0.015463 0.250000 0.364042
O O21 0.750000 0.859397 0.895141
O O22 0.930234 0.750000 0.922446
O O23 0.250000 0.446116 0.820832
#
# Coordination Sequence:
#
# PCOD8242078 Si02
#       8
#     8   8   8   8   8   8   8   8
#     4   9  18  33  55  82 111 145 186 231 278 331
#     4  11  22  37  59  86 117 156 197 242 295 356
#     4   9  19  37  59  82 111 147 185 225 273 332
#     4  10  19  35  56  78 109 147 187 232 282 339
#     4  11  24  41  62  90 122 157 197 243 293 351
#     4  11  25  44  64  88 121 158 200 251 302 357
#     4  10  21  36  56  84 115 149 192 242 294 349
#     4   9  19  34  54  82 114 146 187 237 287 342
#
# _framework density 19.618359999999999
#
# number of rings (size 3 to 8) (size 9 to 14) (size 15 to 20)
#    0.000    2.000    1.250    1.875    1.750    4.750 
#    0.000    5.000    0.000    0.000    0.000    1.750 
#    0.000    0.000    0.000    0.000    0.000    0.000 
#
# Total GULP energy -793226.555384 kJ/mol
# GULP energy per Si atom -12394.164928 kJ/mol
# Density = 1.957371 g / cm^3
# Si number density = 19.618360 Si / 1000 Ang^3
#
#
#
# Elastic Constant Matrix: (Units=GPa)
#
#
# Indices 1 2 3 4 5 6 
#
# 1 40.0791 32.4212 30.7190 0.0000 0.0000 0.0000
# 2 32.4212 98.6675 64.8232 0.0000 0.0000 0.0000
# 3 30.7190 64.8232 127.4718 0.0000 0.0000 0.0000
# 4 0.0000 0.0000 0.0000 43.5144 0.0000 0.0000
# 5 0.0000 0.0000 0.0000 0.0000 25.6003 0.0000
# 6 0.0000 0.0000 0.0000 0.0000 0.0000 25.7002
#
#
#
# Elastic Compliance Matrix: (Units=1/GPa)
#
#
# Indices 1 2 3 4 5 6 
#
# 1 0.035235 -0.009009 -0.003910 0.000000 0.000000 0.000000
# 2 -0.009009 0.017524 -0.006740 0.000000 0.000000 0.000000
# 3 -0.003910 -0.006740 0.012215 0.000000 0.000000 0.000000
# 4 0.000000 0.000000 0.000000 0.022981 0.000000 0.000000
# 5 0.000000 0.000000 0.000000 0.000000 0.039062 0.000000
# 6 0.000000 0.000000 0.000000 0.000000 0.000000 0.038910
#
#
# Mechanical properties :
#
#
# Convention : Reuss Voigt Hill
#
# Bulk Modulus (GPa) = 38.97863 58.01615 48.49739
# Shear Modulus (GPa) = 23.38670 28.17997 25.78334
#
# Velocity S-wave (km/s) = 3.45640 3.79411 3.62918
# Velocity P-wave (km/s) = 5.98669 6.98787 6.50656
#
# Compressibility (1/GPa) = 0.02565509
#
# Stress axis : x y z
#
# Youngs Moduli (GPa) = 28.38068 57.06583 81.86899
#
# Poissons Ratio (x) = 0.51413 0.32008
# Poissons Ratio (y) = 0.25569 0.55181
# Poissons Ratio (z) = 0.11096 0.38463
#
# Static dielectric constant tensor:
#      x y z
#    x 3.338600 0.000000 0.000000 
#    y 0.000000 4.510360 0.000000 
#    z 0.000000 0.000000 3.852330 
# 
# 
# High freq. dielectric constant tensor:
#      x y z
#    x 1.745440 0.000000 0.000000 
#    y 0.000000 1.773440 0.000000 
#    z 0.000000 0.000000 1.778170 
# 
# From -- ./inp_files/29357.got.cif
#   From: 2010.03.12/outbox.cif.g09.slc.cpg/sg59_15_cif.got.tgz:29357.got - 2010.04.16 16:29:54.
