data_PCOD8242373
_publ_section_title
;
Structure prediction by ZEFSAII (Michael W. Deem and Ramdas Pophale) SiO2 
 PCOD8242373
Probable space group: P M M N
;
_chemical_formula_sum "Si O2"
_cell_formula_units_Z 64
_cell_length_a 9.319882
_cell_length_b 14.065650
_cell_length_c 25.517630
_cell_angle_alpha 90.000000
_cell_angle_beta 90.000000
_cell_angle_gamma 90.000000
_cell_volume 3345.111176
_symmetry_space_group_name_H-M "P M M N"
_symmetry_group_IT_number 59
_space_group.IT_coordinate_system_code '2'
_symmetry_cell_setting 'orthorhombic'
loop_
_space_group_symop_operation_xyz
x,y,z
1/2-x,1/2-y,z
1/2+x,-y,-z
-x,1/2+y,-z
-x,-y,-z
1/2+x,1/2+y,-z
1/2-x,y,z
x,1/2-y,z
loop_
_atom_site_type_symbol
_atom_site_label
_atom_site_fract_x
_atom_site_fract_y
_atom_site_fract_z
Si Si1 0.079449 0.444451 0.779615
Si Si2 0.092024 0.356631 0.975823
Si Si3 0.917383 0.857005 0.519958
Si Si4 0.085927 0.852252 0.818510
Si Si5 0.084081 0.861199 0.317587
Si Si6 0.592848 0.605074 0.912514
Si Si7 0.583792 0.450865 0.572027
Si Si8 0.408483 0.896177 0.123401
O O1 0.250000 0.430378 0.781522
O O2 0.033973 0.556573 0.784684
O O3 0.019202 0.404850 0.725747
O O4 0.008203 0.380545 0.825651
O O5 0.250000 0.397581 0.959187
O O6 0.109391 0.250000 0.995773
O O7 0.983807 0.354581 0.927697
O O8 0.031031 0.409861 0.028152
O O9 0.750000 0.859865 0.507211
O O10 0.961969 0.750000 0.538783
O O11 0.997363 0.882457 0.466505
O O12 0.956165 0.937059 0.563781
O O13 0.250000 0.870558 0.832547
O O14 0.064666 0.750000 0.788312
O O15 0.010128 0.836482 0.874622
O O16 0.250000 0.876207 0.301533
O O17 0.050956 0.750000 0.326336
O O18 0.045348 0.920322 0.369404
O O19 0.750000 0.653759 0.916818
O O20 0.610660 0.506255 0.884064
O O21 0.750000 0.433147 0.559876
O O22 0.250000 0.849174 0.131206
#
# Coordination Sequence:
#
# PCOD8242373 Si02
#       8
#     8   8   8   8   8   8   8   8
#     4  10  21  37  56  76  99 129 167 211 257 306
#     4  10  20  32  46  67  96 126 155 191 239 296
#     4   9  17  30  51  81 116 150 182 218 259 303
#     4   9  18  33  53  76 101 128 158 197 249 307
#     4  10  21  37  56  77 103 136 175 220 264 303
#     4   9  18  32  50  72  96 123 156 194 239 294
#     4   9  18  33  53  78 110 147 184 220 260 307
#     4  10  20  34  52  71  93 123 159 200 245 296
#
# _framework density 19.132400000000001
#
# number of rings (size 3 to 8) (size 9 to 14) (size 15 to 20)
#    0.000    2.500    0.000    1.875    0.000    4.500 
#    0.000    0.625    0.000    0.750    0.000    0.000 
#    0.000    0.000    0.000    0.000    0.000    0.000 
#
# Total GULP energy -792930.418454 kJ/mol
# GULP energy per Si atom -12389.537788 kJ/mol
# Density = 1.908885 g / cm^3
# Si number density = 19.132400 Si / 1000 Ang^3
#
#
#
# Elastic Constant Matrix: (Units=GPa)
#
#
# Indices 1 2 3 4 5 6 
#
# 1 80.9458 37.5728 57.0204 0.0000 0.0000 0.0000
# 2 37.5728 99.8112 51.3681 0.0000 0.0000 0.0000
# 3 57.0204 51.3681 124.4375 0.0000 0.0000 0.0000
# 4 0.0000 0.0000 0.0000 20.8642 0.0000 0.0000
# 5 0.0000 0.0000 0.0000 0.0000 34.0783 0.0000
# 6 0.0000 0.0000 0.0000 0.0000 0.0000 31.1245
#
#
#
# Elastic Compliance Matrix: (Units=1/GPa)
#
#
# Indices 1 2 3 4 5 6 
#
# 1 0.019116 -0.003413 -0.007351 0.000000 0.000000 0.000000
# 2 -0.003413 0.013331 -0.003939 0.000000 0.000000 0.000000
# 3 -0.007351 -0.003939 0.013030 0.000000 0.000000 0.000000
# 4 0.000000 0.000000 0.000000 0.047929 0.000000 0.000000
# 5 0.000000 0.000000 0.000000 0.000000 0.029344 0.000000
# 6 0.000000 0.000000 0.000000 0.000000 0.000000 0.032129
#
#
# Mechanical properties :
#
#
# Convention : Reuss Voigt Hill
#
# Bulk Modulus (GPa) = 62.21969 66.34636 64.28302
# Shear Modulus (GPa) = 26.36538 27.82895 27.09717
#
# Velocity S-wave (km/s) = 3.71624 3.81799 3.76746
# Velocity P-wave (km/s) = 7.14178 7.36131 7.25237
#
# Compressibility (1/GPa) = 0.01607208
#
# Stress axis : x y z
#
# Youngs Moduli (GPa) = 52.31183 75.01310 76.74323
#
# Poissons Ratio (x) = 0.25602 0.56411
# Poissons Ratio (y) = 0.17854 0.30230
# Poissons Ratio (z) = 0.38452 0.29549
#
# Static dielectric constant tensor:
#      x y z
#    x 3.751510 0.000000 0.000000 
#    y 0.000000 3.746550 0.000000 
#    z 0.000000 0.000000 3.278300 
# 
# 
# High freq. dielectric constant tensor:
#      x y z
#    x 1.744340 0.000000 0.000000 
#    y 0.000000 1.754280 0.000000 
#    z 0.000000 0.000000 1.719370 
# 
# From -- ./inp_files/31625.got.cif
#   From: 2010.03.12/outbox.cif.g09.slc.cpg/sg59_16_cif.got.tgz:31625.got - 2010.04.16 16:29:54.
