data_PCOD8242231
_publ_section_title
;
Structure prediction by ZEFSAII (Michael W. Deem and Ramdas Pophale) SiO2 
 PCOD8242231
Probable space group: P M M N
;
_chemical_formula_sum "Si O2"
_cell_formula_units_Z 48
_cell_length_a 8.512883
_cell_length_b 30.491282
_cell_length_c 9.521636
_cell_angle_alpha 90.000000
_cell_angle_beta 90.000000
_cell_angle_gamma 90.000000
_cell_volume 2471.518833
_symmetry_space_group_name_H-M "P M M N"
_symmetry_group_IT_number 59
_space_group.IT_coordinate_system_code '2'
_symmetry_cell_setting 'orthorhombic'
loop_
_space_group_symop_operation_xyz
x,y,z
1/2-x,1/2-y,z
1/2+x,-y,-z
-x,1/2+y,-z
-x,-y,-z
1/2+x,1/2+y,-z
1/2-x,y,z
x,1/2-y,z
loop_
_atom_site_type_symbol
_atom_site_label
_atom_site_fract_x
_atom_site_fract_y
_atom_site_fract_z
Si Si1 0.563985 0.674195 0.353304
Si Si2 0.065981 0.500350 0.845452
Si Si3 0.435537 0.075679 0.650014
Si Si4 0.565590 0.923724 0.664880
Si Si5 0.435838 0.750000 0.844196
Si Si6 0.935730 0.170351 0.344746
Si Si7 0.436724 0.750000 0.163395
O O1 0.750000 0.678115 0.374225
O O2 0.514591 0.624943 0.306607
O O3 0.481245 0.686359 0.499526
O O4 0.504796 0.706579 0.234030
O O5 0.250000 0.494191 0.854495
O O6 0.990650 0.459775 0.757093
O O7 0.026550 0.546086 0.772931
O O8 0.000000 0.500000 0.000000
O O9 0.250000 0.071745 0.650564
O O10 0.494820 0.065245 0.492370
O O11 0.750000 0.931673 0.682245
O O12 0.526290 0.873539 0.699326
O O13 0.250000 0.750000 0.841142
O O14 0.496496 0.793149 0.764182
O O15 0.497579 0.750000 0.003457
O O16 0.750000 0.162662 0.336451
O O17 0.250000 0.750000 0.174609
#
# Coordination Sequence:
#
# PCOD8242231 Si02
#       7
#     8   8   8   8   4   8   4
#     4  10  20  37  58  83 109 139 179 227 273 321
#     4  11  22  37  55  80 112 148 183 223 274 331
#     4   8  18  36  58  80 107 139 178 224 273 323
#     4  10  20  37  58  83 110 141 182 230 274 323
#     4   9  21  37  54  78 112 145 180 221 268 324
#     4  10  19  36  60  85 110 143 182 226 275 328
#     4  11  22  37  54  78 110 147 182 219 264 318
#
# _framework density 19.421257000000001
#
# number of rings (size 3 to 8) (size 9 to 14) (size 15 to 20)
#    0.000    2.167    0.000    4.250    0.000    2.000 
#    0.000   17.083    0.000    0.000    0.000    0.000 
#    0.000    0.000    0.000    0.000    0.000    0.000 
#
# Total GULP energy -595256.006400 kJ/mol
# GULP energy per Si atom -12401.166800 kJ/mol
# Density = 1.937705 g / cm^3
# Si number density = 19.421257 Si / 1000 Ang^3
#
#
#
# Elastic Constant Matrix: (Units=GPa)
#
#
# Indices 1 2 3 4 5 6 
#
# 1 44.7043 13.6569 18.5231 0.0000 0.0000 0.0000
# 2 13.6569 133.6714 98.5337 0.0000 0.0000 0.0000
# 3 18.5231 98.5337 155.8923 0.0000 0.0000 0.0000
# 4 0.0000 0.0000 0.0000 25.2291 0.0000 0.0000
# 5 0.0000 0.0000 0.0000 0.0000 27.2175 0.0000
# 6 0.0000 0.0000 0.0000 0.0000 0.0000 27.3787
#
#
#
# Elastic Compliance Matrix: (Units=1/GPa)
#
#
# Indices 1 2 3 4 5 6 
#
# 1 0.023557 -0.000643 -0.002393 0.000000 0.000000 0.000000
# 2 -0.000643 0.014025 -0.008788 0.000000 0.000000 0.000000
# 3 -0.002393 -0.008788 0.012254 0.000000 0.000000 0.000000
# 4 0.000000 0.000000 0.000000 0.039637 0.000000 0.000000
# 5 0.000000 0.000000 0.000000 0.000000 0.036741 0.000000
# 6 0.000000 0.000000 0.000000 0.000000 0.000000 0.036525
#
#
# Mechanical properties :
#
#
# Convention : Reuss Voigt Hill
#
# Bulk Modulus (GPa) = 38.18571 66.18838 52.18704
# Shear Modulus (GPa) = 25.62594 29.53534 27.58064
#
# Velocity S-wave (km/s) = 3.63640 3.90394 3.77254
# Velocity P-wave (km/s) = 6.11030 7.38074 6.77536
#
# Compressibility (1/GPa) = 0.02618781
#
# Stress axis : x y z
#
# Youngs Moduli (GPa) = 42.45016 71.30263 81.60877
#
# Poissons Ratio (x) = 0.04586 0.19525
# Poissons Ratio (y) = 0.02730 0.71718
# Poissons Ratio (z) = 0.10156 0.62661
#
# Static dielectric constant tensor:
#      x y z
#    x 3.416660 0.000000 0.000000 
#    y 0.000000 2.697670 0.000000 
#    z 0.000000 0.000000 3.621500 
# 
# 
# High freq. dielectric constant tensor:
#      x y z
#    x 1.745700 0.000000 0.000000 
#    y 0.000000 1.770410 0.000000 
#    z 0.000000 0.000000 1.754320 
# 
# From -- ./inp_files/6343.got.cif
#   From: 2010.03.12/outbox.cif.g09.slc.cpg/sg59_4_cif.got.tgz:6343.got - 2010.04.16 16:29:54.
