data_PCOD8242456
_publ_section_title
;
Structure prediction by ZEFSAII (Michael W. Deem and Ramdas Pophale) SiO2 
 PCOD8242456
Probable space group: P M M N
;
_chemical_formula_sum "Si O2"
_cell_formula_units_Z 40
_cell_length_a 9.211954
_cell_length_b 8.768910
_cell_length_c 25.944112
_cell_angle_alpha 90.000000
_cell_angle_beta 90.000000
_cell_angle_gamma 90.000000
_cell_volume 2095.734119
_symmetry_space_group_name_H-M "P M M N"
_symmetry_group_IT_number 59
_space_group.IT_coordinate_system_code '2'
_symmetry_cell_setting 'orthorhombic'
loop_
_space_group_symop_operation_xyz
x,y,z
1/2-x,1/2-y,z
1/2+x,-y,-z
-x,1/2+y,-z
-x,-y,-z
1/2+x,1/2+y,-z
1/2-x,y,z
x,1/2-y,z
loop_
_atom_site_type_symbol
_atom_site_label
_atom_site_fract_x
_atom_site_fract_y
_atom_site_fract_z
Si Si1 0.413032 0.431195 0.355076
Si Si2 0.412549 0.431067 0.241505
Si Si3 0.416994 0.930598 0.857040
Si Si4 0.916904 0.069842 0.952063
Si Si5 0.914834 0.431013 0.452628
O O1 0.250000 0.488840 0.366643
O O2 0.416882 0.250000 0.355731
O O3 0.462543 0.489544 0.298242
O O4 0.518688 0.495897 0.399203
O O5 0.250000 0.491593 0.229184
O O6 0.410171 0.250000 0.241751
O O7 0.524420 0.489254 0.198278
O O8 0.250000 0.979719 0.862222
O O9 0.435466 0.750000 0.863336
O O10 0.510696 0.013003 0.899950
O O11 0.750000 0.015777 0.953376
O O12 0.928809 0.250000 0.955406
O O13 0.000000 0.000000 0.000000
O O14 0.750000 0.487252 0.455514
O O15 0.927212 0.250000 0.454909
O O16 0.000000 0.500000 0.500000
#
# Coordination Sequence:
#
# PCOD8242456 Si02
#       5
#     8   8   8   8   8
#     4   8  14  26  45  69  97 129 165 205 249 297
#     4   8  14  26  46  72 101 133 167 203 246 295
#     4  10  20  33  52  80 110 138 169 205 247 296
#     4  11  24  40  58  80 105 135 172 211 252 299
#     4  10  20  32  48  71  98 130 168 209 255 305
#
# _framework density 19.086392
#
# number of rings (size 3 to 8) (size 9 to 14) (size 15 to 20)
#    0.000    2.600    0.000    3.600    0.000    7.200 
#    0.000    4.000    0.000    1.200    0.000    8.400 
#    0.000    0.000    0.000    0.000    0.000    0.000 
#
# Total GULP energy -495871.447022 kJ/mol
# GULP energy per Si atom -12396.786176 kJ/mol
# Density = 1.904295 g / cm^3
# Si number density = 19.086392 Si / 1000 Ang^3
#
#
#
# Elastic Constant Matrix: (Units=GPa)
#
#
# Indices 1 2 3 4 5 6 
#
# 1 174.5578 35.9402 113.1339 0.0000 0.0000 0.0000
# 2 35.9402 23.3027 30.5407 0.0000 0.0000 0.0000
# 3 113.1339 30.5407 188.6129 0.0000 0.0000 0.0000
# 4 0.0000 0.0000 0.0000 25.0302 0.0000 0.0000
# 5 0.0000 0.0000 0.0000 0.0000 46.0182 0.0000
# 6 0.0000 0.0000 0.0000 0.0000 0.0000 21.4236
#
#
#
# Elastic Compliance Matrix: (Units=1/GPa)
#
#
# Indices 1 2 3 4 5 6 
#
# 1 0.011138 -0.010691 -0.004950 0.000000 0.000000 0.000000
# 2 -0.010691 0.064736 -0.004069 0.000000 0.000000 0.000000
# 3 -0.004950 -0.004069 0.008930 0.000000 0.000000 0.000000
# 4 0.000000 0.000000 0.000000 0.039952 0.000000 0.000000
# 5 0.000000 0.000000 0.000000 0.000000 0.021731 0.000000
# 6 0.000000 0.000000 0.000000 0.000000 0.000000 0.046678
#
#
# Mechanical properties :
#
#
# Convention : Reuss Voigt Hill
#
# Bulk Modulus (GPa) = 22.03451 82.85587 52.44519
# Shear Modulus (GPa) = 20.18472 32.28497 26.23484
#
# Velocity S-wave (km/s) = 3.25552 4.11727 3.71149
# Velocity P-wave (km/s) = 5.06960 8.13067 6.77527
#
# Compressibility (1/GPa) = 0.04538336
#
# Stress axis : x y z
#
# Youngs Moduli (GPa) = 89.78326 15.44727 111.98622
#
# Poissons Ratio (x) = 0.16515 0.55429
# Poissons Ratio (y) = 0.95990 0.45572
# Poissons Ratio (z) = 0.44439 0.06286
#
# Static dielectric constant tensor:
#      x y z
#    x 3.749790 0.000000 0.000000 
#    y 0.000000 3.047880 0.000000 
#    z 0.000000 0.000000 3.995990 
# 
# 
# High freq. dielectric constant tensor:
#      x y z
#    x 1.749270 0.000000 0.000000 
#    y 0.000000 1.691770 0.000000 
#    z 0.000000 0.000000 1.764270 
# 
# From -- ./inp_files/31139.got.cif
#   From: 2010.03.12/outbox.cif.g09.slc.cpg/sg59_16_cif.got.tgz:31139.got - 2010.04.16 16:29:54.
