data_PCOD8242729
_publ_section_title
;
Structure prediction by ZEFSAII (Michael W. Deem and Ramdas Pophale) SiO2 
 PCOD8242729
Probable space group: P M M N
;
_chemical_formula_sum "Si O2"
_cell_formula_units_Z 56
_cell_length_a 19.071382
_cell_length_b 9.383484
_cell_length_c 17.660624
_cell_angle_alpha 90.000000
_cell_angle_beta 90.000000
_cell_angle_gamma 90.000000
_cell_volume 3160.474767
_symmetry_space_group_name_H-M "P M M N"
_symmetry_group_IT_number 59
_space_group.IT_coordinate_system_code '2'
_symmetry_cell_setting 'orthorhombic'
loop_
_space_group_symop_operation_xyz
x,y,z
1/2-x,1/2-y,z
1/2+x,-y,-z
-x,1/2+y,-z
-x,-y,-z
1/2+x,1/2+y,-z
1/2-x,y,z
x,1/2-y,z
loop_
_atom_site_type_symbol
_atom_site_label
_atom_site_fract_x
_atom_site_fract_y
_atom_site_fract_z
Si Si1 0.426484 0.416076 0.414969
Si Si2 0.170071 0.084699 0.717603
Si Si3 0.572942 0.081438 0.995432
Si Si4 0.330292 0.584233 0.863746
Si Si5 0.667285 0.089930 0.693022
Si Si6 0.435854 0.085308 0.588184
Si Si7 0.327957 0.918806 0.137748
O O1 0.432677 0.250000 0.397402
O O2 0.363334 0.480592 0.367203
O O3 0.498130 0.490098 0.389321
O O4 0.410570 0.446477 0.503014
O O5 0.250000 0.043983 0.699562
O O6 0.161253 0.250000 0.736793
O O7 0.126702 0.040938 0.643632
O O8 0.142350 0.999107 0.790146
O O9 0.558775 0.250000 0.991049
O O10 0.615063 0.024137 0.921982
O O11 0.620168 0.040530 0.067237
O O12 0.500000 0.000000 0.000000
O O13 0.250000 0.542324 0.883798
O O14 0.336077 0.750000 0.845444
O O15 0.750000 0.088507 0.683838
O O16 0.638568 0.250000 0.678228
O O17 0.646884 0.039059 0.777839
O O18 0.457268 0.250000 0.597531
O O19 0.250000 0.982210 0.120889
O O20 0.322353 0.750000 0.130886
#
# Coordination Sequence:
#
# PCOD8242729 Si02
#       7
#     8   8   8   8   8   8   8
#     4  10  20  33  51  74 100 131 166 205 248 293
#     4   9  18  33  53  75  97 125 164 205 243 288
#     4  10  20  33  50  73 100 128 160 199 240 284
#     4   9  18  33  52  73  98 128 161 199 244 290
#     4   9  18  33  53  76 100 127 163 205 246 292
#     4   9  19  35  52  70  97 134 170 202 240 292
#     4   8  15  31  54  73  90 123 169 203 229 276
#
# _framework density 17.718855999999999
#
# number of rings (size 3 to 8) (size 9 to 14) (size 15 to 20)
#    0.000    2.857    0.000    1.714    0.000    5.429 
#    0.000    6.429    0.000    3.857    0.000    0.000 
#    0.000    0.000    0.000    0.000    0.000    0.000 
#
# Total GULP energy -694387.487070 kJ/mol
# GULP energy per Si atom -12399.776555 kJ/mol
# Density = 1.767853 g / cm^3
# Si number density = 17.718856 Si / 1000 Ang^3
#
#
#
# Elastic Constant Matrix: (Units=GPa)
#
#
# Indices 1 2 3 4 5 6 
#
# 1 92.5454 44.5149 73.9071 0.0000 0.0000 0.0000
# 2 44.5149 55.7976 52.5880 0.0000 0.0000 0.0000
# 3 73.9071 52.5880 126.4018 0.0000 0.0000 0.0000
# 4 0.0000 0.0000 0.0000 27.8417 0.0000 0.0000
# 5 0.0000 0.0000 0.0000 0.0000 23.9011 0.0000
# 6 0.0000 0.0000 0.0000 0.0000 0.0000 31.1732
#
#
#
# Elastic Compliance Matrix: (Units=1/GPa)
#
#
# Indices 1 2 3 4 5 6 
#
# 1 0.022860 -0.009278 -0.009506 0.000000 0.000000 0.000000
# 2 -0.009278 0.033248 -0.008407 0.000000 0.000000 0.000000
# 3 -0.009506 -0.008407 0.016967 0.000000 0.000000 0.000000
# 4 0.000000 0.000000 0.000000 0.035917 0.000000 0.000000
# 5 0.000000 0.000000 0.000000 0.000000 0.041839 0.000000
# 6 0.000000 0.000000 0.000000 0.000000 0.000000 0.032079
#
#
# Mechanical properties :
#
#
# Convention : Reuss Voigt Hill
#
# Bulk Modulus (GPa) = 53.49995 68.52945 61.01470
# Shear Modulus (GPa) = 20.53182 23.49885 22.01534
#
# Velocity S-wave (km/s) = 3.40774 3.64566 3.52871
# Velocity P-wave (km/s) = 6.76335 7.51539 7.14927
#
# Compressibility (1/GPa) = 0.01869160
#
# Stress axis : x y z
#
# Youngs Moduli (GPa) = 43.74443 30.07721 58.93685
#
# Poissons Ratio (x) = 0.27906 0.56026
# Poissons Ratio (y) = 0.40587 0.49550
# Poissons Ratio (z) = 0.41584 0.25287
#
# Static dielectric constant tensor:
#      x y z
#    x 3.300290 0.000000 0.000000 
#    y 0.000000 3.145420 0.000000 
#    z 0.000000 0.000000 3.492040 
# 
# 
# High freq. dielectric constant tensor:
#      x y z
#    x 1.682500 0.000000 0.000000 
#    y 0.000000 1.666950 0.000000 
#    z 0.000000 0.000000 1.693780 
# 
# From -- ./inp_files/24229.got.cif
#   From: 2010.03.12/outbox.cif.g09.slc.cpg/sg59_13_cif.got.tgz:24229.got - 2010.04.16 16:29:54.
