data_PCOD8242864
_publ_section_title
;
Structure prediction by ZEFSAII (Michael W. Deem and Ramdas Pophale) SiO2 
 PCOD8242864
Probable space group: P M M N
;
_chemical_formula_sum "Si O2"
_cell_formula_units_Z 56
_cell_length_a 9.257921
_cell_length_b 18.566132
_cell_length_c 18.832040
_cell_angle_alpha 90.000000
_cell_angle_beta 90.000000
_cell_angle_gamma 90.000000
_cell_volume 3236.922283
_symmetry_space_group_name_H-M "P M M N"
_symmetry_group_IT_number 59
_space_group.IT_coordinate_system_code '2'
_symmetry_cell_setting 'orthorhombic'
loop_
_space_group_symop_operation_xyz
x,y,z
1/2-x,1/2-y,z
1/2+x,-y,-z
-x,1/2+y,-z
-x,-y,-z
1/2+x,1/2+y,-z
1/2-x,y,z
x,1/2-y,z
loop_
_atom_site_type_symbol
_atom_site_label
_atom_site_fract_x
_atom_site_fract_y
_atom_site_fract_z
Si Si1 0.580240 0.531186 0.567165
Si Si2 0.078849 0.168094 0.968497
Si Si3 0.081821 0.063312 0.846586
Si Si4 0.089522 0.617489 0.755038
Si Si5 0.082869 0.982593 0.281116
Si Si6 0.587175 0.405542 0.093617
Si Si7 0.086290 0.828896 0.608270
O O1 0.500000 0.500000 0.500000
O O2 0.750000 0.536323 0.552606
O O3 0.547943 0.478178 0.634323
O O4 0.522770 0.611938 0.579045
O O5 0.250000 0.166588 0.974708
O O6 0.020053 0.250000 0.967211
O O7 0.027183 0.127911 0.897000
O O8 0.020007 0.124481 0.035359
O O9 0.250000 0.070350 0.831762
O O10 0.004290 0.072502 0.769632
O O11 0.044558 0.987194 0.884318
O O12 0.250000 0.579712 0.750102
O O13 0.073011 0.645646 0.836022
O O14 0.078264 0.677920 0.694469
O O15 0.960779 0.562324 0.741613
O O16 0.250000 0.969583 0.266508
O O17 0.750000 0.403587 0.063189
O O18 0.250000 0.849070 0.585090
O O19 0.043968 0.750000 0.578248
#
# Coordination Sequence:
#
# PCOD8242864 Si02
#       7
#     8   8   8   8   8   8   8
#     4  10  20  33  51  76 104 131 161 200 242 286
#     4  10  21  34  46  64  92 124 158 199 247 292
#     4   9  18  33  51  68  89 121 160 199 239 286
#     4   8  15  28  45  67  95 125 156 188 227 279
#     4   9  17  29  48  74  96 115 148 193 235 275
#     4   9  17  29  47  70  93 121 159 199 236 279
#     4   9  17  30  49  72 100 135 168 196 234 287
#
# _framework density 17.300384999999999
#
# number of rings (size 3 to 8) (size 9 to 14) (size 15 to 20)
#    0.000    2.857    0.000    2.143    0.000    5.714 
#    0.000    1.429    0.000    0.857    0.000    4.000 
#    0.000    0.000    0.000    0.000    0.000    0.000 
#
# Total GULP energy -693755.307307 kJ/mol
# GULP energy per Si atom -12388.487630 kJ/mol
# Density = 1.726101 g / cm^3
# Si number density = 17.300385 Si / 1000 Ang^3
#
#
#
# Elastic Constant Matrix: (Units=GPa)
#
#
# Indices 1 2 3 4 5 6 
#
# 1 66.7844 35.1672 63.9011 0.0000 0.0000 0.0000
# 2 35.1672 65.4880 50.3011 0.0000 0.0000 0.0000
# 3 63.9011 50.3011 128.9599 0.0000 0.0000 0.0000
# 4 0.0000 0.0000 0.0000 14.5325 0.0000 0.0000
# 5 0.0000 0.0000 0.0000 0.0000 31.3137 0.0000
# 6 0.0000 0.0000 0.0000 0.0000 0.0000 17.8386
#
#
#
# Elastic Compliance Matrix: (Units=1/GPa)
#
#
# Indices 1 2 3 4 5 6 
#
# 1 0.030457 -0.006801 -0.012439 0.000000 0.000000 0.000000
# 2 -0.006801 0.023320 -0.005726 0.000000 0.000000 0.000000
# 3 -0.012439 -0.005726 0.016151 0.000000 0.000000 0.000000
# 4 0.000000 0.000000 0.000000 0.068811 0.000000 0.000000
# 5 0.000000 0.000000 0.000000 0.000000 0.031935 0.000000
# 6 0.000000 0.000000 0.000000 0.000000 0.000000 0.056058
#
#
# Mechanical properties :
#
#
# Convention : Reuss Voigt Hill
#
# Bulk Modulus (GPa) = 50.00912 62.21903 56.11407
# Shear Modulus (GPa) = 17.64723 20.19449 18.92086
#
# Velocity S-wave (km/s) = 3.19728 3.42026 3.31065
# Velocity P-wave (km/s) = 6.52681 7.18607 6.86436
#
# Compressibility (1/GPa) = 0.01999635
#
# Stress axis : x y z
#
# Youngs Moduli (GPa) = 32.83346 42.88093 61.91380
#
# Poissons Ratio (x) = 0.29163 0.77014
# Poissons Ratio (y) = 0.22330 0.35453
# Poissons Ratio (z) = 0.40841 0.24554
#
# Static dielectric constant tensor:
#      x y z
#    x 3.204620 0.000000 0.000000 
#    y 0.000000 3.067250 0.000000 
#    z 0.000000 0.000000 3.420970 
# 
# 
# High freq. dielectric constant tensor:
#      x y z
#    x 1.667970 0.000000 0.000000 
#    y 0.000000 1.631790 0.000000 
#    z 0.000000 0.000000 1.668390 
# 
# From -- ./inp_files/29288.got.cif
#   From: 2010.03.12/outbox.cif.g09.slc.cpg/sg59_15_cif.got.tgz:29288.got - 2010.04.16 16:29:54.
