data_PCOD8242120
_publ_section_title
;
Structure prediction by ZEFSAII (Michael W. Deem and Ramdas Pophale) SiO2 
 PCOD8242120
Probable space group: P M M N
;
_chemical_formula_sum "Si O2"
_cell_formula_units_Z 64
_cell_length_a 19.970677
_cell_length_b 8.791867
_cell_length_c 18.993324
_cell_angle_alpha 90.000000
_cell_angle_beta 90.000000
_cell_angle_gamma 90.000000
_cell_volume 3334.839017
_symmetry_space_group_name_H-M "P M M N"
_symmetry_group_IT_number 59
_space_group.IT_coordinate_system_code '2'
_symmetry_cell_setting 'orthorhombic'
loop_
_space_group_symop_operation_xyz
x,y,z
1/2-x,1/2-y,z
1/2+x,-y,-z
-x,1/2+y,-z
-x,-y,-z
1/2+x,1/2+y,-z
1/2-x,y,z
x,1/2-y,z
loop_
_atom_site_type_symbol
_atom_site_label
_atom_site_fract_x
_atom_site_fract_y
_atom_site_fract_z
Si Si1 0.327607 0.575382 0.929881
Si Si2 0.933501 0.571334 0.970260
Si Si3 0.823463 0.070035 0.228654
Si Si4 0.823592 0.917975 0.754738
Si Si5 0.440368 0.574135 0.179377
Si Si6 0.961638 0.069982 0.288350
Si Si7 0.178945 0.079455 0.411243
Si Si8 0.966735 0.931914 0.568140
O O1 0.250000 0.559019 0.950155
O O2 0.351148 0.750000 0.936028
O O3 0.339911 0.512835 0.850507
O O4 0.369491 0.476029 0.984240
O O5 0.940197 0.750000 0.972686
O O6 0.926295 0.517541 0.890920
O O7 0.000000 0.500000 0.000000
O O8 0.750000 0.006260 0.253322
O O9 0.818227 0.250000 0.224586
O O10 0.882788 0.022643 0.282810
O O11 0.750000 0.952063 0.786165
O O12 0.848303 0.750000 0.780478
O O13 0.820571 0.915005 0.671772
O O14 0.873021 0.052465 0.775940
O O15 0.453357 0.750000 0.163192
O O16 0.502748 0.508420 0.222444
O O17 0.971127 0.250000 0.280939
O O18 0.993033 0.012393 0.362221
O O19 0.250000 0.000568 0.436661
O O20 0.178712 0.250000 0.441774
O O21 0.109292 0.000036 0.434078
O O22 0.966670 0.750000 0.566376
O O23 0.000000 0.000000 0.500000
#
# Coordination Sequence:
#
# PCOD8242120 Si02
#       8
#     8   8   8   8   8   8   8   8
#     4   9  18  35  58  83 112 146 186 231 281 337
#     4  12  25  40  57  78 109 147 191 237 286 340
#     4   8  15  30  56  85 107 134 174 222 276 330
#     4   9  17  33  57  81 106 139 182 226 268 321
#     4  12  24  36  54  81 113 145 181 229 284 338
#     4  10  19  35  58  81 108 143 186 231 276 336
#     4   8  14  29  54  78 103 140 185 225 262 318
#     4  10  20  34  54  81 113 147 186 228 281 335
#
# _framework density 19.191331999999999
#
# number of rings (size 3 to 8) (size 9 to 14) (size 15 to 20)
#    0.000    2.250    1.250    4.500    0.000    2.500 
#    0.000    0.625    0.000    2.250    0.000    0.000 
#    0.000    0.000    0.000    0.000    0.000    0.000 
#
# Total GULP energy -793027.653224 kJ/mol
# GULP energy per Si atom -12391.057082 kJ/mol
# Density = 1.914765 g / cm^3
# Si number density = 19.191332 Si / 1000 Ang^3
#
#
#
# Elastic Constant Matrix: (Units=GPa)
#
#
# Indices 1 2 3 4 5 6 
#
# 1 175.2392 35.2404 68.8298 0.0000 0.0000 0.0000
# 2 35.2404 64.8554 19.6082 0.0000 0.0000 0.0000
# 3 68.8298 19.6082 77.7769 0.0000 0.0000 0.0000
# 4 0.0000 0.0000 0.0000 24.2741 0.0000 0.0000
# 5 0.0000 0.0000 0.0000 0.0000 27.3208 0.0000
# 6 0.0000 0.0000 0.0000 0.0000 0.0000 19.4154
#
#
#
# Elastic Compliance Matrix: (Units=1/GPa)
#
#
# Indices 1 2 3 4 5 6 
#
# 1 0.009175 -0.002740 -0.007429 0.000000 0.000000 0.000000
# 2 -0.002740 0.017509 -0.001990 0.000000 0.000000 0.000000
# 3 -0.007429 -0.001990 0.019934 0.000000 0.000000 0.000000
# 4 0.000000 0.000000 0.000000 0.041196 0.000000 0.000000
# 5 0.000000 0.000000 0.000000 0.000000 0.036602 0.000000
# 6 0.000000 0.000000 0.000000 0.000000 0.000000 0.051505
#
#
# Mechanical properties :
#
#
# Convention : Reuss Voigt Hill
#
# Bulk Modulus (GPa) = 44.84128 62.80315 53.82222
# Shear Modulus (GPa) = 24.07634 27.14826 25.61230
#
# Velocity S-wave (km/s) = 3.54579 3.76521 3.65715
# Velocity P-wave (km/s) = 6.33874 7.19015 6.77783
#
# Compressibility (1/GPa) = 0.02230088
#
# Stress axis : x y z
#
# Youngs Moduli (GPa) = 108.98658 57.11326 50.16661
#
# Poissons Ratio (x) = 0.15646 0.37270
# Poissons Ratio (y) = 0.29857 0.09982
# Poissons Ratio (z) = 0.80969 0.11364
#
# Static dielectric constant tensor:
#      x y z
#    x 4.274620 0.000000 0.000000 
#    y 0.000000 3.203560 0.000000 
#    z 0.000000 0.000000 3.333040 
# 
# 
# High freq. dielectric constant tensor:
#      x y z
#    x 1.771700 0.000000 0.000000 
#    y 0.000000 1.710110 0.000000 
#    z 0.000000 0.000000 1.726300 
# 
# From -- ./inp_files/28206.got.cif
#   From: 2010.03.12/outbox.cif.g09.slc.cpg/sg59_15_cif.got.tgz:28206.got - 2010.04.16 16:29:54.
