data_PCOD8242710
_publ_section_title
;
Structure prediction by ZEFSAII (Michael W. Deem and Ramdas Pophale) SiO2 
 PCOD8242710
Probable space group: P M M N
;
_chemical_formula_sum "Si O2"
_cell_formula_units_Z 48
_cell_length_a 23.584329
_cell_length_b 9.067271
_cell_length_c 11.730606
_cell_angle_alpha 90.000000
_cell_angle_beta 90.000000
_cell_angle_gamma 90.000000
_cell_volume 2508.537333
_symmetry_space_group_name_H-M "P M M N"
_symmetry_group_IT_number 59
_space_group.IT_coordinate_system_code '2'
_symmetry_cell_setting 'orthorhombic'
loop_
_space_group_symop_operation_xyz
x,y,z
1/2-x,1/2-y,z
1/2+x,-y,-z
-x,1/2+y,-z
-x,-y,-z
1/2+x,1/2+y,-z
1/2-x,y,z
x,1/2-y,z
loop_
_atom_site_type_symbol
_atom_site_label
_atom_site_fract_x
_atom_site_fract_y
_atom_site_fract_z
Si Si1 0.312900 0.414853 0.199371
Si Si2 0.094812 0.077487 0.790935
Si Si3 0.471160 0.921366 0.246068
Si Si4 0.367371 0.577046 0.394700
Si Si5 0.084873 0.079985 0.042958
Si Si6 0.315401 0.074387 0.612152
O O1 0.250000 0.433949 0.151714
O O2 0.322572 0.250000 0.250684
O O3 0.322637 0.535453 0.297106
O O4 0.352385 0.441276 0.091662
O O5 0.104067 0.250000 0.807762
O O6 0.149810 0.016718 0.723191
O O7 0.036573 0.045603 0.720344
O O8 0.087818 0.007524 0.916931
O O9 0.460041 0.750000 0.225187
O O10 0.429663 0.975116 0.348348
O O11 0.459457 0.998018 0.124670
O O12 0.365196 0.750000 0.420592
O O13 0.350044 0.489997 0.506710
O O14 0.065862 0.250000 0.037886
O O15 0.250000 0.018158 0.617100
O O16 0.316826 0.250000 0.602698
#
# Coordination Sequence:
#
# PCOD8242710 Si02
#       6
#     8   8   8   8   8   8
#     4   9  17  29  47  72  99 126 159 200 243 286
#     4   9  18  33  52  73  99 130 161 195 238 288
#     4   9  18  33  52  74 100 128 158 196 243 290
#     4  10  20  33  50  72  97 126 162 203 245 287
#     4   9  17  30  50  75 100 127 160 198 239 284
#     4  10  21  36  53  72  96 129 166 201 239 285
#
# _framework density 19.134656
#
# number of rings (size 3 to 8) (size 9 to 14) (size 15 to 20)
#    0.000    2.667    0.000    1.500    0.000    4.667 
#    0.000    5.000    0.000    0.000    0.000    2.333 
#    0.000    0.000    0.000    0.000    0.000    0.000 
#
# Total GULP energy -594892.976434 kJ/mol
# GULP energy per Si atom -12393.603676 kJ/mol
# Density = 1.909110 g / cm^3
# Si number density = 19.134656 Si / 1000 Ang^3
#
#
#
# Elastic Constant Matrix: (Units=GPa)
#
#
# Indices 1 2 3 4 5 6 
#
# 1 122.9897 24.1518 66.4118 0.0000 0.0000 0.0000
# 2 24.1518 26.7895 21.4439 0.0000 0.0000 0.0000
# 3 66.4118 21.4439 107.3610 0.0000 0.0000 0.0000
# 4 0.0000 0.0000 0.0000 17.2029 0.0000 0.0000
# 5 0.0000 0.0000 0.0000 0.0000 17.2742 0.0000
# 6 0.0000 0.0000 0.0000 0.0000 0.0000 21.5716
#
#
#
# Elastic Compliance Matrix: (Units=1/GPa)
#
#
# Indices 1 2 3 4 5 6 
#
# 1 0.013048 -0.006311 -0.006810 0.000000 0.000000 0.000000
# 2 -0.006311 0.047485 -0.005580 0.000000 0.000000 0.000000
# 3 -0.006810 -0.005580 0.014642 0.000000 0.000000 0.000000
# 4 0.000000 0.000000 0.000000 0.058130 0.000000 0.000000
# 5 0.000000 0.000000 0.000000 0.000000 0.057890 0.000000
# 6 0.000000 0.000000 0.000000 0.000000 0.000000 0.046357
#
#
# Mechanical properties :
#
#
# Convention : Reuss Voigt Hill
#
# Bulk Modulus (GPa) = 26.47607 53.46168 39.96888
# Shear Modulus (GPa) = 17.38856 20.88527 19.13691
#
# Velocity S-wave (km/s) = 3.01781 3.30735 3.16590
# Velocity P-wave (km/s) = 5.09997 6.52573 5.85640
#
# Compressibility (1/GPa) = 0.03776995
#
# Stress axis : x y z
#
# Youngs Moduli (GPa) = 76.64220 21.05930 68.29774
#
# Poissons Ratio (x) = 0.13292 0.46514
# Poissons Ratio (y) = 0.48373 0.38112
# Poissons Ratio (z) = 0.52197 0.11752
#
# Static dielectric constant tensor:
#      x y z
#    x 3.769790 0.000000 0.000000 
#    y 0.000000 3.296370 0.000000 
#    z 0.000000 0.000000 3.552670 
# 
# 
# High freq. dielectric constant tensor:
#      x y z
#    x 1.756450 0.000000 0.000000 
#    y 0.000000 1.715240 0.000000 
#    z 0.000000 0.000000 1.734840 
# 
# From -- ./inp_files/14304.got.cif
#   From: 2010.03.12/outbox.cif.g09.slc.cpg/sg59_8_cif.got.tgz:14304.got - 2010.04.16 16:29:54.
