data_PCOD8242873
_publ_section_title
;
Structure prediction by ZEFSAII (Michael W. Deem and Ramdas Pophale) SiO2 
 PCOD8242873
Probable space group: P M M N
;
_chemical_formula_sum "Si O2"
_cell_formula_units_Z 56
_cell_length_a 14.806321
_cell_length_b 9.216326
_cell_length_c 21.647970
_cell_angle_alpha 90.000000
_cell_angle_beta 90.000000
_cell_angle_gamma 90.000000
_cell_volume 2954.079414
_symmetry_space_group_name_H-M "P M M N"
_symmetry_group_IT_number 59
_space_group.IT_coordinate_system_code '2'
_symmetry_cell_setting 'orthorhombic'
loop_
_space_group_symop_operation_xyz
x,y,z
1/2-x,1/2-y,z
1/2+x,-y,-z
-x,1/2+y,-z
-x,-y,-z
1/2+x,1/2+y,-z
1/2-x,y,z
x,1/2-y,z
loop_
_atom_site_type_symbol
_atom_site_label
_atom_site_fract_x
_atom_site_fract_y
_atom_site_fract_z
Si Si1 0.146572 0.918094 0.389504
Si Si2 0.000832 0.420256 0.849195
Si Si3 0.644626 0.084687 0.078925
Si Si4 0.150231 0.922809 0.059000
Si Si5 0.142746 0.413487 0.509201
Si Si6 0.503855 0.918496 0.291852
Si Si7 0.355430 0.919935 0.630456
O O1 0.250000 0.960536 0.373682
O O2 0.140066 0.750000 0.407906
O O3 0.085984 0.956045 0.330404
O O4 0.107656 0.009198 0.447168
O O5 0.008746 0.250000 0.859156
O O6 0.919793 0.485234 0.890928
O O7 0.981057 0.459482 0.778387
O O8 0.094598 0.489334 0.870206
O O9 0.750000 0.070438 0.092623
O O10 0.612426 0.250000 0.085865
O O11 0.622186 0.026495 0.009906
O O12 0.250000 0.983073 0.075428
O O13 0.153145 0.750000 0.060156
O O14 0.250000 0.413817 0.508437
O O15 0.104216 0.250000 0.512426
O O16 0.108468 0.502037 0.568521
O O17 0.530561 0.750000 0.298954
O O18 0.588793 0.014787 0.312647
O O19 0.250000 0.951781 0.642280
O O20 0.374179 0.750000 0.623969
#
# Coordination Sequence:
#
# PCOD8242873 Si02
#       7
#     8   8   8   8   8   8   8
#     4   9  18  34  54  75 102 134 168 207 249 299
#     4  10  20  33  51  76 104 134 170 211 252 295
#     4   9  18  33  53  76 102 134 170 207 252 304
#     4   8  15  30  53  79 104 131 166 208 253 301
#     4   9  17  31  54  81 104 128 162 208 261 306
#     4  10  22  36  50  74 105 137 172 207 250 301
#     4  10  21  37  56  76  99 131 172 214 254 300
#
# _framework density 18.956837
#
# number of rings (size 3 to 8) (size 9 to 14) (size 15 to 20)
#    0.000    2.714    0.000    2.143    0.000    5.714 
#    0.000    5.714    0.000    1.286    0.000    2.000 
#    0.000    0.000    0.000    0.000    0.000    0.000 
#
# Total GULP energy -694445.534542 kJ/mol
# GULP energy per Si atom -12400.813117 kJ/mol
# Density = 1.891369 g / cm^3
# Si number density = 18.956837 Si / 1000 Ang^3
#
#
#
# Elastic Constant Matrix: (Units=GPa)
#
#
# Indices 1 2 3 4 5 6 
#
# 1 71.7697 35.4804 45.3769 0.0000 0.0000 0.0000
# 2 35.4804 65.6306 43.9997 0.0000 0.0000 0.0000
# 3 45.3769 43.9997 105.8498 0.0000 0.0000 0.0000
# 4 0.0000 0.0000 0.0000 25.5913 0.0000 0.0000
# 5 0.0000 0.0000 0.0000 0.0000 28.1047 0.0000
# 6 0.0000 0.0000 0.0000 0.0000 0.0000 23.6951
#
#
#
# Elastic Compliance Matrix: (Units=1/GPa)
#
#
# Indices 1 2 3 4 5 6 
#
# 1 0.021513 -0.007552 -0.006083 0.000000 0.000000 0.000000
# 2 -0.007552 0.023774 -0.006645 0.000000 0.000000 0.000000
# 3 -0.006083 -0.006645 0.014817 0.000000 0.000000 0.000000
# 4 0.000000 0.000000 0.000000 0.039076 0.000000 0.000000
# 5 0.000000 0.000000 0.000000 0.000000 0.035581 0.000000
# 6 0.000000 0.000000 0.000000 0.000000 0.000000 0.042203
#
#
# Mechanical properties :
#
#
# Convention : Reuss Voigt Hill
#
# Bulk Modulus (GPa) = 51.16568 54.77379 52.96974
# Shear Modulus (GPa) = 22.31746 23.37110 22.84428
#
# Velocity S-wave (km/s) = 3.43487 3.51502 3.47517
# Velocity P-wave (km/s) = 6.54067 6.74021 6.64119
#
# Compressibility (1/GPa) = 0.01954435
#
# Stress axis : x y z
#
# Youngs Moduli (GPa) = 46.48354 42.06217 67.48784
#
# Poissons Ratio (x) = 0.31764 0.41055
# Poissons Ratio (y) = 0.35103 0.44847
# Poissons Ratio (z) = 0.28277 0.27951
#
# Static dielectric constant tensor:
#      x y z
#    x 3.481100 0.000000 0.000000 
#    y 0.000000 3.325750 0.000000 
#    z 0.000000 0.000000 3.516330 
# 
# 
# High freq. dielectric constant tensor:
#      x y z
#    x 1.736650 0.000000 0.000000 
#    y 0.000000 1.718070 0.000000 
#    z 0.000000 0.000000 1.735220 
# 
# From -- ./inp_files/28989.got.cif
#   From: 2010.03.12/outbox.cif.g09.slc.cpg/sg59_15_cif.got.tgz:28989.got - 2010.04.16 16:29:54.
