data_PCOD8242856
_publ_section_title
;
Structure prediction by ZEFSAII (Michael W. Deem and Ramdas Pophale) SiO2 
 PCOD8242856
Probable space group: P M M N
;
_chemical_formula_sum "Si O2"
_cell_formula_units_Z 48
_cell_length_a 31.315981
_cell_length_b 9.023603
_cell_length_c 9.359359
_cell_angle_alpha 90.000000
_cell_angle_beta 90.000000
_cell_angle_gamma 90.000000
_cell_volume 2644.795558
_symmetry_space_group_name_H-M "P M M N"
_symmetry_group_IT_number 59
_space_group.IT_coordinate_system_code '2'
_symmetry_cell_setting 'orthorhombic'
loop_
_space_group_symop_operation_xyz
x,y,z
1/2-x,1/2-y,z
1/2+x,-y,-z
-x,1/2+y,-z
-x,-y,-z
1/2+x,1/2+y,-z
1/2-x,y,z
x,1/2-y,z
loop_
_atom_site_type_symbol
_atom_site_label
_atom_site_fract_x
_atom_site_fract_y
_atom_site_fract_z
Si Si1 0.886746 0.916586 0.330487
Si Si2 0.619547 0.919963 0.669434
Si Si3 0.295556 0.082060 0.636800
Si Si4 0.455573 0.923654 0.165166
Si Si5 0.541890 0.422547 0.163338
Si Si6 0.796919 0.422146 0.654349
O O1 0.902149 0.750000 0.293580
O O2 0.885114 0.941563 0.500109
O O3 0.838338 0.944938 0.268923
O O4 0.917947 0.033676 0.259395
O O5 0.616327 0.750000 0.715823
O O6 0.582068 0.009218 0.743135
O O7 0.665001 0.983466 0.726432
O O8 0.250000 0.068245 0.722531
O O9 0.299584 0.250000 0.572260
O O10 0.294461 0.963029 0.511621
O O11 0.457274 0.750000 0.191719
O O12 0.500286 0.991294 0.218576
O O13 0.447824 0.964491 0.999852
O O14 0.532800 0.250000 0.181867
O O15 0.750000 0.455414 0.723996
O O16 0.808420 0.250000 0.669221
#
# Coordination Sequence:
#
# PCOD8242856 Si02
#       6
#     8   8   8   8   8   8
#     4   9  18  31  49  75 103 130 162 202 246 287
#     4  10  20  33  51  76 103 131 165 203 244 289
#     4   8  14  26  44  67  97 131 165 200 237 281
#     4  10  21  37  55  73  95 126 165 206 248 295
#     4  10  21  36  54  74  96 127 165 201 244 299
#     4   9  16  26  43  69 100 132 164 199 241 287
#
# _framework density 18.148852000000002
#
# number of rings (size 3 to 8) (size 9 to 14) (size 15 to 20)
#    0.000    2.667    0.000    3.000    0.000    7.000 
#    0.000    0.000    0.000    1.000    0.000    4.667 
#    0.000    0.000    0.000    0.000    0.000    0.000 
#
# Total GULP energy -594824.825167 kJ/mol
# GULP energy per Si atom -12392.183858 kJ/mol
# Density = 1.810754 g / cm^3
# Si number density = 18.148852 Si / 1000 Ang^3
#
#
#
# Elastic Constant Matrix: (Units=GPa)
#
#
# Indices 1 2 3 4 5 6 
#
# 1 175.0963 60.6835 39.8387 0.0000 0.0000 0.0000
# 2 60.6835 81.7861 23.0521 0.0000 0.0000 0.0000
# 3 39.8387 23.0521 28.1010 0.0000 0.0000 0.0000
# 4 0.0000 0.0000 0.0000 21.6446 0.0000 0.0000
# 5 0.0000 0.0000 0.0000 0.0000 -15.2927 0.0000
# 6 0.0000 0.0000 0.0000 0.0000 0.0000 35.7909
#
#
#
# Elastic Compliance Matrix: (Units=1/GPa)
#
#
# Indices 1 2 3 4 5 6 
#
# 1 0.009421 -0.004196 -0.009914 0.000000 0.000000 0.000000
# 2 -0.004196 0.017773 -0.008631 0.000000 0.000000 0.000000
# 3 -0.009914 -0.008631 0.056722 0.000000 0.000000 0.000000
# 4 0.000000 0.000000 0.000000 0.046201 0.000000 0.000000
# 5 0.000000 0.000000 0.000000 0.000000 -0.065391 0.000000
# 6 0.000000 0.000000 0.000000 0.000000 0.000000 0.027940
#
#
# Mechanical properties :
#
#
# Convention : Reuss Voigt Hill
#
# Bulk Modulus (GPa) = 26.01924 59.12577 42.57251
# Shear Modulus (GPa) = 33.12139 19.18917 26.15528
#
# Velocity S-wave (km/s) = 4.27662 3.25518 3.80037
# Velocity P-wave (km/s) = 6.22524 6.83939 6.53953
#
# Compressibility (1/GPa) = 0.03843309
#
# Stress axis : x y z
#
# Youngs Moduli (GPa) = 106.14576 56.26508 17.62992
#
# Poissons Ratio (x) = 0.23608 0.17479
# Poissons Ratio (y) = 0.44536 0.15217
# Poissons Ratio (z) = 1.05235 0.48564
#
# Static dielectric constant tensor:
#      x y z
#    x 3.846490 0.000000 0.000000 
#    y 0.000000 3.411340 0.000000 
#    z 0.000000 0.000000 2.846260 
# 
# 
# High freq. dielectric constant tensor:
#      x y z
#    x 1.732010 0.000000 0.000000 
#    y 0.000000 1.714860 0.000000 
#    z 0.000000 0.000000 1.638920 
# 
# From -- ./inp_files/12929.got.cif
#   From: 2010.03.12/outbox.cif.g09.slc.cpg/sg59_7_cif.got.tgz:12929.got - 2010.04.16 16:29:54.
