data_PCOD8242941
_publ_section_title
;
Structure prediction by ZEFSAII (Michael W. Deem and Ramdas Pophale) SiO2 
 PCOD8242941
Probable space group: P M M N
;
_chemical_formula_sum "Si O2"
_cell_formula_units_Z 64
_cell_length_a 8.802395
_cell_length_b 20.952531
_cell_length_c 17.131694
_cell_angle_alpha 90.000000
_cell_angle_beta 90.000000
_cell_angle_gamma 90.000000
_cell_volume 3159.640368
_symmetry_space_group_name_H-M "P M M N"
_symmetry_group_IT_number 59
_space_group.IT_coordinate_system_code '2'
_symmetry_cell_setting 'orthorhombic'
loop_
_space_group_symop_operation_xyz
x,y,z
1/2-x,1/2-y,z
1/2+x,-y,-z
-x,1/2+y,-z
-x,-y,-z
1/2+x,1/2+y,-z
1/2-x,y,z
x,1/2-y,z
loop_
_atom_site_type_symbol
_atom_site_label
_atom_site_fract_x
_atom_site_fract_y
_atom_site_fract_z
Si Si1 0.421658 0.998039 0.296856
Si Si2 0.429811 0.320346 0.557735
Si Si3 0.584857 0.177044 0.272788
Si Si4 0.069501 0.176493 0.888106
Si Si5 0.427862 0.366939 0.720046
Si Si6 0.071869 0.387831 0.405826
Si Si7 0.579096 0.905189 0.841275
Si Si8 0.927908 0.070372 0.002685
O O1 0.250000 0.972813 0.308603
O O2 0.468894 0.042184 0.371254
O O3 0.434985 0.034057 0.214728
O O4 0.539500 0.941413 0.289166
O O5 0.250000 0.321848 0.565320
O O6 0.484144 0.250000 0.529861
O O7 0.500664 0.333471 0.643450
O O8 0.478121 0.375875 0.495917
O O9 0.750000 0.142414 0.263123
O O10 0.611556 0.250000 0.259810
O O11 0.519983 0.165001 0.358537
O O12 0.461390 0.155951 0.209634
O O13 0.250000 0.167995 0.892693
O O14 0.024616 0.250000 0.910781
O O15 0.006854 0.162642 0.800395
O O16 0.996478 0.123094 0.944004
O O17 0.250000 0.355640 0.721453
O O18 0.250000 0.375187 0.393881
O O19 0.750000 0.899006 0.874777
O O20 0.457682 0.906012 0.910229
O O21 0.750000 0.064614 0.984977
O O22 0.000000 0.000000 0.000000
#
# Coordination Sequence:
#
# PCOD8242941 Si02
#       8
#     8   8   8   8   8   8   8   8
#     4   9  19  34  52  78 111 144 180 224 275 335
#     4   9  17  31  53  79 105 137 184 238 283 329
#     4  10  20  33  51  78 112 146 180 222 273 330
#     4  10  22  41  63  87 118 156 199 249 305 362
#     4  10  20  34  56  83 108 141 187 236 287 344
#     4   9  18  33  53  76 105 145 190 231 275 331
#     4  10  21  38  59  82 109 143 184 227 275 334
#     4  12  25  41  63  90 120 153 194 242 293 352
#
# _framework density 20.255471
#
# number of rings (size 3 to 8) (size 9 to 14) (size 15 to 20)
#    0.000    2.125    0.000    4.125    0.000    9.250 
#    0.000    0.625    0.000    1.875    0.000    0.000 
#    0.000    0.000    0.000    0.000    0.000    0.000 
#
# Total GULP energy -793096.653579 kJ/mol
# GULP energy per Si atom -12392.135212 kJ/mol
# Density = 2.020937 g / cm^3
# Si number density = 20.255471 Si / 1000 Ang^3
#
#
#
# Elastic Constant Matrix: (Units=GPa)
#
#
# Indices 1 2 3 4 5 6 
#
# 1 50.6051 33.2431 28.6992 0.0000 0.0000 0.0000
# 2 33.2431 115.4200 56.2833 0.0000 0.0000 0.0000
# 3 28.6992 56.2833 136.7061 0.0000 0.0000 0.0000
# 4 0.0000 0.0000 0.0000 19.8538 0.0000 0.0000
# 5 0.0000 0.0000 0.0000 0.0000 61.1169 0.0000
# 6 0.0000 0.0000 0.0000 0.0000 0.0000 28.2235
#
#
#
# Elastic Compliance Matrix: (Units=1/GPa)
#
#
# Indices 1 2 3 4 5 6 
#
# 1 0.025251 -0.005865 -0.002886 0.000000 0.000000 0.000000
# 2 -0.005865 0.012203 -0.003793 0.000000 0.000000 0.000000
# 3 -0.002886 -0.003793 0.009482 0.000000 0.000000 0.000000
# 4 0.000000 0.000000 0.000000 0.050368 0.000000 0.000000
# 5 0.000000 0.000000 0.000000 0.000000 0.016362 0.000000
# 6 0.000000 0.000000 0.000000 0.000000 0.000000 0.035431
#
#
# Mechanical properties :
#
#
# Convention : Reuss Voigt Hill
#
# Bulk Modulus (GPa) = 45.77179 59.90917 52.84048
# Shear Modulus (GPa) = 27.55302 34.13920 30.84611
#
# Velocity S-wave (km/s) = 3.69219 4.10985 3.90661
# Velocity P-wave (km/s) = 6.38926 7.22234 6.81854
#
# Compressibility (1/GPa) = 0.02184752
#
# Stress axis : x y z
#
# Youngs Moduli (GPa) = 39.60301 81.94856 105.45902
#
# Poissons Ratio (x) = 0.48065 0.30437
# Poissons Ratio (y) = 0.23228 0.39997
# Poissons Ratio (z) = 0.11430 0.31081
#
# Static dielectric constant tensor:
#      x y z
#    x 2.502830 0.000000 0.000000 
#    y 0.000000 3.656360 0.000000 
#    z 0.000000 0.000000 4.077900 
# 
# 
# High freq. dielectric constant tensor:
#      x y z
#    x 1.771830 0.000000 0.000000 
#    y 0.000000 1.788270 0.000000 
#    z 0.000000 0.000000 1.800570 
# 
# From -- ./inp_files/26343.got.cif
#   From: 2010.03.12/outbox.cif.g09.slc.cpg/sg59_14_cif.got.tgz:26343.got - 2010.04.16 16:29:54.
