data_PCOD8242766
_publ_section_title
;
Structure prediction by ZEFSAII (Michael W. Deem and Ramdas Pophale) SiO2 
 PCOD8242766
Probable space group: P M M N
;
_chemical_formula_sum "Si O2"
_cell_formula_units_Z 64
_cell_length_a 9.324904
_cell_length_b 33.475833
_cell_length_c 11.110488
_cell_angle_alpha 90.000000
_cell_angle_beta 90.000000
_cell_angle_gamma 90.000000
_cell_volume 3468.238035
_symmetry_space_group_name_H-M "P M M N"
_symmetry_group_IT_number 59
_space_group.IT_coordinate_system_code '2'
_symmetry_cell_setting 'orthorhombic'
loop_
_space_group_symop_operation_xyz
x,y,z
1/2-x,1/2-y,z
1/2+x,-y,-z
-x,1/2+y,-z
-x,-y,-z
1/2+x,1/2+y,-z
1/2-x,y,z
x,1/2-y,z
loop_
_atom_site_type_symbol
_atom_site_label
_atom_site_fract_x
_atom_site_fract_y
_atom_site_fract_z
Si Si1 0.414278 0.050600 0.225471
Si Si2 0.418111 0.477256 0.711296
Si Si3 0.915361 0.205652 0.994439
Si Si4 0.416956 0.295312 0.231614
Si Si5 0.914485 0.132202 0.846133
Si Si6 0.414968 0.434785 0.958137
Si Si7 0.080292 0.594173 0.400718
Si Si8 0.085360 0.127574 0.376659
O O1 0.250000 0.036834 0.243412
O O2 0.435895 0.096090 0.268281
O O3 0.515582 0.021439 0.304074
O O4 0.460051 0.046437 0.085745
O O5 0.250000 0.477638 0.679443
O O6 0.448777 0.464908 0.849252
O O7 0.498840 0.447787 0.619148
O O8 0.750000 0.203148 0.032135
O O9 0.960048 0.250000 0.954125
O O10 0.948140 0.178037 0.879012
O O11 0.003170 0.191950 0.110490
O O12 0.250000 0.297754 0.202365
O O13 0.459875 0.250000 0.272791
O O14 0.457037 0.327795 0.333425
O O15 0.750000 0.120978 0.864774
O O16 0.959483 0.123704 0.709166
O O17 0.999219 0.105755 0.941161
O O18 0.250000 0.422566 0.960407
O O19 0.250000 0.586372 0.412315
O O20 0.022238 0.616148 0.517700
O O21 0.250000 0.126558 0.422458
#
# Coordination Sequence:
#
# PCOD8242766 Si02
#       8
#     8   8   8   8   8   8   8   8
#     4  10  20  33  50  74 104 134 164 203 251 301
#     4  10  20  34  53  76 101 131 167 207 253 302
#     4   9  17  30  50  77 107 133 158 195 245 301
#     4   9  18  34  56  80 106 135 165 200 246 298
#     4   9  18  32  50  72  98 130 166 204 249 297
#     4   9  18  32  51  75 101 129 162 203 252 304
#     4  10  21  37  54  71  96 133 175 215 253 295
#     4  10  21  36  53  74 101 134 172 211 249 291
#
# _framework density 18.453174000000001
#
# number of rings (size 3 to 8) (size 9 to 14) (size 15 to 20)
#    0.000    2.500    0.000    1.875    0.000    4.500 
#    0.000    0.625    0.000    0.750    0.000    0.000 
#    0.000    0.000    0.000    0.000    0.000    0.000 
#
# Total GULP energy -793567.100654 kJ/mol
# GULP energy per Si atom -12399.485948 kJ/mol
# Density = 1.841117 g / cm^3
# Si number density = 18.453174 Si / 1000 Ang^3
#
#
#
# Elastic Constant Matrix: (Units=GPa)
#
#
# Indices 1 2 3 4 5 6 
#
# 1 60.5548 37.2273 27.6608 0.0000 0.0000 0.0000
# 2 37.2273 99.4048 29.9134 0.0000 0.0000 0.0000
# 3 27.6608 29.9134 55.4008 0.0000 0.0000 0.0000
# 4 0.0000 0.0000 0.0000 21.9866 0.0000 0.0000
# 5 0.0000 0.0000 0.0000 0.0000 28.9869 0.0000
# 6 0.0000 0.0000 0.0000 0.0000 0.0000 28.4356
#
#
#
# Elastic Compliance Matrix: (Units=1/GPa)
#
#
# Indices 1 2 3 4 5 6 
#
# 1 0.024525 -0.006567 -0.008699 0.000000 0.000000 0.000000
# 2 -0.006567 0.013770 -0.004156 0.000000 0.000000 0.000000
# 3 -0.008699 -0.004156 0.024638 0.000000 0.000000 0.000000
# 4 0.000000 0.000000 0.000000 0.045482 0.000000 0.000000
# 5 0.000000 0.000000 0.000000 0.000000 0.034498 0.000000
# 6 0.000000 0.000000 0.000000 0.000000 0.000000 0.035167
#
#
# Mechanical properties :
#
#
# Convention : Reuss Voigt Hill
#
# Bulk Modulus (GPa) = 41.51443 44.99594 43.25518
# Shear Modulus (GPa) = 22.22678 23.91908 23.07293
#
# Velocity S-wave (km/s) = 3.47435 3.60419 3.53987
# Velocity P-wave (km/s) = 6.21617 6.46197 6.34026
#
# Compressibility (1/GPa) = 0.02408801
#
# Stress axis : x y z
#
# Youngs Moduli (GPa) = 40.77519 72.62224 40.58799
#
# Poissons Ratio (x) = 0.47689 0.35308
# Poissons Ratio (y) = 0.26776 0.16870
# Poissons Ratio (z) = 0.35471 0.30184
#
# Static dielectric constant tensor:
#      x y z
#    x 3.390320 0.000000 0.000000 
#    y 0.000000 3.544700 0.000000 
#    z 0.000000 0.000000 3.289630 
# 
# 
# High freq. dielectric constant tensor:
#      x y z
#    x 1.717330 0.000000 0.000000 
#    y 0.000000 1.717600 0.000000 
#    z 0.000000 0.000000 1.701740 
# 
# From -- ./inp_files/14985.got.cif
#   From: 2010.03.12/outbox.cif.g09.slc.cpg/sg59_8_cif.got.tgz:14985.got - 2010.04.16 16:29:54.
