data_PCOD8242810
_publ_section_title
;
Structure prediction by ZEFSAII (Michael W. Deem and Ramdas Pophale) SiO2 
 PCOD8242810
Probable space group: P M M N
;
_chemical_formula_sum "Si O2"
_cell_formula_units_Z 64
_cell_length_a 29.778879
_cell_length_b 8.646691
_cell_length_c 14.951137
_cell_angle_alpha 90.000000
_cell_angle_beta 90.000000
_cell_angle_gamma 90.000000
_cell_volume 3849.749802
_symmetry_space_group_name_H-M "P M M N"
_symmetry_group_IT_number 59
_space_group.IT_coordinate_system_code '2'
_symmetry_cell_setting 'orthorhombic'
loop_
_space_group_symop_operation_xyz
x,y,z
1/2-x,1/2-y,z
1/2+x,-y,-z
-x,1/2+y,-z
-x,-y,-z
1/2+x,1/2+y,-z
1/2-x,y,z
x,1/2-y,z
loop_
_atom_site_type_symbol
_atom_site_label
_atom_site_fract_x
_atom_site_fract_y
_atom_site_fract_z
Si Si1 0.436912 0.070524 0.044512
Si Si2 0.700115 0.426411 0.699502
Si Si3 0.535433 0.931906 0.318398
Si Si4 0.201058 0.068699 0.488424
Si Si5 0.058465 0.432694 0.357988
Si Si6 0.393739 0.066791 0.537968
Si Si7 0.386150 0.570130 0.197035
Si Si8 0.967997 0.429710 0.128537
O O1 0.435197 0.250000 0.020757
O O2 0.481548 0.027178 0.099831
O O3 0.394992 0.021926 0.105443
O O4 0.434701 0.976511 0.951774
O O5 0.750000 0.450676 0.739160
O O6 0.692977 0.250000 0.667017
O O7 0.691814 0.537246 0.615690
O O8 0.665031 0.468753 0.776910
O O9 0.526640 0.750000 0.329045
O O10 0.579307 0.985701 0.374243
O O11 0.493840 0.024527 0.359844
O O12 0.544688 0.972720 0.215667
O O13 0.250000 0.995743 0.516991
O O14 0.203943 0.250000 0.503112
O O15 0.157900 0.002077 0.542903
O O16 0.063874 0.250000 0.345196
O O17 0.081326 0.494687 0.448875
O O18 0.080569 0.517655 0.274661
O O19 0.391956 0.250000 0.530975
O O20 0.394169 0.750000 0.179029
O O21 0.962889 0.250000 0.150933
#
# Coordination Sequence:
#
# PCOD8242810 Si02
#       8
#     8   8   8   8   8   8   8   8
#     4  10  20  33  51  71  95 124 154 195 240 282
#     4   9  18  31  46  68  98 128 159 196 237 282
#     4  11  21  33  48  66  95 131 166 201 241 284
#     4   9  16  29  49  69  91 122 160 200 242 283
#     4  11  20  32  46  65  97 131 167 203 232 273
#     4   9  19  32  46  68  96 128 164 202 239 280
#     4  11  20  30  48  72  98 130 163 194 236 287
#     4  10  20  34  50  70  95 122 157 199 239 281
#
# _framework density 16.624455999999999
#
# number of rings (size 3 to 8) (size 9 to 14) (size 15 to 20)
#    0.000    2.000    2.500    2.250    0.000    1.500 
#    0.000    3.125    0.000    0.000    0.000    0.875 
#    0.000    3.000    0.000    0.000    0.000    0.000 
#
# Total GULP energy -793487.348081 kJ/mol
# GULP energy per Si atom -12398.239814 kJ/mol
# Density = 1.658662 g / cm^3
# Si number density = 16.624456 Si / 1000 Ang^3
#
#
#
# Elastic Constant Matrix: (Units=GPa)
#
#
# Indices 1 2 3 4 5 6 
#
# 1 121.4366 12.7417 49.9443 0.0000 0.0000 0.0000
# 2 12.7417 21.2522 9.2568 0.0000 0.0000 0.0000
# 3 49.9443 9.2568 80.9884 0.0000 0.0000 0.0000
# 4 0.0000 0.0000 0.0000 22.0589 0.0000 0.0000
# 5 0.0000 0.0000 0.0000 0.0000 22.0424 0.0000
# 6 0.0000 0.0000 0.0000 0.0000 0.0000 15.5971
#
#
#
# Elastic Compliance Matrix: (Units=1/GPa)
#
#
# Indices 1 2 3 4 5 6 
#
# 1 0.011340 -0.003949 -0.006542 0.000000 0.000000 0.000000
# 2 -0.003949 0.050895 -0.003382 0.000000 0.000000 0.000000
# 3 -0.006542 -0.003382 0.016768 0.000000 0.000000 0.000000
# 4 0.000000 0.000000 0.000000 0.045333 0.000000 0.000000
# 5 0.000000 0.000000 0.000000 0.000000 0.045367 0.000000
# 6 0.000000 0.000000 0.000000 0.000000 0.000000 0.064115
#
#
# Mechanical properties :
#
#
# Convention : Reuss Voigt Hill
#
# Bulk Modulus (GPa) = 19.50944 40.84031 30.17488
# Shear Modulus (GPa) = 17.94379 22.05529 19.99954
#
# Velocity S-wave (km/s) = 3.28893 3.64631 3.47222
# Velocity P-wave (km/s) = 5.11699 6.50747 5.85366
#
# Compressibility (1/GPa) = 0.05125723
#
# Stress axis : x y z
#
# Youngs Moduli (GPa) = 88.18724 19.64842 59.63735
#
# Poissons Ratio (x) = 0.07760 0.39012
# Poissons Ratio (y) = 0.34828 0.20168
# Poissons Ratio (z) = 0.57688 0.06645
#
# Static dielectric constant tensor:
#      x y z
#    x 3.440350 0.000000 0.000000 
#    y 0.000000 3.066120 0.000000 
#    z 0.000000 0.000000 3.027780 
# 
# 
# High freq. dielectric constant tensor:
#      x y z
#    x 1.631990 0.000000 0.000000 
#    y 0.000000 1.639180 0.000000 
#    z 0.000000 0.000000 1.618380 
# 
# From -- ./inp_files/25098.got.cif
#   From: 2010.03.12/outbox.cif.g09.slc.cpg/sg59_13_cif.got.tgz:25098.got - 2010.04.16 16:29:54.
