data_PCOD8242541
_publ_section_title
;
Structure prediction by ZEFSAII (Michael W. Deem and Ramdas Pophale) SiO2 
 PCOD8242541
Probable space group: P M M N
;
_chemical_formula_sum "Si O2"
_cell_formula_units_Z 64
_cell_length_a 14.195469
_cell_length_b 18.554153
_cell_length_c 12.245874
_cell_angle_alpha 90.000000
_cell_angle_beta 90.000000
_cell_angle_gamma 90.000000
_cell_volume 3225.378345
_symmetry_space_group_name_H-M "P M M N"
_symmetry_group_IT_number 59
_space_group.IT_coordinate_system_code '2'
_symmetry_cell_setting 'orthorhombic'
loop_
_space_group_symop_operation_xyz
x,y,z
1/2-x,1/2-y,z
1/2+x,-y,-z
-x,1/2+y,-z
-x,-y,-z
1/2+x,1/2+y,-z
1/2-x,y,z
x,1/2-y,z
loop_
_atom_site_type_symbol
_atom_site_label
_atom_site_fract_x
_atom_site_fract_y
_atom_site_fract_z
Si Si1 0.645793 0.827806 0.010357
Si Si2 0.041510 0.115512 0.806786
Si Si3 0.139320 0.085270 0.591140
Si Si4 0.144220 0.936215 0.131911
Si Si5 0.035976 0.336560 0.396192
Si Si6 0.142161 0.404594 0.199280
Si Si7 0.642466 0.024432 0.114821
Si Si8 0.642762 0.079070 0.348287
O O1 0.750000 0.851228 0.048678
O O2 0.647253 0.750000 0.953101
O O3 0.580580 0.821467 0.116913
O O4 0.608031 0.884348 0.922146
O O5 0.082158 0.125397 0.686464
O O6 0.927736 0.118686 0.809604
O O7 0.073559 0.041814 0.865381
O O8 0.250000 0.101814 0.601705
O O9 0.100389 0.120072 0.481218
O O10 0.120967 0.999587 0.599462
O O11 0.250000 0.906556 0.146200
O O12 0.132414 0.009548 0.201878
O O13 0.120253 0.940795 0.002648
O O14 0.042097 0.250000 0.411854
O O15 0.075131 0.361894 0.280357
O O16 0.927259 0.362716 0.403135
O O17 0.250000 0.380265 0.220013
O O18 0.750000 0.995879 0.116680
O O19 0.628031 0.079331 0.216509
O O20 0.750000 0.101681 0.376584
#
# Coordination Sequence:
#
# PCOD8242541 Si02
#       8
#     8   8   8   8   8   8   8   8
#     4  10  20  32  49  76 109 143 180 226 279 338
#     4  11  19  32  57  82 110 142 186 234 282 335
#     4  10  22  40  61  85 113 150 197 248 297 346
#     4  10  20  32  54  88 120 149 184 230 288 348
#     4  12  25  39  58  84 119 159 198 238 295 362
#     4  10  20  35  53  79 116 150 183 228 286 350
#     4   9  16  30  54  86 117 146 182 230 289 340
#     4   9  20  38  62  87 115 152 199 252 292 337
#
# _framework density 19.842634
#
# number of rings (size 3 to 8) (size 9 to 14) (size 15 to 20)
#    0.000    1.875    1.250    4.875    1.750    2.250 
#    0.000    1.875    0.000    0.375    0.000    0.000 
#    0.000    0.000    0.000    0.000    0.000    0.000 
#
# Total GULP energy -793230.188866 kJ/mol
# GULP energy per Si atom -12394.221701 kJ/mol
# Density = 1.979747 g / cm^3
# Si number density = 19.842634 Si / 1000 Ang^3
#
#
#
# Elastic Constant Matrix: (Units=GPa)
#
#
# Indices 1 2 3 4 5 6 
#
# 1 113.0464 36.1109 40.5816 0.0000 0.0000 0.0000
# 2 36.1109 54.3566 31.7674 0.0000 0.0000 0.0000
# 3 40.5816 31.7674 50.5603 0.0000 0.0000 0.0000
# 4 0.0000 0.0000 0.0000 10.9420 0.0000 0.0000
# 5 0.0000 0.0000 0.0000 0.0000 32.2396 0.0000
# 6 0.0000 0.0000 0.0000 0.0000 0.0000 21.2252
#
#
#
# Elastic Compliance Matrix: (Units=1/GPa)
#
#
# Indices 1 2 3 4 5 6 
#
# 1 0.012953 -0.003997 -0.007886 0.000000 0.000000 0.000000
# 2 -0.003997 0.030306 -0.015833 0.000000 0.000000 0.000000
# 3 -0.007886 -0.015833 0.036056 0.000000 0.000000 0.000000
# 4 0.000000 0.000000 0.000000 0.091391 0.000000 0.000000
# 5 0.000000 0.000000 0.000000 0.000000 0.031018 0.000000
# 6 0.000000 0.000000 0.000000 0.000000 0.000000 0.047114
#
#
# Mechanical properties :
#
#
# Convention : Reuss Voigt Hill
#
# Bulk Modulus (GPa) = 41.87006 48.32034 45.09520
# Shear Modulus (GPa) = 16.01384 20.18158 18.09771
#
# Velocity S-wave (km/s) = 2.84393 3.19263 3.02331
# Velocity P-wave (km/s) = 5.65073 6.16402 5.91295
#
# Compressibility (1/GPa) = 0.02388341
#
# Stress axis : x y z
#
# Youngs Moduli (GPa) = 77.19939 32.99729 27.73480
#
# Poissons Ratio (x) = 0.13188 0.21871
# Poissons Ratio (y) = 0.30855 0.43913
# Poissons Ratio (z) = 0.60877 0.52245
#
# Static dielectric constant tensor:
#      x y z
#    x 3.806060 0.000000 0.000000 
#    y 0.000000 3.287000 0.000000 
#    z 0.000000 0.000000 3.572560 
# 
# 
# High freq. dielectric constant tensor:
#      x y z
#    x 1.785090 0.000000 0.000000 
#    y 0.000000 1.731770 0.000000 
#    z 0.000000 0.000000 1.768590 
# 
# From -- ./inp_files/17192.got.cif
#   From: 2010.03.12/outbox.cif.g09.slc.cpg/sg59_9_cif.got.tgz:17192.got - 2010.04.16 16:29:54.
