data_PCOD8242498
_publ_section_title
;
Structure prediction by ZEFSAII (Michael W. Deem and Ramdas Pophale) SiO2 
 PCOD8242498
Probable space group: P M M N
;
_chemical_formula_sum "Si O2"
_cell_formula_units_Z 48
_cell_length_a 9.352013
_cell_length_b 16.077903
_cell_length_c 16.975335
_cell_angle_alpha 90.000000
_cell_angle_beta 90.000000
_cell_angle_gamma 90.000000
_cell_volume 2552.424236
_symmetry_space_group_name_H-M "P M M N"
_symmetry_group_IT_number 59
_space_group.IT_coordinate_system_code '2'
_symmetry_cell_setting 'orthorhombic'
loop_
_space_group_symop_operation_xyz
x,y,z
1/2-x,1/2-y,z
1/2+x,-y,-z
-x,1/2+y,-z
-x,-y,-z
1/2+x,1/2+y,-z
1/2-x,y,z
x,1/2-y,z
loop_
_atom_site_type_symbol
_atom_site_label
_atom_site_fract_x
_atom_site_fract_y
_atom_site_fract_z
Si Si1 0.078838 0.250000 0.078067
Si Si2 0.418337 0.407912 0.176956
Si Si3 0.919612 0.658267 0.661589
Si Si4 0.581486 0.250000 0.914738
Si Si5 0.915961 0.654934 0.332068
Si Si6 0.418486 0.084818 0.500207
Si Si7 0.417540 0.908268 0.188958
O O1 0.250000 0.250000 0.070423
O O2 0.021117 0.165981 0.121467
O O3 0.009616 0.250000 0.993007
O O4 0.250000 0.395261 0.177375
O O5 0.476409 0.398803 0.266637
O O6 0.458512 0.502068 0.149223
O O7 0.750000 0.656326 0.657825
O O8 0.976148 0.750000 0.680367
O O9 0.978755 0.631872 0.576590
O O10 0.750000 0.250000 0.933307
O O11 0.535635 0.332918 0.867494
O O12 0.750000 0.636318 0.317802
O O13 0.954300 0.750000 0.313995
O O14 0.958884 0.636509 0.422045
O O15 0.004973 0.597617 0.272917
O O16 0.250000 0.068910 0.495212
O O17 0.500000 0.000000 0.500000
O O18 0.250000 0.904232 0.206607
#
# Coordination Sequence:
#
# PCOD8242498 Si02
#       7
#     4   8   8   4   8   8   8
#     4  10  20  36  58  83 106 132 172 225 272 314
#     4   9  17  31  54  82 107 133 175 225 264 306
#     4   9  15  27  49  75 101 131 172 218 259 296
#     4  10  22  38  54  77 110 142 172 213 266 332
#     4  10  20  34  52  77 110 144 182 228 272 311
#     4  10  20  32  48  74 106 141 179 220 262 308
#     4  10  20  36  57  80 107 143 181 216 262 324
#
# _framework density 18.805651000000001
#
# number of rings (size 3 to 8) (size 9 to 14) (size 15 to 20)
#    0.000    2.333    1.667    1.500    0.000    5.333 
#    0.000    0.833    0.000    2.500    0.000    0.000 
#    0.000    0.000    0.000    0.000    0.000    0.000 
#
# Total GULP energy -594944.773320 kJ/mol
# GULP energy per Si atom -12394.682778 kJ/mol
# Density = 1.876285 g / cm^3
# Si number density = 18.805651 Si / 1000 Ang^3
#
#
#
# Elastic Constant Matrix: (Units=GPa)
#
#
# Indices 1 2 3 4 5 6 
#
# 1 21.0570 24.3084 30.0767 0.0000 0.0000 0.0000
# 2 24.3084 153.8423 70.0543 0.0000 0.0000 0.0000
# 3 30.0767 70.0543 136.6189 0.0000 0.0000 0.0000
# 4 0.0000 0.0000 0.0000 24.4042 0.0000 0.0000
# 5 0.0000 0.0000 0.0000 0.0000 26.8334 0.0000
# 6 0.0000 0.0000 0.0000 0.0000 0.0000 17.5045
#
#
#
# Elastic Compliance Matrix: (Units=1/GPa)
#
#
# Indices 1 2 3 4 5 6 
#
# 1 0.072643 -0.005474 -0.013185 0.000000 0.000000 0.000000
# 2 -0.005474 0.008893 -0.003355 0.000000 0.000000 0.000000
# 3 -0.013185 -0.003355 0.011943 0.000000 0.000000 0.000000
# 4 0.000000 0.000000 0.000000 0.040977 0.000000 0.000000
# 5 0.000000 0.000000 0.000000 0.000000 0.037267 0.000000
# 6 0.000000 0.000000 0.000000 0.000000 0.000000 0.057128
#
#
# Mechanical properties :
#
#
# Convention : Reuss Voigt Hill
#
# Bulk Modulus (GPa) = 20.22257 62.26633 41.24445
# Shear Modulus (GPa) = 17.27941 26.22034 21.74987
#
# Velocity S-wave (km/s) = 3.03453 3.73806 3.40451
# Velocity P-wave (km/s) = 4.80152 7.19813 6.11832
#
# Compressibility (1/GPa) = 0.04944971
#
# Stress axis : x y z
#
# Youngs Moduli (GPa) = 13.76599 112.45063 83.73323
#
# Poissons Ratio (x) = 0.61555 1.10406
# Poissons Ratio (y) = 0.07535 0.28091
# Poissons Ratio (z) = 0.18151 0.37726
#
# Static dielectric constant tensor:
#      x y z
#    x 3.006120 0.000000 0.000000 
#    y 0.000000 3.967300 0.000000 
#    z 0.000000 0.000000 3.539550 
# 
# 
# High freq. dielectric constant tensor:
#      x y z
#    x 1.682570 0.000000 0.000000 
#    y 0.000000 1.748150 0.000000 
#    z 0.000000 0.000000 1.734280 
# 
# From -- ./inp_files/20519.got.cif
#   From: 2010.03.12/outbox.cif.g09.slc.cpg/sg59_11_cif.got.tgz:20519.got - 2010.04.16 16:29:54.
