data_PCOD8242250
_publ_section_title
;
Structure prediction by ZEFSAII (Michael W. Deem and Ramdas Pophale) SiO2 
 PCOD8242250
Probable space group: P M M N
;
_chemical_formula_sum "Si O2"
_cell_formula_units_Z 48
_cell_length_a 27.960634
_cell_length_b 8.701992
_cell_length_c 9.786995
_cell_angle_alpha 90.000000
_cell_angle_beta 90.000000
_cell_angle_gamma 90.000000
_cell_volume 2381.305203
_symmetry_space_group_name_H-M "P M M N"
_symmetry_group_IT_number 59
_space_group.IT_coordinate_system_code '2'
_symmetry_cell_setting 'orthorhombic'
loop_
_space_group_symop_operation_xyz
x,y,z
1/2-x,1/2-y,z
1/2+x,-y,-z
-x,1/2+y,-z
-x,-y,-z
1/2+x,1/2+y,-z
1/2-x,y,z
x,1/2-y,z
loop_
_atom_site_type_symbol
_atom_site_label
_atom_site_fract_x
_atom_site_fract_y
_atom_site_fract_z
Si Si1 0.304778 0.567188 0.787515
Si Si2 0.639536 0.571829 0.967135
Si Si3 0.541943 0.433424 0.592064
Si Si4 0.804736 0.074804 0.738980
Si Si5 0.359084 0.926473 0.527313
Si Si6 0.540933 0.431370 0.906390
O O1 0.250000 0.517682 0.760886
O O2 0.308453 0.750000 0.798291
O O3 0.322242 0.491748 0.926321
O O4 0.339060 0.500216 0.667406
O O5 0.629582 0.750000 0.991216
O O6 0.662183 0.543725 0.819090
O O7 0.590001 0.481669 0.977477
O O8 0.500000 0.500000 0.500000
O O9 0.540819 0.250000 0.589071
O O10 0.591507 0.500110 0.528408
O O11 0.537225 0.491082 0.749265
O O12 0.750000 0.033329 0.764794
O O13 0.816153 0.250000 0.785506
O O14 0.816330 0.054288 0.580280
O O15 0.370352 0.750000 0.555853
O O16 0.537165 0.250000 0.909212
O O17 0.500000 0.500000 0.000000
#
# Coordination Sequence:
#
# PCOD8242250 Si02
#       6
#     8   8   8   8   8   8
#     4  10  21  38  62  91 122 161 208 254 304 362
#     4  12  25  40  59  87 125 165 204 249 299 359
#     4  10  22  40  63  91 124 156 196 247 304 364
#     4  10  19  36  64  91 117 154 201 253 306 361
#     4   9  18  37  62  90 119 153 198 253 306 360
#     4  11  24  44  67  93 123 158 202 251 305 364
#
# _framework density 20.157012999999999
#
# number of rings (size 3 to 8) (size 9 to 14) (size 15 to 20)
#    0.000    1.667    1.667    3.000    2.333    6.000 
#    0.000    0.833    0.000    2.000    0.000    0.000 
#    0.000    0.000    0.000    0.000    0.000    0.000 
#
# Total GULP energy -595204.851231 kJ/mol
# GULP energy per Si atom -12400.101067 kJ/mol
# Density = 2.011114 g / cm^3
# Si number density = 20.157013 Si / 1000 Ang^3
#
#
#
# Elastic Constant Matrix: (Units=GPa)
#
#
# Indices 1 2 3 4 5 6 
#
# 1 121.8590 36.1430 45.3140 0.0000 0.0000 0.0000
# 2 36.1430 42.8350 25.3273 0.0000 0.0000 0.0000
# 3 45.3140 25.3273 90.7283 0.0000 0.0000 0.0000
# 4 0.0000 0.0000 0.0000 22.2092 0.0000 0.0000
# 5 0.0000 0.0000 0.0000 0.0000 44.2482 0.0000
# 6 0.0000 0.0000 0.0000 0.0000 0.0000 28.0867
#
#
#
# Elastic Compliance Matrix: (Units=1/GPa)
#
#
# Indices 1 2 3 4 5 6 
#
# 1 0.011934 -0.007839 -0.003772 0.000000 0.000000 0.000000
# 2 -0.007839 0.033110 -0.005328 0.000000 0.000000 0.000000
# 3 -0.003772 -0.005328 0.014393 0.000000 0.000000 0.000000
# 4 0.000000 0.000000 0.000000 0.045026 0.000000 0.000000
# 5 0.000000 0.000000 0.000000 0.000000 0.022600 0.000000
# 6 0.000000 0.000000 0.000000 0.000000 0.000000 0.035604
#
#
# Mechanical properties :
#
#
# Convention : Reuss Voigt Hill
#
# Bulk Modulus (GPa) = 39.12454 52.11008 45.61731
# Shear Modulus (GPa) = 24.38255 28.81801 26.60028
#
# Velocity S-wave (km/s) = 3.48175 3.78521 3.63665
# Velocity P-wave (km/s) = 5.96787 6.70909 6.34931
#
# Compressibility (1/GPa) = 0.02555941
#
# Stress axis : x y z
#
# Youngs Moduli (GPa) = 83.79460 30.20234 69.47792
#
# Poissons Ratio (x) = 0.23676 0.26207
# Poissons Ratio (y) = 0.65689 0.37015
# Poissons Ratio (z) = 0.31607 0.16090
#
# Static dielectric constant tensor:
#      x y z
#    x 3.879920 0.000000 0.000000 
#    y 0.000000 3.380260 0.000000 
#    z 0.000000 0.000000 3.829470 
# 
# 
# High freq. dielectric constant tensor:
#      x y z
#    x 1.803330 0.000000 0.000000 
#    y 0.000000 1.753720 0.000000 
#    z 0.000000 0.000000 1.798590 
# 
# From -- ./inp_files/12952.got.cif
#   From: 2010.03.12/outbox.cif.g09.slc.cpg/sg59_7_cif.got.tgz:12952.got - 2010.04.16 16:29:54.
