data_PCOD8242608
_publ_section_title
;
Structure prediction by ZEFSAII (Michael W. Deem and Ramdas Pophale) SiO2 
 PCOD8242608
Probable space group: P M M N
;
_chemical_formula_sum "Si O2"
_cell_formula_units_Z 64
_cell_length_a 8.951475
_cell_length_b 19.632431
_cell_length_c 17.726168
_cell_angle_alpha 90.000000
_cell_angle_beta 90.000000
_cell_angle_gamma 90.000000
_cell_volume 3115.182854
_symmetry_space_group_name_H-M "P M M N"
_symmetry_group_IT_number 59
_space_group.IT_coordinate_system_code '2'
_symmetry_cell_setting 'orthorhombic'
loop_
_space_group_symop_operation_xyz
x,y,z
1/2-x,1/2-y,z
1/2+x,-y,-z
-x,1/2+y,-z
-x,-y,-z
1/2+x,1/2+y,-z
1/2-x,y,z
x,1/2-y,z
loop_
_atom_site_type_symbol
_atom_site_label
_atom_site_fract_x
_atom_site_fract_y
_atom_site_fract_z
Si Si1 0.581324 0.999190 0.134322
Si Si2 0.925653 0.032631 0.718254
Si Si3 0.425097 0.144554 0.923905
Si Si4 0.422314 0.676381 0.225433
Si Si5 0.571405 0.958278 0.567520
Si Si6 0.573839 0.170415 0.374726
Si Si7 0.420822 0.643560 0.924578
Si Si8 0.912960 0.826787 0.773734
O O1 0.750000 0.989647 0.163130
O O2 0.482532 0.009932 0.209327
O O3 0.530354 0.934294 0.086487
O O4 0.564209 0.062173 0.078260
O O5 0.750000 0.029435 0.718367
O O6 0.979978 0.112314 0.724441
O O7 0.985229 0.998324 0.642153
O O8 0.250000 0.157315 0.933124
O O9 0.484474 0.184207 0.851373
O O10 0.504945 0.171755 0.999248
O O11 0.250000 0.663747 0.203869
O O12 0.441148 0.750000 0.267876
O O13 0.750000 0.956015 0.560425
O O14 0.507865 0.880571 0.566453
O O15 0.500000 0.000000 0.500000
O O16 0.750000 0.159236 0.379201
O O17 0.534608 0.250000 0.392122
O O18 0.517993 0.144167 0.292528
O O19 0.250000 0.668084 0.921744
O O20 0.505940 0.673503 0.853463
O O21 0.750000 0.864648 0.775866
O O22 0.881625 0.750000 0.751028
#
# Coordination Sequence:
#
# PCOD8242608 Si02
#       8
#     8   8   8   8   8   8   8   8
#     4   9  19  33  50  73  99 131 172 220 274 331
#     4   9  19  35  56  82 109 141 183 229 277 332
#     4  10  20  33  48  69 100 135 173 221 278 335
#     4   9  18  35  57  77 100 136 183 232 281 334
#     4  11  23  39  61  91 126 159 192 233 282 337
#     4  10  21  39  63  89 118 154 195 236 280 337
#     4  11  21  32  48  71 100 135 178 227 278 332
#     4  10  21  36  53  75 104 139 180 224 271 325
#
# _framework density 20.544540000000001
#
# number of rings (size 3 to 8) (size 9 to 14) (size 15 to 20)
#    0.000    2.125    0.000    3.000    0.000    6.750 
#    0.000    0.625    0.000    2.250    0.000    0.000 
#    0.000    0.000    0.000    0.000    0.000    0.000 
#
# Total GULP energy -793315.809596 kJ/mol
# GULP energy per Si atom -12395.559525 kJ/mol
# Density = 2.049778 g / cm^3
# Si number density = 20.544540 Si / 1000 Ang^3
#
#
#
# Elastic Constant Matrix: (Units=GPa)
#
#
# Indices 1 2 3 4 5 6 
#
# 1 98.9530 34.2815 42.1231 0.0000 0.0000 0.0000
# 2 34.2815 96.9295 37.5584 0.0000 0.0000 0.0000
# 3 42.1231 37.5584 96.3082 0.0000 0.0000 0.0000
# 4 0.0000 0.0000 0.0000 16.3477 0.0000 0.0000
# 5 0.0000 0.0000 0.0000 0.0000 32.1659 0.0000
# 6 0.0000 0.0000 0.0000 0.0000 0.0000 25.2709
#
#
#
# Elastic Compliance Matrix: (Units=1/GPa)
#
#
# Indices 1 2 3 4 5 6 
#
# 1 0.013045 -0.002831 -0.004602 0.000000 0.000000 0.000000
# 2 -0.002831 0.012767 -0.003741 0.000000 0.000000 0.000000
# 3 -0.004602 -0.003741 0.013855 0.000000 0.000000 0.000000
# 4 0.000000 0.000000 0.000000 0.061171 0.000000 0.000000
# 5 0.000000 0.000000 0.000000 0.000000 0.031089 0.000000
# 6 0.000000 0.000000 0.000000 0.000000 0.000000 0.039571
#
#
# Mechanical properties :
#
#
# Convention : Reuss Voigt Hill
#
# Bulk Modulus (GPa) = 57.73403 57.79073 57.76238
# Shear Modulus (GPa) = 25.04768 26.63875 25.84321
#
# Velocity S-wave (km/s) = 3.49548 3.60479 3.55055
# Velocity P-wave (km/s) = 6.66739 6.74659 6.70711
#
# Compressibility (1/GPa) = 0.01732081
#
# Stress axis : x y z
#
# Youngs Moduli (GPa) = 76.65515 78.32398 72.17612
#
# Poissons Ratio (x) = 0.22171 0.33214
# Poissons Ratio (y) = 0.21699 0.27001
# Poissons Ratio (z) = 0.35276 0.29301
#
# Static dielectric constant tensor:
#      x y z
#    x 3.771980 0.000000 0.000000 
#    y 0.000000 4.053550 0.000000 
#    z 0.000000 0.000000 3.477440 
# 
# 
# High freq. dielectric constant tensor:
#      x y z
#    x 1.806910 0.000000 0.000000 
#    y 0.000000 1.818900 0.000000 
#    z 0.000000 0.000000 1.771030 
# 
# From -- ./inp_files/26197.got.cif
#   From: 2010.03.12/outbox.cif.g09.slc.cpg/sg59_14_cif.got.tgz:26197.got - 2010.04.16 16:29:54.
