data_PCOD8242561
_publ_section_title
;
Structure prediction by ZEFSAII (Michael W. Deem and Ramdas Pophale) SiO2 
 PCOD8242561
Probable space group: P M M N
;
_chemical_formula_sum "Si O2"
_cell_formula_units_Z 64
_cell_length_a 9.101614
_cell_length_b 19.242167
_cell_length_c 19.930806
_cell_angle_alpha 90.000000
_cell_angle_beta 90.000000
_cell_angle_gamma 90.000000
_cell_volume 3490.577255
_symmetry_space_group_name_H-M "P M M N"
_symmetry_group_IT_number 59
_space_group.IT_coordinate_system_code '2'
_symmetry_cell_setting 'orthorhombic'
loop_
_space_group_symop_operation_xyz
x,y,z
1/2-x,1/2-y,z
1/2+x,-y,-z
-x,1/2+y,-z
-x,-y,-z
1/2+x,1/2+y,-z
1/2-x,y,z
x,1/2-y,z
loop_
_atom_site_type_symbol
_atom_site_label
_atom_site_fract_x
_atom_site_fract_y
_atom_site_fract_z
Si Si1 0.922776 0.329866 0.607904
Si Si2 0.578134 0.435252 0.232544
Si Si3 0.078893 0.411463 0.724309
Si Si4 0.088109 0.167745 0.477738
Si Si5 0.082841 0.170544 0.853843
Si Si6 0.579433 0.401438 0.965799
Si Si7 0.421249 0.168950 0.328563
Si Si8 0.578671 0.552373 0.907828
O O1 0.750000 0.336997 0.610965
O O2 0.972741 0.250000 0.620283
O O3 0.990771 0.379945 0.662829
O O4 0.975095 0.356703 0.534854
O O5 0.750000 0.427631 0.217484
O O6 0.544577 0.506979 0.271127
O O7 0.523878 0.372287 0.277896
O O8 0.493114 0.431570 0.162949
O O9 0.250000 0.395604 0.713183
O O10 0.022953 0.375605 0.792602
O O11 0.250000 0.137647 0.494822
O O12 0.097684 0.250000 0.474942
O O13 0.037851 0.142859 0.403833
O O14 0.250000 0.149198 0.871539
O O15 0.071920 0.250000 0.831130
O O16 0.982758 0.159518 0.919060
O O17 0.750000 0.389244 0.979811
O O18 0.547997 0.472948 0.927087
O O19 0.495453 0.398511 0.036469
O O20 0.250000 0.154082 0.313925
O O21 0.456670 0.250000 0.319223
O O22 0.750000 0.569809 0.904549
#
# Coordination Sequence:
#
# PCOD8242561 Si02
#       8
#     8   8   8   8   8   8   8   8
#     4  10  20  32  50  79 111 142 181 231 277 315
#     4  11  22  36  57  84 112 142 180 227 272 319
#     4  10  21  36  53  75 108 149 189 223 263 323
#     4   8  15  31  55  78 102 138 181 220 264 326
#     4  10  20  35  55  78 109 149 188 226 269 320
#     4  10  20  34  55  81 107 137 177 225 269 313
#     4   9  19  37  60  84 109 139 176 219 273 337
#     4  10  20  35  57  80 106 141 178 217 265 322
#
# _framework density 18.335076999999998
#
# number of rings (size 3 to 8) (size 9 to 14) (size 15 to 20)
#    0.000    2.250    1.250    2.625    0.000    4.750 
#    0.000    2.500    0.000    3.750    0.000    0.000 
#    0.000    0.000    0.000    0.000    0.000    0.000 
#
# Total GULP energy -793697.210161 kJ/mol
# GULP energy per Si atom -12401.518909 kJ/mol
# Density = 1.829335 g / cm^3
# Si number density = 18.335077 Si / 1000 Ang^3
#
#
#
# Elastic Constant Matrix: (Units=GPa)
#
#
# Indices 1 2 3 4 5 6 
#
# 1 87.6434 38.5323 69.5628 0.0000 0.0000 0.0000
# 2 38.5323 61.2692 42.4460 0.0000 0.0000 0.0000
# 3 69.5628 42.4460 138.9761 0.0000 0.0000 0.0000
# 4 0.0000 0.0000 0.0000 27.9681 0.0000 0.0000
# 5 0.0000 0.0000 0.0000 0.0000 34.3336 0.0000
# 6 0.0000 0.0000 0.0000 0.0000 0.0000 27.2159
#
#
#
# Elastic Compliance Matrix: (Units=1/GPa)
#
#
# Indices 1 2 3 4 5 6 
#
# 1 0.021442 -0.007673 -0.008389 0.000000 0.000000 0.000000
# 2 -0.007673 0.023448 -0.003321 0.000000 0.000000 0.000000
# 3 -0.008389 -0.003321 0.012409 0.000000 0.000000 0.000000
# 4 0.000000 0.000000 0.000000 0.035755 0.000000 0.000000
# 5 0.000000 0.000000 0.000000 0.000000 0.029126 0.000000
# 6 0.000000 0.000000 0.000000 0.000000 0.000000 0.036743
#
#
# Mechanical properties :
#
#
# Convention : Reuss Voigt Hill
#
# Bulk Modulus (GPa) = 53.95898 65.44122 59.70010
# Shear Modulus (GPa) = 24.52608 27.06000 25.79304
#
# Velocity S-wave (km/s) = 3.66137 3.84586 3.75475
# Velocity P-wave (km/s) = 6.88240 7.44917 7.17139
#
# Compressibility (1/GPa) = 0.01853260
#
# Stress axis : x y z
#
# Youngs Moduli (GPa) = 46.63840 42.64843 80.58924
#
# Poissons Ratio (x) = 0.32724 0.67605
# Poissons Ratio (y) = 0.35786 0.26761
# Poissons Ratio (z) = 0.39124 0.14162
#
# Static dielectric constant tensor:
#      x y z
#    x 3.406920 0.000000 0.000000 
#    y 0.000000 3.144120 0.000000 
#    z 0.000000 0.000000 3.502340 
# 
# 
# High freq. dielectric constant tensor:
#      x y z
#    x 1.714310 0.000000 0.000000 
#    y 0.000000 1.684390 0.000000 
#    z 0.000000 0.000000 1.720260 
# 
# From -- ./inp_files/26349.got.cif
#   From: 2010.03.12/outbox.cif.g09.slc.cpg/sg59_14_cif.got.tgz:26349.got - 2010.04.16 16:29:54.
