data_PCOD8242454
_publ_section_title
;
Structure prediction by ZEFSAII (Michael W. Deem and Ramdas Pophale) SiO2 
 PCOD8242454
Probable space group: P M M N
;
_chemical_formula_sum "Si O2"
_cell_formula_units_Z 48
_cell_length_a 9.763079
_cell_length_b 18.049408
_cell_length_c 15.521437
_cell_angle_alpha 90.000000
_cell_angle_beta 90.000000
_cell_angle_gamma 90.000000
_cell_volume 2735.153422
_symmetry_space_group_name_H-M "P M M N"
_symmetry_group_IT_number 59
_space_group.IT_coordinate_system_code '2'
_symmetry_cell_setting 'orthorhombic'
loop_
_space_group_symop_operation_xyz
x,y,z
1/2-x,1/2-y,z
1/2+x,-y,-z
-x,1/2+y,-z
-x,-y,-z
1/2+x,1/2+y,-z
1/2-x,y,z
x,1/2-y,z
loop_
_atom_site_type_symbol
_atom_site_label
_atom_site_fract_x
_atom_site_fract_y
_atom_site_fract_z
Si Si1 0.489167 0.167877 0.695989
Si Si2 0.600416 0.166506 0.878504
Si Si3 0.403129 0.447845 0.394122
Si Si4 0.400048 0.608154 0.474939
Si Si5 0.601636 0.511420 0.261251
Si Si6 0.408849 0.043631 0.932549
O O1 0.416998 0.250000 0.699206
O O2 0.596257 0.162106 0.774544
O O3 0.564581 0.161593 0.604432
O O4 0.388818 0.097724 0.707940
O O5 0.750000 0.134275 0.905493
O O6 0.586503 0.250000 0.911120
O O7 0.475701 0.124600 0.924285
O O8 0.250000 0.417630 0.374089
O O9 0.392771 0.523243 0.446567
O O10 0.485882 0.386147 0.449569
O O11 0.482385 0.463922 0.305215
O O12 0.250000 0.631602 0.510236
O O13 0.750000 0.477893 0.286435
O O14 0.578719 0.503465 0.159439
O O15 0.250000 0.050428 0.961692
O O16 0.500000 0.000000 0.000000
#
# Coordination Sequence:
#
# PCOD8242454 Si02
#       6
#     8   8   8   8   8   8
#     4   9  17  27  42  66  94 124 156 185 217 263
#     4   9  17  30  48  69  96 129 160 190 228 279
#     4   9  17  28  42  59  80 110 147 184 221 259
#     4   9  16  25  39  59  84 113 145 182 216 248
#     4   9  18  31  46  65  89 118 151 187 229 274
#     4  10  20  32  48  71  98 125 155 195 241 288
#
# _framework density 17.549289999999999
#
# number of rings (size 3 to 8) (size 9 to 14) (size 15 to 20)
#    0.000    2.833    0.000    1.500    0.000   10.333 
#    0.000    3.333    0.000    0.000    0.000    1.167 
#    0.000    1.333    0.000    0.000    0.000    0.000 
#
# Total GULP energy -594667.445342 kJ/mol
# GULP energy per Si atom -12388.905111 kJ/mol
# Density = 1.750935 g / cm^3
# Si number density = 17.549290 Si / 1000 Ang^3
#
#
#
# Elastic Constant Matrix: (Units=GPa)
#
#
# Indices 1 2 3 4 5 6 
#
# 1 166.9468 32.7975 66.2493 0.0000 0.0000 0.0000
# 2 32.7975 44.3174 36.5427 0.0000 0.0000 0.0000
# 3 66.2493 36.5427 78.0276 0.0000 0.0000 0.0000
# 4 0.0000 0.0000 0.0000 20.1938 0.0000 0.0000
# 5 0.0000 0.0000 0.0000 0.0000 24.0599 0.0000
# 6 0.0000 0.0000 0.0000 0.0000 0.0000 15.0718
#
#
#
# Elastic Compliance Matrix: (Units=1/GPa)
#
#
# Indices 1 2 3 4 5 6 
#
# 1 0.009043 -0.000589 -0.007402 0.000000 0.000000 0.000000
# 2 -0.000589 0.036798 -0.016734 0.000000 0.000000 0.000000
# 3 -0.007402 -0.016734 0.026938 0.000000 0.000000 0.000000
# 4 0.000000 0.000000 0.000000 0.049520 0.000000 0.000000
# 5 0.000000 0.000000 0.000000 0.000000 0.041563 0.000000
# 6 0.000000 0.000000 0.000000 0.000000 0.000000 0.066349
#
#
# Mechanical properties :
#
#
# Convention : Reuss Voigt Hill
#
# Bulk Modulus (GPa) = 42.86426 62.27453 52.56940
# Shear Modulus (GPa) = 17.39506 22.11192 19.75349
#
# Velocity S-wave (km/s) = 3.15177 3.55348 3.35864
# Velocity P-wave (km/s) = 6.14190 7.23871 6.71274
#
# Compressibility (1/GPa) = 0.02332946
#
# Stress axis : x y z
#
# Youngs Moduli (GPa) = 110.58243 27.17507 37.12238
#
# Poissons Ratio (x) = 0.01600 0.27479
# Poissons Ratio (y) = 0.06510 0.62121
# Poissons Ratio (z) = 0.81856 0.45475
#
# Static dielectric constant tensor:
#      x y z
#    x 3.522160 0.000000 0.000000 
#    y 0.000000 3.004200 0.000000 
#    z 0.000000 0.000000 3.110450 
# 
# 
# High freq. dielectric constant tensor:
#      x y z
#    x 1.690260 0.000000 0.000000 
#    y 0.000000 1.631550 0.000000 
#    z 0.000000 0.000000 1.656830 
# 
# From -- ./inp_files/25743.got.cif
#   From: 2010.03.12/outbox.cif.g09.slc.cpg/sg59_13_cif.got.tgz:25743.got - 2010.04.16 16:29:54.
