data_PCOD8242806
_publ_section_title
;
Structure prediction by ZEFSAII (Michael W. Deem and Ramdas Pophale) SiO2 
 PCOD8242806
Probable space group: P M M N
;
_chemical_formula_sum "Si O2"
_cell_formula_units_Z 64
_cell_length_a 8.761991
_cell_length_b 23.035568
_cell_length_c 17.849952
_cell_angle_alpha 90.000000
_cell_angle_beta 90.000000
_cell_angle_gamma 90.000000
_cell_volume 3602.788607
_symmetry_space_group_name_H-M "P M M N"
_symmetry_group_IT_number 59
_space_group.IT_coordinate_system_code '2'
_symmetry_cell_setting 'orthorhombic'
loop_
_space_group_symop_operation_xyz
x,y,z
1/2-x,1/2-y,z
1/2+x,-y,-z
-x,1/2+y,-z
-x,-y,-z
1/2+x,1/2+y,-z
1/2-x,y,z
x,1/2-y,z
loop_
_atom_site_type_symbol
_atom_site_label
_atom_site_fract_x
_atom_site_fract_y
_atom_site_fract_z
Si Si1 0.927237 0.317981 0.765856
Si Si2 0.429319 0.003230 0.417852
Si Si3 0.425422 0.617470 0.642405
Si Si4 0.571787 0.817511 0.778254
Si Si5 0.571710 0.610908 0.366613
Si Si6 0.921510 0.818988 0.080836
Si Si7 0.924958 0.183520 0.506847
Si Si8 0.921344 0.318890 0.068276
O O1 0.750000 0.332425 0.756774
O O2 0.959784 0.250000 0.754311
O O3 0.022273 0.352132 0.704520
O O4 0.981981 0.339148 0.847301
O O5 0.250000 0.999231 0.427666
O O6 0.472850 0.062029 0.376082
O O7 0.500000 0.000000 0.500000
O O8 0.485955 0.950415 0.366466
O O9 0.250000 0.597896 0.648100
O O10 0.477318 0.644690 0.720121
O O11 0.448016 0.666147 0.579110
O O12 0.750000 0.829434 0.768024
O O13 0.531857 0.750000 0.766158
O O14 0.521297 0.838209 0.860661
O O15 0.750000 0.598877 0.363099
O O16 0.534532 0.645069 0.442531
O O17 0.750000 0.843747 0.086803
O O18 0.917917 0.750000 0.076165
O O19 0.001086 0.844840 0.006547
O O20 0.750000 0.173718 0.532468
O O21 0.973396 0.250000 0.516154
O O22 0.750000 0.343789 0.075720
O O23 0.916500 0.250000 0.062293
#
# Coordination Sequence:
#
# PCOD8242806 Si02
#       8
#     8   8   8   8   8   8   8   8
#     4  10  20  34  52  76 109 145 179 218 265 317
#     4  12  24  41  61  80 101 132 175 224 270 316
#     4  11  22  37  57  79 104 138 177 220 268 316
#     4  10  20  33  50  76 111 146 180 220 265 315
#     4  12  24  37  55  78 104 138 177 220 267 314
#     4   9  16  27  45  71 104 140 177 216 260 313
#     4  10  21  36  54  76 105 140 174 211 260 317
#     4   9  16  27  45  70 102 141 181 217 259 313
#
# _framework density 17.764016999999999
#
# number of rings (size 3 to 8) (size 9 to 14) (size 15 to 20)
#    0.000    1.625    1.250    4.875    0.000    7.250 
#    0.000    0.000    0.000    0.000    0.000    0.875 
#    0.000    0.000    0.000    0.000    0.000    0.000 
#
# Total GULP energy -793847.313391 kJ/mol
# GULP energy per Si atom -12403.864272 kJ/mol
# Density = 1.772359 g / cm^3
# Si number density = 17.764017 Si / 1000 Ang^3
#
#
#
# Elastic Constant Matrix: (Units=GPa)
#
#
# Indices 1 2 3 4 5 6 
#
# 1 121.5646 35.3510 41.7018 0.0000 0.0000 0.0000
# 2 35.3510 55.2816 22.5307 0.0000 0.0000 0.0000
# 3 41.7018 22.5307 111.0128 0.0000 0.0000 0.0000
# 4 0.0000 0.0000 0.0000 3.1334 0.0000 0.0000
# 5 0.0000 0.0000 0.0000 0.0000 34.2065 0.0000
# 6 0.0000 0.0000 0.0000 0.0000 0.0000 24.2311
#
#
#
# Elastic Compliance Matrix: (Units=1/GPa)
#
#
# Indices 1 2 3 4 5 6 
#
# 1 0.010912 -0.005786 -0.002925 0.000000 0.000000 0.000000
# 2 -0.005786 0.022788 -0.002452 0.000000 0.000000 0.000000
# 3 -0.002925 -0.002452 0.010604 0.000000 0.000000 0.000000
# 4 0.000000 0.000000 0.000000 0.319138 0.000000 0.000000
# 5 0.000000 0.000000 0.000000 0.000000 0.029234 0.000000
# 6 0.000000 0.000000 0.000000 0.000000 0.000000 0.041269
#
#
# Mechanical properties :
#
#
# Convention : Reuss Voigt Hill
#
# Bulk Modulus (GPa) = 45.49583 54.11397 49.80490
# Shear Modulus (GPa) = 10.78522 24.86591 17.82557
#
# Velocity S-wave (km/s) = 2.46669 3.74544 3.17119
# Velocity P-wave (km/s) = 5.81202 7.01664 6.44255
#
# Compressibility (1/GPa) = 0.02198003
#
# Stress axis : x y z
#
# Youngs Moduli (GPa) = 91.64292 43.88232 94.30213
#
# Poissons Ratio (x) = 0.25390 0.27581
# Poissons Ratio (y) = 0.53023 0.23119
# Poissons Ratio (z) = 0.26804 0.10758
#
# Static dielectric constant tensor:
#      x y z
#    x 3.512940 0.000000 0.000000 
#    y 0.000000 3.149860 0.000000 
#    z 0.000000 0.000000 3.406560 
# 
# 
# High freq. dielectric constant tensor:
#      x y z
#    x 1.705320 0.000000 0.000000 
#    y 0.000000 1.646860 0.000000 
#    z 0.000000 0.000000 1.695380 
# 
# From -- ./inp_files/26312.got.cif
#   From: 2010.03.12/outbox.cif.g09.slc.cpg/sg59_14_cif.got.tgz:26312.got - 2010.04.16 16:29:54.
