data_PCOD8242572
_publ_section_title
;
Structure prediction by ZEFSAII (Michael W. Deem and Ramdas Pophale) SiO2 
 PCOD8242572
Probable space group: P M M N
;
_chemical_formula_sum "Si O2"
_cell_formula_units_Z 64
_cell_length_a 9.039883
_cell_length_b 18.139082
_cell_length_c 21.330627
_cell_angle_alpha 90.000000
_cell_angle_beta 90.000000
_cell_angle_gamma 90.000000
_cell_volume 3497.693381
_symmetry_space_group_name_H-M "P M M N"
_symmetry_group_IT_number 59
_space_group.IT_coordinate_system_code '2'
_symmetry_cell_setting 'orthorhombic'
loop_
_space_group_symop_operation_xyz
x,y,z
1/2-x,1/2-y,z
1/2+x,-y,-z
-x,1/2+y,-z
-x,-y,-z
1/2+x,1/2+y,-z
1/2-x,y,z
x,1/2-y,z
loop_
_atom_site_type_symbol
_atom_site_label
_atom_site_fract_x
_atom_site_fract_y
_atom_site_fract_z
Si Si1 0.580501 0.538017 0.820761
Si Si2 0.578613 0.110170 0.751250
Si Si3 0.419814 0.165916 0.270107
Si Si4 0.081878 0.836656 0.604448
Si Si5 0.919834 0.668249 0.131754
Si Si6 0.075231 0.421287 0.503846
Si Si7 0.075357 0.165465 0.627926
Si Si8 0.576894 0.976945 0.063460
O O1 0.750000 0.534285 0.843687
O O2 0.549705 0.474627 0.769594
O O3 0.541757 0.616105 0.789723
O O4 0.476262 0.530015 0.880826
O O5 0.750000 0.128184 0.742543
O O6 0.516488 0.162595 0.805681
O O7 0.497648 0.125522 0.686558
O O8 0.250000 0.154026 0.291199
O O9 0.449236 0.250000 0.250008
O O10 0.525306 0.141832 0.326713
O O11 0.250000 0.865082 0.596910
O O12 0.071042 0.750000 0.593887
O O13 0.974968 0.873859 0.554958
O O14 0.750000 0.654822 0.151326
O O15 0.942708 0.750000 0.102882
O O16 0.967298 0.607636 0.080145
O O17 0.250000 0.431469 0.501738
O O18 0.024426 0.378681 0.566359
O O19 0.000000 0.500000 0.500000
O O20 0.250000 0.162348 0.636644
O O21 0.020865 0.250000 0.622391
O O22 0.750000 0.986707 0.054489
O O23 0.500000 0.000000 0.000000
#
# Coordination Sequence:
#
# PCOD8242572 Si02
#       8
#     8   8   8   8   8   8   8   8
#     4   9  19  35  54  79 110 142 176 219 265 314
#     4  10  20  32  51  81 112 139 171 215 268 318
#     4   9  18  34  57  82 107 141 184 227 272 322
#     4  10  21  37  57  81 108 140 180 228 279 330
#     4   9  18  34  55  78 105 139 180 219 257 308
#     4  11  24  40  57  78 105 140 183 229 278 331
#     4  10  22  39  56  75 103 140 178 216 263 323
#     4  10  20  35  56  80 107 143 180 217 261 311
#
# _framework density 18.297772999999999
#
# number of rings (size 3 to 8) (size 9 to 14) (size 15 to 20)
#    0.000    2.250    0.000    2.250    1.750    5.750 
#    0.000    0.625    0.000    3.750    0.000    0.000 
#    0.000    0.000    0.000    0.000    0.000    0.000 
#
# Total GULP energy -793765.683601 kJ/mol
# GULP energy per Si atom -12402.588806 kJ/mol
# Density = 1.825613 g / cm^3
# Si number density = 18.297773 Si / 1000 Ang^3
#
#
#
# Elastic Constant Matrix: (Units=GPa)
#
#
# Indices 1 2 3 4 5 6 
#
# 1 59.2961 44.3751 51.5774 0.0000 0.0000 0.0000
# 2 44.3751 95.8383 79.9608 0.0000 0.0000 0.0000
# 3 51.5774 79.9608 129.2472 0.0000 0.0000 0.0000
# 4 0.0000 0.0000 0.0000 24.2629 0.0000 0.0000
# 5 0.0000 0.0000 0.0000 0.0000 35.7486 0.0000
# 6 0.0000 0.0000 0.0000 0.0000 0.0000 28.4816
#
#
#
# Elastic Compliance Matrix: (Units=1/GPa)
#
#
# Indices 1 2 3 4 5 6 
#
# 1 0.028279 -0.007602 -0.006582 0.000000 0.000000 0.000000
# 2 -0.007602 0.023610 -0.011573 0.000000 0.000000 0.000000
# 3 -0.006582 -0.011573 0.017523 0.000000 0.000000 0.000000
# 4 0.000000 0.000000 0.000000 0.041215 0.000000 0.000000
# 5 0.000000 0.000000 0.000000 0.000000 0.027973 0.000000
# 6 0.000000 0.000000 0.000000 0.000000 0.000000 0.035110
#
#
# Mechanical properties :
#
#
# Convention : Reuss Voigt Hill
#
# Bulk Modulus (GPa) = 55.87132 70.68980 63.28056
# Shear Modulus (GPa) = 21.62724 24.92985 23.27855
#
# Velocity S-wave (km/s) = 3.44169 3.69515 3.57067
# Velocity P-wave (km/s) = 6.81135 7.54469 7.18738
#
# Compressibility (1/GPa) = 0.01789827
#
# Stress axis : x y z
#
# Youngs Moduli (GPa) = 35.36233 42.35519 57.06718
#
# Poissons Ratio (x) = 0.32200 0.37559
# Poissons Ratio (y) = 0.26884 0.66043
# Poissons Ratio (z) = 0.23274 0.49017
#
# Static dielectric constant tensor:
#      x y z
#    x 3.027880 0.000000 0.000000 
#    y 0.000000 3.465990 0.000000 
#    z 0.000000 0.000000 3.265950 
# 
# 
# High freq. dielectric constant tensor:
#      x y z
#    x 1.715090 0.000000 0.000000 
#    y 0.000000 1.715670 0.000000 
#    z 0.000000 0.000000 1.700440 
# 
# From -- ./inp_files/29491.got.cif
#   From: 2010.03.12/outbox.cif.g09.slc.cpg/sg59_15_cif.got.tgz:29491.got - 2010.04.16 16:29:54.
