data_PCOD8242225
_publ_section_title
;
Structure prediction by ZEFSAII (Michael W. Deem and Ramdas Pophale) SiO2 
 PCOD8242225
Probable space group: P M M N
;
_chemical_formula_sum "Si O2"
_cell_formula_units_Z 40
_cell_length_a 25.935741
_cell_length_b 8.821470
_cell_length_c 8.996767
_cell_angle_alpha 90.000000
_cell_angle_beta 90.000000
_cell_angle_gamma 90.000000
_cell_volume 2058.382568
_symmetry_space_group_name_H-M "P M M N"
_symmetry_group_IT_number 59
_space_group.IT_coordinate_system_code '2'
_symmetry_cell_setting 'orthorhombic'
loop_
_space_group_symop_operation_xyz
x,y,z
1/2-x,1/2-y,z
1/2+x,-y,-z
-x,1/2+y,-z
-x,-y,-z
1/2+x,1/2+y,-z
1/2-x,y,z
x,1/2-y,z
loop_
_atom_site_type_symbol
_atom_site_label
_atom_site_fract_x
_atom_site_fract_y
_atom_site_fract_z
Si Si1 0.048624 0.929968 0.579964
Si Si2 0.150052 0.929694 0.416092
Si Si3 0.750000 0.069420 0.408357
Si Si4 0.346774 0.570236 0.077754
Si Si5 0.750000 0.929436 0.084780
Si Si6 0.451694 0.571446 0.918996
O O1 0.045569 0.750000 0.569266
O O2 0.099570 0.993348 0.498686
O O3 0.050193 0.985683 0.749700
O O4 0.000000 0.000000 0.500000
O O5 0.149183 0.750000 0.418503
O O6 0.200338 0.989102 0.501640
O O7 0.150853 0.987352 0.247151
O O8 0.750000 0.250000 0.389059
O O9 0.750000 0.994246 0.249176
O O10 0.337908 0.750000 0.066323
O O11 0.300233 0.486605 0.999234
O O12 0.399471 0.519239 0.999180
O O13 0.750000 0.750000 0.090111
O O14 0.457808 0.750000 0.927710
O O15 0.500000 0.500000 0.000000
#
# Coordination Sequence:
#
# PCOD8242225 Si02
#       6
#     8   8   4   8   4   8
#     4  10  20  35  54  81 112 144 182 224 269 321
#     4   9  18  34  60  86 105 133 183 233 271 318
#     4  10  19  36  60  82 106 140 179 224 272 326
#     4  10  20  38  62  84 107 144 188 229 274 330
#     4  12  25  38  54  82 116 148 181 226 278 328
#     4  10  21  36  58  85 114 147 185 227 274 326
#
# _framework density 19.432734
#
# number of rings (size 3 to 8) (size 9 to 14) (size 15 to 20)
#    0.000    2.000    0.000    3.900    0.000    8.000 
#    0.000    6.000    0.000    0.000    0.000    0.000 
#    0.000    0.000    0.000    0.000    0.000    0.000 
#
# Total GULP energy -496122.714836 kJ/mol
# GULP energy per Si atom -12403.067871 kJ/mol
# Density = 1.938850 g / cm^3
# Si number density = 19.432734 Si / 1000 Ang^3
#
#
#
# Elastic Constant Matrix: (Units=GPa)
#
#
# Indices 1 2 3 4 5 6 
#
# 1 215.9089 41.2152 125.5238 0.0000 0.0000 0.0000
# 2 41.2152 34.0788 41.0518 0.0000 0.0000 0.0000
# 3 125.5238 41.0518 224.3611 0.0000 0.0000 0.0000
# 4 0.0000 0.0000 0.0000 20.8900 0.0000 0.0000
# 5 0.0000 0.0000 0.0000 0.0000 48.4523 0.0000
# 6 0.0000 0.0000 0.0000 0.0000 0.0000 30.9238
#
#
#
# Elastic Compliance Matrix: (Units=1/GPa)
#
#
# Indices 1 2 3 4 5 6 
#
# 1 0.007510 -0.005159 -0.003258 0.000000 0.000000 0.000000
# 2 -0.005159 0.041183 -0.004649 0.000000 0.000000 0.000000
# 3 -0.003258 -0.004649 0.007131 0.000000 0.000000 0.000000
# 4 0.000000 0.000000 0.000000 0.047870 0.000000 0.000000
# 5 0.000000 0.000000 0.000000 0.000000 0.020639 0.000000
# 6 0.000000 0.000000 0.000000 0.000000 0.000000 0.032338
#
#
# Mechanical properties :
#
#
# Convention : Reuss Voigt Hill
#
# Bulk Modulus (GPa) = 33.67860 98.88114 66.27987
# Shear Modulus (GPa) = 25.94713 37.82376 31.88544
#
# Velocity S-wave (km/s) = 3.65804 4.41658 4.05509
# Velocity P-wave (km/s) = 5.93382 8.77511 7.49042
#
# Compressibility (1/GPa) = 0.02969245
#
# Stress axis : x y z
#
# Youngs Moduli (GPa) = 133.14833 24.28176 140.24142
#
# Poissons Ratio (x) = 0.12526 0.45691
# Poissons Ratio (y) = 0.68685 0.65203
# Poissons Ratio (z) = 0.43380 0.11289
#
# Static dielectric constant tensor:
#      x y z
#    x 3.788010 0.000000 0.000000 
#    y 0.000000 3.216450 0.000000 
#    z 0.000000 0.000000 3.915790 
# 
# 
# High freq. dielectric constant tensor:
#      x y z
#    x 1.778440 0.000000 0.000000 
#    y 0.000000 1.719640 0.000000 
#    z 0.000000 0.000000 1.780350 
# 
# From -- ./inp_files/12447.got.cif
#   From: 2010.03.12/outbox.cif.g09.slc.cpg/sg59_7_cif.got.tgz:12447.got - 2010.04.16 16:29:54.
