data_PCOD8242854
_publ_section_title
;
Structure prediction by ZEFSAII (Michael W. Deem and Ramdas Pophale) SiO2 
 PCOD8242854
Probable space group: P M M N
;
_chemical_formula_sum "Si O2"
_cell_formula_units_Z 48
_cell_length_a 9.606945
_cell_length_b 9.392241
_cell_length_c 28.714438
_cell_angle_alpha 90.000000
_cell_angle_beta 90.000000
_cell_angle_gamma 90.000000
_cell_volume 2590.925067
_symmetry_space_group_name_H-M "P M M N"
_symmetry_group_IT_number 59
_space_group.IT_coordinate_system_code '2'
_symmetry_cell_setting 'orthorhombic'
loop_
_space_group_symop_operation_xyz
x,y,z
1/2-x,1/2-y,z
1/2+x,-y,-z
-x,1/2+y,-z
-x,-y,-z
1/2+x,1/2+y,-z
1/2-x,y,z
x,1/2-y,z
loop_
_atom_site_type_symbol
_atom_site_label
_atom_site_fract_x
_atom_site_fract_y
_atom_site_fract_z
Si Si1 0.414686 0.588433 0.369349
Si Si2 0.916047 0.588461 0.718093
Si Si3 0.591953 0.250000 0.063731
Si Si4 0.086278 0.082435 0.461221
Si Si5 0.409503 0.040192 0.892672
Si Si6 0.592530 0.408569 0.804379
Si Si7 0.589460 0.750000 0.027775
O O1 0.250000 0.598268 0.365604
O O2 0.475812 0.750000 0.373038
O O3 0.475638 0.507068 0.324162
O O4 0.458045 0.492473 0.413197
O O5 0.750000 0.588177 0.716246
O O6 0.973251 0.750000 0.714494
O O7 0.968205 0.518646 0.766407
O O8 0.750000 0.250000 0.045189
O O9 0.560924 0.376571 0.098897
O O10 0.496466 0.250000 0.019043
O O11 0.250000 0.063305 0.471119
O O12 0.046844 0.250000 0.459628
O O13 0.000000 0.000000 0.500000
O O14 0.250000 0.075362 0.879946
O O15 0.502456 0.093486 0.850718
O O16 0.450144 0.113918 0.941271
O O17 0.750000 0.451322 0.817801
O O18 0.589280 0.250000 0.782469
O O19 0.750000 0.750000 0.013003
#
# Coordination Sequence:
#
# PCOD8242854 Si02
#       7
#     8   8   4   8   8   8   4
#     4   9  16  28  48  73 103 139 177 218 266 318
#     4   9  17  29  47  73 104 133 165 212 263 307
#     4  10  22  36  54  78 104 132 166 206 249 294
#     4  10  20  33  51  77 108 144 186 229 275 325
#     4  10  21  37  54  75 104 136 167 202 248 302
#     4  10  20  33  51  76 102 130 167 209 252 298
#     4  10  20  36  56  76 100 134 170 204 245 296
#
# _framework density 18.526202000000001
#
# number of rings (size 3 to 8) (size 9 to 14) (size 15 to 20)
#    0.000    2.333    0.833    2.000    1.167    6.333 
#    0.000    0.000    0.000    1.000    0.000    0.000 
#    0.000    0.000    0.000    0.000    0.000    0.000 
#
# Total GULP energy -595073.891528 kJ/mol
# GULP energy per Si atom -12397.372740 kJ/mol
# Density = 1.848404 g / cm^3
# Si number density = 18.526202 Si / 1000 Ang^3
#
#
#
# Elastic Constant Matrix: (Units=GPa)
#
#
# Indices 1 2 3 4 5 6 
#
# 1 41.3747 28.9594 42.4487 0.0000 0.0000 0.0000
# 2 28.9594 150.9355 51.6362 0.0000 0.0000 0.0000
# 3 42.4487 51.6362 113.2629 0.0000 0.0000 0.0000
# 4 0.0000 0.0000 0.0000 -52.4433 0.0000 0.0000
# 5 0.0000 0.0000 0.0000 0.0000 20.7338 0.0000
# 6 0.0000 0.0000 0.0000 0.0000 0.0000 19.5208
#
#
#
# Elastic Compliance Matrix: (Units=1/GPa)
#
#
# Indices 1 2 3 4 5 6 
#
# 1 0.040418 -0.003048 -0.013758 0.000000 0.000000 0.000000
# 2 -0.003048 0.008079 -0.002541 0.000000 0.000000 0.000000
# 3 -0.013758 -0.002541 0.015144 0.000000 0.000000 0.000000
# 4 0.000000 0.000000 0.000000 -0.019068 0.000000 0.000000
# 5 0.000000 0.000000 0.000000 0.000000 0.048230 0.000000
# 6 0.000000 0.000000 0.000000 0.000000 0.000000 0.051227
#
#
# Mechanical properties :
#
#
# Convention : Reuss Voigt Hill
#
# Bulk Modulus (GPa) = 40.08560 61.29575 50.69068
# Shear Modulus (GPa) = 26.17234 9.73086 17.95160
#
# Velocity S-wave (km/s) = 3.76269 2.29432 3.11623
# Velocity P-wave (km/s) = 6.36878 6.33848 6.35365
#
# Compressibility (1/GPa) = 0.02494661
#
# Stress axis : x y z
#
# Youngs Moduli (GPa) = 24.74132 123.77026 66.03355
#
# Poissons Ratio (x) = 0.37726 0.90851
# Poissons Ratio (y) = 0.07541 0.16779
# Poissons Ratio (z) = 0.34040 0.31451
#
# Static dielectric constant tensor:
#      x y z
#    x 3.003410 0.000000 0.000000 
#    y 0.000000 3.817730 0.000000 
#    z 0.000000 0.000000 3.356110 
# 
# 
# High freq. dielectric constant tensor:
#      x y z
#    x 1.670250 0.000000 0.000000 
#    y 0.000000 1.744350 0.000000 
#    z 0.000000 0.000000 1.722640 
# 
# From -- ./inp_files/33046.got.cif
#   From: 2010.03.12/outbox.cif.g09.slc.cpg/sg59_17_cif.got.tgz:33046.got - 2010.04.16 16:29:54.
