data_PCOD8242731
_publ_section_title
;
Structure prediction by ZEFSAII (Michael W. Deem and Ramdas Pophale) SiO2 
 PCOD8242731
Probable space group: P M M N
;
_chemical_formula_sum "Si O2"
_cell_formula_units_Z 40
_cell_length_a 8.794005
_cell_length_b 21.658071
_cell_length_c 11.559483
_cell_angle_alpha 90.000000
_cell_angle_beta 90.000000
_cell_angle_gamma 90.000000
_cell_volume 2201.632826
_symmetry_space_group_name_H-M "P M M N"
_symmetry_group_IT_number 59
_space_group.IT_coordinate_system_code '2'
_symmetry_cell_setting 'orthorhombic'
loop_
_space_group_symop_operation_xyz
x,y,z
1/2-x,1/2-y,z
1/2+x,-y,-z
-x,1/2+y,-z
-x,-y,-z
1/2+x,1/2+y,-z
1/2-x,y,z
x,1/2-y,z
loop_
_atom_site_type_symbol
_atom_site_label
_atom_site_fract_x
_atom_site_fract_y
_atom_site_fract_z
Si Si1 0.924063 0.533307 0.818700
Si Si2 0.921865 0.680800 0.229919
Si Si3 0.923828 0.577451 0.059079
Si Si4 0.428456 0.680709 0.465571
Si Si5 0.929392 0.054753 0.423184
O O1 0.750000 0.533678 0.775635
O O2 0.960810 0.468175 0.877482
O O3 0.032255 0.545861 0.710870
O O4 0.953501 0.583271 0.921022
O O5 0.750000 0.669503 0.274086
O O6 0.950176 0.750000 0.190421
O O7 0.957622 0.643418 0.114236
O O8 0.032377 0.662422 0.334305
O O9 0.750000 0.555325 0.080633
O O10 0.250000 0.684722 0.480297
O O11 0.496612 0.750000 0.496201
O O12 0.491331 0.623534 0.542612
O O13 0.750000 0.051175 0.441737
O O14 0.000000 0.000000 0.500000
#
# Coordination Sequence:
#
# PCOD8242731 Si02
#       5
#     8   8   8   8   8
#     4  10  20  33  50  73 100 130 164 202 245 292
#     4   9  17  30  50  74  97 123 158 200 244 289
#     4   9  18  33  51  71  98 130 162 199 244 293
#     4   9  19  35  52  71  98 132 167 203 246 295
#     4  11  22  35  53  76 102 132 167 209 252 297
#
# _framework density 18.168334000000002
#
# number of rings (size 3 to 8) (size 9 to 14) (size 15 to 20)
#    0.000    2.400    0.000    2.400    0.000    6.400 
#    0.000    1.000    0.000    1.200    0.000    0.000 
#    0.000    0.000    0.000    0.000    0.000    0.000 
#
# Total GULP energy -495726.326976 kJ/mol
# GULP energy per Si atom -12393.158174 kJ/mol
# Density = 1.812698 g / cm^3
# Si number density = 18.168334 Si / 1000 Ang^3
#
#
#
# Elastic Constant Matrix: (Units=GPa)
#
#
# Indices 1 2 3 4 5 6 
#
# 1 29.5389 28.2526 17.7796 0.0000 0.0000 0.0000
# 2 28.2526 100.3072 62.5190 0.0000 0.0000 0.0000
# 3 17.7796 62.5190 113.4130 0.0000 0.0000 0.0000
# 4 0.0000 0.0000 0.0000 31.6743 0.0000 0.0000
# 5 0.0000 0.0000 0.0000 0.0000 28.3254 0.0000
# 6 0.0000 0.0000 0.0000 0.0000 0.0000 21.9362
#
#
#
# Elastic Compliance Matrix: (Units=1/GPa)
#
#
# Indices 1 2 3 4 5 6 
#
# 1 0.046337 -0.012985 -0.000106 0.000000 0.000000 0.000000
# 2 -0.012985 0.018826 -0.008342 0.000000 0.000000 0.000000
# 3 -0.000106 -0.008342 0.013433 0.000000 0.000000 0.000000
# 4 0.000000 0.000000 0.000000 0.031571 0.000000 0.000000
# 5 0.000000 0.000000 0.000000 0.000000 0.035304 0.000000
# 6 0.000000 0.000000 0.000000 0.000000 0.000000 0.045587
#
#
# Mechanical properties :
#
#
# Convention : Reuss Voigt Hill
#
# Bulk Modulus (GPa) = 27.98851 51.15127 39.56989
# Shear Modulus (GPa) = 20.33878 25.36769 22.85324
#
# Velocity S-wave (km/s) = 3.34947 3.74071 3.55048
# Velocity P-wave (km/s) = 5.51336 6.84634 6.21569
#
# Compressibility (1/GPa) = 0.03572894
#
# Stress axis : x y z
#
# Youngs Moduli (GPa) = 21.58085 53.11687 74.44514
#
# Poissons Ratio (x) = 0.68974 0.00790
# Poissons Ratio (y) = 0.28023 0.62105
# Poissons Ratio (z) = 0.00229 0.44312
#
# Static dielectric constant tensor:
#      x y z
#    x 3.346360 0.000000 0.000000 
#    y 0.000000 3.652690 0.000000 
#    z 0.000000 0.000000 3.404660 
# 
# 
# High freq. dielectric constant tensor:
#      x y z
#    x 1.700780 0.000000 0.000000 
#    y 0.000000 1.702890 0.000000 
#    z 0.000000 0.000000 1.697770 
# 
# From -- ./inp_files/14056.got.cif
#   From: 2010.03.12/outbox.cif.g09.slc.cpg/sg59_8_cif.got.tgz:14056.got - 2010.04.16 16:29:54.
