data_PCOD8242128
_publ_section_title
;
Structure prediction by ZEFSAII (Michael W. Deem and Ramdas Pophale) SiO2 
 PCOD8242128
Probable space group: P M M N
;
_chemical_formula_sum "Si O2"
_cell_formula_units_Z 64
_cell_length_a 25.821016
_cell_length_b 8.926528
_cell_length_c 14.347947
_cell_angle_alpha 90.000000
_cell_angle_beta 90.000000
_cell_angle_gamma 90.000000
_cell_volume 3307.087320
_symmetry_space_group_name_H-M "P M M N"
_symmetry_group_IT_number 59
_space_group.IT_coordinate_system_code '2'
_symmetry_cell_setting 'orthorhombic'
loop_
_space_group_symop_operation_xyz
x,y,z
1/2-x,1/2-y,z
1/2+x,-y,-z
-x,1/2+y,-z
-x,-y,-z
1/2+x,1/2+y,-z
1/2-x,y,z
x,1/2-y,z
loop_
_atom_site_type_symbol
_atom_site_label
_atom_site_fract_x
_atom_site_fract_y
_atom_site_fract_z
Si Si1 0.901781 0.072727 0.095747
Si Si2 0.690215 0.577272 0.414731
Si Si3 0.499293 0.423628 0.208338
Si Si4 0.808737 0.076261 0.221727
Si Si5 0.192798 0.927217 0.233438
Si Si6 0.527206 0.576858 0.586713
Si Si7 0.902249 0.428530 0.886492
Si Si8 0.364395 0.573905 0.417636
O O1 0.904340 0.250000 0.091496
O O2 0.847206 0.022400 0.140270
O O3 0.949429 0.012242 0.157835
O O4 0.905479 0.006912 0.991444
O O5 0.750000 0.551435 0.439726
O O6 0.674278 0.750000 0.424023
O O7 0.678347 0.523277 0.310930
O O8 0.656004 0.478394 0.482998
O O9 0.490230 0.250000 0.183901
O O10 0.506666 0.445475 0.319437
O O11 0.450402 0.515283 0.172726
O O12 0.750000 0.049511 0.186937
O O13 0.817714 0.250000 0.247865
O O14 0.250000 0.995470 0.213287
O O15 0.195152 0.750000 0.224497
O O16 0.151007 0.989863 0.159490
O O17 0.176489 0.972082 0.338118
O O18 0.500000 0.500000 0.500000
O O19 0.534220 0.750000 0.562173
O O20 0.582436 0.505743 0.607060
O O21 0.903112 0.250000 0.884819
O O22 0.374454 0.750000 0.420594
#
# Coordination Sequence:
#
# PCOD8242128 Si02
#       8
#     8   8   8   8   8   8   8   8
#     4   9  19  34  56  84 111 144 186 232 282 336
#     4  10  21  36  54  80 113 147 186 232 279 333
#     4  10  21  38  57  79 113 150 183 226 281 338
#     4   9  18  34  56  82 112 147 187 232 284 340
#     4   9  18  32  53  83 114 145 184 231 284 337
#     4  11  24  39  57  83 115 151 189 233 288 343
#     4  10  19  35  58  83 111 144 187 237 282 328
#     4  11  21  36  58  81 112 149 188 235 284 342
#
# _framework density 19.352377000000001
#
# number of rings (size 3 to 8) (size 9 to 14) (size 15 to 20)
#    0.000    2.125    1.250    1.875    1.750    2.250 
#    0.000    3.750    0.000    1.125    0.000    0.000 
#    0.000    0.000    0.000    0.000    0.000    0.000 
#
# Total GULP energy -793657.703217 kJ/mol
# GULP energy per Si atom -12400.901613 kJ/mol
# Density = 1.930833 g / cm^3
# Si number density = 19.352377 Si / 1000 Ang^3
#
#
#
# Elastic Constant Matrix: (Units=GPa)
#
#
# Indices 1 2 3 4 5 6 
#
# 1 134.3289 28.8006 65.5985 0.0000 0.0000 0.0000
# 2 28.8006 56.9645 36.1089 0.0000 0.0000 0.0000
# 3 65.5985 36.1089 126.8102 0.0000 0.0000 0.0000
# 4 0.0000 0.0000 0.0000 19.7353 0.0000 0.0000
# 5 0.0000 0.0000 0.0000 0.0000 36.5886 0.0000
# 6 0.0000 0.0000 0.0000 0.0000 0.0000 26.5528
#
#
#
# Elastic Compliance Matrix: (Units=1/GPa)
#
#
# Indices 1 2 3 4 5 6 
#
# 1 0.010183 -0.002208 -0.004639 0.000000 0.000000 0.000000
# 2 -0.002208 0.021900 -0.005094 0.000000 0.000000 0.000000
# 3 -0.004639 -0.005094 0.011736 0.000000 0.000000 0.000000
# 4 0.000000 0.000000 0.000000 0.050671 0.000000 0.000000
# 5 0.000000 0.000000 0.000000 0.000000 0.027331 0.000000
# 6 0.000000 0.000000 0.000000 0.000000 0.000000 0.037661
#
#
# Mechanical properties :
#
#
# Convention : Reuss Voigt Hill
#
# Bulk Modulus (GPa) = 50.15631 64.34662 57.25147
# Shear Modulus (GPa) = 26.31454 29.08171 27.69812
#
# Velocity S-wave (km/s) = 3.69149 3.88073 3.78729
# Velocity P-wave (km/s) = 6.64403 7.30769 6.98375
#
# Compressibility (1/GPa) = 0.01993767
#
# Stress axis : x y z
#
# Youngs Moduli (GPa) = 98.20051 45.66212 85.20769
#
# Poissons Ratio (x) = 0.10082 0.39528
# Poissons Ratio (y) = 0.21682 0.43403
# Poissons Ratio (z) = 0.45556 0.23260
#
# Static dielectric constant tensor:
#      x y z
#    x 3.700010 0.000000 0.000000 
#    y 0.000000 3.312130 0.000000 
#    z 0.000000 0.000000 3.711880 
# 
# 
# High freq. dielectric constant tensor:
#      x y z
#    x 1.761970 0.000000 0.000000 
#    y 0.000000 1.726010 0.000000 
#    z 0.000000 0.000000 1.761700 
# 
# From -- ./inp_files/24693.got.cif
#   From: 2010.03.12/outbox.cif.g09.slc.cpg/sg59_13_cif.got.tgz:24693.got - 2010.04.16 16:29:54.
