data_PCOD8242825
_publ_section_title
;
Structure prediction by ZEFSAII (Michael W. Deem and Ramdas Pophale) SiO2 
 PCOD8242825
Probable space group: P M M N
;
_chemical_formula_sum "Si O2"
_cell_formula_units_Z 64
_cell_length_a 29.252966
_cell_length_b 8.799186
_cell_length_c 14.931594
_cell_angle_alpha 90.000000
_cell_angle_beta 90.000000
_cell_angle_gamma 90.000000
_cell_volume 3843.426472
_symmetry_space_group_name_H-M "P M M N"
_symmetry_group_IT_number 59
_space_group.IT_coordinate_system_code '2'
_symmetry_cell_setting 'orthorhombic'
loop_
_space_group_symop_operation_xyz
x,y,z
1/2-x,1/2-y,z
1/2+x,-y,-z
-x,1/2+y,-z
-x,-y,-z
1/2+x,1/2+y,-z
1/2-x,y,z
x,1/2-y,z
loop_
_atom_site_type_symbol
_atom_site_label
_atom_site_fract_x
_atom_site_fract_y
_atom_site_fract_z
Si Si1 0.966291 0.572766 0.873144
Si Si2 0.801244 0.427905 0.489373
Si Si3 0.198104 0.922740 0.717256
Si Si4 0.616730 0.572265 0.198075
Si Si5 0.935856 0.072896 0.046477
Si Si6 0.057975 0.069716 0.634824
Si Si7 0.607890 0.929777 0.542851
Si Si8 0.042304 0.570218 0.316906
O O1 0.958846 0.750000 0.855076
O O2 0.953450 0.479246 0.785485
O O3 0.018078 0.533463 0.899764
O O4 0.933520 0.518107 0.953339
O O5 0.750000 0.472282 0.522370
O O6 0.809429 0.250000 0.503536
O O7 0.806335 0.472326 0.385714
O O8 0.839155 0.519923 0.544736
O O9 0.250000 0.937687 0.749865
O O10 0.180760 0.750000 0.729532
O O11 0.168985 0.037479 0.777454
O O12 0.609235 0.750000 0.182179
O O13 0.605874 0.482966 0.107186
O O14 0.584972 0.508655 0.278468
O O15 0.931745 0.250000 0.025075
O O16 0.060273 0.250000 0.634046
O O17 0.081913 0.004848 0.545257
O O18 0.005687 0.012285 0.640596
O O19 0.605220 0.750000 0.545961
O O20 0.583917 0.996282 0.630104
O O21 0.045958 0.750000 0.322890
#
# Coordination Sequence:
#
# PCOD8242825 Si02
#       8
#     8   8   8   8   8   8   8   8
#     4  10  20  34  51  73  98 128 166 210 251 292
#     4   9  18  33  51  71  96 128 167 209 254 302
#     4   9  18  32  49  71 100 132 167 208 253 303
#     4  11  19  31  50  74 102 133 171 210 249 298
#     4  10  20  33  51  74  99 130 165 203 250 300
#     4   9  19  32  46  68 100 136 172 208 244 290
#     4  11  21  34  49  72 101 133 173 212 253 300
#     4  11  21  35  51  69  99 138 175 212 253 296
#
# _framework density 16.651809
#
# number of rings (size 3 to 8) (size 9 to 14) (size 15 to 20)
#    0.000    2.000    2.500    3.000    0.000    1.500 
#    0.000    3.125    0.000    0.000    0.000    0.875 
#    0.000    7.000    0.000    0.000    0.000    0.000 
#
# Total GULP energy -793766.092737 kJ/mol
# GULP energy per Si atom -12402.595199 kJ/mol
# Density = 1.661391 g / cm^3
# Si number density = 16.651809 Si / 1000 Ang^3
#
#
#
# Elastic Constant Matrix: (Units=GPa)
#
#
# Indices 1 2 3 4 5 6 
#
# 1 100.9416 34.2800 48.1321 0.0000 0.0000 0.0000
# 2 34.2800 52.0788 25.4708 0.0000 0.0000 0.0000
# 3 48.1321 25.4708 79.5869 0.0000 0.0000 0.0000
# 4 0.0000 0.0000 0.0000 26.8608 0.0000 0.0000
# 5 0.0000 0.0000 0.0000 0.0000 21.4665 0.0000
# 6 0.0000 0.0000 0.0000 0.0000 0.0000 27.0468
#
#
#
# Elastic Compliance Matrix: (Units=1/GPa)
#
#
# Indices 1 2 3 4 5 6 
#
# 1 0.015693 -0.006744 -0.007333 0.000000 0.000000 0.000000
# 2 -0.006744 0.025663 -0.004135 0.000000 0.000000 0.000000
# 3 -0.007333 -0.004135 0.018323 0.000000 0.000000 0.000000
# 4 0.000000 0.000000 0.000000 0.037229 0.000000 0.000000
# 5 0.000000 0.000000 0.000000 0.000000 0.046584 0.000000
# 6 0.000000 0.000000 0.000000 0.000000 0.000000 0.036973
#
#
# Mechanical properties :
#
#
# Convention : Reuss Voigt Hill
#
# Bulk Modulus (GPa) = 42.99809 49.81924 46.40866
# Shear Modulus (GPa) = 22.25791 23.38977 22.82384
#
# Velocity S-wave (km/s) = 3.66001 3.75192 3.70625
# Velocity P-wave (km/s) = 6.61353 6.98229 6.80041
#
# Compressibility (1/GPa) = 0.02325685
#
# Stress axis : x y z
#
# Youngs Moduli (GPa) = 63.72145 38.96701 54.57691
#
# Poissons Ratio (x) = 0.26278 0.40020
# Poissons Ratio (y) = 0.42971 0.22566
# Poissons Ratio (z) = 0.46725 0.16112
#
# Static dielectric constant tensor:
#      x y z
#    x 3.067710 0.000000 0.000000 
#    y 0.000000 3.024270 0.000000 
#    z 0.000000 0.000000 3.009660 
# 
# 
# High freq. dielectric constant tensor:
#      x y z
#    x 1.627130 0.000000 0.000000 
#    y 0.000000 1.642480 0.000000 
#    z 0.000000 0.000000 1.623640 
# 
# From -- ./inp_files/25052.got.cif
#   From: 2010.03.12/outbox.cif.g09.slc.cpg/sg59_13_cif.got.tgz:25052.got - 2010.04.16 16:29:54.
