data_PCOD8242167
_publ_section_title
;
Structure prediction by ZEFSAII (Michael W. Deem and Ramdas Pophale) SiO2 
 PCOD8242167
Probable space group: P M M N
;
_chemical_formula_sum "Si O2"
_cell_formula_units_Z 48
_cell_length_a 15.030085
_cell_length_b 8.848635
_cell_length_c 19.065913
_cell_angle_alpha 90.000000
_cell_angle_beta 90.000000
_cell_angle_gamma 90.000000
_cell_volume 2535.685135
_symmetry_space_group_name_H-M "P M M N"
_symmetry_group_IT_number 59
_space_group.IT_coordinate_system_code '2'
_symmetry_cell_setting 'orthorhombic'
loop_
_space_group_symop_operation_xyz
x,y,z
1/2-x,1/2-y,z
1/2+x,-y,-z
-x,1/2+y,-z
-x,-y,-z
1/2+x,1/2+y,-z
1/2-x,y,z
x,1/2-y,z
loop_
_atom_site_type_symbol
_atom_site_label
_atom_site_fract_x
_atom_site_fract_y
_atom_site_fract_z
Si Si1 0.500635 0.427988 0.075838
Si Si2 0.401981 0.428974 0.677803
Si Si3 0.647821 0.424503 0.832328
Si Si4 0.147391 0.074686 0.831379
Si Si5 0.250000 0.071186 0.418877
Si Si6 0.750000 0.569739 0.422899
Si Si7 0.396847 0.927917 0.325057
O O1 0.501296 0.250000 0.067824
O O2 0.412444 0.475682 0.117379
O O3 0.589687 0.479462 0.114704
O O4 0.500000 0.500000 0.000000
O O5 0.395151 0.250000 0.679778
O O6 0.370745 0.489558 0.753489
O O7 0.337356 0.493070 0.617332
O O8 0.502183 0.480953 0.661907
O O9 0.750000 0.449963 0.853757
O O10 0.619523 0.250000 0.840405
O O11 0.633370 0.476755 0.752435
O O12 0.250000 0.052171 0.851289
O O13 0.119176 0.250000 0.836292
O O14 0.250000 0.250000 0.417928
O O15 0.250000 0.007472 0.498166
O O16 0.338407 0.013369 0.381729
O O17 0.750000 0.750000 0.422490
O O18 0.383635 0.750000 0.335347
#
# Coordination Sequence:
#
# PCOD8242167 Si02
#       7
#     8   8   8   8   4   4   8
#     4  12  26  42  61  87 124 159 191 237 291 350
#     4   9  16  31  59  87 111 146 194 239 283 344
#     4  10  20  38  64  90 115 148 196 248 294 346
#     4  10  19  36  65  93 115 148 198 246 289 347
#     4  11  23  35  51  81 124 157 192 243 291 340
#     4   9  18  33  53  85 120 153 190 239 293 338
#     4  10  19  35  60  85 111 150 198 240 287 349
#
# _framework density 18.929794999999999
#
# number of rings (size 3 to 8) (size 9 to 14) (size 15 to 20)
#    0.000    1.833    3.333    1.750    0.000    2.667 
#    0.000    0.000    0.000    3.000    0.000    0.000 
#    0.000    0.000    0.000    0.000    0.000    0.000 
#
# Total GULP energy -595315.557436 kJ/mol
# GULP energy per Si atom -12402.407447 kJ/mol
# Density = 1.888671 g / cm^3
# Si number density = 18.929795 Si / 1000 Ang^3
#
#
#
# Elastic Constant Matrix: (Units=GPa)
#
#
# Indices 1 2 3 4 5 6 
#
# 1 151.5299 48.5804 81.6143 0.0000 0.0000 0.0000
# 2 48.5804 76.0187 61.3795 0.0000 0.0000 0.0000
# 3 81.6143 61.3795 168.0496 0.0000 0.0000 0.0000
# 4 0.0000 0.0000 0.0000 24.5001 0.0000 0.0000
# 5 0.0000 0.0000 0.0000 0.0000 25.7113 0.0000
# 6 0.0000 0.0000 0.0000 0.0000 0.0000 26.6656
#
#
#
# Elastic Compliance Matrix: (Units=1/GPa)
#
#
# Indices 1 2 3 4 5 6 
#
# 1 0.009495 -0.003325 -0.003397 0.000000 0.000000 0.000000
# 2 -0.003325 0.019821 -0.005625 0.000000 0.000000 0.000000
# 3 -0.003397 -0.005625 0.009655 0.000000 0.000000 0.000000
# 4 0.000000 0.000000 0.000000 0.040816 0.000000 0.000000
# 5 0.000000 0.000000 0.000000 0.000000 0.038893 0.000000
# 6 0.000000 0.000000 0.000000 0.000000 0.000000 0.037502
#
#
# Mechanical properties :
#
#
# Convention : Reuss Voigt Hill
#
# Bulk Modulus (GPa) = 70.04038 86.52741 78.28390
# Shear Modulus (GPa) = 26.93466 28.97698 27.95582
#
# Velocity S-wave (km/s) = 3.77619 3.91674 3.84711
# Velocity P-wave (km/s) = 7.48954 8.14023 7.82165
#
# Compressibility (1/GPa) = 0.01427748
#
# Stress axis : x y z
#
# Youngs Moduli (GPa) = 105.31972 50.45110 103.57661
#
# Poissons Ratio (x) = 0.16776 0.35182
# Poissons Ratio (y) = 0.35021 0.58259
# Poissons Ratio (z) = 0.35774 0.28377
#
# Static dielectric constant tensor:
#      x y z
#    x 3.621630 0.000000 0.000000 
#    y 0.000000 3.158450 0.000000 
#    z 0.000000 0.000000 3.634540 
# 
# 
# High freq. dielectric constant tensor:
#      x y z
#    x 1.755090 0.000000 0.000000 
#    y 0.000000 1.702050 0.000000 
#    z 0.000000 0.000000 1.739020 
# 
# From -- ./inp_files/27466.got.cif
#   From: 2010.03.12/outbox.cif.g09.slc.cpg/sg59_14_cif.got.tgz:27466.got - 2010.04.16 16:29:54.
