data_PCOD8242750
_publ_section_title
;
Structure prediction by ZEFSAII (Michael W. Deem and Ramdas Pophale) SiO2 
 PCOD8242750
Probable space group: P M M N
;
_chemical_formula_sum "Si O2"
_cell_formula_units_Z 64
_cell_length_a 10.466246
_cell_length_b 14.740312
_cell_length_c 20.231221
_cell_angle_alpha 90.000000
_cell_angle_beta 90.000000
_cell_angle_gamma 90.000000
_cell_volume 3121.186419
_symmetry_space_group_name_H-M "P M M N"
_symmetry_group_IT_number 59
_space_group.IT_coordinate_system_code '2'
_symmetry_cell_setting 'orthorhombic'
loop_
_space_group_symop_operation_xyz
x,y,z
1/2-x,1/2-y,z
1/2+x,-y,-z
-x,1/2+y,-z
-x,-y,-z
1/2+x,1/2+y,-z
1/2-x,y,z
x,1/2-y,z
loop_
_atom_site_type_symbol
_atom_site_label
_atom_site_fract_x
_atom_site_fract_y
_atom_site_fract_z
Si Si1 0.891993 0.544862 0.362986
Si Si2 0.022423 0.851386 0.627233
Si Si3 0.895668 0.646872 0.486756
Si Si4 0.389212 0.853690 0.134847
Si Si5 0.394903 0.575937 0.993657
Si Si6 0.102171 0.142502 0.766276
Si Si7 0.109809 0.644499 0.850805
Si Si8 0.888539 0.854226 0.760405
O O1 0.750000 0.585144 0.365350
O O2 0.959167 0.582518 0.430078
O O3 0.953528 0.588943 0.297579
O O4 0.882742 0.435248 0.359945
O O5 0.086400 0.750000 0.633307
O O6 0.968508 0.866431 0.554826
O O7 0.912070 0.861065 0.681954
O O8 0.750000 0.619043 0.500650
O O9 0.907010 0.750000 0.461802
O O10 0.250000 0.898910 0.152720
O O11 0.381109 0.750000 0.155164
O O12 0.510486 0.894399 0.174647
O O13 0.413245 0.859475 0.056562
O O14 0.250000 0.536121 0.991582
O O15 0.424802 0.632016 0.927498
O O16 0.500000 0.500000 0.000000
O O17 0.250000 0.116888 0.782752
O O18 0.090141 0.250000 0.754435
O O19 0.250000 0.601590 0.834505
O O20 0.116687 0.750000 0.834471
O O21 0.001522 0.598571 0.803789
O O22 0.750000 0.899792 0.775184
O O23 0.881839 0.750000 0.782366
#
# Coordination Sequence:
#
# PCOD8242750 Si02
#       8
#     8   8   8   8   8   8   8   8
#     4  10  20  33  51  76 105 137 175 219 266 317
#     4  10  20  33  50  73 104 141 177 214 258 311
#     4   9  17  32  55  78  99 129 173 223 271 316
#     4   9  18  35  58  80 104 137 175 215 264 322
#     4  10  21  35  51  74 104 136 171 212 257 307
#     4   9  18  34  56  81 107 135 173 224 276 322
#     4   9  18  34  55  75  96 128 170 212 254 302
#     4   9  18  33  52  74 100 131 170 215 257 298
#
# _framework density 20.505025
#
# number of rings (size 3 to 8) (size 9 to 14) (size 15 to 20)
#    0.000    2.625    0.000    1.500    0.000    7.250 
#    0.000    6.250    0.000    4.500    0.000    1.750 
#    0.000    0.000    0.000    0.000    0.000    0.000 
#
# Total GULP energy -792884.043450 kJ/mol
# GULP energy per Si atom -12388.813179 kJ/mol
# Density = 2.045835 g / cm^3
# Si number density = 20.505025 Si / 1000 Ang^3
#
#
#
# Elastic Constant Matrix: (Units=GPa)
#
#
# Indices 1 2 3 4 5 6 
#
# 1 109.9959 20.4509 66.6769 0.0000 0.0000 0.0000
# 2 20.4509 59.4437 24.5263 0.0000 0.0000 0.0000
# 3 66.6769 24.5263 147.3007 0.0000 0.0000 0.0000
# 4 0.0000 0.0000 0.0000 18.7915 0.0000 0.0000
# 5 0.0000 0.0000 0.0000 0.0000 23.9395 0.0000
# 6 0.0000 0.0000 0.0000 0.0000 0.0000 18.9080
#
#
#
# Elastic Compliance Matrix: (Units=1/GPa)
#
#
# Indices 1 2 3 4 5 6 
#
# 1 0.012782 -0.002159 -0.005426 0.000000 0.000000 0.000000
# 2 -0.002159 0.018428 -0.002091 0.000000 0.000000 0.000000
# 3 -0.005426 -0.002091 0.009593 0.000000 0.000000 0.000000
# 4 0.000000 0.000000 0.000000 0.053216 0.000000 0.000000
# 5 0.000000 0.000000 0.000000 0.000000 0.041772 0.000000
# 6 0.000000 0.000000 0.000000 0.000000 0.000000 0.052888
#
#
# Mechanical properties :
#
#
# Convention : Reuss Voigt Hill
#
# Bulk Modulus (GPa) = 46.61813 60.00538 53.31176
# Shear Modulus (GPa) = 23.23617 26.00020 24.61819
#
# Velocity S-wave (km/s) = 3.36995 3.56475 3.46872
# Velocity P-wave (km/s) = 6.15844 6.80224 6.48833
#
# Compressibility (1/GPa) = 0.02145088
#
# Stress axis : x y z
#
# Youngs Moduli (GPa) = 78.23524 54.26491 104.23867
#
# Poissons Ratio (x) = 0.11713 0.56565
# Poissons Ratio (y) = 0.16887 0.21799
# Poissons Ratio (z) = 0.42454 0.11348
#
# Static dielectric constant tensor:
#      x y z
#    x 3.643340 0.000000 0.000000 
#    y 0.000000 3.510060 0.000000 
#    z 0.000000 0.000000 4.012880 
# 
# 
# High freq. dielectric constant tensor:
#      x y z
#    x 1.783840 0.000000 0.000000 
#    y 0.000000 1.785000 0.000000 
#    z 0.000000 0.000000 1.811780 
# 
# From -- ./inp_files/27092.got.cif
#   From: 2010.03.12/outbox.cif.g09.slc.cpg/sg59_14_cif.got.tgz:27092.got - 2010.04.16 16:29:54.
