data_PCOD8242084
_publ_section_title
;
Structure prediction by ZEFSAII (Michael W. Deem and Ramdas Pophale) SiO2 
 PCOD8242084
Probable space group: P M M N
;
_chemical_formula_sum "Si O2"
_cell_formula_units_Z 48
_cell_length_a 16.792777
_cell_length_b 8.470246
_cell_length_c 16.408636
_cell_angle_alpha 90.000000
_cell_angle_beta 90.000000
_cell_angle_gamma 90.000000
_cell_volume 2333.947192
_symmetry_space_group_name_H-M "P M M N"
_symmetry_group_IT_number 59
_space_group.IT_coordinate_system_code '2'
_symmetry_cell_setting 'orthorhombic'
loop_
_space_group_symop_operation_xyz
x,y,z
1/2-x,1/2-y,z
1/2+x,-y,-z
-x,1/2+y,-z
-x,-y,-z
1/2+x,1/2+y,-z
1/2-x,y,z
x,1/2-y,z
loop_
_atom_site_type_symbol
_atom_site_label
_atom_site_fract_x
_atom_site_fract_y
_atom_site_fract_z
Si Si1 0.554609 0.932891 0.219185
Si Si2 0.250000 0.066102 0.016989
Si Si3 0.158019 0.573112 0.647832
Si Si4 0.250000 0.937798 0.194781
Si Si5 0.413877 0.563498 0.482143
Si Si6 0.605250 0.062769 0.696801
Si Si7 0.920434 0.066211 0.044375
O O1 0.548233 0.750000 0.193641
O O2 0.475324 0.998325 0.261938
O O3 0.623418 0.954409 0.285545
O O4 0.571628 0.036202 0.140054
O O5 0.250000 0.250000 0.997710
O O6 0.333699 0.999522 0.982128
O O7 0.250000 0.033001 0.112072
O O8 0.250000 0.578188 0.664878
O O9 0.121571 0.750000 0.657427
O O10 0.142902 0.508900 0.556089
O O11 0.250000 0.750000 0.178159
O O12 0.175348 0.997461 0.246303
O O13 0.500000 0.500000 0.500000
O O14 0.416257 0.750000 0.475418
O O15 0.384463 0.494272 0.395008
O O16 0.605198 0.250000 0.692732
O O17 0.918703 0.250000 0.024813
O O18 0.000000 0.000000 0.000000
#
# Coordination Sequence:
#
# PCOD8242084 Si02
#       7
#     8   4   8   4   8   8   8
#     4  11  22  39  62  90 124 164 209 257 315 379
#     4  12  26  46  70  99 132 171 216 267 326 391
#     4  10  22  37  56  84 120 160 208 259 309 364
#     4  10  20  38  64  91 122 161 204 259 318 375
#     4  10  19  35  56  82 114 157 204 254 308 367
#     4   9  19  34  58  89 121 158 205 254 309 372
#     4  12  26  46  71 100 133 170 214 268 328 393
#
# _framework density 20.566019000000001
#
# number of rings (size 3 to 8) (size 9 to 14) (size 15 to 20)
#    0.000    1.500    1.667    3.750    2.333    1.667 
#    0.000    1.667    0.000    0.000    0.000    0.000 
#    0.000    0.000    0.000    0.000    0.000    0.000 
#
# Total GULP energy -595013.372004 kJ/mol
# GULP energy per Si atom -12396.111917 kJ/mol
# Density = 2.051921 g / cm^3
# Si number density = 20.566019 Si / 1000 Ang^3
#
#
#
# Elastic Constant Matrix: (Units=GPa)
#
#
# Indices 1 2 3 4 5 6 
#
# 1 139.7956 37.2951 68.8732 0.0000 0.0000 0.0000
# 2 37.2951 73.5185 30.0143 0.0000 0.0000 0.0000
# 3 68.8732 30.0143 169.3896 0.0000 0.0000 0.0000
# 4 0.0000 0.0000 0.0000 28.2466 0.0000 0.0000
# 5 0.0000 0.0000 0.0000 0.0000 11.2866 0.0000
# 6 0.0000 0.0000 0.0000 0.0000 0.0000 29.5040
#
#
#
# Elastic Compliance Matrix: (Units=1/GPa)
#
#
# Indices 1 2 3 4 5 6 
#
# 1 0.009750 -0.003587 -0.003329 0.000000 0.000000 0.000000
# 2 -0.003587 0.015982 -0.001373 0.000000 0.000000 0.000000
# 3 -0.003329 -0.001373 0.007500 0.000000 0.000000 0.000000
# 4 0.000000 0.000000 0.000000 0.035402 0.000000 0.000000
# 5 0.000000 0.000000 0.000000 0.000000 0.088600 0.000000
# 6 0.000000 0.000000 0.000000 0.000000 0.000000 0.033894
#
#
# Mechanical properties :
#
#
# Convention : Reuss Voigt Hill
#
# Bulk Modulus (GPa) = 60.04455 72.78544 66.41500
# Shear Modulus (GPa) = 23.44556 30.24220 26.84388
#
# Velocity S-wave (km/s) = 3.38007 3.83886 3.61675
# Velocity P-wave (km/s) = 6.67028 7.42409 7.05725
#
# Compressibility (1/GPa) = 0.01665430
#
# Stress axis : x y z
#
# Youngs Moduli (GPa) = 102.56067 62.56854 133.32643
#
# Poissons Ratio (x) = 0.22445 0.44382
# Poissons Ratio (y) = 0.36791 0.18311
# Poissons Ratio (z) = 0.34141 0.08593
#
# Static dielectric constant tensor:
#      x y z
#    x 4.020640 0.000000 0.000000 
#    y 0.000000 3.567550 0.000000 
#    z 0.000000 0.000000 4.249490 
# 
# 
# High freq. dielectric constant tensor:
#      x y z
#    x 1.814420 0.000000 0.000000 
#    y 0.000000 1.782220 0.000000 
#    z 0.000000 0.000000 1.825610 
# 
# From -- ./inp_files/23728.got.cif
#   From: 2010.03.12/outbox.cif.g09.slc.cpg/sg59_12_cif.got.tgz:23728.got - 2010.04.16 16:29:54.
