data_PCOD8242142
_publ_section_title
;
Structure prediction by ZEFSAII (Michael W. Deem and Ramdas Pophale) SiO2 
 PCOD8242142
Probable space group: P M M N
;
_chemical_formula_sum "Si O2"
_cell_formula_units_Z 48
_cell_length_a 9.791651
_cell_length_b 8.759900
_cell_length_c 29.027093
_cell_angle_alpha 90.000000
_cell_angle_beta 90.000000
_cell_angle_gamma 90.000000
_cell_volume 2489.766496
_symmetry_space_group_name_H-M "P M M N"
_symmetry_group_IT_number 59
_space_group.IT_coordinate_system_code '2'
_symmetry_cell_setting 'orthorhombic'
loop_
_space_group_symop_operation_xyz
x,y,z
1/2-x,1/2-y,z
1/2+x,-y,-z
-x,1/2+y,-z
-x,-y,-z
1/2+x,1/2+y,-z
1/2-x,y,z
x,1/2-y,z
loop_
_atom_site_type_symbol
_atom_site_label
_atom_site_fract_x
_atom_site_fract_y
_atom_site_fract_z
Si Si1 0.015830 0.068697 0.104369
Si Si2 0.598782 0.568779 0.794768
Si Si3 0.592718 0.926958 0.538804
Si Si4 0.250000 0.429953 0.934111
Si Si5 0.905448 0.430001 0.636792
Si Si6 0.906374 0.431516 0.285967
Si Si7 0.750000 0.931080 0.962741
O O1 0.997667 0.250000 0.103679
O O2 0.067562 0.010695 0.153875
O O3 0.117914 0.011021 0.064712
O O4 0.875573 0.986886 0.095161
O O5 0.750000 0.509877 0.780322
O O6 0.596738 0.750000 0.794319
O O7 0.485312 0.505575 0.759305
O O8 0.750000 0.948712 0.524393
O O9 0.555790 0.750000 0.545238
O O10 0.500000 0.000000 0.500000
O O11 0.560203 0.014108 0.585817
O O12 0.250000 0.250000 0.937765
O O13 0.250000 0.500809 0.985827
O O14 0.750000 0.477545 0.650335
O O15 0.924145 0.250000 0.639200
O O16 0.014804 0.507926 0.669765
O O17 0.750000 0.491712 0.285211
O O18 0.908548 0.250000 0.287195
O O19 0.750000 0.750000 0.963983
#
# Coordination Sequence:
#
# PCOD8242142 Si02
#       7
#     8   8   8   4   8   8   4
#     4  10  19  35  59  82 103 138 185 228 270 324
#     4   9  17  32  57  84 106 133 178 232 278 323
#     4  10  21  37  59  87 118 154 195 239 286 333
#     4  11  23  35  49  77 117 149 173 217 276 329
#     4  10  21  38  59  82 111 151 196 235 274 328
#     4  10  21  35  55  85 115 140 173 225 285 338
#     4   9  18  35  57  81 107 137 183 231 270 321
#
# _framework density 19.278915999999999
#
# number of rings (size 3 to 8) (size 9 to 14) (size 15 to 20)
#    0.000    2.167    0.833    2.250    1.167    3.667 
#    0.000    2.083    0.000    1.000    0.000    0.000 
#    0.000    0.000    0.000    0.000    0.000    0.000 
#
# Total GULP energy -595209.857709 kJ/mol
# GULP energy per Si atom -12400.205369 kJ/mol
# Density = 1.923504 g / cm^3
# Si number density = 19.278916 Si / 1000 Ang^3
#
#
#
# Elastic Constant Matrix: (Units=GPa)
#
#
# Indices 1 2 3 4 5 6 
#
# 1 164.1306 24.3699 76.1210 0.0000 0.0000 0.0000
# 2 24.3699 18.3607 8.7620 0.0000 0.0000 0.0000
# 3 76.1210 8.7620 113.1841 0.0000 0.0000 0.0000
# 4 0.0000 0.0000 0.0000 22.7790 0.0000 0.0000
# 5 0.0000 0.0000 0.0000 0.0000 44.9607 0.0000
# 6 0.0000 0.0000 0.0000 0.0000 0.0000 -5.5554
#
#
#
# Elastic Compliance Matrix: (Units=1/GPa)
#
#
# Indices 1 2 3 4 5 6 
#
# 1 0.010680 -0.011160 -0.006319 0.000000 0.000000 0.000000
# 2 -0.011160 0.068215 0.002225 0.000000 0.000000 0.000000
# 3 -0.006319 0.002225 0.012913 0.000000 0.000000 0.000000
# 4 0.000000 0.000000 0.000000 0.043900 0.000000 0.000000
# 5 0.000000 0.000000 0.000000 0.000000 0.022242 0.000000
# 6 0.000000 0.000000 0.000000 0.000000 0.000000 -0.180006
#
#
# Mechanical properties :
#
#
# Convention : Reuss Voigt Hill
#
# Bulk Modulus (GPa) = 16.31329 57.13122 36.72225
# Shear Modulus (GPa) = 173.09318 24.86505 98.97912
#
# Velocity S-wave (km/s) = 9.48570 3.59521 7.17301
# Velocity P-wave (km/s) = 11.33365 6.85072 9.36440
#
# Compressibility (1/GPa) = 0.06129972
#
# Stress axis : x y z
#
# Youngs Moduli (GPa) = 93.62863 14.65944 77.44273
#
# Poissons Ratio (x) = 0.16361 0.48937
# Poissons Ratio (y) = 1.04494 -0.17232
# Poissons Ratio (z) = 0.59165 -0.03262
#
# Static dielectric constant tensor:
#      x y z
#    x 3.716920 0.000000 0.000000 
#    y 0.000000 3.259120 0.000000 
#    z 0.000000 0.000000 3.697560 
# 
# 
# High freq. dielectric constant tensor:
#      x y z
#    x 1.761660 0.000000 0.000000 
#    y 0.000000 1.721970 0.000000 
#    z 0.000000 0.000000 1.762070 
# 
# From -- ./inp_files/33087.got.cif
#   From: 2010.03.12/outbox.cif.g09.slc.cpg/sg59_17_cif.got.tgz:33087.got - 2010.04.16 16:29:54.
