data_PCOD8242977
_publ_section_title
;
Structure prediction by ZEFSAII (Michael W. Deem and Ramdas Pophale) SiO2 
 PCOD8242977
Probable space group: P M M N
;
_chemical_formula_sum "Si O2"
_cell_formula_units_Z 64
_cell_length_a 9.466313
_cell_length_b 14.948085
_cell_length_c 24.188751
_cell_angle_alpha 90.000000
_cell_angle_beta 90.000000
_cell_angle_gamma 90.000000
_cell_volume 3422.786913
_symmetry_space_group_name_H-M "P M M N"
_symmetry_group_IT_number 59
_space_group.IT_coordinate_system_code '2'
_symmetry_cell_setting 'orthorhombic'
loop_
_space_group_symop_operation_xyz
x,y,z
1/2-x,1/2-y,z
1/2+x,-y,-z
-x,1/2+y,-z
-x,-y,-z
1/2+x,1/2+y,-z
1/2-x,y,z
x,1/2-y,z
loop_
_atom_site_type_symbol
_atom_site_label
_atom_site_fract_x
_atom_site_fract_y
_atom_site_fract_z
Si Si1 0.093097 0.856262 0.454791
Si Si2 0.917759 0.651400 0.056968
Si Si3 0.087282 0.852109 0.659156
Si Si4 0.413791 0.490676 0.739920
Si Si5 0.910969 0.854508 0.932913
Si Si6 0.582908 0.007582 0.133654
Si Si7 0.084177 0.852809 0.331235
Si Si8 0.591589 0.856302 0.554557
O O1 0.250000 0.894487 0.466723
O O2 0.099302 0.750000 0.458504
O O3 0.042851 0.884076 0.393387
O O4 0.984752 0.895730 0.499993
O O5 0.750000 0.655592 0.058207
O O6 0.977640 0.750000 0.072747
O O7 0.974943 0.578874 0.100430
O O8 0.965833 0.624973 0.995058
O O9 0.250000 0.859028 0.640491
O O10 0.048759 0.750000 0.675211
O O11 0.054617 0.913623 0.711874
O O12 0.992553 0.887719 0.608671
O O13 0.250000 0.465298 0.735030
O O14 0.462505 0.496988 0.803051
O O15 0.500630 0.411814 0.712161
O O16 0.750000 0.887597 0.925703
O O17 0.922164 0.750000 0.920147
O O18 0.010456 0.904124 0.889727
O O19 0.750000 0.018761 0.127152
O O20 0.250000 0.865512 0.321772
O O21 0.040289 0.750000 0.321913
O O22 0.750000 0.895361 0.557266
O O23 0.593723 0.750000 0.551556
#
# Coordination Sequence:
#
# PCOD8242977 Si02
#       8
#     8   8   8   8   8   8   8   8
#     4   8  14  27  48  72  97 127 162 198 245 308
#     4   8  15  30  52  77 106 138 170 206 252 307
#     4   9  18  34  52  67  93 135 173 207 253 307
#     4  10  22  36  51  76 104 133 175 218 254 297
#     4   9  18  33  53  77 105 138 173 207 250 306
#     4  10  20  33  52  78 105 135 172 215 259 299
#     4   9  19  36  56  76 101 136 173 208 251 303
#     4   9  16  26  45  75 102 122 155 206 259 308
#
# _framework density 18.698212000000002
#
# number of rings (size 3 to 8) (size 9 to 14) (size 15 to 20)
#    0.000    3.000    0.000    2.250    0.000    4.500 
#    0.000    4.375    0.000    2.625    0.000    0.000 
#    0.000    0.000    0.000    0.000    0.000    0.000 
#
# Total GULP energy -793495.845222 kJ/mol
# GULP energy per Si atom -12398.372582 kJ/mol
# Density = 1.865565 g / cm^3
# Si number density = 18.698212 Si / 1000 Ang^3
#
#
#
# Elastic Constant Matrix: (Units=GPa)
#
#
# Indices 1 2 3 4 5 6 
#
# 1 70.8007 40.8734 66.2880 0.0000 0.0000 0.0000
# 2 40.8734 77.9994 61.7819 0.0000 0.0000 0.0000
# 3 66.2880 61.7819 152.4818 0.0000 0.0000 0.0000
# 4 0.0000 0.0000 0.0000 -821.6807 0.0000 0.0000
# 5 0.0000 0.0000 0.0000 0.0000 12.2407 0.0000
# 6 0.0000 0.0000 0.0000 0.0000 0.0000 23.3492
#
#
#
# Elastic Compliance Matrix: (Units=1/GPa)
#
#
# Indices 1 2 3 4 5 6 
#
# 1 0.026127 -0.006913 -0.008557 0.000000 0.000000 0.000000
# 2 -0.006913 0.020709 -0.005385 0.000000 0.000000 0.000000
# 3 -0.008557 -0.005385 0.012460 0.000000 0.000000 0.000000
# 4 0.000000 0.000000 0.000000 -0.001217 0.000000 0.000000
# 5 0.000000 0.000000 0.000000 0.000000 0.081694 0.000000
# 6 0.000000 0.000000 0.000000 0.000000 0.000000 0.042828
#
#
# Mechanical properties :
#
#
# Convention : Reuss Voigt Hill
#
# Bulk Modulus (GPa) = 56.86752 71.01871 63.94311
# Shear Modulus (GPa) = 21.72271 -148.39559 -63.33644
#
# Velocity S-wave (km/s) = 3.41215 -8.91829 -5.82637
# Velocity P-wave (km/s) = 6.78255 8.24523 3.31517
#
# Compressibility (1/GPa) = 0.01758473
#
# Stress axis : x y z
#
# Youngs Moduli (GPa) = 38.27503 48.28825 80.25593
#
# Poissons Ratio (x) = 0.33383 0.68675
# Poissons Ratio (y) = 0.26460 0.43221
# Poissons Ratio (z) = 0.32752 0.26005
#
# Static dielectric constant tensor:
#      x y z
#    x 3.356240 0.000000 0.000000 
#    y 0.000000 3.360710 0.000000 
#    z 0.000000 0.000000 3.492380 
# 
# 
# High freq. dielectric constant tensor:
#      x y z
#    x 1.707960 0.000000 0.000000 
#    y 0.000000 1.721770 0.000000 
#    z 0.000000 0.000000 1.724100 
# 
# From -- ./inp_files/31610.got.cif
#   From: 2010.03.12/outbox.cif.g09.slc.cpg/sg59_16_cif.got.tgz:31610.got - 2010.04.16 16:29:54.
