data_PCOD8242304
_publ_section_title
;
Structure prediction by ZEFSAII (Michael W. Deem and Ramdas Pophale) SiO2 
 PCOD8242304
Probable space group: P M M N
;
_chemical_formula_sum "Si O2"
_cell_formula_units_Z 64
_cell_length_a 17.580810
_cell_length_b 9.460383
_cell_length_c 23.145286
_cell_angle_alpha 90.000000
_cell_angle_beta 90.000000
_cell_angle_gamma 90.000000
_cell_volume 3849.551650
_symmetry_space_group_name_H-M "P M M N"
_symmetry_group_IT_number 59
_space_group.IT_coordinate_system_code '2'
_symmetry_cell_setting 'orthorhombic'
loop_
_space_group_symop_operation_xyz
x,y,z
1/2-x,1/2-y,z
1/2+x,-y,-z
-x,1/2+y,-z
-x,-y,-z
1/2+x,1/2+y,-z
1/2-x,y,z
x,1/2-y,z
loop_
_atom_site_type_symbol
_atom_site_label
_atom_site_fract_x
_atom_site_fract_y
_atom_site_fract_z
Si Si1 0.051411 0.410590 0.373017
Si Si2 0.939638 0.910421 0.967250
Si Si3 0.605609 0.086865 0.432408
Si Si4 0.162818 0.584771 0.442948
Si Si5 0.036876 0.586308 0.866084
Si Si6 0.663279 0.589321 0.330270
Si Si7 0.455457 0.585323 0.735272
Si Si8 0.335956 0.084202 0.934889
O O1 0.079607 0.250000 0.375867
O O2 0.122116 0.508171 0.389608
O O3 0.982711 0.436448 0.417866
O O4 0.024677 0.450227 0.308159
O O5 0.960535 0.750000 0.980457
O O6 0.955395 0.941385 0.899117
O O7 0.857637 0.943356 0.996685
O O8 0.000000 0.000000 0.000000
O O9 0.629536 0.250000 0.422270
O O10 0.621348 0.040361 0.497833
O O11 0.656423 0.988679 0.391607
O O12 0.250000 0.535735 0.445694
O O13 0.155875 0.750000 0.431724
O O14 0.061044 0.750000 0.870834
O O15 0.020604 0.544334 0.800041
O O16 0.106674 0.496652 0.892196
O O17 0.750000 0.588286 0.309977
O O18 0.633100 0.750000 0.336411
O O19 0.617250 0.507786 0.280883
O O20 0.433199 0.750000 0.728687
O O21 0.250000 0.028541 0.925868
O O22 0.341169 0.250000 0.920253
#
# Coordination Sequence:
#
# PCOD8242304 Si02
#       8
#     8   8   8   8   8   8   8   8
#     4   9  18  32  49  68  90 118 152 190 230 269
#     4   8  14  26  44  64  87 116 147 178 213 252
#     4   9  18  33  51  69  91 120 151 183 225 278
#     4  10  20  32  48  71  95 119 148 183 228 281
#     4   9  17  30  48  67  87 116 156 194 220 255
#     4  10  20  31  44  66  94 121 151 187 225 269
#     4   9  19  34  49  65  87 119 158 194 228 267
#     4   9  17  28  43  67  99 126 145 175 223 272
#
# _framework density 16.625312999999998
#
# number of rings (size 3 to 8) (size 9 to 14) (size 15 to 20)
#    0.000    2.875    0.000    1.875    0.000    5.500 
#    0.000    2.500    0.000    0.750    0.000    3.500 
#    0.000    0.000    0.000    0.000    0.000    0.000 
#
# Total GULP energy -793075.610010 kJ/mol
# GULP energy per Si atom -12391.806406 kJ/mol
# Density = 1.658747 g / cm^3
# Si number density = 16.625313 Si / 1000 Ang^3
#
#
#
# Elastic Constant Matrix: (Units=GPa)
#
#
# Indices 1 2 3 4 5 6 
#
# 1 70.4553 29.5863 58.7235 0.0000 0.0000 0.0000
# 2 29.5863 53.4369 43.0079 0.0000 0.0000 0.0000
# 3 58.7235 43.0079 130.2554 0.0000 0.0000 0.0000
# 4 0.0000 0.0000 0.0000 19.7700 0.0000 0.0000
# 5 0.0000 0.0000 0.0000 0.0000 16.3258 0.0000
# 6 0.0000 0.0000 0.0000 0.0000 0.0000 25.7894
#
#
#
# Elastic Compliance Matrix: (Units=1/GPa)
#
#
# Indices 1 2 3 4 5 6 
#
# 1 0.024195 -0.006288 -0.008832 0.000000 0.000000 0.000000
# 2 -0.006288 0.027121 -0.006120 0.000000 0.000000 0.000000
# 3 -0.008832 -0.006120 0.013680 0.000000 0.000000 0.000000
# 4 0.000000 0.000000 0.000000 0.050582 0.000000 0.000000
# 5 0.000000 0.000000 0.000000 0.000000 0.061253 0.000000
# 6 0.000000 0.000000 0.000000 0.000000 0.000000 0.038776
#
#
# Mechanical properties :
#
#
# Convention : Reuss Voigt Hill
#
# Bulk Modulus (GPa) = 44.41281 57.42033 50.91657
# Shear Modulus (GPa) = 18.82601 20.56569 19.69585
#
# Velocity S-wave (km/s) = 3.36872 3.52093 3.44567
# Velocity P-wave (km/s) = 6.47325 7.15137 6.82075
#
# Compressibility (1/GPa) = 0.02251602
#
# Stress axis : x y z
#
# Youngs Moduli (GPa) = 41.33077 36.87231 73.10159
#
# Poissons Ratio (x) = 0.23185 0.64562
# Poissons Ratio (y) = 0.25988 0.44738
# Poissons Ratio (z) = 0.36503 0.22566
#
# Static dielectric constant tensor:
#      x y z
#    x 3.092360 0.000000 0.000000 
#    y 0.000000 3.037550 0.000000 
#    z 0.000000 0.000000 3.353310 
# 
# 
# High freq. dielectric constant tensor:
#      x y z
#    x 1.618870 0.000000 0.000000 
#    y 0.000000 1.643400 0.000000 
#    z 0.000000 0.000000 1.634080 
# 
# From -- ./inp_files/32293.got.cif
#   From: 2010.03.12/outbox.cif.g09.slc.cpg/sg59_17_cif.got.tgz:32293.got - 2010.04.16 16:29:54.
