data_PCOD8242656
_publ_section_title
;
Structure prediction by ZEFSAII (Michael W. Deem and Ramdas Pophale) SiO2 
 PCOD8242656
Probable space group: P M M N
;
_chemical_formula_sum "Si O2"
_cell_formula_units_Z 56
_cell_length_a 9.122992
_cell_length_b 14.919419
_cell_length_c 20.835318
_cell_angle_alpha 90.000000
_cell_angle_beta 90.000000
_cell_angle_gamma 90.000000
_cell_volume 2835.889720
_symmetry_space_group_name_H-M "P M M N"
_symmetry_group_IT_number 59
_space_group.IT_coordinate_system_code '2'
_symmetry_cell_setting 'orthorhombic'
loop_
_space_group_symop_operation_xyz
x,y,z
1/2-x,1/2-y,z
1/2+x,-y,-z
-x,1/2+y,-z
-x,-y,-z
1/2+x,1/2+y,-z
1/2-x,y,z
x,1/2-y,z
loop_
_atom_site_type_symbol
_atom_site_label
_atom_site_fract_x
_atom_site_fract_y
_atom_site_fract_z
Si Si1 0.924265 0.476165 0.274516
Si Si2 0.079814 0.355883 0.520891
Si Si3 0.579011 0.509554 0.594474
Si Si4 0.083958 0.153043 0.793313
Si Si5 0.583498 0.402788 0.909231
Si Si6 0.410837 0.650783 0.957175
Si Si7 0.917091 0.907060 0.843295
O O1 0.750000 0.464200 0.279297
O O2 0.975589 0.576564 0.254348
O O3 0.997104 0.456136 0.342413
O O4 0.990290 0.406778 0.222596
O O5 0.250000 0.360445 0.540951
O O6 0.030590 0.250000 0.517129
O O7 0.053860 0.407523 0.453974
O O8 0.987378 0.413380 0.572498
O O9 0.750000 0.493721 0.607688
O O10 0.250000 0.128470 0.810217
O O11 0.070284 0.250000 0.758500
O O12 0.001795 0.161845 0.860966
O O13 0.750000 0.369381 0.912775
O O14 0.568526 0.500214 0.880048
O O15 0.519072 0.402980 0.982017
O O16 0.250000 0.610740 0.938137
O O17 0.391768 0.750000 0.984415
O O18 0.512810 0.659915 0.894536
O O19 0.750000 0.880561 0.827383
#
# Coordination Sequence:
#
# PCOD8242656 Si02
#       7
#     8   8   8   8   8   8   8
#     4  10  20  35  54  74 103 144 180 212 257 312
#     4   9  19  37  60  85 115 150 182 214 260 317
#     4  10  20  35  57  86 116 144 181 227 267 308
#     4   9  18  31  47  70  99 131 170 214 259 312
#     4   9  18  32  50  71  95 126 163 206 261 320
#     4  10  20  33  49  70  97 128 163 207 262 320
#     4  10  20  34  52  73  97 128 170 216 258 305
#
# _framework density 19.74689
#
# number of rings (size 3 to 8) (size 9 to 14) (size 15 to 20)
#    0.000    2.429    0.000    2.143    0.000    4.286 
#    0.000    2.143    0.000    2.571    0.000    0.000 
#    0.000    0.000    0.000    0.000    0.000    0.000 
#
# Total GULP energy -693942.784894 kJ/mol
# GULP energy per Si atom -12391.835445 kJ/mol
# Density = 1.970194 g / cm^3
# Si number density = 19.746890 Si / 1000 Ang^3
#
#
#
# Elastic Constant Matrix: (Units=GPa)
#
#
# Indices 1 2 3 4 5 6 
#
# 1 87.9896 17.7444 53.2951 0.0000 0.0000 0.0000
# 2 17.7444 56.6758 8.7256 0.0000 0.0000 0.0000
# 3 53.2951 8.7256 117.0782 0.0000 0.0000 0.0000
# 4 0.0000 0.0000 0.0000 17.7222 0.0000 0.0000
# 5 0.0000 0.0000 0.0000 0.0000 37.3321 0.0000
# 6 0.0000 0.0000 0.0000 0.0000 0.0000 21.7752
#
#
#
# Elastic Compliance Matrix: (Units=1/GPa)
#
#
# Indices 1 2 3 4 5 6 
#
# 1 0.016572 -0.004074 -0.007240 0.000000 0.000000 0.000000
# 2 -0.004074 0.018850 0.000450 0.000000 0.000000 0.000000
# 3 -0.007240 0.000450 0.011804 0.000000 0.000000 0.000000
# 4 0.000000 0.000000 0.000000 0.056426 0.000000 0.000000
# 5 0.000000 0.000000 0.000000 0.000000 0.026787 0.000000
# 6 0.000000 0.000000 0.000000 0.000000 0.000000 0.045924
#
#
# Mechanical properties :
#
#
# Convention : Reuss Voigt Hill
#
# Bulk Modulus (GPa) = 39.21992 46.80820 43.01406
# Shear Modulus (GPa) = 24.20252 27.49780 25.85016
#
# Velocity S-wave (km/s) = 3.50471 3.73569 3.62204
# Velocity P-wave (km/s) = 6.02343 6.50866 6.27074
#
# Compressibility (1/GPa) = 0.02549725
#
# Stress axis : x y z
#
# Youngs Moduli (GPa) = 60.34361 53.04913 84.72049
#
# Poissons Ratio (x) = 0.21611 0.61338
# Poissons Ratio (y) = 0.24583 -0.03808
# Poissons Ratio (z) = 0.43689 -0.02385
#
# Static dielectric constant tensor:
#      x y z
#    x 3.637550 0.000000 0.000000 
#    y 0.000000 3.550120 0.000000 
#    z 0.000000 0.000000 3.550680 
# 
# 
# High freq. dielectric constant tensor:
#      x y z
#    x 1.768140 0.000000 0.000000 
#    y 0.000000 1.760100 0.000000 
#    z 0.000000 0.000000 1.763980 
# 
# From -- ./inp_files/28985.got.cif
#   From: 2010.03.12/outbox.cif.g09.slc.cpg/sg59_15_cif.got.tgz:28985.got - 2010.04.16 16:29:54.
