data_PCOD8242070
_publ_section_title
;
Structure prediction by ZEFSAII (Michael W. Deem and Ramdas Pophale) SiO2 
 PCOD8242070
Probable space group: P M M N
;
_chemical_formula_sum "Si O2"
_cell_formula_units_Z 64
_cell_length_a 18.850843
_cell_length_b 9.270715
_cell_length_c 20.395012
_cell_angle_alpha 90.000000
_cell_angle_beta 90.000000
_cell_angle_gamma 90.000000
_cell_volume 3564.248470
_symmetry_space_group_name_H-M "P M M N"
_symmetry_group_IT_number 59
_space_group.IT_coordinate_system_code '2'
_symmetry_cell_setting 'orthorhombic'
loop_
_space_group_symop_operation_xyz
x,y,z
1/2-x,1/2-y,z
1/2+x,-y,-z
-x,1/2+y,-z
-x,-y,-z
1/2+x,1/2+y,-z
1/2-x,y,z
x,1/2-y,z
loop_
_atom_site_type_symbol
_atom_site_label
_atom_site_fract_x
_atom_site_fract_y
_atom_site_fract_z
Si Si1 0.564576 0.083346 0.968331
Si Si2 0.334327 0.412198 0.557100
Si Si3 0.834203 0.911770 0.587134
Si Si4 0.334357 0.585610 0.681003
Si Si5 0.903821 0.920801 0.199674
Si Si6 0.564311 0.420057 0.822323
Si Si7 0.168623 0.579784 0.287878
Si Si8 0.831896 0.084645 0.083041
O O1 0.541714 0.250000 0.963877
O O2 0.579294 0.020552 0.895553
O O3 0.635269 0.062533 0.011012
O O4 0.500000 0.000000 0.000000
O O5 0.250000 0.413097 0.557915
O O6 0.361515 0.250000 0.572109
O O7 0.361544 0.462442 0.484934
O O8 0.363270 0.520993 0.612353
O O9 0.750000 0.916104 0.586654
O O10 0.861171 0.750000 0.601238
O O11 0.862693 0.015406 0.644395
O O12 0.250000 0.575953 0.685528
O O13 0.360509 0.750000 0.686427
O O14 0.365748 0.492443 0.739243
O O15 0.892645 0.750000 0.202689
O O16 0.986145 0.964902 0.201250
O O17 0.870149 0.978411 0.132890
O O18 0.572970 0.250000 0.822830
O O19 0.622235 0.484380 0.771983
O O20 0.250000 0.533095 0.275813
O O21 0.161175 0.750000 0.293792
O O22 0.750000 0.042242 0.078402
O O23 0.841651 0.250000 0.106838
#
# Coordination Sequence:
#
# PCOD8242070 Si02
#       8
#     8   8   8   8   8   8   8   8
#     4  10  19  35  56  75 100 132 168 208 251 301
#     4   8  14  26  45  69  97 131 168 202 245 301
#     4   8  14  26  45  70 101 132 162 202 249 298
#     4  10  20  32  47  71 103 132 164 212 258 295
#     4  11  21  34  52  71  98 137 174 207 246 298
#     4   9  19  34  52  75 101 130 167 207 246 295
#     4   9  17  30  50  75 101 129 163 205 251 299
#     4  10  21  35  53  79 106 131 164 210 259 301
#
# _framework density 17.956098000000001
#
# number of rings (size 3 to 8) (size 9 to 14) (size 15 to 20)
#    0.000    2.625    1.250    1.875    0.000    3.500 
#    0.000    6.875    0.000    0.750    0.000    1.750 
#    0.000    0.000    0.000    0.000    0.000    0.000 
#
# Total GULP energy -793395.889940 kJ/mol
# GULP energy per Si atom -12396.810780 kJ/mol
# Density = 1.791523 g / cm^3
# Si number density = 17.956098 Si / 1000 Ang^3
#
#
#
# Elastic Constant Matrix: (Units=GPa)
#
#
# Indices 1 2 3 4 5 6 
#
# 1 43.6468 31.4113 24.7754 0.0000 0.0000 0.0000
# 2 31.4113 71.9304 55.0969 0.0000 0.0000 0.0000
# 3 24.7754 55.0969 138.7908 0.0000 0.0000 0.0000
# 4 0.0000 0.0000 0.0000 29.4881 0.0000 0.0000
# 5 0.0000 0.0000 0.0000 0.0000 -12.8556 0.0000
# 6 0.0000 0.0000 0.0000 0.0000 0.0000 14.8549
#
#
#
# Elastic Compliance Matrix: (Units=1/GPa)
#
#
# Indices 1 2 3 4 5 6 
#
# 1 0.033417 -0.014404 -0.000247 0.000000 0.000000 0.000000
# 2 -0.014404 0.026185 -0.007824 0.000000 0.000000 0.000000
# 3 -0.000247 -0.007824 0.010355 0.000000 0.000000 0.000000
# 4 0.000000 0.000000 0.000000 0.033912 0.000000 0.000000
# 5 0.000000 0.000000 0.000000 0.000000 -0.077787 0.000000
# 6 0.000000 0.000000 0.000000 0.000000 0.000000 0.067318
#
#
# Mechanical properties :
#
#
# Convention : Reuss Voigt Hill
#
# Bulk Modulus (GPa) = 39.98694 52.99279 46.48986
# Shear Modulus (GPa) = 34.08657 15.83646 24.96152
#
# Velocity S-wave (km/s) = 4.36171 2.97299 3.73250
# Velocity P-wave (km/s) = 6.90533 6.43128 6.67252
#
# Compressibility (1/GPa) = 0.02500817
#
# Stress axis : x y z
#
# Youngs Moduli (GPa) = 29.92449 38.18983 96.57094
#
# Poissons Ratio (x) = 0.55007 0.02389
# Poissons Ratio (y) = 0.43102 0.75554
# Poissons Ratio (z) = 0.00740 0.29879
#
# Static dielectric constant tensor:
#      x y z
#    x 3.165680 0.000000 0.000000 
#    y 0.000000 3.311830 0.000000 
#    z 0.000000 0.000000 3.875620 
# 
# 
# High freq. dielectric constant tensor:
#      x y z
#    x 1.663680 0.000000 0.000000 
#    y 0.000000 1.682660 0.000000 
#    z 0.000000 0.000000 1.713260 
# 
# From -- ./inp_files/30707.got.cif
#   From: 2010.03.12/outbox.cif.g09.slc.cpg/sg59_16_cif.got.tgz:30707.got - 2010.04.16 16:29:54.
