data_PCOD8242476
_publ_section_title
;
Structure prediction by ZEFSAII (Michael W. Deem and Ramdas Pophale) SiO2 
 PCOD8242476
Probable space group: P M M N
;
_chemical_formula_sum "Si O2"
_cell_formula_units_Z 48
_cell_length_a 9.387657
_cell_length_b 9.381205
_cell_length_c 30.775285
_cell_angle_alpha 90.000000
_cell_angle_beta 90.000000
_cell_angle_gamma 90.000000
_cell_volume 2710.303482
_symmetry_space_group_name_H-M "P M M N"
_symmetry_group_IT_number 59
_space_group.IT_coordinate_system_code '2'
_symmetry_cell_setting 'orthorhombic'
loop_
_space_group_symop_operation_xyz
x,y,z
1/2-x,1/2-y,z
1/2+x,-y,-z
-x,1/2+y,-z
-x,-y,-z
1/2+x,1/2+y,-z
1/2-x,y,z
x,1/2-y,z
loop_
_atom_site_type_symbol
_atom_site_label
_atom_site_fract_x
_atom_site_fract_y
_atom_site_fract_z
Si Si1 0.580549 0.908274 0.368274
Si Si2 0.581589 0.413862 0.287109
Si Si3 0.585346 0.083680 0.784601
Si Si4 0.087391 0.417130 0.535551
Si Si5 0.918679 0.092811 0.881771
Si Si6 0.918217 0.584938 0.963181
O O1 0.750000 0.904069 0.369204
O O2 0.522527 0.750000 0.357059
O O3 0.527922 0.955602 0.416221
O O4 0.524095 0.017285 0.331935
O O5 0.750000 0.433491 0.282867
O O6 0.535860 0.250000 0.287366
O O7 0.510439 0.490270 0.246639
O O8 0.750000 0.041303 0.778356
O O9 0.562538 0.250000 0.774478
O O10 0.531984 0.048028 0.833506
O O11 0.250000 0.466407 0.531341
O O12 0.071977 0.250000 0.527199
O O13 0.000000 0.500000 0.500000
O O14 0.750000 0.102809 0.881380
O O15 0.980148 0.250000 0.893798
O O16 0.970539 0.977145 0.916844
O O17 0.750000 0.563274 0.969655
O O18 0.961381 0.750000 0.965064
O O19 0.000000 0.500000 0.000000
#
# Coordination Sequence:
#
# PCOD8242476 Si02
#       6
#     8   8   8   8   8   8
#     4   8  15  30  50  68  90 125 165 199 233 279
#     4  10  20  32  48  73 101 127 159 199 241 285
#     4   9  18  33  53  75  97 125 162 199 237 286
#     4   9  18  32  50  73  98 124 158 198 238 284
#     4   8  15  30  51  72  95 125 161 199 238 283
#     4  10  20  33  51  75 100 128 163 200 240 287
#
# _framework density 17.710194000000001
#
# number of rings (size 3 to 8) (size 9 to 14) (size 15 to 20)
#    0.000    3.000    0.000    3.000    0.000    4.000 
#    0.000    5.000    0.000    2.000    0.000    0.000 
#    0.000    0.000    0.000    0.000    0.000    0.000 
#
# Total GULP energy -595013.237311 kJ/mol
# GULP energy per Si atom -12396.109111 kJ/mol
# Density = 1.766988 g / cm^3
# Si number density = 17.710194 Si / 1000 Ang^3
#
#
#
# Elastic Constant Matrix: (Units=GPa)
#
#
# Indices 1 2 3 4 5 6 
#
# 1 31.3393 39.1648 42.4816 0.0000 0.0000 0.0000
# 2 39.1648 124.4818 101.1419 0.0000 0.0000 0.0000
# 3 42.4816 101.1419 170.0996 0.0000 0.0000 0.0000
# 4 0.0000 0.0000 0.0000 38.4655 0.0000 0.0000
# 5 0.0000 0.0000 0.0000 0.0000 31.2579 0.0000
# 6 0.0000 0.0000 0.0000 0.0000 0.0000 26.4393
#
#
#
# Elastic Compliance Matrix: (Units=1/GPa)
#
#
# Indices 1 2 3 4 5 6 
#
# 1 0.056419 -0.012193 -0.006840 0.000000 0.000000 0.000000
# 2 -0.012193 0.018177 -0.007763 0.000000 0.000000 0.000000
# 3 -0.006840 -0.007763 0.012203 0.000000 0.000000 0.000000
# 4 0.000000 0.000000 0.000000 0.025997 0.000000 0.000000
# 5 0.000000 0.000000 0.000000 0.000000 0.031992 0.000000
# 6 0.000000 0.000000 0.000000 0.000000 0.000000 0.037822
#
#
# Mechanical properties :
#
#
# Convention : Reuss Voigt Hill
#
# Bulk Modulus (GPa) = 30.11468 76.83304 53.47386
# Shear Modulus (GPa) = 20.22072 28.77471 24.49772
#
# Velocity S-wave (km/s) = 3.38265 4.03520 3.72325
# Velocity P-wave (km/s) = 5.68309 8.07392 6.98161
#
# Compressibility (1/GPa) = 0.03320640
#
# Stress axis : x y z
#
# Youngs Moduli (GPa) = 17.72467 55.01519 81.94591
#
# Poissons Ratio (x) = 0.67078 0.56055
# Poissons Ratio (y) = 0.21611 0.63614
# Poissons Ratio (z) = 0.12125 0.42708
#
# Static dielectric constant tensor:
#      x y z
#    x 2.905200 0.000000 0.000000 
#    y 0.000000 1.116200 0.000000 
#    z 0.000000 0.000000 3.601660 
# 
# 
# High freq. dielectric constant tensor:
#      x y z
#    x 1.643650 0.000000 0.000000 
#    y 0.000000 1.686670 0.000000 
#    z 0.000000 0.000000 1.701050 
# 
# From -- ./inp_files/31859.got.cif
#   From: 2010.03.12/outbox.cif.g09.slc.cpg/sg59_16_cif.got.tgz:31859.got - 2010.04.16 16:29:54.
