data_PCOD8242582
_publ_section_title
;
Structure prediction by ZEFSAII (Michael W. Deem and Ramdas Pophale) SiO2 
 PCOD8242582
Probable space group: P M M N
;
_chemical_formula_sum "Si O2"
_cell_formula_units_Z 40
_cell_length_a 21.322422
_cell_length_b 21.707808
_cell_length_c 4.953300
_cell_angle_alpha 90.000000
_cell_angle_beta 90.000000
_cell_angle_gamma 90.000000
_cell_volume 2292.699510
_symmetry_space_group_name_H-M "P M M N"
_symmetry_group_IT_number 59
_space_group.IT_coordinate_system_code '2'
_symmetry_cell_setting 'orthorhombic'
loop_
_space_group_symop_operation_xyz
x,y,z
1/2-x,1/2-y,z
1/2+x,-y,-z
-x,1/2+y,-z
-x,-y,-z
1/2+x,1/2+y,-z
1/2-x,y,z
x,1/2-y,z
loop_
_atom_site_type_symbol
_atom_site_label
_atom_site_fract_x
_atom_site_fract_y
_atom_site_fract_z
Si Si1 0.893073 0.250000 0.785607
Si Si2 0.015981 0.117831 0.343278
Si Si3 0.449371 0.046100 0.875601
Si Si4 0.978839 0.250000 0.291366
Si Si5 0.822077 0.122983 0.803109
Si Si6 0.118431 0.932882 0.706362
O O1 0.918319 0.250000 0.482158
O O2 0.849937 0.190874 0.821395
O O3 0.952530 0.250000 0.986751
O O4 0.022983 0.086814 0.633874
O O5 0.023207 0.191409 0.353810
O O6 0.945934 0.103726 0.235674
O O7 0.066942 0.091660 0.125812
O O8 0.391287 0.006244 0.760569
O O9 0.500000 0.000000 0.000000
O O10 0.750000 0.127346 0.717729
O O11 0.859377 0.078735 0.597892
O O12 0.828091 0.092092 0.095602
#
# Coordination Sequence:
#
# PCOD8242582 Si02
#       6
#     4   8   8   4   8   8
#     4  12  21  38  46  68 100 142 180 216 253 272
#     4  11  19  34  50  76  96 131 167 203 258 302
#     4  10  20  32  53  72  96 125 166 211 255 313
#     4  12  22  32  55  70 106 134 169 216 242 296
#     4  12  23  35  51  70  97 137 182 221 251 279
#     4  11  20  36  50  71  96 129 170 219 254 295
#
# _framework density 17.446680000000001
#
# number of rings (size 3 to 8) (size 9 to 14) (size 15 to 20)
#    0.000    0.800    4.000    8.100    0.000    0.000 
#    0.000    3.000    0.000    0.000    0.000    0.000 
#    0.000    0.000    0.000   63.000    0.000    0.000 
#
# Total GULP energy -495954.485438 kJ/mol
# GULP energy per Si atom -12398.862136 kJ/mol
# Density = 1.740697 g / cm^3
# Si number density = 17.446680 Si / 1000 Ang^3
#
#
#
# Elastic Constant Matrix: (Units=GPa)
#
#
# Indices 1 2 3 4 5 6 
#
# 1 28.8722 33.5219 13.9027 0.0000 0.0000 0.0000
# 2 33.5219 138.3853 42.6646 0.0000 0.0000 0.0000
# 3 13.9027 42.6646 100.8978 0.0000 0.0000 0.0000
# 4 0.0000 0.0000 0.0000 24.8657 0.0000 0.0000
# 5 0.0000 0.0000 0.0000 0.0000 17.9143 0.0000
# 6 0.0000 0.0000 0.0000 0.0000 0.0000 10.9904
#
#
#
# Elastic Compliance Matrix: (Units=1/GPa)
#
#
# Indices 1 2 3 4 5 6 
#
# 1 0.048527 -0.011147 -0.001973 0.000000 0.000000 0.000000
# 2 -0.011147 0.010870 -0.003060 0.000000 0.000000 0.000000
# 3 -0.001973 -0.003060 0.011477 0.000000 0.000000 0.000000
# 4 0.000000 0.000000 0.000000 0.040216 0.000000 0.000000
# 5 0.000000 0.000000 0.000000 0.000000 0.055821 0.000000
# 6 0.000000 0.000000 0.000000 0.000000 0.000000 0.090989
#
#
# Mechanical properties :
#
#
# Convention : Reuss Voigt Hill
#
# Bulk Modulus (GPa) = 25.96485 49.81485 37.88985
# Shear Modulus (GPa) = 16.49626 22.62514 19.56070
#
# Velocity S-wave (km/s) = 3.07827 3.60504 3.35202
# Velocity P-wave (km/s) = 5.24872 6.77813 6.06185
#
# Compressibility (1/GPa) = 0.03851361
#
# Stress axis : x y z
#
# Youngs Moduli (GPa) = 20.60689 91.99724 87.13082
#
# Poissons Ratio (x) = 1.02547 0.17192
# Poissons Ratio (y) = 0.22970 0.26666
# Poissons Ratio (z) = 0.04066 0.28155
#
# Static dielectric constant tensor:
#      x y z
#    x 2.857670 0.000000 0.000000 
#    y 0.000000 3.723680 0.000000 
#    z 0.000000 0.000000 3.524030 
# 
# 
# High freq. dielectric constant tensor:
#      x y z
#    x 1.604980 0.000000 0.000000 
#    y 0.000000 1.681090 0.000000 
#    z 0.000000 0.000000 1.702140 
# 
# From -- ./inp_files/2766.got.cif
#   From: 2010.03.12/outbox.cif.g09.slc.cpg/sg59_2_cif.got.tgz:2766.got - 2010.04.16 16:29:54.
