data_PCOD8242839
_publ_section_title
;
Structure prediction by ZEFSAII (Michael W. Deem and Ramdas Pophale) SiO2 
 PCOD8242839
Probable space group: P M M N
;
_chemical_formula_sum "Si O2"
_cell_formula_units_Z 64
_cell_length_a 9.578289
_cell_length_b 21.585983
_cell_length_c 16.696573
_cell_angle_alpha 90.000000
_cell_angle_beta 90.000000
_cell_angle_gamma 90.000000
_cell_volume 3452.129729
_symmetry_space_group_name_H-M "P M M N"
_symmetry_group_IT_number 59
_space_group.IT_coordinate_system_code '2'
_symmetry_cell_setting 'orthorhombic'
loop_
_space_group_symop_operation_xyz
x,y,z
1/2-x,1/2-y,z
1/2+x,-y,-z
-x,1/2+y,-z
-x,-y,-z
1/2+x,1/2+y,-z
1/2-x,y,z
x,1/2-y,z
loop_
_atom_site_type_symbol
_atom_site_label
_atom_site_fract_x
_atom_site_fract_y
_atom_site_fract_z
Si Si1 0.906606 0.182638 0.188992
Si Si2 0.912616 0.434248 0.285319
Si Si3 0.906336 0.636252 0.939393
Si Si4 0.587927 0.989859 0.847854
Si Si5 0.413556 0.821298 0.425471
Si Si6 0.091424 0.178567 0.728844
Si Si7 0.911069 0.897288 0.114680
Si Si8 0.413143 0.940898 0.529379
O O1 0.750000 0.167139 0.162654
O O2 0.919068 0.250000 0.229609
O O3 0.956942 0.133848 0.254990
O O4 0.994061 0.182839 0.107339
O O5 0.750000 0.449628 0.269985
O O6 0.949672 0.435585 0.377819
O O7 0.007652 0.482783 0.237068
O O8 0.750000 0.656444 0.918484
O O9 0.934801 0.567196 0.907321
O O10 0.933198 0.642418 0.034068
O O11 0.750000 0.002884 0.830085
O O12 0.517110 0.046341 0.893539
O O13 0.250000 0.823968 0.407622
O O14 0.453903 0.750000 0.452647
O O15 0.492697 0.840211 0.344469
O O16 0.455574 0.874435 0.489877
O O17 0.250000 0.162379 0.704026
O O18 0.074907 0.250000 0.750377
O O19 0.046070 0.142439 0.808234
O O20 0.750000 0.920022 0.119703
O O21 0.250000 0.954161 0.514184
O O22 0.500000 0.000000 0.500000
#
# Coordination Sequence:
#
# PCOD8242839 Si02
#       8
#     8   8   8   8   8   8   8   8
#     4   9  18  33  54  78 104 136 174 217 262 309
#     4   9  19  36  54  75 105 139 173 210 259 318
#     4   9  19  34  50  73 104 138 175 216 262 312
#     4  10  20  33  51  75 104 136 173 215 262 311
#     4   9  19  37  58  79 106 140 178 220 268 321
#     4   9  19  35  53  74 100 132 172 214 256 308
#     4  10  20  33  52  75 100 135 177 216 258 311
#     4  10  22  37  56  83 112 142 177 222 274 324
#
# _framework density 18.539280000000002
#
# number of rings (size 3 to 8) (size 9 to 14) (size 15 to 20)
#    0.000    2.625    0.000    0.750    1.750    3.750 
#    0.000    3.750    0.000    1.500    0.000    3.500 
#    0.000    0.000    0.000    0.000    0.000    0.000 
#
# Total GULP energy -793375.773358 kJ/mol
# GULP energy per Si atom -12396.496459 kJ/mol
# Density = 1.849708 g / cm^3
# Si number density = 18.539280 Si / 1000 Ang^3
#
#
#
# Elastic Constant Matrix: (Units=GPa)
#
#
# Indices 1 2 3 4 5 6 
#
# 1 61.4353 32.2146 40.8663 0.0000 0.0000 0.0000
# 2 32.2146 71.9957 33.4653 0.0000 0.0000 0.0000
# 3 40.8663 33.4653 107.0776 0.0000 0.0000 0.0000
# 4 0.0000 0.0000 0.0000 18.9809 0.0000 0.0000
# 5 0.0000 0.0000 0.0000 0.0000 29.3590 0.0000
# 6 0.0000 0.0000 0.0000 0.0000 0.0000 26.3590
#
#
#
# Elastic Compliance Matrix: (Units=1/GPa)
#
#
# Indices 1 2 3 4 5 6 
#
# 1 0.025192 -0.007959 -0.007127 0.000000 0.000000 0.000000
# 2 -0.007959 0.018765 -0.002827 0.000000 0.000000 0.000000
# 3 -0.007127 -0.002827 0.012943 0.000000 0.000000 0.000000
# 4 0.000000 0.000000 0.000000 0.052685 0.000000 0.000000
# 5 0.000000 0.000000 0.000000 0.000000 0.034061 0.000000
# 6 0.000000 0.000000 0.000000 0.000000 0.000000 0.037938
#
#
# Mechanical properties :
#
#
# Convention : Reuss Voigt Hill
#
# Bulk Modulus (GPa) = 47.45433 50.40013 48.92723
# Shear Modulus (GPa) = 22.27831 23.87061 23.07446
#
# Velocity S-wave (km/s) = 3.47029 3.59216 3.53175
# Velocity P-wave (km/s) = 6.45828 6.66704 6.56349
#
# Compressibility (1/GPa) = 0.02107289
#
# Stress axis : x y z
#
# Youngs Moduli (GPa) = 39.69573 53.29008 77.26445
#
# Poissons Ratio (x) = 0.42415 0.55065
# Poissons Ratio (y) = 0.31595 0.21843
# Poissons Ratio (z) = 0.28291 0.15065
#
# Static dielectric constant tensor:
#      x y z
#    x 3.462220 0.000000 0.000000 
#    y 0.000000 3.459680 0.000000 
#    z 0.000000 0.000000 3.412780 
# 
# 
# High freq. dielectric constant tensor:
#      x y z
#    x 1.716830 0.000000 0.000000 
#    y 0.000000 1.719110 0.000000 
#    z 0.000000 0.000000 1.716250 
# 
# From -- ./inp_files/21530.got.cif
#   From: 2010.03.12/outbox.cif.g09.slc.cpg/sg59_11_cif.got.tgz:21530.got - 2010.04.16 16:29:54.
