data_PCOD8242717
_publ_section_title
;
Structure prediction by ZEFSAII (Michael W. Deem and Ramdas Pophale) SiO2 
 PCOD8242717
Probable space group: P M M N
;
_chemical_formula_sum "Si O2"
_cell_formula_units_Z 48
_cell_length_a 9.122271
_cell_length_b 9.397378
_cell_length_c 30.837557
_cell_angle_alpha 90.000000
_cell_angle_beta 90.000000
_cell_angle_gamma 90.000000
_cell_volume 2643.562797
_symmetry_space_group_name_H-M "P M M N"
_symmetry_group_IT_number 59
_space_group.IT_coordinate_system_code '2'
_symmetry_cell_setting 'orthorhombic'
loop_
_space_group_symop_operation_xyz
x,y,z
1/2-x,1/2-y,z
1/2+x,-y,-z
-x,1/2+y,-z
-x,-y,-z
1/2+x,1/2+y,-z
1/2-x,y,z
x,1/2-y,z
loop_
_atom_site_type_symbol
_atom_site_label
_atom_site_fract_x
_atom_site_fract_y
_atom_site_fract_z
Si Si1 0.580487 0.916429 0.198076
Si Si2 0.419575 0.084589 0.124904
Si Si3 0.579524 0.916943 0.462118
Si Si4 0.579643 0.083406 0.037780
Si Si5 0.586333 0.080749 0.623391
Si Si6 0.587495 0.918979 0.295095
O O1 0.750000 0.955840 0.189406
O O2 0.554761 0.750000 0.190755
O O3 0.534880 0.962012 0.246914
O O4 0.474755 0.000634 0.166466
O O5 0.250000 0.049652 0.116512
O O6 0.445862 0.250000 0.133950
O O7 0.510346 0.033754 0.083137
O O8 0.750000 0.955412 0.462304
O O9 0.552332 0.750000 0.468881
O O10 0.512725 0.970195 0.416646
O O11 0.500000 0.000000 0.500000
O O12 0.750000 0.043116 0.038179
O O13 0.553890 0.250000 0.030125
O O14 0.500000 0.000000 0.000000
O O15 0.750000 0.019636 0.617524
O O16 0.588999 0.250000 0.625487
O O17 0.520693 0.018498 0.668294
O O18 0.750000 0.980348 0.303792
O O19 0.593937 0.750000 0.298256
#
# Coordination Sequence:
#
# PCOD8242717 Si02
#       6
#     8   8   8   8   8   8
#     4   9  18  32  51  76 103 131 165 205 248 292
#     4  10  21  36  53  74 102 136 171 205 244 292
#     4  10  20  33  50  72  98 129 164 202 246 295
#     4  10  21  37  57  79 102 131 167 205 247 294
#     4   9  16  26  43  68  96 126 161 200 243 292
#     4   8  14  26  44  67  96 126 157 198 246 292
#
# _framework density 18.157314
#
# number of rings (size 3 to 8) (size 9 to 14) (size 15 to 20)
#    0.000    2.667    0.000    3.000    0.000    6.667 
#    0.000    1.667    0.000    1.000    0.000    4.667 
#    0.000    0.000    0.000    0.000    0.000    0.000 
#
# Total GULP energy -595172.466770 kJ/mol
# GULP energy per Si atom -12399.426391 kJ/mol
# Density = 1.811599 g / cm^3
# Si number density = 18.157314 Si / 1000 Ang^3
#
#
#
# Elastic Constant Matrix: (Units=GPa)
#
#
# Indices 1 2 3 4 5 6 
#
# 1 147.1085 40.6365 97.4450 0.0000 0.0000 0.0000
# 2 40.6365 29.2691 44.4854 0.0000 0.0000 0.0000
# 3 97.4450 44.4854 169.9713 0.0000 0.0000 0.0000
# 4 0.0000 0.0000 0.0000 26.3896 0.0000 0.0000
# 5 0.0000 0.0000 0.0000 0.0000 42.8214 0.0000
# 6 0.0000 0.0000 0.0000 0.0000 0.0000 24.9286
#
#
#
# Elastic Compliance Matrix: (Units=1/GPa)
#
#
# Indices 1 2 3 4 5 6 
#
# 1 0.012779 -0.010972 -0.004455 0.000000 0.000000 0.000000
# 2 -0.010972 0.066153 -0.011024 0.000000 0.000000 0.000000
# 3 -0.004455 -0.011024 0.011323 0.000000 0.000000 0.000000
# 4 0.000000 0.000000 0.000000 0.037894 0.000000 0.000000
# 5 0.000000 0.000000 0.000000 0.000000 0.023353 0.000000
# 6 0.000000 0.000000 0.000000 0.000000 0.000000 0.040115
#
#
# Mechanical properties :
#
#
# Convention : Reuss Voigt Hill
#
# Bulk Modulus (GPa) = 26.77060 79.05363 52.91212
# Shear Modulus (GPa) = 19.45769 29.74675 24.60222
#
# Velocity S-wave (km/s) = 3.27711 4.05196 3.68496
# Velocity P-wave (km/s) = 5.39397 8.09468 6.87818
#
# Compressibility (1/GPa) = 0.03735441
#
# Stress axis : x y z
#
# Youngs Moduli (GPa) = 78.25089 15.11648 88.31955
#
# Poissons Ratio (x) = 0.16585 0.39346
# Poissons Ratio (y) = 0.85854 0.97361
# Poissons Ratio (z) = 0.34860 0.16664
#
# Static dielectric constant tensor:
#      x y z
#    x 3.581240 0.000000 0.000000 
#    y 0.000000 2.941640 0.000000 
#    z 0.000000 0.000000 3.577460 
# 
# 
# High freq. dielectric constant tensor:
#      x y z
#    x 1.715030 0.000000 0.000000 
#    y 0.000000 1.656680 0.000000 
#    z 0.000000 0.000000 1.719920 
# 
# From -- ./inp_files/31862.got.cif
#   From: 2010.03.12/outbox.cif.g09.slc.cpg/sg59_16_cif.got.tgz:31862.got - 2010.04.16 16:29:54.
