data_PCOD8242532
_publ_section_title
;
Structure prediction by ZEFSAII (Michael W. Deem and Ramdas Pophale) SiO2 
 PCOD8242532
Probable space group: P M M N
;
_chemical_formula_sum "Si O2"
_cell_formula_units_Z 40
_cell_length_a 9.621819
_cell_length_b 9.491586
_cell_length_c 25.231274
_cell_angle_alpha 90.000000
_cell_angle_beta 90.000000
_cell_angle_gamma 90.000000
_cell_volume 2304.279467
_symmetry_space_group_name_H-M "P M M N"
_symmetry_group_IT_number 59
_space_group.IT_coordinate_system_code '2'
_symmetry_cell_setting 'orthorhombic'
loop_
_space_group_symop_operation_xyz
x,y,z
1/2-x,1/2-y,z
1/2+x,-y,-z
-x,1/2+y,-z
-x,-y,-z
1/2+x,1/2+y,-z
1/2-x,y,z
x,1/2-y,z
loop_
_atom_site_type_symbol
_atom_site_label
_atom_site_fract_x
_atom_site_fract_y
_atom_site_fract_z
Si Si1 0.590614 0.084956 0.541096
Si Si2 0.592395 0.587492 0.039435
Si Si3 0.586492 0.913881 0.757321
Si Si4 0.588174 0.911738 0.160790
Si Si5 0.085081 0.905866 0.340968
O O1 0.750000 0.037731 0.534568
O O2 0.574365 0.250000 0.529989
O O3 0.535368 0.048622 0.600356
O O4 0.500000 0.000000 0.500000
O O5 0.750000 0.538107 0.031541
O O6 0.575375 0.750000 0.024723
O O7 0.547242 0.561018 0.099912
O O8 0.500000 0.500000 0.000000
O O9 0.750000 0.939944 0.765440
O O10 0.549701 0.750000 0.755263
O O11 0.506231 0.984119 0.805609
O O12 0.532403 0.982746 0.702488
O O13 0.750000 0.945291 0.170541
O O14 0.556332 0.750000 0.176247
O O15 0.250000 0.898931 0.341862
O O16 0.026689 0.750000 0.326726
#
# Coordination Sequence:
#
# PCOD8242532 Si02
#       5
#     8   8   8   8   8
#     4   9  18  32  50  73  99 127 162 202 242 287
#     4   9  19  35  53  74 100 129 163 202 241 284
#     4  10  20  32  49  76 103 125 157 202 247 290
#     4   9  19  36  54  71  96 132 168 199 237 287
#     4   8  15  30  50  69  93 128 166 201 238 283
#
# _framework density 17.359005
#
# number of rings (size 3 to 8) (size 9 to 14) (size 15 to 20)
#    0.000    3.000    0.000    3.000    0.000    4.800 
#    0.000    9.000    0.000    1.200    0.000    0.000 
#    0.000    0.000    0.000    0.000    0.000    0.000 
#
# Total GULP energy -495898.699359 kJ/mol
# GULP energy per Si atom -12397.467484 kJ/mol
# Density = 1.731949 g / cm^3
# Si number density = 17.359005 Si / 1000 Ang^3
#
#
#
# Elastic Constant Matrix: (Units=GPa)
#
#
# Indices 1 2 3 4 5 6 
#
# 1 55.8365 52.0428 56.9947 0.0000 0.0000 0.0000
# 2 52.0428 107.0147 82.8228 0.0000 0.0000 0.0000
# 3 56.9947 82.8228 130.0985 0.0000 0.0000 0.0000
# 4 0.0000 0.0000 0.0000 39.5419 0.0000 0.0000
# 5 0.0000 0.0000 0.0000 0.0000 32.3038 0.0000
# 6 0.0000 0.0000 0.0000 0.0000 0.0000 32.0183
#
#
#
# Elastic Compliance Matrix: (Units=1/GPa)
#
#
# Indices 1 2 3 4 5 6 
#
# 1 0.038033 -0.011040 -0.009633 0.000000 0.000000 0.000000
# 2 -0.011040 0.021625 -0.008930 0.000000 0.000000 0.000000
# 3 -0.009633 -0.008930 0.017592 0.000000 0.000000 0.000000
# 4 0.000000 0.000000 0.000000 0.025290 0.000000 0.000000
# 5 0.000000 0.000000 0.000000 0.000000 0.030956 0.000000
# 6 0.000000 0.000000 0.000000 0.000000 0.000000 0.031232
#
#
# Mechanical properties :
#
#
# Convention : Reuss Voigt Hill
#
# Bulk Modulus (GPa) = 55.42623 75.18558 65.30591
# Shear Modulus (GPa) = 21.74397 27.51209 24.62803
#
# Velocity S-wave (km/s) = 3.54306 3.98538 3.77071
# Velocity P-wave (km/s) = 6.98114 8.03641 7.52729
#
# Compressibility (1/GPa) = 0.01804200
#
# Stress axis : x y z
#
# Youngs Moduli (GPa) = 26.29317 46.24290 56.84463
#
# Poissons Ratio (x) = 0.51053 0.54760
# Poissons Ratio (y) = 0.29028 0.50763
# Poissons Ratio (z) = 0.25329 0.41296
#
# Static dielectric constant tensor:
#      x y z
#    x 2.966410 0.000000 0.000000 
#    y 0.000000 3.031240 0.000000 
#    z 0.000000 0.000000 3.344900 
# 
# 
# High freq. dielectric constant tensor:
#      x y z
#    x 1.646730 0.000000 0.000000 
#    y 0.000000 1.670440 0.000000 
#    z 0.000000 0.000000 1.681190 
# 
# From -- ./inp_files/28728.got.cif
#   From: 2010.03.12/outbox.cif.g09.slc.cpg/sg59_15_cif.got.tgz:28728.got - 2010.04.16 16:29:54.
