data_PCOD8242066
_publ_section_title
;
Structure prediction by ZEFSAII (Michael W. Deem and Ramdas Pophale) SiO2 
 PCOD8242066
Probable space group: P M M N
;
_chemical_formula_sum "Si O2"
_cell_formula_units_Z 48
_cell_length_a 8.991000
_cell_length_b 30.516872
_cell_length_c 9.565156
_cell_angle_alpha 90.000000
_cell_angle_beta 90.000000
_cell_angle_gamma 90.000000
_cell_volume 2624.460684
_symmetry_space_group_name_H-M "P M M N"
_symmetry_group_IT_number 59
_space_group.IT_coordinate_system_code '2'
_symmetry_cell_setting 'orthorhombic'
loop_
_space_group_symop_operation_xyz
x,y,z
1/2-x,1/2-y,z
1/2+x,-y,-z
-x,1/2+y,-z
-x,-y,-z
1/2+x,1/2+y,-z
1/2-x,y,z
x,1/2-y,z
loop_
_atom_site_type_symbol
_atom_site_label
_atom_site_fract_x
_atom_site_fract_y
_atom_site_fract_z
Si Si1 0.425433 0.125900 0.989103
Si Si2 0.575351 0.010270 0.646534
Si Si3 0.075640 0.934994 0.800531
Si Si4 0.077461 0.889463 0.291410
Si Si5 0.421802 0.642520 0.592375
Si Si6 0.425025 0.298915 0.197638
O O1 0.250000 0.118292 0.998608
O O2 0.476533 0.130930 0.829883
O O3 0.508803 0.084376 0.056666
O O4 0.474910 0.170137 0.069504
O O5 0.750000 0.001375 0.632028
O O6 0.505827 0.980504 0.768326
O O7 0.500000 0.000000 0.500000
O O8 0.540753 0.059728 0.689135
O O9 0.250000 0.943417 0.820977
O O10 0.041124 0.902520 0.672284
O O11 0.250000 0.882629 0.254577
O O12 0.033553 0.863318 0.431367
O O13 0.250000 0.653937 0.609846
O O14 0.512568 0.682849 0.656244
O O15 0.250000 0.298175 0.212185
O O16 0.487279 0.250000 0.170604
#
# Coordination Sequence:
#
# PCOD8242066 Si02
#       6
#     8   8   8   8   8   8
#     4  10  21  36  55  81 108 143 183 221 269 325
#     4  11  21  34  53  78 108 144 187 230 270 315
#     4  10  19  35  55  77 106 145 184 226 269 310
#     4  10  21  37  53  76 111 146 177 220 271 316
#     4   9  18  34  55  79 107 137 175 217 263 316
#     4   9  19  37  59  82 107 134 170 218 269 323
#
# _framework density 18.289473000000001
#
# number of rings (size 3 to 8) (size 9 to 14) (size 15 to 20)
#    0.000    2.167    1.667    1.500    0.000    4.333 
#    0.000    0.833    0.000    3.000    0.000    0.000 
#    0.000    0.000    0.000    0.000    0.000    0.000 
#
# Total GULP energy -595357.727318 kJ/mol
# GULP energy per Si atom -12403.285986 kJ/mol
# Density = 1.824785 g / cm^3
# Si number density = 18.289473 Si / 1000 Ang^3
#
#
#
# Elastic Constant Matrix: (Units=GPa)
#
#
# Indices 1 2 3 4 5 6 
#
# 1 65.4368 46.9001 40.2179 0.0000 0.0000 0.0000
# 2 46.9001 102.0691 49.2563 0.0000 0.0000 0.0000
# 3 40.2179 49.2563 117.6797 0.0000 0.0000 0.0000
# 4 0.0000 0.0000 0.0000 17.1299 0.0000 0.0000
# 5 0.0000 0.0000 0.0000 0.0000 36.2454 0.0000
# 6 0.0000 0.0000 0.0000 0.0000 0.0000 26.1619
#
#
#
# Elastic Compliance Matrix: (Units=1/GPa)
#
#
# Indices 1 2 3 4 5 6 
#
# 1 0.024634 -0.009093 -0.004613 0.000000 0.000000 0.000000
# 2 -0.009093 0.015634 -0.003436 0.000000 0.000000 0.000000
# 3 -0.004613 -0.003436 0.011512 0.000000 0.000000 0.000000
# 4 0.000000 0.000000 0.000000 0.058377 0.000000 0.000000
# 5 0.000000 0.000000 0.000000 0.000000 0.027590 0.000000
# 6 0.000000 0.000000 0.000000 0.000000 0.000000 0.038224
#
#
# Mechanical properties :
#
#
# Convention : Reuss Voigt Hill
#
# Bulk Modulus (GPa) = 57.15554 61.99269 59.57412
# Shear Modulus (GPa) = 23.13881 25.82822 24.48351
#
# Velocity S-wave (km/s) = 3.56074 3.76199 3.66275
# Velocity P-wave (km/s) = 6.94432 7.26904 7.10853
#
# Compressibility (1/GPa) = 0.01749612
#
# Stress axis : x y z
#
# Youngs Moduli (GPa) = 40.59371 63.96430 86.86354
#
# Poissons Ratio (x) = 0.58164 0.40069
# Poissons Ratio (y) = 0.36913 0.29846
# Poissons Ratio (z) = 0.18725 0.21978
#
# Static dielectric constant tensor:
#      x y z
#    x 3.357890 0.000000 0.000000 
#    y 0.000000 3.507740 0.000000 
#    z 0.000000 0.000000 3.382940 
# 
# 
# High freq. dielectric constant tensor:
#      x y z
#    x 1.712720 0.000000 0.000000 
#    y 0.000000 1.696640 0.000000 
#    z 0.000000 0.000000 1.709100 
# 
# From -- ./inp_files/6207.got.cif
#   From: 2010.03.12/outbox.cif.g09.slc.cpg/sg59_4_cif.got.tgz:6207.got - 2010.04.16 16:29:54.
