data_PCOD8242555
_publ_section_title
;
Structure prediction by ZEFSAII (Michael W. Deem and Ramdas Pophale) SiO2 
 PCOD8242555
Probable space group: P M M N
;
_chemical_formula_sum "Si O2"
_cell_formula_units_Z 64
_cell_length_a 14.935996
_cell_length_b 9.265313
_cell_length_c 24.117019
_cell_angle_alpha 90.000000
_cell_angle_beta 90.000000
_cell_angle_gamma 90.000000
_cell_volume 3337.474140
_symmetry_space_group_name_H-M "P M M N"
_symmetry_group_IT_number 59
_space_group.IT_coordinate_system_code '2'
_symmetry_cell_setting 'orthorhombic'
loop_
_space_group_symop_operation_xyz
x,y,z
1/2-x,1/2-y,z
1/2+x,-y,-z
-x,1/2+y,-z
-x,-y,-z
1/2+x,1/2+y,-z
1/2-x,y,z
x,1/2-y,z
loop_
_atom_site_type_symbol
_atom_site_label
_atom_site_fract_x
_atom_site_fract_y
_atom_site_fract_z
Si Si1 0.854259 0.419022 0.677747
Si Si2 0.646184 0.083939 0.926195
Si Si3 0.498413 0.917961 0.866953
Si Si4 0.650419 0.078560 0.343427
Si Si5 0.999292 0.918662 0.740107
Si Si6 0.348889 0.578230 0.949544
Si Si7 0.356523 0.589118 0.534031
Si Si8 0.643740 0.911454 0.568874
O O1 0.750000 0.448624 0.689470
O O2 0.874598 0.250000 0.673750
O O3 0.909839 0.490872 0.727472
O O4 0.886751 0.493260 0.620919
O O5 0.750000 0.061179 0.912643
O O6 0.618867 0.250000 0.919946
O O7 0.591465 0.993269 0.881533
O O8 0.624154 0.028475 0.988453
O O9 0.510522 0.750000 0.879060
O O10 0.473071 0.947055 0.803379
O O11 0.419340 0.983800 0.905162
O O12 0.750000 0.015263 0.331014
O O13 0.656315 0.250000 0.341891
O O14 0.580801 0.021975 0.297596
O O15 0.616650 0.030802 0.404790
O O16 0.980058 0.750000 0.728981
O O17 0.250000 0.518121 0.934589
O O18 0.345806 0.750000 0.947777
O O19 0.250000 0.595508 0.529882
O O20 0.395226 0.750000 0.524045
O O21 0.396002 0.482610 0.487129
O O22 0.750000 0.905962 0.565475
O O23 0.604093 0.750000 0.575127
#
# Coordination Sequence:
#
# PCOD8242555 Si02
#       8
#     8   8   8   8   8   8   8   8
#     4  10  21  37  55  72  94 130 173 212 251 299
#     4   9  18  33  53  75 101 136 173 206 245 297
#     4  10  20  32  50  77 105 133 166 209 256 294
#     4   8  15  30  52  75 100 132 167 203 245 295
#     4  10  21  35  51  75 104 132 168 211 251 294
#     4   8  15  30  52  78 106 134 166 204 247 297
#     4   8  13  24  45  71  97 126 160 196 237 293
#     4   9  16  27  47  75 102 125 154 200 257 308
#
# _framework density 19.176178
#
# number of rings (size 3 to 8) (size 9 to 14) (size 15 to 20)
#    0.000    3.000    0.000    2.625    0.000    4.000 
#    0.000    6.250    0.000    2.250    0.000    1.750 
#    0.000    0.000    0.000    0.000    0.000    0.000 
#
# Total GULP energy -793457.306763 kJ/mol
# GULP energy per Si atom -12397.770418 kJ/mol
# Density = 1.913253 g / cm^3
# Si number density = 19.176178 Si / 1000 Ang^3
#
#
#
# Elastic Constant Matrix: (Units=GPa)
#
#
# Indices 1 2 3 4 5 6 
#
# 1 59.2574 28.7037 33.1877 0.0000 0.0000 0.0000
# 2 28.7037 65.1435 36.7630 0.0000 0.0000 0.0000
# 3 33.1877 36.7630 89.3541 0.0000 0.0000 0.0000
# 4 0.0000 0.0000 0.0000 24.9507 0.0000 0.0000
# 5 0.0000 0.0000 0.0000 0.0000 26.3546 0.0000
# 6 0.0000 0.0000 0.0000 0.0000 0.0000 17.7999
#
#
#
# Elastic Compliance Matrix: (Units=1/GPa)
#
#
# Indices 1 2 3 4 5 6 
#
# 1 0.023583 -0.007096 -0.005840 0.000000 0.000000 0.000000
# 2 -0.007096 0.022128 -0.006469 0.000000 0.000000 0.000000
# 3 -0.005840 -0.006469 0.016022 0.000000 0.000000 0.000000
# 4 0.000000 0.000000 0.000000 0.040079 0.000000 0.000000
# 5 0.000000 0.000000 0.000000 0.000000 0.037944 0.000000
# 6 0.000000 0.000000 0.000000 0.000000 0.000000 0.056180
#
#
# Mechanical properties :
#
#
# Convention : Reuss Voigt Hill
#
# Bulk Modulus (GPa) = 43.62121 45.67374 44.64748
# Shear Modulus (GPa) = 20.62829 21.49443 21.06136
#
# Velocity S-wave (km/s) = 3.28338 3.35160 3.31767
# Velocity P-wave (km/s) = 6.09681 6.23276 6.16516
#
# Compressibility (1/GPa) = 0.02292463
#
# Stress axis : x y z
#
# Youngs Moduli (GPa) = 42.40296 45.19224 62.41488
#
# Poissons Ratio (x) = 0.32067 0.36449
# Poissons Ratio (y) = 0.30088 0.40374
# Poissons Ratio (z) = 0.24763 0.29233
#
# Static dielectric constant tensor:
#      x y z
#    x 3.513890 0.000000 0.000000 
#    y 0.000000 3.277920 0.000000 
#    z 0.000000 0.000000 3.595530 
# 
# 
# High freq. dielectric constant tensor:
#      x y z
#    x 1.739180 0.000000 0.000000 
#    y 0.000000 1.713140 0.000000 
#    z 0.000000 0.000000 1.746630 
# 
# From -- ./inp_files/32153.got.cif
#   From: 2010.03.12/outbox.cif.g09.slc.cpg/sg59_17_cif.got.tgz:32153.got - 2010.04.16 16:29:54.
