data_PCOD8242802
_publ_section_title
;
Structure prediction by ZEFSAII (Michael W. Deem and Ramdas Pophale) SiO2 
 PCOD8242802
Probable space group: P M M N
;
_chemical_formula_sum "Si O2"
_cell_formula_units_Z 56
_cell_length_a 8.880205
_cell_length_b 20.809715
_cell_length_c 15.300587
_cell_angle_alpha 90.000000
_cell_angle_beta 90.000000
_cell_angle_gamma 90.000000
_cell_volume 2827.464863
_symmetry_space_group_name_H-M "P M M N"
_symmetry_group_IT_number 59
_space_group.IT_coordinate_system_code '2'
_symmetry_cell_setting 'orthorhombic'
loop_
_space_group_symop_operation_xyz
x,y,z
1/2-x,1/2-y,z
1/2+x,-y,-z
-x,1/2+y,-z
-x,-y,-z
1/2+x,1/2+y,-z
1/2-x,y,z
x,1/2-y,z
loop_
_atom_site_type_symbol
_atom_site_label
_atom_site_fract_x
_atom_site_fract_y
_atom_site_fract_z
Si Si1 0.583814 0.822188 0.350727
Si Si2 0.073022 0.511049 0.775802
Si Si3 0.421886 0.321228 0.951564
Si Si4 0.573561 0.555127 0.940104
Si Si5 0.076454 0.882486 0.200503
Si Si6 0.921198 0.320637 0.471752
Si Si7 0.425292 0.538512 0.581080
O O1 0.750000 0.854216 0.339810
O O2 0.590489 0.750000 0.315398
O O3 0.456291 0.859805 0.298547
O O4 0.539797 0.824151 0.450954
O O5 0.250000 0.523061 0.778436
O O6 0.012972 0.514692 0.675447
O O7 0.993298 0.560631 0.841800
O O8 0.028877 0.443250 0.818713
O O9 0.250000 0.329572 0.919713
O O10 0.447709 0.250000 0.991525
O O11 0.530246 0.327754 0.867818
O O12 0.463891 0.374573 0.022488
O O13 0.750000 0.540639 0.935960
O O14 0.500000 0.500000 0.000000
O O15 0.250000 0.901464 0.191335
O O16 0.750000 0.324410 0.507175
O O17 0.943183 0.250000 0.424101
O O18 0.955347 0.384254 0.414960
O O19 0.500000 0.500000 0.500000
O O20 0.250000 0.523318 0.572237
#
# Coordination Sequence:
#
# PCOD8242802 Si02
#       7
#     8   8   8   8   8   8   8
#     4  10  20  33  50  75 110 150 189 232 292 361
#     4  11  23  39  59  85 118 156 198 243 298 362
#     4  10  22  40  61  85 117 156 194 239 298 355
#     4  11  22  39  64  90 118 155 198 244 292 350
#     4  12  23  34  53  82 114 149 193 242 295 355
#     4   9  18  35  57  79 107 146 194 246 298 350
#     4  10  22  38  58  86 118 154 196 247 300 350
#
# _framework density 19.805727000000001
#
# number of rings (size 3 to 8) (size 9 to 14) (size 15 to 20)
#    0.000    1.571    1.429    3.857    0.000    7.429 
#    0.000    0.714    0.000    0.857    0.000    0.000 
#    0.000    0.000    0.000    0.000    0.000    0.000 
#
# Total GULP energy -694054.361212 kJ/mol
# GULP energy per Si atom -12393.827879 kJ/mol
# Density = 1.976065 g / cm^3
# Si number density = 19.805727 Si / 1000 Ang^3
#
#
#
# Elastic Constant Matrix: (Units=GPa)
#
#
# Indices 1 2 3 4 5 6 
#
# 1 83.6212 36.1288 44.0937 0.0000 0.0000 0.0000
# 2 36.1288 129.7574 46.0833 0.0000 0.0000 0.0000
# 3 44.0937 46.0833 107.8884 0.0000 0.0000 0.0000
# 4 0.0000 0.0000 0.0000 31.4366 0.0000 0.0000
# 5 0.0000 0.0000 0.0000 0.0000 30.2927 0.0000
# 6 0.0000 0.0000 0.0000 0.0000 0.0000 24.1571
#
#
#
# Elastic Compliance Matrix: (Units=1/GPa)
#
#
# Indices 1 2 3 4 5 6 
#
# 1 0.015903 -0.002499 -0.005432 0.000000 0.000000 0.000000
# 2 -0.002499 0.009477 -0.003027 0.000000 0.000000 0.000000
# 3 -0.005432 -0.003027 0.012782 0.000000 0.000000 0.000000
# 4 0.000000 0.000000 0.000000 0.031810 0.000000 0.000000
# 5 0.000000 0.000000 0.000000 0.000000 0.033011 0.000000
# 6 0.000000 0.000000 0.000000 0.000000 0.000000 0.041396
#
#
# Mechanical properties :
#
#
# Convention : Reuss Voigt Hill
#
# Bulk Modulus (GPa) = 61.55183 63.76431 62.65807
# Shear Modulus (GPa) = 29.11891 30.17470 29.64680
#
# Velocity S-wave (km/s) = 3.83851 3.90748 3.87315
# Velocity P-wave (km/s) = 7.12677 7.25415 7.19074
#
# Compressibility (1/GPa) = 0.01624647
#
# Stress axis : x y z
#
# Youngs Moduli (GPa) = 62.88286 105.51395 78.23588
#
# Poissons Ratio (x) = 0.26364 0.42498
# Poissons Ratio (y) = 0.15712 0.23682
# Poissons Ratio (z) = 0.34159 0.31939
#
# Static dielectric constant tensor:
#      x y z
#    x 3.608000 0.000000 0.000000 
#    y 0.000000 4.026960 0.000000 
#    z 0.000000 0.000000 3.539230 
# 
# 
# High freq. dielectric constant tensor:
#      x y z
#    x 1.772760 0.000000 0.000000 
#    y 0.000000 1.779370 0.000000 
#    z 0.000000 0.000000 1.751770 
# 
# From -- ./inp_files/20971.got.cif
#   From: 2010.03.12/outbox.cif.g09.slc.cpg/sg59_11_cif.got.tgz:20971.got - 2010.04.16 16:29:54.
