data_PCOD8242002
_publ_section_title
;
Structure prediction by ZEFSAII (Michael W. Deem and Ramdas Pophale) SiO2 
 PCOD8242002
Probable space group: P M M N
;
_chemical_formula_sum "Si O2"
_cell_formula_units_Z 64
_cell_length_a 15.473485
_cell_length_b 9.094881
_cell_length_c 22.202385
_cell_angle_alpha 90.000000
_cell_angle_beta 90.000000
_cell_angle_gamma 90.000000
_cell_volume 3124.530645
_symmetry_space_group_name_H-M "P M M N"
_symmetry_group_IT_number 59
_space_group.IT_coordinate_system_code '2'
_symmetry_cell_setting 'orthorhombic'
loop_
_space_group_symop_operation_xyz
x,y,z
1/2-x,1/2-y,z
1/2+x,-y,-z
-x,1/2+y,-z
-x,-y,-z
1/2+x,1/2+y,-z
1/2-x,y,z
x,1/2-y,z
loop_
_atom_site_type_symbol
_atom_site_label
_atom_site_fract_x
_atom_site_fract_y
_atom_site_fract_z
Si Si1 0.646628 0.085680 0.006320
Si Si2 0.894858 0.416709 0.237234
Si Si3 0.149706 0.411186 0.880445
Si Si4 0.906390 0.919190 0.763894
Si Si5 0.498605 0.925778 0.435465
Si Si6 0.847924 0.577684 0.637048
Si Si7 0.352178 0.415259 0.109462
Si Si8 0.346972 0.919523 0.630550
O O1 0.750000 0.084467 0.006713
O O2 0.610258 0.250000 0.006246
O O3 0.608064 0.007656 0.066058
O O4 0.610272 0.005984 0.946720
O O5 0.878112 0.250000 0.216264
O O6 0.862165 0.519838 0.184744
O O7 0.843961 0.452860 0.298238
O O8 0.994434 0.445654 0.251484
O O9 0.250000 0.396388 0.894428
O O10 0.106372 0.250000 0.880925
O O11 0.881505 0.750000 0.772363
O O12 0.853303 0.978793 0.706395
O O13 0.881675 0.994029 0.827818
O O14 0.496042 0.750000 0.440907
O O15 0.500000 0.000000 0.500000
O O16 0.412331 0.980960 0.402511
O O17 0.585804 0.972448 0.401216
O O18 0.750000 0.553871 0.613873
O O19 0.874664 0.750000 0.632980
O O20 0.250000 0.413152 0.107181
O O21 0.389649 0.250000 0.104385
O O22 0.250000 0.947674 0.605295
O O23 0.375221 0.750000 0.619483
#
# Coordination Sequence:
#
# PCOD8242002 Si02
#       8
#     8   8   8   8   8   8   8   8
#     4   9  17  30  48  70  99 137 183 236 294 354
#     4  10  19  34  57  83 115 151 190 238 294 355
#     4  10  20  33  50  74 104 139 185 241 296 354
#     4   9  17  32  56  85 116 150 191 238 290 353
#     4  12  26  44  67  94 131 170 207 253 301 357
#     4  10  20  39  68  97 127 165 209 254 303 362
#     4   9  16  28  49  77 106 139 182 231 286 346
#     4  10  21  40  67  96 127 164 207 255 306 362
#
# _framework density 20.483077000000002
#
# number of rings (size 3 to 8) (size 9 to 14) (size 15 to 20)
#    0.000    2.125    1.250    2.625    0.000    5.750 
#    0.000    1.875    0.000    1.500    0.000    0.000 
#    0.000    0.000    0.000    0.000    0.000    0.000 
#
# Total GULP energy -793470.080010 kJ/mol
# GULP energy per Si atom -12397.970000 kJ/mol
# Density = 2.043646 g / cm^3
# Si number density = 20.483077 Si / 1000 Ang^3
#
#
#
# Elastic Constant Matrix: (Units=GPa)
#
#
# Indices 1 2 3 4 5 6 
#
# 1 70.7960 43.4475 41.9157 0.0000 0.0000 0.0000
# 2 43.4475 136.5043 73.4717 0.0000 0.0000 0.0000
# 3 41.9157 73.4717 131.4002 0.0000 0.0000 0.0000
# 4 0.0000 0.0000 0.0000 32.3229 0.0000 0.0000
# 5 0.0000 0.0000 0.0000 0.0000 26.2603 0.0000
# 6 0.0000 0.0000 0.0000 0.0000 0.0000 21.9036
#
#
#
# Elastic Compliance Matrix: (Units=1/GPa)
#
#
# Indices 1 2 3 4 5 6 
#
# 1 0.018787 -0.003940 -0.003790 0.000000 0.000000 0.000000
# 2 -0.003940 0.011306 -0.005065 0.000000 0.000000 0.000000
# 3 -0.003790 -0.005065 0.011651 0.000000 0.000000 0.000000
# 4 0.000000 0.000000 0.000000 0.030938 0.000000 0.000000
# 5 0.000000 0.000000 0.000000 0.000000 0.038080 0.000000
# 6 0.000000 0.000000 0.000000 0.000000 0.000000 0.045655
#
#
# Mechanical properties :
#
#
# Convention : Reuss Voigt Hill
#
# Bulk Modulus (GPa) = 61.90091 72.93005 67.41548
# Shear Modulus (GPa) = 26.68222 28.08839 27.38531
#
# Velocity S-wave (km/s) = 3.61314 3.70712 3.66043
# Velocity P-wave (km/s) = 6.90597 7.34888 7.13086
#
# Compressibility (1/GPa) = 0.01615485
#
# Stress axis : x y z
#
# Youngs Moduli (GPa) = 53.22890 88.44999 85.82718
#
# Poissons Ratio (x) = 0.34846 0.32529
# Poissons Ratio (y) = 0.20970 0.43470
# Poissons Ratio (z) = 0.20174 0.44799
#
# Static dielectric constant tensor:
#      x y z
#    x 3.433680 0.000000 0.000000 
#    y 0.000000 3.536770 0.000000 
#    z 0.000000 0.000000 3.945530 
# 
# 
# High freq. dielectric constant tensor:
#      x y z
#    x 1.791110 0.000000 0.000000 
#    y 0.000000 1.777010 0.000000 
#    z 0.000000 0.000000 1.811010 
# 
# From -- ./inp_files/32189.got.cif
#   From: 2010.03.12/outbox.cif.g09.slc.cpg/sg59_17_cif.got.tgz:32189.got - 2010.04.16 16:29:54.
