data_PCOD8242495
_publ_section_title
;
Structure prediction by ZEFSAII (Michael W. Deem and Ramdas Pophale) SiO2 
 PCOD8242495
Probable space group: P M M N
;
_chemical_formula_sum "Si O2"
_cell_formula_units_Z 64
_cell_length_a 9.087075
_cell_length_b 32.249513
_cell_length_c 11.454763
_cell_angle_alpha 90.000000
_cell_angle_beta 90.000000
_cell_angle_gamma 90.000000
_cell_volume 3356.861176
_symmetry_space_group_name_H-M "P M M N"
_symmetry_group_IT_number 59
_space_group.IT_coordinate_system_code '2'
_symmetry_cell_setting 'orthorhombic'
loop_
_space_group_symop_operation_xyz
x,y,z
1/2-x,1/2-y,z
1/2+x,-y,-z
-x,1/2+y,-z
-x,-y,-z
1/2+x,1/2+y,-z
1/2-x,y,z
x,1/2-y,z
loop_
_atom_site_type_symbol
_atom_site_label
_atom_site_fract_x
_atom_site_fract_y
_atom_site_fract_z
Si Si1 0.079829 0.970885 0.662322
Si Si2 0.920025 0.202692 0.534505
Si Si3 0.579833 0.370113 0.698895
Si Si4 0.916284 0.295522 0.108797
Si Si5 0.422046 0.168154 0.312725
Si Si6 0.579810 0.558850 0.435131
Si Si7 0.921614 0.373689 0.965589
Si Si8 0.922834 0.585836 0.827690
O O1 0.250000 0.958528 0.670316
O O2 0.011836 0.947834 0.551674
O O3 0.996350 0.956023 0.778704
O O4 0.058057 0.020267 0.652600
O O5 0.750000 0.204139 0.498628
O O6 0.980285 0.250000 0.548391
O O7 0.941874 0.177402 0.655548
O O8 0.003825 0.176422 0.436496
O O9 0.750000 0.383460 0.684764
O O10 0.476553 0.399778 0.624559
O O11 0.527648 0.374915 0.832010
O O12 0.750000 0.303961 0.152180
O O13 0.932504 0.250000 0.053313
O O14 0.021482 0.298048 0.220671
O O15 0.961027 0.327575 0.008748
O O16 0.250000 0.173296 0.329408
O O17 0.463598 0.122854 0.262100
O O18 0.750000 0.564301 0.470518
O O19 0.750000 0.383986 0.979128
O O20 0.012708 0.406235 0.043257
O O21 0.750000 0.579429 0.839587
#
# Coordination Sequence:
#
# PCOD8242495 Si02
#       8
#     8   8   8   8   8   8   8   8
#     4  10  20  35  57  84 111 137 169 210 256 309
#     4  10  21  35  51  74 104 137 174 216 261 309
#     4  10  21  37  56  76 102 140 180 217 260 309
#     4   9  17  30  50  74  99 130 169 215 264 308
#     4  10  20  32  48  74 106 136 168 209 259 313
#     4  10  21  36  56  83 112 140 170 209 258 310
#     4   9  19  35  53  74 101 135 177 220 261 309
#     4  10  20  34  54  80 108 139 174 215 262 308
#
# _framework density 19.065429000000002
#
# number of rings (size 3 to 8) (size 9 to 14) (size 15 to 20)
#    0.000    2.250    0.000    2.625    0.000    8.500 
#    0.000    3.125    0.000    0.000    0.000    3.500 
#    0.000    0.000    0.000    0.000    0.000    0.000 
#
# Total GULP energy -793656.286343 kJ/mol
# GULP energy per Si atom -12400.879474 kJ/mol
# Density = 1.902204 g / cm^3
# Si number density = 19.065429 Si / 1000 Ang^3
#
#
#
# Elastic Constant Matrix: (Units=GPa)
#
#
# Indices 1 2 3 4 5 6 
#
# 1 69.0917 25.8935 30.9104 0.0000 0.0000 0.0000
# 2 25.8935 65.7036 26.6019 0.0000 0.0000 0.0000
# 3 30.9104 26.6019 80.6778 0.0000 0.0000 0.0000
# 4 0.0000 0.0000 0.0000 21.2297 0.0000 0.0000
# 5 0.0000 0.0000 0.0000 0.0000 19.9481 0.0000
# 6 0.0000 0.0000 0.0000 0.0000 0.0000 24.6224
#
#
#
# Elastic Compliance Matrix: (Units=1/GPa)
#
#
# Indices 1 2 3 4 5 6 
#
# 1 0.018897 -0.005212 -0.005522 0.000000 0.000000 0.000000
# 2 -0.005212 0.019002 -0.004269 0.000000 0.000000 0.000000
# 3 -0.005522 -0.004269 0.015918 0.000000 0.000000 0.000000
# 4 0.000000 0.000000 0.000000 0.047104 0.000000 0.000000
# 5 0.000000 0.000000 0.000000 0.000000 0.050130 0.000000
# 6 0.000000 0.000000 0.000000 0.000000 0.000000 0.040613
#
#
# Mechanical properties :
#
#
# Convention : Reuss Voigt Hill
#
# Bulk Modulus (GPa) = 41.99391 42.47606 42.23498
# Shear Modulus (GPa) = 21.77643 21.96455 21.87049
#
# Velocity S-wave (km/s) = 3.38330 3.39789 3.39060
# Velocity P-wave (km/s) = 6.11035 6.14179 6.12609
#
# Compressibility (1/GPa) = 0.02381298
#
# Stress axis : x y z
#
# Youngs Moduli (GPa) = 52.91853 52.62582 62.82171
#
# Poissons Ratio (x) = 0.27427 0.34688
# Poissons Ratio (y) = 0.27579 0.26817
# Poissons Ratio (z) = 0.29220 0.22465
#
# Static dielectric constant tensor:
#      x y z
#    x 3.476190 0.000000 0.000000 
#    y 0.000000 3.537880 0.000000 
#    z 0.000000 0.000000 3.411480 
# 
# 
# High freq. dielectric constant tensor:
#      x y z
#    x 1.741930 0.000000 0.000000 
#    y 0.000000 1.739720 0.000000 
#    z 0.000000 0.000000 1.729580 
# 
# From -- ./inp_files/14964.got.cif
#   From: 2010.03.12/outbox.cif.g09.slc.cpg/sg59_8_cif.got.tgz:14964.got - 2010.04.16 16:29:54.
