data_PCOD8242701
_publ_section_title
;
Structure prediction by ZEFSAII (Michael W. Deem and Ramdas Pophale) SiO2 
 PCOD8242701
Probable space group: P M M N
;
_chemical_formula_sum "Si O2"
_cell_formula_units_Z 56
_cell_length_a 8.985261
_cell_length_b 18.366292
_cell_length_c 19.538889
_cell_angle_alpha 90.000000
_cell_angle_beta 90.000000
_cell_angle_gamma 90.000000
_cell_volume 3224.423274
_symmetry_space_group_name_H-M "P M M N"
_symmetry_group_IT_number 59
_space_group.IT_coordinate_system_code '2'
_symmetry_cell_setting 'orthorhombic'
loop_
_space_group_symop_operation_xyz
x,y,z
1/2-x,1/2-y,z
1/2+x,-y,-z
-x,1/2+y,-z
-x,-y,-z
1/2+x,1/2+y,-z
1/2-x,y,z
x,1/2-y,z
loop_
_atom_site_type_symbol
_atom_site_label
_atom_site_fract_x
_atom_site_fract_y
_atom_site_fract_z
Si Si1 0.576365 0.167003 0.479988
Si Si2 0.924608 0.964511 0.566160
Si Si3 0.916980 0.665717 0.379361
Si Si4 0.924846 0.054397 0.700824
Si Si5 0.926020 0.166319 0.930826
Si Si6 0.925194 0.539315 0.159006
Si Si7 0.579793 0.060375 0.041794
O O1 0.750000 0.148877 0.479649
O O2 0.543140 0.250000 0.460160
O O3 0.489352 0.117225 0.425647
O O4 0.516270 0.147298 0.554943
O O5 0.750000 0.962900 0.553779
O O6 0.966461 0.003677 0.636606
O O7 0.000000 0.000000 0.500000
O O8 0.750000 0.634621 0.390137
O O9 0.909961 0.750000 0.364106
O O10 0.997517 0.631729 0.313523
O O11 0.750000 0.064193 0.710607
O O12 0.995956 0.023095 0.769394
O O13 0.750000 0.163206 0.916204
O O14 0.983223 0.250000 0.922731
O O15 0.006223 0.111052 0.878058
O O16 0.962907 0.139852 0.009906
O O17 0.750000 0.554066 0.168295
O O18 0.954600 0.461077 0.120581
O O19 0.750000 0.047408 0.026489
O O20 0.500000 0.000000 0.000000
#
# Coordination Sequence:
#
# PCOD8242701 Si02
#       7
#     8   8   8   8   8   8   8
#     4  10  20  34  53  76 101 129 163 208 262 318
#     4  11  22  35  54  77 101 132 175 227 273 316
#     4  10  20  33  50  72  98 130 167 207 255 310
#     4  11  23  36  51  73 101 137 176 215 263 314
#     4   9  17  31  53  79 106 135 166 203 247 297
#     4  10  20  33  50  72 102 138 172 209 251 300
#     4   8  15  29  49  73  98 128 166 202 239 285
#
# _framework density 17.367446000000001
#
# number of rings (size 3 to 8) (size 9 to 14) (size 15 to 20)
#    0.000    2.143    1.429    2.143    0.000    4.857 
#    0.000    0.000    0.000    0.857    0.000    2.000 
#    0.000    0.000    0.000    0.000    0.000    0.000 
#
# Total GULP energy -693813.987576 kJ/mol
# GULP energy per Si atom -12389.535492 kJ/mol
# Density = 1.732792 g / cm^3
# Si number density = 17.367446 Si / 1000 Ang^3
#
#
#
# Elastic Constant Matrix: (Units=GPa)
#
#
# Indices 1 2 3 4 5 6 
#
# 1 82.4342 42.0116 57.8654 0.0000 0.0000 0.0000
# 2 42.0116 75.4910 55.2087 0.0000 0.0000 0.0000
# 3 57.8654 55.2087 112.2058 0.0000 0.0000 0.0000
# 4 0.0000 0.0000 0.0000 25.2420 0.0000 0.0000
# 5 0.0000 0.0000 0.0000 0.0000 28.1208 0.0000
# 6 0.0000 0.0000 0.0000 0.0000 0.0000 26.6059
#
#
#
# Elastic Compliance Matrix: (Units=1/GPa)
#
#
# Indices 1 2 3 4 5 6 
#
# 1 0.020492 -0.005741 -0.007743 0.000000 0.000000 0.000000
# 2 -0.005741 0.022301 -0.008012 0.000000 0.000000 0.000000
# 3 -0.007743 -0.008012 0.016847 0.000000 0.000000 0.000000
# 4 0.000000 0.000000 0.000000 0.039616 0.000000 0.000000
# 5 0.000000 0.000000 0.000000 0.000000 0.035561 0.000000
# 6 0.000000 0.000000 0.000000 0.000000 0.000000 0.037586
#
#
# Mechanical properties :
#
#
# Convention : Reuss Voigt Hill
#
# Bulk Modulus (GPa) = 60.06731 64.47803 62.27267
# Shear Modulus (GPa) = 22.62997 23.66344 23.14671
#
# Velocity S-wave (km/s) = 3.61364 3.69523 3.65466
# Velocity P-wave (km/s) = 7.21612 7.44397 7.33093
#
# Compressibility (1/GPa) = 0.01664799
#
# Stress axis : x y z
#
# Youngs Moduli (GPa) = 48.79896 44.84078 59.35621
#
# Poissons Ratio (x) = 0.25745 0.45960
# Poissons Ratio (y) = 0.28018 0.47556
# Poissons Ratio (z) = 0.37785 0.35926
#
# Static dielectric constant tensor:
#      x y z
#    x 3.380490 0.000000 0.000000 
#    y 0.000000 3.357980 0.000000 
#    z 0.000000 0.000000 2.819080 
# 
# 
# High freq. dielectric constant tensor:
#      x y z
#    x 1.686450 0.000000 0.000000 
#    y 0.000000 1.664610 0.000000 
#    z 0.000000 0.000000 1.651510 
# 
# From -- ./inp_files/29287.got.cif
#   From: 2010.03.12/outbox.cif.g09.slc.cpg/sg59_15_cif.got.tgz:29287.got - 2010.04.16 16:29:54.
