data_PCOD8242590
_publ_section_title
;
Structure prediction by ZEFSAII (Michael W. Deem and Ramdas Pophale) SiO2 
 PCOD8242590
Probable space group: P M M N
;
_chemical_formula_sum "Si O2"
_cell_formula_units_Z 64
_cell_length_a 21.779102
_cell_length_b 18.557460
_cell_length_c 9.747069
_cell_angle_alpha 90.000000
_cell_angle_beta 90.000000
_cell_angle_gamma 90.000000
_cell_volume 3939.422331
_symmetry_space_group_name_H-M "P M M N"
_symmetry_group_IT_number 59
_space_group.IT_coordinate_system_code '2'
_symmetry_cell_setting 'orthorhombic'
loop_
_space_group_symop_operation_xyz
x,y,z
1/2-x,1/2-y,z
1/2+x,-y,-z
-x,1/2+y,-z
-x,-y,-z
1/2+x,1/2+y,-z
1/2-x,y,z
x,1/2-y,z
loop_
_atom_site_type_symbol
_atom_site_label
_atom_site_fract_x
_atom_site_fract_y
_atom_site_fract_z
Si Si1 0.525148 0.451097 0.195247
Si Si2 0.975812 0.334334 0.726635
Si Si3 0.899800 0.913272 0.240788
Si Si4 0.995564 0.169138 0.416584
Si Si5 0.176547 0.053518 0.021645
Si Si6 0.078049 0.948587 0.097403
Si Si7 0.319106 0.171705 0.226868
Si Si8 0.867549 0.830594 0.493995
O O1 0.573010 0.507255 0.261782
O O2 0.525976 0.383687 0.296923
O O3 0.458874 0.488461 0.177599
O O4 0.545812 0.426114 0.044691
O O5 0.968283 0.250000 0.755349
O O6 0.922224 0.377395 0.807287
O O7 0.043190 0.358326 0.782264
O O8 0.967999 0.352353 0.565301
O O9 0.851293 0.914420 0.117691
O O10 0.861328 0.888903 0.373744
O O11 0.974434 0.250000 0.377348
O O12 0.068242 0.164369 0.427431
O O13 0.250000 0.044115 0.011699
O O14 0.151625 0.109380 0.135526
O O15 0.146820 0.976602 0.064357
O O16 0.250000 0.178992 0.175779
O O17 0.352264 0.250000 0.206273
O O18 0.318455 0.151111 0.388195
O O19 0.858299 0.750000 0.432507
#
# Coordination Sequence:
#
# PCOD8242590 Si02
#       8
#     8   8   8   8   8   8   8   8
#     4   9  17  29  44  66  92 119 148 183 226 275
#     4   9  18  31  48  71  96 118 145 186 231 278
#     4   9  18  30  45  66  92 119 150 185 224 271
#     4   9  17  28  43  67  94 117 144 179 226 281
#     4  10  20  33  47  64  90 123 159 195 226 262
#     4   9  18  31  46  66  92 119 153 190 228 269
#     4   9  18  30  42  59  84 116 156 195 224 256
#     4   9  17  28  42  62  89 118 147 180 219 266
#
# _framework density 16.246036
#
# number of rings (size 3 to 8) (size 9 to 14) (size 15 to 20)
#    0.000    2.875    0.000    2.625    0.000    7.500 
#    0.000    1.250    0.000    0.375    0.000    0.000 
#    0.000    4.000    0.000    0.000    0.000    0.000 
#
# Total GULP energy -793081.201203 kJ/mol
# GULP energy per Si atom -12391.893769 kJ/mol
# Density = 1.620906 g / cm^3
# Si number density = 16.246036 Si / 1000 Ang^3
#
#
#
# Elastic Constant Matrix: (Units=GPa)
#
#
# Indices 1 2 3 4 5 6 
#
# 1 50.0030 31.4416 37.5045 0.0000 0.0000 0.0000
# 2 31.4416 101.7282 72.7186 0.0000 0.0000 0.0000
# 3 37.5045 72.7186 97.9434 0.0000 0.0000 0.0000
# 4 0.0000 0.0000 0.0000 32.2767 0.0000 0.0000
# 5 0.0000 0.0000 0.0000 0.0000 21.5474 0.0000
# 6 0.0000 0.0000 0.0000 0.0000 0.0000 11.1095
#
#
#
# Elastic Compliance Matrix: (Units=1/GPa)
#
#
# Indices 1 2 3 4 5 6 
#
# 1 0.028272 -0.002130 -0.009245 0.000000 0.000000 0.000000
# 2 -0.002130 0.021108 -0.014856 0.000000 0.000000 0.000000
# 3 -0.009245 -0.014856 0.024780 0.000000 0.000000 0.000000
# 4 0.000000 0.000000 0.000000 0.030982 0.000000 0.000000
# 5 0.000000 0.000000 0.000000 0.000000 0.046409 0.000000
# 6 0.000000 0.000000 0.000000 0.000000 0.000000 0.090013
#
#
# Mechanical properties :
#
#
# Convention : Reuss Voigt Hill
#
# Bulk Modulus (GPa) = 46.08572 59.22266 52.65419
# Shear Modulus (GPa) = 16.59702 20.18738 18.39220
#
# Velocity S-wave (km/s) = 3.19972 3.52888 3.36833
# Velocity P-wave (km/s) = 6.48690 7.28950 6.89988
#
# Compressibility (1/GPa) = 0.02169870
#
# Stress axis : x y z
#
# Youngs Moduli (GPa) = 35.37086 47.37502 40.35494
#
# Poissons Ratio (x) = 0.10090 0.37307
# Poissons Ratio (y) = 0.07533 0.59953
# Poissons Ratio (z) = 0.32699 0.70382
#
# Static dielectric constant tensor:
#      x y z
#    x 2.806280 0.000000 0.000000 
#    y 0.000000 3.116800 0.000000 
#    z 0.000000 0.000000 3.129600 
# 
# 
# High freq. dielectric constant tensor:
#      x y z
#    x 1.587310 0.000000 0.000000 
#    y 0.000000 1.617600 0.000000 
#    z 0.000000 0.000000 1.632500 
# 
# From -- ./inp_files/10798.got.cif
#   From: 2010.03.12/outbox.cif.g09.slc.cpg/sg59_6_cif.got.tgz:10798.got - 2010.04.16 16:29:54.
