data_PCOD8242197
_publ_section_title
;
Structure prediction by ZEFSAII (Michael W. Deem and Ramdas Pophale) SiO2 
 PCOD8242197
Probable space group: P M M N
;
_chemical_formula_sum "Si O2"
_cell_formula_units_Z 56
_cell_length_a 14.682665
_cell_length_b 9.247482
_cell_length_c 21.023072
_cell_angle_alpha 90.000000
_cell_angle_beta 90.000000
_cell_angle_gamma 90.000000
_cell_volume 2854.463949
_symmetry_space_group_name_H-M "P M M N"
_symmetry_group_IT_number 59
_space_group.IT_coordinate_system_code '2'
_symmetry_cell_setting 'orthorhombic'
loop_
_space_group_symop_operation_xyz
x,y,z
1/2-x,1/2-y,z
1/2+x,-y,-z
-x,1/2+y,-z
-x,-y,-z
1/2+x,1/2+y,-z
1/2-x,y,z
x,1/2-y,z
loop_
_atom_site_type_symbol
_atom_site_label
_atom_site_fract_x
_atom_site_fract_y
_atom_site_fract_z
Si Si1 0.143181 0.916690 0.492600
Si Si2 0.432210 0.422830 0.710748
Si Si3 0.491238 0.418671 0.404360
Si Si4 0.250000 0.576516 0.732603
Si Si5 0.351963 0.414929 0.081852
Si Si6 0.536236 0.408198 0.835571
Si Si7 0.100547 0.090523 0.945800
Si Si8 0.750000 0.419191 0.122776
O O1 0.250000 0.957451 0.503372
O O2 0.134601 0.750000 0.470132
O O3 0.085608 0.939573 0.557090
O O4 0.098049 0.022251 0.440705
O O5 0.418959 0.250000 0.704345
O O6 0.502243 0.484333 0.658889
O O7 0.337792 0.506533 0.699402
O O8 0.471130 0.468319 0.780094
O O9 0.475336 0.250000 0.388282
O O10 0.250000 0.750000 0.723393
O O11 0.250000 0.523312 0.805304
O O12 0.250000 0.459786 0.062156
O O13 0.360383 0.250000 0.100841
O O14 0.377521 0.492901 0.148358
O O15 0.415504 0.450762 0.020107
O O16 0.570082 0.250000 0.814307
O O17 0.490069 0.402279 0.904739
O O18 0.148025 0.250000 0.944468
O O19 0.161493 0.970649 0.913244
O O20 0.750000 0.250000 0.123640
#
# Coordination Sequence:
#
# PCOD8242197 Si02
#       8
#     8   8   8   4   8   8   8   4
#     4   9  19  38  63  90 124 164 199 238 288 341
#     4  11  23  39  59  84 116 157 196 231 283 347
#     4  10  21  37  60  92 127 159 196 247 291 334
#     4  11  23  37  55  83 117 151 190 237 288 339
#     4  10  21  36  56  78 103 138 179 230 290 344
#     4  10  22  37  56  79 106 143 184 230 279 335
#     4  10  19  36  56  75 107 143 178 224 285 346
#     4  11  21  31  51  83 111 141 180 227 280 337
#
# _framework density 19.618395
#
# number of rings (size 3 to 8) (size 9 to 14) (size 15 to 20)
#    0.000    1.857    2.143    1.714    1.000    4.000 
#    0.000    0.714    0.000    0.857    0.000    0.000 
#    0.000    0.000    0.000    0.000    0.000    0.000 
#
# Total GULP energy -694079.104141 kJ/mol
# GULP energy per Si atom -12394.269717 kJ/mol
# Density = 1.957374 g / cm^3
# Si number density = 19.618395 Si / 1000 Ang^3
#
#
#
# Elastic Constant Matrix: (Units=GPa)
#
#
# Indices 1 2 3 4 5 6 
#
# 1 70.3650 33.6363 35.4809 0.0000 0.0000 0.0000
# 2 33.6363 75.8909 43.3673 0.0000 0.0000 0.0000
# 3 35.4809 43.3673 80.3308 0.0000 0.0000 0.0000
# 4 0.0000 0.0000 0.0000 32.1837 0.0000 0.0000
# 5 0.0000 0.0000 0.0000 0.0000 19.9890 0.0000
# 6 0.0000 0.0000 0.0000 0.0000 0.0000 31.3349
#
#
#
# Elastic Compliance Matrix: (Units=1/GPa)
#
#
# Indices 1 2 3 4 5 6 
#
# 1 0.019725 -0.005443 -0.005774 0.000000 0.000000 0.000000
# 2 -0.005443 0.020557 -0.008694 0.000000 0.000000 0.000000
# 3 -0.005774 -0.008694 0.019692 0.000000 0.000000 0.000000
# 4 0.000000 0.000000 0.000000 0.031072 0.000000 0.000000
# 5 0.000000 0.000000 0.000000 0.000000 0.050028 0.000000
# 6 0.000000 0.000000 0.000000 0.000000 0.000000 0.031913
#
#
# Mechanical properties :
#
#
# Convention : Reuss Voigt Hill
#
# Bulk Modulus (GPa) = 49.62047 50.17286 49.89666
# Shear Modulus (GPa) = 22.77633 24.30833 23.54233
#
# Velocity S-wave (km/s) = 3.41099 3.52384 3.46788
# Velocity P-wave (km/s) = 6.39225 6.49512 6.44389
#
# Compressibility (1/GPa) = 0.02015297
#
# Stress axis : x y z
#
# Youngs Moduli (GPa) = 50.69736 48.64420 50.78164
#
# Poissons Ratio (x) = 0.26478 0.29320
# Poissons Ratio (y) = 0.27595 0.44149
# Poissons Ratio (z) = 0.29271 0.42291
#
# Static dielectric constant tensor:
#      x y z
#    x 2.307110 0.000000 0.000000 
#    y 0.000000 3.690790 0.000000 
#    z 0.000000 0.000000 3.486370 
# 
# 
# High freq. dielectric constant tensor:
#      x y z
#    x 1.750180 0.000000 0.000000 
#    y 0.000000 1.770350 0.000000 
#    z 0.000000 0.000000 1.756370 
# 
# From -- ./inp_files/30457.got.cif
#   From: 2010.03.12/outbox.cif.g09.slc.cpg/sg59_16_cif.got.tgz:30457.got - 2010.04.16 16:29:54.
