data_PCOD8242512
_publ_section_title
;
Structure prediction by ZEFSAII (Michael W. Deem and Ramdas Pophale) SiO2 
 PCOD8242512
Probable space group: P M M N
;
_chemical_formula_sum "Si O2"
_cell_formula_units_Z 64
_cell_length_a 8.975749
_cell_length_b 20.412788
_cell_length_c 18.744690
_cell_angle_alpha 90.000000
_cell_angle_beta 90.000000
_cell_angle_gamma 90.000000
_cell_volume 3434.403254
_symmetry_space_group_name_H-M "P M M N"
_symmetry_group_IT_number 59
_space_group.IT_coordinate_system_code '2'
_symmetry_cell_setting 'orthorhombic'
loop_
_space_group_symop_operation_xyz
x,y,z
1/2-x,1/2-y,z
1/2+x,-y,-z
-x,1/2+y,-z
-x,-y,-z
1/2+x,1/2+y,-z
1/2-x,y,z
x,1/2-y,z
loop_
_atom_site_type_symbol
_atom_site_label
_atom_site_fract_x
_atom_site_fract_y
_atom_site_fract_z
Si Si1 0.426963 0.940139 0.541389
Si Si2 0.073136 0.938110 0.703070
Si Si3 0.076295 0.176036 0.052599
Si Si4 0.925461 0.557161 0.044457
Si Si5 0.577155 0.825888 0.459816
Si Si6 0.073976 0.676439 0.801681
Si Si7 0.927014 0.821888 0.298202
Si Si8 0.572156 0.559567 0.205614
O O1 0.250000 0.946556 0.536971
O O2 0.485858 0.943213 0.622622
O O3 0.476259 0.870423 0.510245
O O4 0.500000 0.000000 0.500000
O O5 0.250000 0.940238 0.703095
O O6 0.016069 0.870565 0.738621
O O7 0.010031 0.998044 0.749921
O O8 0.250000 0.172315 0.069535
O O9 0.029009 0.250000 0.030891
O O10 0.992228 0.152436 0.123424
O O11 0.032097 0.127720 0.988454
O O12 0.750000 0.545260 0.043313
O O13 0.988113 0.555954 0.124993
O O14 0.000000 0.500000 0.000000
O O15 0.750000 0.844564 0.470196
O O16 0.549868 0.750000 0.479573
O O17 0.526213 0.840054 0.378743
O O18 0.250000 0.672366 0.809344
O O19 0.020303 0.750000 0.783470
O O20 0.750000 0.820225 0.294817
O O21 0.989981 0.750000 0.277536
O O22 0.991939 0.874937 0.243113
O O23 0.750000 0.560853 0.206057
#
# Coordination Sequence:
#
# PCOD8242512 Si02
#       8
#     8   8   8   8   8   8   8   8
#     4  11  22  35  53  76 103 135 170 210 256 303
#     4   9  18  31  48  70  95 124 160 205 248 284
#     4   9  18  32  48  70 102 132 155 188 241 297
#     4  10  20  32  49  72  97 127 161 200 243 287
#     4   9  18  34  55  78 105 135 166 204 252 304
#     4   9  17  31  52  74  94 122 163 204 239 282
#     4   8  14  26  47  73  97 122 155 197 242 286
#     4   9  16  27  45  68  92 120 158 200 239 281
#
# _framework density 18.634969000000002
#
# number of rings (size 3 to 8) (size 9 to 14) (size 15 to 20)
#    0.000    2.750    0.000    2.625    0.000    4.750 
#    0.000    5.000    0.000    6.750    0.000    0.000 
#    0.000    0.000    0.000    0.000    0.000    0.000 
#
# Total GULP energy -793502.823035 kJ/mol
# GULP energy per Si atom -12398.481610 kJ/mol
# Density = 1.859255 g / cm^3
# Si number density = 18.634969 Si / 1000 Ang^3
#
#
#
# Elastic Constant Matrix: (Units=GPa)
#
#
# Indices 1 2 3 4 5 6 
#
# 1 26.4008 28.2886 30.0944 0.0000 0.0000 0.0000
# 2 28.2886 143.3030 104.4673 0.0000 0.0000 0.0000
# 3 30.0944 104.4673 179.2695 0.0000 0.0000 0.0000
# 4 0.0000 0.0000 0.0000 40.8934 0.0000 0.0000
# 5 0.0000 0.0000 0.0000 0.0000 24.4047 0.0000
# 6 0.0000 0.0000 0.0000 0.0000 0.0000 23.7650
#
#
#
# Elastic Compliance Matrix: (Units=1/GPa)
#
#
# Indices 1 2 3 4 5 6 
#
# 1 0.050134 -0.006539 -0.004605 0.000000 0.000000 0.000000
# 2 -0.006539 0.012985 -0.006469 0.000000 0.000000 0.000000
# 3 -0.004605 -0.006469 0.010121 0.000000 0.000000 0.000000
# 4 0.000000 0.000000 0.000000 0.024454 0.000000 0.000000
# 5 0.000000 0.000000 0.000000 0.000000 0.040976 0.000000
# 6 0.000000 0.000000 0.000000 0.000000 0.000000 0.042079
#
#
# Mechanical properties :
#
#
# Convention : Reuss Voigt Hill
#
# Bulk Modulus (GPa) = 26.30700 74.96376 50.63538
# Shear Modulus (GPa) = 21.86772 30.22083 26.04427
#
# Velocity S-wave (km/s) = 3.42932 4.03144 3.74251
# Velocity P-wave (km/s) = 5.46150 7.87304 6.77542
#
# Compressibility (1/GPa) = 0.03801269
#
# Stress axis : x y z
#
# Youngs Moduli (GPa) = 19.94640 77.01134 98.80313
#
# Poissons Ratio (x) = 0.50361 0.45503
# Poissons Ratio (y) = 0.13044 0.63917
# Poissons Ratio (z) = 0.09186 0.49820
#
# Static dielectric constant tensor:
#      x y z
#    x 2.993310 0.000000 0.000000 
#    y 0.000000 3.820340 0.000000 
#    z 0.000000 0.000000 3.621740 
# 
# 
# High freq. dielectric constant tensor:
#      x y z
#    x 1.676060 0.000000 0.000000 
#    y 0.000000 1.740520 0.000000 
#    z 0.000000 0.000000 1.727360 
# 
# From -- ./inp_files/26182.got.cif
#   From: 2010.03.12/outbox.cif.g09.slc.cpg/sg59_14_cif.got.tgz:26182.got - 2010.04.16 16:29:54.
