data_PCOD8242689
_publ_section_title
;
Structure prediction by ZEFSAII (Michael W. Deem and Ramdas Pophale) SiO2 
 PCOD8242689
Probable space group: P M M N
;
_chemical_formula_sum "Si O2"
_cell_formula_units_Z 48
_cell_length_a 10.296834
_cell_length_b 18.989857
_cell_length_c 14.667712
_cell_angle_alpha 90.000000
_cell_angle_beta 90.000000
_cell_angle_gamma 90.000000
_cell_volume 2868.057009
_symmetry_space_group_name_H-M "P M M N"
_symmetry_group_IT_number 59
_space_group.IT_coordinate_system_code '2'
_symmetry_cell_setting 'orthorhombic'
loop_
_space_group_symop_operation_xyz
x,y,z
1/2-x,1/2-y,z
1/2+x,-y,-z
-x,1/2+y,-z
-x,-y,-z
1/2+x,1/2+y,-z
1/2-x,y,z
x,1/2-y,z
loop_
_atom_site_type_symbol
_atom_site_label
_atom_site_fract_x
_atom_site_fract_y
_atom_site_fract_z
Si Si1 0.250000 0.443008 0.116728
Si Si2 0.904116 0.473281 0.577644
Si Si3 0.601122 0.326835 0.657822
Si Si4 0.516925 0.526135 0.770432
Si Si5 0.012236 0.629942 0.155326
Si Si6 0.250000 0.601514 0.043375
Si Si7 0.750000 0.890650 0.076529
Si Si8 0.750000 0.048171 0.153017
O O1 0.123131 0.426802 0.177370
O O2 0.250000 0.522741 0.081627
O O3 0.250000 0.389897 0.032551
O O4 0.750000 0.482087 0.553654
O O5 0.941953 0.390815 0.592438
O O6 0.939830 0.519308 0.665820
O O7 0.000000 0.500000 0.500000
O O8 0.750000 0.340522 0.683851
O O9 0.580495 0.250000 0.610079
O O10 0.526036 0.324368 0.753450
O O11 0.514649 0.451085 0.817755
O O12 0.375617 0.561981 0.782859
O O13 0.124427 0.643413 0.080691
O O14 0.875968 0.651305 0.110567
O O15 0.250000 0.601234 0.933232
O O16 0.750000 0.969324 0.115496
#
# Coordination Sequence:
#
# PCOD8242689 Si02
#       8
#     4   8   8   8   8   4   4   4
#     4   9  14  24  37  54  85 124 153 178 214 262
#     4  10  20  33  50  70  94 126 158 199 257 311
#     4   9  17  32  52  70  92 125 163 196 233 290
#     4   9  16  26  39  58  88 121 151 182 229 283
#     4   9  15  25  39  60  88 119 151 183 218 265
#     4   9  14  22  37  58  85 118 156 182 206 251
#     4   9  16  22  35  58  89 122 150 176 216 259
#     4   9  16  22  35  60  87 120 151 184 216 254
#
# _framework density 16.736069000000001
#
# number of rings (size 3 to 8) (size 9 to 14) (size 15 to 20)
#    0.000    2.833    1.667    1.000    1.167    4.000 
#    1.500    0.417    0.000    0.000    0.000    0.000 
#    0.000    8.000    0.000    0.000    0.000    0.000 
#
# Total GULP energy -594834.019954 kJ/mol
# GULP energy per Si atom -12392.375416 kJ/mol
# Density = 1.669798 g / cm^3
# Si number density = 16.736069 Si / 1000 Ang^3
#
#
#
# Elastic Constant Matrix: (Units=GPa)
#
#
# Indices 1 2 3 4 5 6 
#
# 1 140.2668 26.6820 63.7806 0.0000 0.0000 0.0000
# 2 26.6820 45.0873 34.3115 0.0000 0.0000 0.0000
# 3 63.7806 34.3115 102.7015 0.0000 0.0000 0.0000
# 4 0.0000 0.0000 0.0000 11.0046 0.0000 0.0000
# 5 0.0000 0.0000 0.0000 0.0000 35.8007 0.0000
# 6 0.0000 0.0000 0.0000 0.0000 0.0000 7.7399
#
#
#
# Elastic Compliance Matrix: (Units=1/GPa)
#
#
# Indices 1 2 3 4 5 6 
#
# 1 0.010020 -0.001601 -0.005688 0.000000 0.000000 0.000000
# 2 -0.001601 0.029996 -0.009027 0.000000 0.000000 0.000000
# 3 -0.005688 -0.009027 0.016285 0.000000 0.000000 0.000000
# 4 0.000000 0.000000 0.000000 0.090871 0.000000 0.000000
# 5 0.000000 0.000000 0.000000 0.000000 0.027932 0.000000
# 6 0.000000 0.000000 0.000000 0.000000 0.000000 0.129201
#
#
# Mechanical properties :
#
#
# Convention : Reuss Voigt Hill
#
# Bulk Modulus (GPa) = 42.24881 59.73375 50.99128
# Shear Modulus (GPa) = 14.49994 21.79445 18.14719
#
# Velocity S-wave (km/s) = 2.94664 3.61258 3.29647
# Velocity P-wave (km/s) = 6.07255 7.29178 6.70992
#
# Compressibility (1/GPa) = 0.02366931
#
# Stress axis : x y z
#
# Youngs Moduli (GPa) = 99.79837 33.33738 61.40584
#
# Poissons Ratio (x) = 0.05338 0.34927
# Poissons Ratio (y) = 0.15981 0.55431
# Poissons Ratio (z) = 0.56764 0.30094
#
# Static dielectric constant tensor:
#      x y z
#    x 3.470990 0.000000 0.000000 
#    y 0.000000 2.679280 0.000000 
#    z 0.000000 0.000000 3.032540 
# 
# 
# High freq. dielectric constant tensor:
#      x y z
#    x 1.659250 0.000000 0.000000 
#    y 0.000000 1.583480 0.000000 
#    z 0.000000 0.000000 1.628020 
# 
# From -- ./inp_files/16147.got.cif
#   From: 2010.03.12/outbox.cif.g09.slc.cpg/sg59_9_cif.got.tgz:16147.got - 2010.04.16 16:29:54.
