data_PCOD8242234
_publ_section_title
;
Structure prediction by ZEFSAII (Michael W. Deem and Ramdas Pophale) SiO2 
 PCOD8242234
Probable space group: P M M N
;
_chemical_formula_sum "Si O2"
_cell_formula_units_Z 56
_cell_length_a 14.701740
_cell_length_b 19.793970
_cell_length_c 9.927603
_cell_angle_alpha 90.000000
_cell_angle_beta 90.000000
_cell_angle_gamma 90.000000
_cell_volume 2888.990058
_symmetry_space_group_name_H-M "P M M N"
_symmetry_group_IT_number 59
_space_group.IT_coordinate_system_code '2'
_symmetry_cell_setting 'orthorhombic'
loop_
_space_group_symop_operation_xyz
x,y,z
1/2-x,1/2-y,z
1/2+x,-y,-z
-x,1/2+y,-z
-x,-y,-z
1/2+x,1/2+y,-z
1/2-x,y,z
x,1/2-y,z
loop_
_atom_site_type_symbol
_atom_site_label
_atom_site_fract_x
_atom_site_fract_y
_atom_site_fract_z
Si Si1 0.855017 0.991628 0.899990
Si Si2 0.495636 0.924322 0.750590
Si Si3 0.853877 0.541359 0.205359
Si Si4 0.444013 0.671960 0.525460
Si Si5 0.250000 0.824623 0.914163
Si Si6 0.048738 0.325196 0.743496
Si Si7 0.931105 0.129577 0.977054
Si Si8 0.250000 0.670223 0.619429
O O1 0.750000 0.006943 0.864657
O O2 0.901534 0.949504 0.780006
O O3 0.918151 0.057390 0.907315
O O4 0.863480 0.953954 0.043425
O O5 0.503135 0.878040 0.618579
O O6 0.422238 0.985186 0.734057
O O7 0.468800 0.875555 0.872650
O O8 0.750000 0.522630 0.244867
O O9 0.875749 0.616021 0.263221
O O10 0.456394 0.750000 0.572217
O O11 0.474632 0.662054 0.372634
O O12 0.339497 0.647291 0.538495
O O13 0.250000 0.750000 0.860097
O O14 0.250000 0.865051 0.770384
O O15 0.333387 0.837000 0.011967
O O16 0.092942 0.250000 0.727468
O O17 0.996867 0.325720 0.885928
O O18 0.250000 0.750000 0.629174
#
# Coordination Sequence:
#
# PCOD8242234 Si02
#       8
#     8   8   8   8   4   8   8   4
#     4  10  19  36  60  86 119 150 187 243 300 343
#     4  11  20  37  64  86 116 150 196 242 287 344
#     4  10  21  37  62  90 115 154 201 242 291 344
#     4  10  23  38  58  84 119 159 191 237 298 351
#     4  11  20  29  55  91 115 145 193 234 276 353
#     4  11  23  40  57  82 121 158 193 243 296 339
#     4  11  19  35  57  87 114 148 189 238 291 344
#     4   9  18  35  53  81 115 149 191 222 276 355
#
# _framework density 19.383935999999999
#
# number of rings (size 3 to 8) (size 9 to 14) (size 15 to 20)
#    0.000    1.571    5.000    1.286    2.000    2.000 
#    0.000    2.143    0.000    1.286    0.000    0.000 
#    0.000    0.000    0.000    0.000    0.000    0.000 
#
# Total GULP energy -694154.210047 kJ/mol
# GULP energy per Si atom -12395.610894 kJ/mol
# Density = 1.933982 g / cm^3
# Si number density = 19.383936 Si / 1000 Ang^3
#
#
#
# Elastic Constant Matrix: (Units=GPa)
#
#
# Indices 1 2 3 4 5 6 
#
# 1 54.2456 14.4207 7.3450 0.0000 0.0000 0.0000
# 2 14.4207 81.8237 31.7366 0.0000 0.0000 0.0000
# 3 7.3450 31.7366 53.1008 0.0000 0.0000 0.0000
# 4 0.0000 0.0000 0.0000 27.8418 0.0000 0.0000
# 5 0.0000 0.0000 0.0000 0.0000 25.7928 0.0000
# 6 0.0000 0.0000 0.0000 0.0000 0.0000 26.1130
#
#
#
# Elastic Compliance Matrix: (Units=1/GPa)
#
#
# Indices 1 2 3 4 5 6 
#
# 1 0.019369 -0.003091 -0.000832 0.000000 0.000000 0.000000
# 2 -0.003091 0.016403 -0.009376 0.000000 0.000000 0.000000
# 3 -0.000832 -0.009376 0.024551 0.000000 0.000000 0.000000
# 4 0.000000 0.000000 0.000000 0.035917 0.000000 0.000000
# 5 0.000000 0.000000 0.000000 0.000000 0.038770 0.000000
# 6 0.000000 0.000000 0.000000 0.000000 0.000000 0.038295
#
#
# Mechanical properties :
#
#
# Convention : Reuss Voigt Hill
#
# Bulk Modulus (GPa) = 29.65130 32.90830 31.27980
# Shear Modulus (GPa) = 23.68050 24.99405 24.33728
#
# Velocity S-wave (km/s) = 3.49901 3.59475 3.54720
# Velocity P-wave (km/s) = 5.62620 5.85180 5.74011
#
# Compressibility (1/GPa) = 0.03372534
#
# Stress axis : x y z
#
# Youngs Moduli (GPa) = 51.62890 60.96558 40.73194
#
# Poissons Ratio (x) = 0.18844 0.03388
# Poissons Ratio (y) = 0.15958 0.38189
# Poissons Ratio (z) = 0.04294 0.57160
#
# Static dielectric constant tensor:
#      x y z
#    x 3.544510 0.000000 0.000000 
#    y 0.000000 3.588850 0.000000 
#    z 0.000000 0.000000 3.307110 
# 
# 
# High freq. dielectric constant tensor:
#      x y z
#    x 1.746440 0.000000 0.000000 
#    y 0.000000 1.751780 0.000000 
#    z 0.000000 0.000000 1.733340 
# 
# From -- ./inp_files/9416.got.cif
#   From: 2010.03.12/outbox.cif.g09.slc.cpg/sg59_5_cif.got.tgz:9416.got - 2010.04.16 16:29:54.
