data_PCOD8242255
_publ_section_title
;
Structure prediction by ZEFSAII (Michael W. Deem and Ramdas Pophale) SiO2 
 PCOD8242255
Probable space group: P M M N
;
_chemical_formula_sum "Si O2"
_cell_formula_units_Z 36
_cell_length_a 13.776985
_cell_length_b 9.659606
_cell_length_c 15.324967
_cell_angle_alpha 90.000000
_cell_angle_beta 90.000000
_cell_angle_gamma 90.000000
_cell_volume 2039.450393
_symmetry_space_group_name_H-M "P M M N"
_symmetry_group_IT_number 59
_space_group.IT_coordinate_system_code '2'
_symmetry_cell_setting 'orthorhombic'
loop_
_space_group_symop_operation_xyz
x,y,z
1/2-x,1/2-y,z
1/2+x,-y,-z
-x,1/2+y,-z
-x,-y,-z
1/2+x,1/2+y,-z
1/2-x,y,z
x,1/2-y,z
loop_
_atom_site_type_symbol
_atom_site_label
_atom_site_fract_x
_atom_site_fract_y
_atom_site_fract_z
Si Si1 0.634937 0.250000 0.587649
Si Si2 0.484151 0.911146 0.132314
Si Si3 0.138909 0.408057 0.012827
Si Si4 0.364717 0.250000 0.584260
Si Si5 0.998215 0.964198 0.330841
Si Si6 0.501867 0.250000 0.427383
O O1 0.750000 0.250000 0.589243
O O2 0.595241 0.113966 0.636799
O O3 0.597274 0.250000 0.488242
O O4 0.456929 0.750000 0.137111
O O5 0.505520 0.971217 0.227088
O O6 0.393527 0.992398 0.091192
O O7 0.579576 0.939438 0.074980
O O8 0.250000 0.439020 0.990403
O O9 0.122815 0.250000 0.043237
O O10 0.250000 0.250000 0.582363
O O11 0.402704 0.114264 0.634382
O O12 0.404867 0.250000 0.485845
O O13 0.997966 0.118349 0.365759
#
# Coordination Sequence:
#
# PCOD8242255 Si02
#       6
#     4   8   8   4   8   4
#     4  10  20  38  58  79 110 146 186 227 276 328
#     4  10  19  37  57  79 109 145 179 218 271 318
#     4   9  20  36  57  82 108 139 177 222 271 323
#     4  10  20  38  60  81 106 146 190 225 272 330
#     4  10  21  37  56  85 109 146 185 226 274 322
#     4  10  22  36  56  80 116 144 180 230 278 324
#
# _framework density 17.651816
#
# number of rings (size 3 to 8) (size 9 to 14) (size 15 to 20)
#    0.000    2.444    2.222    2.667    1.556    5.778 
#    0.000    0.000    0.000    0.000    0.000    0.000 
#    0.000    0.000    0.000    0.000    0.000    0.000 
#
# Total GULP energy -446459.182152 kJ/mol
# GULP energy per Si atom -12401.643949 kJ/mol
# Density = 1.761164 g / cm^3
# Si number density = 17.651816 Si / 1000 Ang^3
#
#
#
# Elastic Constant Matrix: (Units=GPa)
#
#
# Indices 1 2 3 4 5 6 
#
# 1 148.5350 52.7371 49.2711 0.0000 0.0000 0.0000
# 2 52.7371 124.2653 80.0056 0.0000 0.0000 0.0000
# 3 49.2711 80.0056 149.6980 0.0000 0.0000 0.0000
# 4 0.0000 0.0000 0.0000 29.9250 0.0000 0.0000
# 5 0.0000 0.0000 0.0000 0.0000 9.1727 0.0000
# 6 0.0000 0.0000 0.0000 0.0000 0.0000 18.3638
#
#
#
# Elastic Compliance Matrix: (Units=1/GPa)
#
#
# Indices 1 2 3 4 5 6 
#
# 1 0.008080 -0.002618 -0.001260 0.000000 0.000000 0.000000
# 2 -0.002618 0.013117 -0.006149 0.000000 0.000000 0.000000
# 3 -0.001260 -0.006149 0.010381 0.000000 0.000000 0.000000
# 4 0.000000 0.000000 0.000000 0.033417 0.000000 0.000000
# 5 0.000000 0.000000 0.000000 0.000000 0.109019 0.000000
# 6 0.000000 0.000000 0.000000 0.000000 0.000000 0.054455
#
#
# Mechanical properties :
#
#
# Convention : Reuss Voigt Hill
#
# Bulk Modulus (GPa) = 86.77190 87.39178 87.08184
# Shear Modulus (GPa) = 19.81265 27.52461 23.66863
#
# Velocity S-wave (km/s) = 3.35388 3.95309 3.66575
# Velocity P-wave (km/s) = 8.01637 8.39357 8.20714
#
# Compressibility (1/GPa) = 0.01152447
#
# Stress axis : x y z
#
# Youngs Moduli (GPa) = 123.76433 76.23761 96.32832
#
# Poissons Ratio (x) = 0.19955 0.12142
# Poissons Ratio (y) = 0.32395 0.59230
# Poissons Ratio (z) = 0.15600 0.46877
#
# Static dielectric constant tensor:
#      x y z
#    x 3.152280 0.000000 0.000000 
#    y 0.000000 3.350750 0.000000 
#    z 0.000000 0.000000 3.302930 
# 
# 
# High freq. dielectric constant tensor:
#      x y z
#    x 1.671640 0.000000 0.000000 
#    y 0.000000 1.690010 0.000000 
#    z 0.000000 0.000000 1.687530 
# 
# From -- ./inp_files/22933.got.cif
#   From: 2010.03.12/outbox.cif.g09.slc.cpg/sg59_12_cif.got.tgz:22933.got - 2010.04.16 16:29:54.
