data_PCOD8242308
_publ_section_title
;
Structure prediction by ZEFSAII (Michael W. Deem and Ramdas Pophale) SiO2 
 PCOD8242308
Probable space group: P M M N
;
_chemical_formula_sum "Si O2"
_cell_formula_units_Z 64
_cell_length_a 19.065869
_cell_length_b 9.405938
_cell_length_c 18.785414
_cell_angle_alpha 90.000000
_cell_angle_beta 90.000000
_cell_angle_gamma 90.000000
_cell_volume 3368.833034
_symmetry_space_group_name_H-M "P M M N"
_symmetry_group_IT_number 59
_space_group.IT_coordinate_system_code '2'
_symmetry_cell_setting 'orthorhombic'
loop_
_space_group_symop_operation_xyz
x,y,z
1/2-x,1/2-y,z
1/2+x,-y,-z
-x,1/2+y,-z
-x,-y,-z
1/2+x,1/2+y,-z
1/2-x,y,z
x,1/2-y,z
loop_
_atom_site_type_symbol
_atom_site_label
_atom_site_fract_x
_atom_site_fract_y
_atom_site_fract_z
Si Si1 0.828570 0.403264 0.357360
Si Si2 0.170966 0.089725 0.516887
Si Si3 0.962681 0.585518 0.563284
Si Si4 0.429417 0.918290 0.142405
Si Si5 0.022595 0.906691 0.296162
Si Si6 0.868030 0.906555 0.237132
Si Si7 0.579353 0.918522 0.090075
Si Si8 0.831737 0.918178 0.955369
O O1 0.750000 0.378508 0.383291
O O2 0.867233 0.250000 0.350550
O O3 0.864134 0.496586 0.419487
O O4 0.823696 0.481750 0.281989
O O5 0.250000 0.043766 0.495308
O O6 0.171012 0.250000 0.546660
O O7 0.121305 0.075224 0.448579
O O8 0.987709 0.750000 0.562028
O O9 0.974656 0.520820 0.641005
O O10 0.000000 0.500000 0.500000
O O11 0.420184 0.750000 0.131283
O O12 0.433315 0.955073 0.226608
O O13 0.499155 0.974070 0.099594
O O14 0.361239 0.001165 0.113774
O O15 0.048139 0.750000 0.322460
O O16 0.943561 0.893921 0.271758
O O17 0.832197 0.750000 0.237762
O O18 0.873806 0.967408 0.157267
O O19 0.575898 0.750000 0.090863
O O20 0.619828 0.974808 0.020547
O O21 0.750000 0.957887 0.967606
O O22 0.840114 0.750000 0.944958
#
# Coordination Sequence:
#
# PCOD8242308 Si02
#       8
#     8   8   8   8   8   8   8   8
#     4  10  20  31  44  67  99 131 163 202 248 297
#     4   9  19  36  53  68  91 128 172 209 243 293
#     4  11  22  34  53  80 107 135 167 209 259 306
#     4   9  18  35  57  76  99 135 175 213 253 303
#     4   9  19  35  53  75 102 129 164 211 256 301
#     4   9  17  31  51  72  95 128 168 205 243 294
#     4   8  16  32  53  76 101 132 172 213 252 298
#     4  10  20  33  51  78 109 136 167 213 262 305
#
# _framework density 18.997675999999998
#
# number of rings (size 3 to 8) (size 9 to 14) (size 15 to 20)
#    0.000    2.625    0.000    3.375    0.000    6.500 
#    0.000    4.375    0.000    2.250    0.000    0.000 
#    0.000    0.000    0.000    0.000    0.000    0.000 
#
# Total GULP energy -793084.659644 kJ/mol
# GULP energy per Si atom -12391.947807 kJ/mol
# Density = 1.895444 g / cm^3
# Si number density = 18.997676 Si / 1000 Ang^3
#
#
#
# Elastic Constant Matrix: (Units=GPa)
#
#
# Indices 1 2 3 4 5 6 
#
# 1 59.6453 28.3421 38.8451 0.0000 0.0000 0.0000
# 2 28.3421 87.3190 51.9884 0.0000 0.0000 0.0000
# 3 38.8451 51.9884 115.1923 0.0000 0.0000 0.0000
# 4 0.0000 0.0000 0.0000 4.0393 0.0000 0.0000
# 5 0.0000 0.0000 0.0000 0.0000 25.2587 0.0000
# 6 0.0000 0.0000 0.0000 0.0000 0.0000 20.5529
#
#
#
# Elastic Compliance Matrix: (Units=1/GPa)
#
#
# Indices 1 2 3 4 5 6 
#
# 1 0.022363 -0.003786 -0.005833 0.000000 0.000000 0.000000
# 2 -0.003786 0.016301 -0.006080 0.000000 0.000000 0.000000
# 3 -0.005833 -0.006080 0.013392 0.000000 0.000000 0.000000
# 4 0.000000 0.000000 0.000000 0.247569 0.000000 0.000000
# 5 0.000000 0.000000 0.000000 0.000000 0.039590 0.000000
# 6 0.000000 0.000000 0.000000 0.000000 0.000000 0.048655
#
#
# Mechanical properties :
#
#
# Convention : Reuss Voigt Hill
#
# Bulk Modulus (GPa) = 48.40552 55.61196 52.00874
# Shear Modulus (GPa) = 11.73281 19.50223 15.61752
#
# Velocity S-wave (km/s) = 2.48784 3.20747 2.87030
# Velocity P-wave (km/s) = 5.81270 6.56154 6.19844
#
# Compressibility (1/GPa) = 0.02065880
#
# Stress axis : x y z
#
# Youngs Moduli (GPa) = 44.71576 61.34481 74.67031
#
# Poissons Ratio (x) = 0.23226 0.43553
# Poissons Ratio (y) = 0.16930 0.45402
# Poissons Ratio (z) = 0.26081 0.37300
#
# Static dielectric constant tensor:
#      x y z
#    x 3.438190 0.000000 0.000000 
#    y 0.000000 3.732030 0.000000 
#    z 0.000000 0.000000 3.663940 
# 
# 
# High freq. dielectric constant tensor:
#      x y z
#    x 1.727330 0.000000 0.000000 
#    y 0.000000 1.726230 0.000000 
#    z 0.000000 0.000000 1.732120 
# 
# From -- ./inp_files/28236.got.cif
#   From: 2010.03.12/outbox.cif.g09.slc.cpg/sg59_15_cif.got.tgz:28236.got - 2010.04.16 16:29:54.
