data_PCOD8242911
_publ_section_title
;
Structure prediction by ZEFSAII (Michael W. Deem and Ramdas Pophale) SiO2 
 PCOD8242911
Probable space group: P M M N
;
_chemical_formula_sum "Si O2"
_cell_formula_units_Z 64
_cell_length_a 19.596977
_cell_length_b 8.874998
_cell_length_c 20.196156
_cell_angle_alpha 90.000000
_cell_angle_beta 90.000000
_cell_angle_gamma 90.000000
_cell_volume 3512.578699
_symmetry_space_group_name_H-M "P M M N"
_symmetry_group_IT_number 59
_space_group.IT_coordinate_system_code '2'
_symmetry_cell_setting 'orthorhombic'
loop_
_space_group_symop_operation_xyz
x,y,z
1/2-x,1/2-y,z
1/2+x,-y,-z
-x,1/2+y,-z
-x,-y,-z
1/2+x,1/2+y,-z
1/2-x,y,z
x,1/2-y,z
loop_
_atom_site_type_symbol
_atom_site_label
_atom_site_fract_x
_atom_site_fract_y
_atom_site_fract_z
Si Si1 0.063553 0.073216 0.228184
Si Si2 0.095373 0.924068 0.954282
Si Si3 0.828472 0.923139 0.151190
Si Si4 0.089380 0.925299 0.734044
Si Si5 0.172824 0.429975 0.618552
Si Si6 0.326631 0.069845 0.333726
Si Si7 0.459455 0.574797 0.093740
Si Si8 0.330568 0.414008 0.475815
O O1 0.071609 0.250000 0.213497
O O2 0.121024 0.012167 0.278425
O O3 0.990376 0.036550 0.260049
O O4 0.075963 0.982312 0.160507
O O5 0.105904 0.750000 0.937106
O O6 0.157871 0.019304 0.923678
O O7 0.092970 0.951530 0.033074
O O8 0.026481 0.977208 0.918614
O O9 0.750000 0.945662 0.169504
O O10 0.850109 0.750000 0.157978
O O11 0.873778 0.022226 0.199647
O O12 0.102640 0.750000 0.724174
O O13 0.119059 0.010911 0.671113
O O14 0.250000 0.482836 0.636802
O O15 0.170614 0.250000 0.617273
O O16 0.150613 0.495597 0.545613
O O17 0.250000 0.014927 0.315454
O O18 0.328130 0.250000 0.338619
O O19 0.349953 0.003142 0.406308
O O20 0.479758 0.750000 0.099133
O O21 0.250000 0.391268 0.475418
O O22 0.366292 0.250000 0.476169
#
# Coordination Sequence:
#
# PCOD8242911 Si02
#       8
#     8   8   8   8   8   8   8   8
#     4  10  20  33  51  77 106 135 170 213 258 308
#     4  10  20  35  55  79 102 130 171 214 258 304
#     4  11  23  37  54  77 105 139 179 220 258 302
#     4  11  22  33  46  70 105 142 175 210 257 310
#     4   9  17  30  49  72  97 129 173 221 261 301
#     4   8  14  28  52  78 100 126 166 216 265 310
#     4  10  20  34  55  78 102 134 170 208 250 302
#     4   7  11  23  46  73  96 122 164 215 261 305
#
# _framework density 18.220233
#
# number of rings (size 3 to 8) (size 9 to 14) (size 15 to 20)
#    0.000    2.500    1.250    3.375    0.000    4.750 
#    0.000    1.250    0.000    3.375    0.000    1.750 
#    0.000    0.000    0.000    0.000    0.000    0.000 
#
# Total GULP energy -793183.611895 kJ/mol
# GULP energy per Si atom -12393.493936 kJ/mol
# Density = 1.817876 g / cm^3
# Si number density = 18.220233 Si / 1000 Ang^3
#
#
#
# Elastic Constant Matrix: (Units=GPa)
#
#
# Indices 1 2 3 4 5 6 
#
# 1 75.7069 21.2407 55.7977 0.0000 0.0000 0.0000
# 2 21.2407 25.5555 27.4625 0.0000 0.0000 0.0000
# 3 55.7977 27.4625 148.0263 0.0000 0.0000 0.0000
# 4 0.0000 0.0000 0.0000 19.8366 0.0000 0.0000
# 5 0.0000 0.0000 0.0000 0.0000 29.8863 0.0000
# 6 0.0000 0.0000 0.0000 0.0000 0.0000 19.5064
#
#
#
# Elastic Compliance Matrix: (Units=1/GPa)
#
#
# Indices 1 2 3 4 5 6 
#
# 1 0.020459 -0.010888 -0.005692 0.000000 0.000000 0.000000
# 2 -0.010888 0.054669 -0.006038 0.000000 0.000000 0.000000
# 3 -0.005692 -0.006038 0.010021 0.000000 0.000000 0.000000
# 4 0.000000 0.000000 0.000000 0.050412 0.000000 0.000000
# 5 0.000000 0.000000 0.000000 0.000000 0.033460 0.000000
# 6 0.000000 0.000000 0.000000 0.000000 0.000000 0.051265
#
#
# Mechanical properties :
#
#
# Convention : Reuss Voigt Hill
#
# Bulk Modulus (GPa) = 25.05447 50.92116 37.98781
# Shear Modulus (GPa) = 17.93231 23.49837 20.71534
#
# Velocity S-wave (km/s) = 3.14060 3.59512 3.37551
# Velocity P-wave (km/s) = 5.18959 6.72617 6.00722
#
# Compressibility (1/GPa) = 0.03991304
#
# Stress axis : x y z
#
# Youngs Moduli (GPa) = 48.87937 18.29190 99.78739
#
# Poissons Ratio (x) = 0.19916 0.56797
# Poissons Ratio (y) = 0.53219 0.60255
# Poissons Ratio (z) = 0.27821 0.11045
#
# Static dielectric constant tensor:
#      x y z
#    x 3.195660 0.000000 0.000000 
#    y 0.000000 3.123180 0.000000 
#    z 0.000000 0.000000 3.828090 
# 
# 
# High freq. dielectric constant tensor:
#      x y z
#    x 1.677080 0.000000 0.000000 
#    y 0.000000 1.681940 0.000000 
#    z 0.000000 0.000000 1.725150 
# 
# From -- ./inp_files/28262.got.cif
#   From: 2010.03.12/outbox.cif.g09.slc.cpg/sg59_15_cif.got.tgz:28262.got - 2010.04.16 16:29:54.
