data_PCOD8242653
_publ_section_title
;
Structure prediction by ZEFSAII (Michael W. Deem and Ramdas Pophale) SiO2 
 PCOD8242653
Probable space group: P M M N
;
_chemical_formula_sum "Si O2"
_cell_formula_units_Z 64
_cell_length_a 28.188519
_cell_length_b 9.188033
_cell_length_c 13.899930
_cell_angle_alpha 90.000000
_cell_angle_beta 90.000000
_cell_angle_gamma 90.000000
_cell_volume 3600.040765
_symmetry_space_group_name_H-M "P M M N"
_symmetry_group_IT_number 59
_space_group.IT_coordinate_system_code '2'
_symmetry_cell_setting 'orthorhombic'
loop_
_space_group_symop_operation_xyz
x,y,z
1/2-x,1/2-y,z
1/2+x,-y,-z
-x,1/2+y,-z
-x,-y,-z
1/2+x,1/2+y,-z
1/2-x,y,z
x,1/2-y,z
loop_
_atom_site_type_symbol
_atom_site_label
_atom_site_fract_x
_atom_site_fract_y
_atom_site_fract_z
Si Si1 0.306210 0.412264 0.878270
Si Si2 0.519796 0.080322 0.297334
Si Si3 0.607241 0.421301 0.421129
Si Si4 0.606522 0.417188 0.821395
Si Si5 0.303664 0.578442 0.689590
Si Si6 0.520037 0.921738 0.906366
Si Si7 0.696533 0.417898 0.936550
Si Si8 0.067132 0.920248 0.380835
O O1 0.250000 0.407403 0.880992
O O2 0.327810 0.250000 0.874221
O O3 0.322641 0.501617 0.785582
O O4 0.324292 0.491963 0.973933
O O5 0.510071 0.250000 0.312743
O O6 0.571851 0.033878 0.334320
O O7 0.513870 0.039814 0.184706
O O8 0.482914 0.996515 0.364446
O O9 0.607211 0.250000 0.433363
O O10 0.660673 0.472475 0.395025
O O11 0.591291 0.488373 0.523461
O O12 0.592296 0.250000 0.843031
O O13 0.572673 0.519822 0.884534
O O14 0.661407 0.447200 0.847528
O O15 0.601964 0.452595 0.708552
O O16 0.250000 0.531094 0.662016
O O17 0.306469 0.750000 0.708196
O O18 0.522423 0.750000 0.925220
O O19 0.500000 0.000000 0.000000
O O20 0.750000 0.466400 0.907233
O O21 0.696402 0.250000 0.967735
O O22 0.057013 0.750000 0.392872
#
# Coordination Sequence:
#
# PCOD8242653 Si02
#       8
#     8   8   8   8   8   8   8   8
#     4   9  17  29  45  66  92 120 152 194 238 272
#     4   9  18  32  49  69  93 121 153 190 232 276
#     4   9  17  30  49  71  93 119 154 194 232 271
#     4   9  18  32  49  69  95 126 156 191 237 282
#     4   9  17  30  47  67  94 128 160 187 224 280
#     4  10  20  33  49  70  97 128 159 191 233 286
#     4   9  17  30  48  69  93 124 161 194 227 276
#     4   9  17  31  50  70  93 120 151 191 237 277
#
# _framework density 17.777577000000001
#
# number of rings (size 3 to 8) (size 9 to 14) (size 15 to 20)
#    0.000    2.875    0.000    1.125    0.000    3.500 
#    0.000    4.375    0.000    3.750    0.000    0.000 
#    0.000    5.000    0.000    0.000    0.000    0.000 
#
# Total GULP energy -793378.709269 kJ/mol
# GULP energy per Si atom -12396.542332 kJ/mol
# Density = 1.773711 g / cm^3
# Si number density = 17.777577 Si / 1000 Ang^3
#
#
#
# Elastic Constant Matrix: (Units=GPa)
#
#
# Indices 1 2 3 4 5 6 
#
# 1 109.9250 33.8505 70.3519 0.0000 0.0000 0.0000
# 2 33.8505 51.2321 36.1396 0.0000 0.0000 0.0000
# 3 70.3519 36.1396 118.1681 0.0000 0.0000 0.0000
# 4 0.0000 0.0000 0.0000 16.9180 0.0000 0.0000
# 5 0.0000 0.0000 0.0000 0.0000 28.2835 0.0000
# 6 0.0000 0.0000 0.0000 0.0000 0.0000 20.1943
#
#
#
# Elastic Compliance Matrix: (Units=1/GPa)
#
#
# Indices 1 2 3 4 5 6 
#
# 1 0.015563 -0.004778 -0.007804 0.000000 0.000000 0.000000
# 2 -0.004778 0.026355 -0.005216 0.000000 0.000000 0.000000
# 3 -0.007804 -0.005216 0.014704 0.000000 0.000000 0.000000
# 4 0.000000 0.000000 0.000000 0.059109 0.000000 0.000000
# 5 0.000000 0.000000 0.000000 0.000000 0.035356 0.000000
# 6 0.000000 0.000000 0.000000 0.000000 0.000000 0.049519
#
#
# Mechanical properties :
#
#
# Convention : Reuss Voigt Hill
#
# Bulk Modulus (GPa) = 47.55918 62.22325 54.89122
# Shear Modulus (GPa) = 20.55830 22.34471 21.45151
#
# Velocity S-wave (km/s) = 3.40430 3.54913 3.47747
# Velocity P-wave (km/s) = 6.50098 7.20223 6.86057
#
# Compressibility (1/GPa) = 0.02102643
#
# Stress axis : x y z
#
# Youngs Moduli (GPa) = 64.25413 37.94341 68.00832
#
# Poissons Ratio (x) = 0.18128 0.53077
# Poissons Ratio (y) = 0.30699 0.35472
# Poissons Ratio (z) = 0.50147 0.19790
#
# Static dielectric constant tensor:
#      x y z
#    x 3.327900 0.000000 0.000000 
#    y 0.000000 3.263350 0.000000 
#    z 0.000000 0.000000 3.437800 
# 
# 
# High freq. dielectric constant tensor:
#      x y z
#    x 1.677220 0.000000 0.000000 
#    y 0.000000 1.674210 0.000000 
#    z 0.000000 0.000000 1.685620 
# 
# From -- ./inp_files/25051.got.cif
#   From: 2010.03.12/outbox.cif.g09.slc.cpg/sg59_13_cif.got.tgz:25051.got - 2010.04.16 16:29:54.
