data_PCOD8242639
_publ_section_title
;
Structure prediction by ZEFSAII (Michael W. Deem and Ramdas Pophale) SiO2 
 PCOD8242639
Probable space group: P M M N
;
_chemical_formula_sum "Si O2"
_cell_formula_units_Z 64
_cell_length_a 13.714579
_cell_length_b 9.207721
_cell_length_c 28.914178
_cell_angle_alpha 90.000000
_cell_angle_beta 90.000000
_cell_angle_gamma 90.000000
_cell_volume 3651.282891
_symmetry_space_group_name_H-M "P M M N"
_symmetry_group_IT_number 59
_space_group.IT_coordinate_system_code '2'
_symmetry_cell_setting 'orthorhombic'
loop_
_space_group_symop_operation_xyz
x,y,z
1/2-x,1/2-y,z
1/2+x,-y,-z
-x,1/2+y,-z
-x,-y,-z
1/2+x,1/2+y,-z
1/2-x,y,z
x,1/2-y,z
loop_
_atom_site_type_symbol
_atom_site_label
_atom_site_fract_x
_atom_site_fract_y
_atom_site_fract_z
Si Si1 0.359778 0.416080 0.603980
Si Si2 0.142196 0.421908 0.155863
Si Si3 0.865212 0.587105 0.573690
Si Si4 0.953175 0.081896 0.657701
Si Si5 0.863658 0.581379 0.740148
Si Si6 0.639409 0.580308 0.020980
Si Si7 0.477825 0.420336 0.069988
Si Si8 0.366277 0.585783 0.514097
O O1 0.250000 0.460394 0.619074
O O2 0.361796 0.250000 0.586472
O O3 0.431545 0.438325 0.647438
O O4 0.400118 0.515683 0.562464
O O5 0.250000 0.487688 0.146703
O O6 0.149661 0.250000 0.150788
O O7 0.107429 0.462203 0.207501
O O8 0.066639 0.482423 0.117897
O O9 0.750000 0.594304 0.568737
O O10 0.908641 0.750000 0.576446
O O11 0.889146 0.499250 0.619686
O O12 0.910420 0.506351 0.528713
O O13 0.922953 0.250000 0.657284
O O14 0.931477 0.015271 0.707619
O O15 0.750000 0.548310 0.730948
O O16 0.885394 0.750000 0.730552
O O17 0.750000 0.525291 0.022918
O O18 0.631429 0.750000 0.030699
O O19 0.580243 0.498841 0.061140
O O20 0.597835 0.540742 0.970609
O O21 0.497948 0.250000 0.072812
O O22 0.250000 0.582205 0.511723
O O23 0.405689 0.750000 0.510928
#
# Coordination Sequence:
#
# PCOD8242639 Si02
#       8
#     8   8   8   8   8   8   8   8
#     4   9  19  36  53  67  87 117 152 187 224 269
#     4   8  14  27  49  73  94 120 156 194 231 275
#     4  10  20  33  49  69  96 129 156 178 214 269
#     4  11  22  33  49  72  94 119 151 189 231 272
#     4   9  18  33  52  73  97 123 149 182 230 285
#     4   9  17  28  42  64  98 135 165 197 241 288
#     4   9  16  27  46  70  93 123 166 208 239 274
#     4   9  17  30  49  72  95 118 148 187 225 261
#
# _framework density 17.528085999999998
#
# number of rings (size 3 to 8) (size 9 to 14) (size 15 to 20)
#    0.000    2.750    0.000    2.625    0.000    7.250 
#    0.000    0.625    0.000    2.625    0.000    3.500 
#    0.000    0.000    0.000    0.000    0.000    0.000 
#
# Total GULP energy -793590.272595 kJ/mol
# GULP energy per Si atom -12399.848009 kJ/mol
# Density = 1.748819 g / cm^3
# Si number density = 17.528086 Si / 1000 Ang^3
#
#
#
# Elastic Constant Matrix: (Units=GPa)
#
#
# Indices 1 2 3 4 5 6 
#
# 1 83.5470 42.2496 58.7184 0.0000 0.0000 0.0000
# 2 42.2496 86.5489 56.9388 0.0000 0.0000 0.0000
# 3 58.7184 56.9388 130.9599 0.0000 0.0000 0.0000
# 4 0.0000 0.0000 0.0000 26.6776 0.0000 0.0000
# 5 0.0000 0.0000 0.0000 0.0000 29.5563 0.0000
# 6 0.0000 0.0000 0.0000 0.0000 0.0000 22.4755
#
#
#
# Elastic Compliance Matrix: (Units=1/GPa)
#
#
# Indices 1 2 3 4 5 6 
#
# 1 0.018977 -0.005135 -0.006276 0.000000 0.000000 0.000000
# 2 -0.005135 0.017572 -0.005338 0.000000 0.000000 0.000000
# 3 -0.006276 -0.005338 0.012771 0.000000 0.000000 0.000000
# 4 0.000000 0.000000 0.000000 0.037485 0.000000 0.000000
# 5 0.000000 0.000000 0.000000 0.000000 0.033834 0.000000
# 6 0.000000 0.000000 0.000000 0.000000 0.000000 0.044493
#
#
# Mechanical properties :
#
#
# Convention : Reuss Voigt Hill
#
# Bulk Modulus (GPa) = 63.20117 68.54103 65.87110
# Shear Modulus (GPa) = 24.52141 25.28513 24.90327
#
# Velocity S-wave (km/s) = 3.74435 3.80221 3.77339
# Velocity P-wave (km/s) = 7.40465 7.64619 7.52639
#
# Compressibility (1/GPa) = 0.01582249
#
# Stress axis : x y z
#
# Youngs Moduli (GPa) = 52.69531 56.90728 78.30378
#
# Poissons Ratio (x) = 0.29221 0.49145
# Poissons Ratio (y) = 0.27058 0.41797
# Poissons Ratio (z) = 0.33073 0.30376
#
# Static dielectric constant tensor:
#      x y z
#    x 3.259040 0.000000 0.000000 
#    y 0.000000 3.232090 0.000000 
#    z 0.000000 0.000000 3.240080 
# 
# 
# High freq. dielectric constant tensor:
#      x y z
#    x 1.672630 0.000000 0.000000 
#    y 0.000000 1.669390 0.000000 
#    z 0.000000 0.000000 1.661940 
# 
# From -- ./inp_files/33246.got.cif
#   From: 2010.03.12/outbox.cif.g09.slc.cpg/sg59_17_cif.got.tgz:33246.got - 2010.04.16 16:29:54.
