data_PCOD8242324
_publ_section_title
;
Structure prediction by ZEFSAII (Michael W. Deem and Ramdas Pophale) SiO2 
 PCOD8242324
Probable space group: P M M N
;
_chemical_formula_sum "Si O2"
_cell_formula_units_Z 64
_cell_length_a 23.033855
_cell_length_b 9.539617
_cell_length_c 17.737507
_cell_angle_alpha 90.000000
_cell_angle_beta 90.000000
_cell_angle_gamma 90.000000
_cell_volume 3897.536108
_symmetry_space_group_name_H-M "P M M N"
_symmetry_group_IT_number 59
_space_group.IT_coordinate_system_code '2'
_symmetry_cell_setting 'orthorhombic'
loop_
_space_group_symop_operation_xyz
x,y,z
1/2-x,1/2-y,z
1/2+x,-y,-z
-x,1/2+y,-z
-x,-y,-z
1/2+x,1/2+y,-z
1/2-x,y,z
x,1/2-y,z
loop_
_atom_site_type_symbol
_atom_site_label
_atom_site_fract_x
_atom_site_fract_y
_atom_site_fract_z
Si Si1 0.493260 0.410615 0.074926
Si Si2 0.626690 0.911094 0.852172
Si Si3 0.118178 0.589103 0.872780
Si Si4 0.181154 0.092465 0.585833
Si Si5 0.182581 0.586497 0.724221
Si Si6 0.684329 0.589583 0.008504
Si Si7 0.181769 0.586107 0.279640
Si Si8 0.181082 0.407004 0.419518
O O1 0.485398 0.250000 0.048955
O O2 0.437426 0.458743 0.122255
O O3 0.548769 0.428707 0.129434
O O4 0.500000 0.500000 0.000000
O O5 0.627134 0.750000 0.823613
O O6 0.671242 0.930375 0.920648
O O7 0.646308 0.014201 0.786750
O O8 0.136698 0.750000 0.884106
O O9 0.145867 0.531376 0.795546
O O10 0.141420 0.504866 0.943820
O O11 0.250000 0.082882 0.585739
O O12 0.160746 0.250000 0.604512
O O13 0.157890 0.048221 0.502717
O O14 0.156868 0.990011 0.650366
O O15 0.250000 0.549854 0.738854
O O16 0.173260 0.750000 0.710646
O O17 0.750000 0.541742 0.023847
O O18 0.674429 0.750000 0.032617
O O19 0.250000 0.558220 0.267692
O O20 0.167367 0.750000 0.281619
O O21 0.159193 0.518134 0.357823
O O22 0.250000 0.405664 0.421502
O O23 0.158813 0.250000 0.399452
#
# Coordination Sequence:
#
# PCOD8242324 Si02
#       8
#     8   8   8   8   8   8   8   8
#     4  10  20  35  54  71  88 116 158 204 243 281
#     4  10  20  34  50  67  90 123 159 194 237 283
#     4  10  20  33  49  69  93 122 156 196 240 282
#     4   8  14  25  42  65  92 123 158 189 219 264
#     4   9  17  28  42  64  96 128 153 181 225 279
#     4  10  20  32  47  68  93 122 156 191 230 281
#     4  10  20  31  45  70 100 126 155 191 231 278
#     4   8  14  26  44  65  92 126 157 185 223 272
#
# _framework density 16.420629999999999
#
# number of rings (size 3 to 8) (size 9 to 14) (size 15 to 20)
#    0.000    2.625    1.250    1.875    0.000    4.000 
#    0.000    3.750    0.000    0.000    0.000    0.875 
#    0.000    0.000    0.000    0.000    0.000    0.000 
#
# Total GULP energy -793478.705122 kJ/mol
# GULP energy per Si atom -12398.104768 kJ/mol
# Density = 1.638326 g / cm^3
# Si number density = 16.420630 Si / 1000 Ang^3
#
#
#
# Elastic Constant Matrix: (Units=GPa)
#
#
# Indices 1 2 3 4 5 6 
#
# 1 57.8885 28.5979 31.8070 0.0000 0.0000 0.0000
# 2 28.5979 75.1480 62.0026 0.0000 0.0000 0.0000
# 3 31.8070 62.0026 116.6345 0.0000 0.0000 0.0000
# 4 0.0000 0.0000 0.0000 33.1402 0.0000 0.0000
# 5 0.0000 0.0000 0.0000 0.0000 8.2789 0.0000
# 6 0.0000 0.0000 0.0000 0.0000 0.0000 18.1360
#
#
#
# Elastic Compliance Matrix: (Units=1/GPa)
#
#
# Indices 1 2 3 4 5 6 
#
# 1 0.021751 -0.006027 -0.002728 0.000000 0.000000 0.000000
# 2 -0.006027 0.025374 -0.011845 0.000000 0.000000 0.000000
# 3 -0.002728 -0.011845 0.015614 0.000000 0.000000 0.000000
# 4 0.000000 0.000000 0.000000 0.030175 0.000000 0.000000
# 5 0.000000 0.000000 0.000000 0.000000 0.120790 0.000000
# 6 0.000000 0.000000 0.000000 0.000000 0.000000 0.055139
#
#
# Mechanical properties :
#
#
# Convention : Reuss Voigt Hill
#
# Bulk Modulus (GPa) = 46.42584 54.94289 50.68436
# Shear Modulus (GPa) = 15.76188 20.39524 18.07856
#
# Velocity S-wave (km/s) = 3.10156 3.52810 3.32168
# Velocity P-wave (km/s) = 6.41564 7.08018 6.75609
#
# Compressibility (1/GPa) = 0.02153973
#
# Stress axis : x y z
#
# Youngs Moduli (GPa) = 45.97557 39.41116 64.04328
#
# Poissons Ratio (x) = 0.23752 0.17470
# Poissons Ratio (y) = 0.27708 0.75859
# Poissons Ratio (z) = 0.12541 0.46682
#
# Static dielectric constant tensor:
#      x y z
#    x 2.957750 0.000000 0.000000 
#    y 0.000000 3.141680 0.000000 
#    z 0.000000 0.000000 3.289570 
# 
# 
# High freq. dielectric constant tensor:
#      x y z
#    x 1.597100 0.000000 0.000000 
#    y 0.000000 1.633220 0.000000 
#    z 0.000000 0.000000 1.634580 
# 
# From -- ./inp_files/28407.got.cif
#   From: 2010.03.12/outbox.cif.g09.slc.cpg/sg59_15_cif.got.tgz:28407.got - 2010.04.16 16:29:54.
