data_PCOD8242550
_publ_section_title
;
Structure prediction by ZEFSAII (Michael W. Deem and Ramdas Pophale) SiO2 
 PCOD8242550
Probable space group: P M M N
;
_chemical_formula_sum "Si O2"
_cell_formula_units_Z 56
_cell_length_a 9.123535
_cell_length_b 19.181697
_cell_length_c 16.148700
_cell_angle_alpha 90.000000
_cell_angle_beta 90.000000
_cell_angle_gamma 90.000000
_cell_volume 2826.101369
_symmetry_space_group_name_H-M "P M M N"
_symmetry_group_IT_number 59
_space_group.IT_coordinate_system_code '2'
_symmetry_cell_setting 'orthorhombic'
loop_
_space_group_symop_operation_xyz
x,y,z
1/2-x,1/2-y,z
1/2+x,-y,-z
-x,1/2+y,-z
-x,-y,-z
1/2+x,1/2+y,-z
1/2-x,y,z
x,1/2-y,z
loop_
_atom_site_type_symbol
_atom_site_label
_atom_site_fract_x
_atom_site_fract_y
_atom_site_fract_z
Si Si1 0.919751 0.331010 0.165756
Si Si2 0.919932 0.461458 0.425481
Si Si3 0.420322 0.169219 0.681753
Si Si4 0.583238 0.327929 0.519790
Si Si5 0.419657 0.449222 0.258308
Si Si6 0.419016 0.589414 0.174963
Si Si7 0.923629 0.172828 0.981016
O O1 0.750000 0.352336 0.174753
O O2 0.941650 0.250000 0.187949
O O3 0.013348 0.376290 0.229478
O O4 0.979936 0.346366 0.072956
O O5 0.750000 0.484505 0.421294
O O6 0.934737 0.378281 0.441061
O O7 0.000000 0.500000 0.500000
O O8 0.997841 0.478708 0.339071
O O9 0.250000 0.153513 0.679543
O O10 0.457821 0.250000 0.693590
O O11 0.486198 0.142520 0.595104
O O12 0.488348 0.128418 0.757013
O O13 0.750000 0.327854 0.551627
O O14 0.533651 0.250000 0.493139
O O15 0.250000 0.438266 0.280703
O O16 0.439639 0.506383 0.185198
O O17 0.250000 0.611029 0.186233
O O18 0.476844 0.614636 0.084772
O O19 0.750000 0.175915 0.986031
O O20 0.982247 0.250000 0.955159
#
# Coordination Sequence:
#
# PCOD8242550 Si02
#       7
#     8   8   8   8   8   8   8
#     4   9  19  38  62  84 107 140 185 232 277 329
#     4  11  23  39  59  81 108 144 185 230 278 330
#     4  10  20  32  49  78 113 144 176 219 272 325
#     4   9  19  36  56  76  98 130 176 225 270 320
#     4  11  24  38  54  82 115 146 182 225 276 331
#     4  10  20  34  53  78 110 148 188 223 260 319
#     4   8  15  31  57  84 107 139 185 229 266 312
#
# _framework density 19.815283999999998
#
# number of rings (size 3 to 8) (size 9 to 14) (size 15 to 20)
#    0.000    2.286    0.000    3.429    0.000    8.571 
#    0.000    2.143    0.000    0.857    0.000    0.000 
#    0.000    0.000    0.000    0.000    0.000    0.000 
#
# Total GULP energy -694388.876135 kJ/mol
# GULP energy per Si atom -12399.801360 kJ/mol
# Density = 1.977018 g / cm^3
# Si number density = 19.815284 Si / 1000 Ang^3
#
#
#
# Elastic Constant Matrix: (Units=GPa)
#
#
# Indices 1 2 3 4 5 6 
#
# 1 81.6137 43.9445 33.4774 0.0000 0.0000 0.0000
# 2 43.9445 69.1367 49.8364 0.0000 0.0000 0.0000
# 3 33.4774 49.8364 90.7568 0.0000 0.0000 0.0000
# 4 0.0000 0.0000 0.0000 37.3074 0.0000 0.0000
# 5 0.0000 0.0000 0.0000 0.0000 22.7571 0.0000
# 6 0.0000 0.0000 0.0000 0.0000 0.0000 29.2762
#
#
#
# Elastic Compliance Matrix: (Units=1/GPa)
#
#
# Indices 1 2 3 4 5 6 
#
# 1 0.018649 -0.011412 -0.000612 0.000000 0.000000 0.000000
# 2 -0.011412 0.030924 -0.012771 0.000000 0.000000 0.000000
# 3 -0.000612 -0.012771 0.018257 0.000000 0.000000 0.000000
# 4 0.000000 0.000000 0.000000 0.026804 0.000000 0.000000
# 5 0.000000 0.000000 0.000000 0.000000 0.043942 0.000000
# 6 0.000000 0.000000 0.000000 0.000000 0.000000 0.034157
#
#
# Mechanical properties :
#
#
# Convention : Reuss Voigt Hill
#
# Bulk Modulus (GPa) = 54.82929 55.11375 54.97152
# Shear Modulus (GPa) = 21.89090 25.48473 23.68781
#
# Velocity S-wave (km/s) = 3.32738 3.59014 3.46125
# Velocity P-wave (km/s) = 6.51861 6.71264 6.61634
#
# Compressibility (1/GPa) = 0.01823843
#
# Stress axis : x y z
#
# Youngs Moduli (GPa) = 53.62267 32.33736 54.77242
#
# Poissons Ratio (x) = 0.36904 0.03354
# Poissons Ratio (y) = 0.61195 0.69952
# Poissons Ratio (z) = 0.03284 0.41299
#
# Static dielectric constant tensor:
#      x y z
#    x 3.481690 0.000000 0.000000 
#    y 0.000000 3.769020 0.000000 
#    z 0.000000 0.000000 3.671030 
# 
# 
# High freq. dielectric constant tensor:
#      x y z
#    x 1.757430 0.000000 0.000000 
#    y 0.000000 1.779540 0.000000 
#    z 0.000000 0.000000 1.767280 
# 
# From -- ./inp_files/21077.got.cif
#   From: 2010.03.12/outbox.cif.g09.slc.cpg/sg59_11_cif.got.tgz:21077.got - 2010.04.16 16:29:54.
