data_PCOD8242165
_publ_section_title
;
Structure prediction by ZEFSAII (Michael W. Deem and Ramdas Pophale) SiO2 
 PCOD8242165
Probable space group: P M M N
;
_chemical_formula_sum "Si O2"
_cell_formula_units_Z 48
_cell_length_a 14.584666
_cell_length_b 9.101702
_cell_length_c 18.859559
_cell_angle_alpha 90.000000
_cell_angle_beta 90.000000
_cell_angle_gamma 90.000000
_cell_volume 2503.517510
_symmetry_space_group_name_H-M "P M M N"
_symmetry_group_IT_number 59
_space_group.IT_coordinate_system_code '2'
_symmetry_cell_setting 'orthorhombic'
loop_
_space_group_symop_operation_xyz
x,y,z
1/2-x,1/2-y,z
1/2+x,-y,-z
-x,1/2+y,-z
-x,-y,-z
1/2+x,1/2+y,-z
1/2-x,y,z
x,1/2-y,z
loop_
_atom_site_type_symbol
_atom_site_label
_atom_site_fract_x
_atom_site_fract_y
_atom_site_fract_z
Si Si1 0.750000 0.924472 0.226077
Si Si2 0.609494 0.916311 0.846687
Si Si3 0.143973 0.083510 0.995434
Si Si4 0.750000 0.917182 0.607632
Si Si5 0.902399 0.083577 0.138751
Si Si6 0.250000 0.577056 0.247413
Si Si7 0.903043 0.579701 0.493163
Si Si8 0.250000 0.424768 0.612156
O O1 0.750000 0.750000 0.221144
O O2 0.750000 0.979990 0.307124
O O3 0.839963 0.983687 0.188048
O O4 0.647717 0.750000 0.841790
O O5 0.502816 0.920933 0.827658
O O6 0.659202 0.017273 0.790037
O O7 0.629312 0.977776 0.925466
O O8 0.250000 0.078790 0.973717
O O9 0.105673 0.250000 0.990078
O O10 0.090504 0.979165 0.940999
O O11 0.750000 0.750000 0.636131
O O12 0.657980 0.946030 0.562939
O O13 0.750000 0.030617 0.671365
O O14 0.864438 0.250000 0.135943
O O15 0.250000 0.750000 0.242400
O O16 0.925055 0.750000 0.482022
O O17 0.842846 0.518102 0.426686
O O18 0.000000 0.500000 0.500000
O O19 0.250000 0.250000 0.605438
#
# Coordination Sequence:
#
# PCOD8242165 Si02
#       8
#     4   8   8   4   8   4   8   4
#     4  11  22  38  58  79 114 156 186 227 280 330
#     4  10  22  41  60  79 111 152 189 232 290 350
#     4  10  19  35  60  82 105 144 190 236 289 344
#     4   9  20  39  60  82 118 161 188 217 278 348
#     4  11  23  37  57  83 111 146 190 239 285 336
#     4  12  25  38  58  87 116 148 191 242 282 328
#     4   9  18  36  62  89 114 145 185 225 270 326
#     4   8  18  37  58  80 110 149 185 216 262 326
#
# _framework density 19.173024000000002
#
# number of rings (size 3 to 8) (size 9 to 14) (size 15 to 20)
#    0.000    2.000    1.667    3.000    0.000    4.000 
#    0.000    6.250    0.000    0.000    0.000    0.000 
#    0.000    0.000    0.000    0.000    0.000    0.000 
#
# Total GULP energy -595281.204173 kJ/mol
# GULP energy per Si atom -12401.691754 kJ/mol
# Density = 1.912939 g / cm^3
# Si number density = 19.173024 Si / 1000 Ang^3
#
#
#
# Elastic Constant Matrix: (Units=GPa)
#
#
# Indices 1 2 3 4 5 6 
#
# 1 118.6662 46.2308 42.6231 0.0000 0.0000 0.0000
# 2 46.2308 97.0331 56.3935 0.0000 0.0000 0.0000
# 3 42.6231 56.3935 124.8119 0.0000 0.0000 0.0000
# 4 0.0000 0.0000 0.0000 23.1119 0.0000 0.0000
# 5 0.0000 0.0000 0.0000 0.0000 6.6868 0.0000
# 6 0.0000 0.0000 0.0000 0.0000 0.0000 30.1030
#
#
#
# Elastic Compliance Matrix: (Units=1/GPa)
#
#
# Indices 1 2 3 4 5 6 
#
# 1 0.010645 -0.004013 -0.001822 0.000000 0.000000 0.000000
# 2 -0.004013 0.015488 -0.005628 0.000000 0.000000 0.000000
# 3 -0.001822 -0.005628 0.011177 0.000000 0.000000 0.000000
# 4 0.000000 0.000000 0.000000 0.043268 0.000000 0.000000
# 5 0.000000 0.000000 0.000000 0.000000 0.149548 0.000000
# 6 0.000000 0.000000 0.000000 0.000000 0.000000 0.033219
#
#
# Mechanical properties :
#
#
# Convention : Reuss Voigt Hill
#
# Bulk Modulus (GPa) = 69.51642 70.11178 69.81410
# Shear Modulus (GPa) = 17.17827 24.99793 21.08810
#
# Velocity S-wave (km/s) = 2.99651 3.61474 3.32005
# Velocity P-wave (km/s) = 6.95041 7.35317 7.15463
#
# Compressibility (1/GPa) = 0.01438509
#
# Stress axis : x y z
#
# Youngs Moduli (GPa) = 93.94294 64.56502 89.46879
#
# Poissons Ratio (x) = 0.25908 0.16303
# Poissons Ratio (y) = 0.37696 0.50351
# Poissons Ratio (z) = 0.17118 0.36335
#
# Static dielectric constant tensor:
#      x y z
#    x 3.515640 0.000000 0.000000 
#    y 0.000000 3.378330 0.000000 
#    z 0.000000 0.000000 3.530870 
# 
# 
# High freq. dielectric constant tensor:
#      x y z
#    x 1.754960 0.000000 0.000000 
#    y 0.000000 1.732990 0.000000 
#    z 0.000000 0.000000 1.743820 
# 
# From -- ./inp_files/27541.got.cif
#   From: 2010.03.12/outbox.cif.g09.slc.cpg/sg59_14_cif.got.tgz:27541.got - 2010.04.16 16:29:54.
