data_PCOD8242781
_publ_section_title
;
Structure prediction by ZEFSAII (Michael W. Deem and Ramdas Pophale) SiO2 
 PCOD8242781
Probable space group: P M M N
;
_chemical_formula_sum "Si O2"
_cell_formula_units_Z 64
_cell_length_a 9.163735
_cell_length_b 23.962379
_cell_length_c 15.137459
_cell_angle_alpha 90.000000
_cell_angle_beta 90.000000
_cell_angle_gamma 90.000000
_cell_volume 3323.957286
_symmetry_space_group_name_H-M "P M M N"
_symmetry_group_IT_number 59
_space_group.IT_coordinate_system_code '2'
_symmetry_cell_setting 'orthorhombic'
loop_
_space_group_symop_operation_xyz
x,y,z
1/2-x,1/2-y,z
1/2+x,-y,-z
-x,1/2+y,-z
-x,-y,-z
1/2+x,1/2+y,-z
1/2-x,y,z
x,1/2-y,z
loop_
_atom_site_type_symbol
_atom_site_label
_atom_site_fract_x
_atom_site_fract_y
_atom_site_fract_z
Si Si1 0.424066 0.313761 0.511631
Si Si2 0.576740 0.624159 0.661919
Si Si3 0.583743 0.683771 0.835411
Si Si4 0.582105 0.607253 0.332426
Si Si5 0.582071 0.632755 0.135630
Si Si6 0.590250 0.313375 0.999923
Si Si7 0.921421 0.996780 0.717842
Si Si8 0.578424 0.023417 0.914228
O O1 0.250000 0.311834 0.511238
O O2 0.484391 0.250000 0.516162
O O3 0.485952 0.345418 0.425100
O O4 0.481111 0.350183 0.594607
O O5 0.750000 0.627191 0.659767
O O6 0.517325 0.657636 0.746357
O O7 0.526336 0.559572 0.668505
O O8 0.750000 0.663899 0.849726
O O9 0.575324 0.750000 0.827534
O O10 0.491241 0.658381 0.916633
O O11 0.750000 0.592839 0.352202
O O12 0.564117 0.639593 0.240054
O O13 0.498279 0.548584 0.330678
O O14 0.750000 0.622324 0.109912
O O15 0.478391 0.585664 0.095761
O O16 0.514926 0.686249 0.086352
O O17 0.750000 0.341342 0.984413
O O18 0.614457 0.250000 0.025739
O O19 0.750000 0.006600 0.707856
O O20 0.962306 0.991819 0.822210
O O21 0.750000 0.022110 0.931187
O O22 0.500000 0.000000 0.000000
#
# Coordination Sequence:
#
# PCOD8242781 Si02
#       8
#     8   8   8   8   8   8   8   8
#     4   9  17  31  54  83 110 136 172 221 274 321
#     4   9  17  30  51  79 109 139 174 218 265 320
#     4   9  17  30  50  75 103 137 176 219 266 320
#     4   9  19  35  54  78 107 137 175 224 269 314
#     4  10  20  34  52  73 101 137 178 225 269 314
#     4  10  21  35  50  73 105 139 176 218 270 329
#     4   9  19  34  51  75 108 145 180 216 264 319
#     4  10  20  33  50  74 105 142 181 222 267 316
#
# _framework density 19.254159000000001
#
# number of rings (size 3 to 8) (size 9 to 14) (size 15 to 20)
#    0.000    2.625    0.000    1.500    1.750    4.250 
#    0.000    1.875    0.000    1.125    0.000    0.000 
#    0.000    0.000    0.000    0.000    0.000    0.000 
#
# Total GULP energy -793241.193058 kJ/mol
# GULP energy per Si atom -12394.393642 kJ/mol
# Density = 1.921034 g / cm^3
# Si number density = 19.254159 Si / 1000 Ang^3
#
#
#
# Elastic Constant Matrix: (Units=GPa)
#
#
# Indices 1 2 3 4 5 6 
#
# 1 66.0329 35.8535 50.7053 0.0000 0.0000 0.0000
# 2 35.8535 97.8008 73.1231 0.0000 0.0000 0.0000
# 3 50.7053 73.1231 142.7415 0.0000 0.0000 0.0000
# 4 0.0000 0.0000 0.0000 37.5366 0.0000 0.0000
# 5 0.0000 0.0000 0.0000 0.0000 16.6589 0.0000
# 6 0.0000 0.0000 0.0000 0.0000 0.0000 24.4933
#
#
#
# Elastic Compliance Matrix: (Units=1/GPa)
#
#
# Indices 1 2 3 4 5 6 
#
# 1 0.021550 -0.003528 -0.005848 0.000000 0.000000 0.000000
# 2 -0.003528 0.017150 -0.007532 0.000000 0.000000 0.000000
# 3 -0.005848 -0.007532 0.012942 0.000000 0.000000 0.000000
# 4 0.000000 0.000000 0.000000 0.026641 0.000000 0.000000
# 5 0.000000 0.000000 0.000000 0.000000 0.060028 0.000000
# 6 0.000000 0.000000 0.000000 0.000000 0.000000 0.040827
#
#
# Mechanical properties :
#
#
# Convention : Reuss Voigt Hill
#
# Bulk Modulus (GPa) = 56.09975 69.54878 62.82427
# Shear Modulus (GPa) = 22.84197 25.53064 24.18631
#
# Velocity S-wave (km/s) = 3.44806 3.64535 3.54808
# Velocity P-wave (km/s) = 6.71207 7.34289 7.03455
#
# Compressibility (1/GPa) = 0.01782539
#
# Stress axis : x y z
#
# Youngs Moduli (GPa) = 46.40393 58.30948 77.27041
#
# Poissons Ratio (x) = 0.20571 0.45186
# Poissons Ratio (y) = 0.16371 0.58202
# Poissons Ratio (z) = 0.27136 0.43920
#
# Static dielectric constant tensor:
#      x y z
#    x 3.398040 0.000000 0.000000 
#    y 0.000000 3.538470 0.000000 
#    z 0.000000 0.000000 3.769040 
# 
# 
# High freq. dielectric constant tensor:
#      x y z
#    x 1.721110 0.000000 0.000000 
#    y 0.000000 1.745550 0.000000 
#    z 0.000000 0.000000 1.755000 
# 
# From -- ./inp_files/21623.got.cif
#   From: 2010.03.12/outbox.cif.g09.slc.cpg/sg59_11_cif.got.tgz:21623.got - 2010.04.16 16:29:54.
