data_PCOD8242012
_publ_section_title
;
Structure prediction by ZEFSAII (Michael W. Deem and Ramdas Pophale) SiO2 
 PCOD8242012
Probable space group: P M M N
;
_chemical_formula_sum "Si O2"
_cell_formula_units_Z 64
_cell_length_a 8.940167
_cell_length_b 23.954279
_cell_length_c 15.289380
_cell_angle_alpha 90.000000
_cell_angle_beta 90.000000
_cell_angle_gamma 90.000000
_cell_volume 3274.301067
_symmetry_space_group_name_H-M "P M M N"
_symmetry_group_IT_number 59
_space_group.IT_coordinate_system_code '2'
_symmetry_cell_setting 'orthorhombic'
loop_
_space_group_symop_operation_xyz
x,y,z
1/2-x,1/2-y,z
1/2+x,-y,-z
-x,1/2+y,-z
-x,-y,-z
1/2+x,1/2+y,-z
1/2-x,y,z
x,1/2-y,z
loop_
_atom_site_type_symbol
_atom_site_label
_atom_site_fract_x
_atom_site_fract_y
_atom_site_fract_z
Si Si1 0.576160 0.314411 0.046536
Si Si2 0.426223 0.885249 0.122198
Si Si3 0.572954 0.871905 0.440043
Si Si4 0.079194 0.012788 0.634212
Si Si5 0.572509 0.610457 0.817543
Si Si6 0.926261 0.600202 0.623191
Si Si7 0.426502 0.186800 0.729426
Si Si8 0.921157 0.504324 0.161389
O O1 0.750000 0.322836 0.068037
O O2 0.535925 0.250000 0.031081
O O3 0.480701 0.336248 0.128198
O O4 0.528637 0.347642 0.960199
O O5 0.250000 0.892359 0.131920
O O6 0.487563 0.855288 0.208280
O O7 0.499157 0.946058 0.107782
O O8 0.750000 0.875646 0.437664
O O9 0.510599 0.931722 0.408729
O O10 0.520787 0.860530 0.541096
O O11 0.521797 0.824455 0.371394
O O12 0.250000 0.001617 0.606888
O O13 0.065764 0.020189 0.737778
O O14 0.980185 0.961823 0.600659
O O15 0.750000 0.605003 0.820945
O O16 0.512541 0.620176 0.717655
O O17 0.501907 0.554369 0.858270
O O18 0.750000 0.598894 0.628627
O O19 0.250000 0.176278 0.740531
O O20 0.470565 0.250000 0.752813
O O21 0.750000 0.499080 0.130159
#
# Coordination Sequence:
#
# PCOD8242012 Si02
#       8
#     8   8   8   8   8   8   8   8
#     4  10  23  43  63  81 104 142 189 231 280 340
#     4  11  22  37  59  85 113 141 178 232 287 335
#     4   9  16  30  49  74 107 143 181 220 262 316
#     4   9  16  28  48  74 108 143 179 217 257 314
#     4  10  21  37  57  86 118 146 184 234 283 327
#     4   9  18  31  50  76 110 142 177 223 270 317
#     4  10  20  35  55  78 108 148 189 224 268 334
#     4  10  19  34  57  85 118 153 185 219 269 337
#
# _framework density 19.546156
#
# number of rings (size 3 to 8) (size 9 to 14) (size 15 to 20)
#    0.000    2.250    1.250    1.875    0.000    3.500 
#    0.000    1.250    0.000    2.250    0.000    0.000 
#    0.000    0.000    0.000    0.000    0.000    0.000 
#
# Total GULP energy -793410.907392 kJ/mol
# GULP energy per Si atom -12397.045428 kJ/mol
# Density = 1.950167 g / cm^3
# Si number density = 19.546156 Si / 1000 Ang^3
#
#
#
# Elastic Constant Matrix: (Units=GPa)
#
#
# Indices 1 2 3 4 5 6 
#
# 1 46.3957 22.3099 27.7488 0.0000 0.0000 0.0000
# 2 22.3099 61.8592 38.0214 0.0000 0.0000 0.0000
# 3 27.7488 38.0214 83.0494 0.0000 0.0000 0.0000
# 4 0.0000 0.0000 0.0000 29.1644 0.0000 0.0000
# 5 0.0000 0.0000 0.0000 0.0000 20.2536 0.0000
# 6 0.0000 0.0000 0.0000 0.0000 0.0000 28.3153
#
#
#
# Elastic Compliance Matrix: (Units=1/GPa)
#
#
# Indices 1 2 3 4 5 6 
#
# 1 0.028532 -0.006166 -0.006710 0.000000 0.000000 0.000000
# 2 -0.006166 0.023828 -0.008849 0.000000 0.000000 0.000000
# 3 -0.006710 -0.008849 0.018334 0.000000 0.000000 0.000000
# 4 0.000000 0.000000 0.000000 0.034288 0.000000 0.000000
# 5 0.000000 0.000000 0.000000 0.000000 0.049374 0.000000
# 6 0.000000 0.000000 0.000000 0.000000 0.000000 0.035317
#
#
# Mechanical properties :
#
#
# Convention : Reuss Voigt Hill
#
# Bulk Modulus (GPa) = 36.70459 40.82942 38.76700
# Shear Modulus (GPa) = 20.64363 22.42827 21.53595
#
# Velocity S-wave (km/s) = 3.25337 3.39108 3.32294
# Velocity P-wave (km/s) = 5.73862 6.02218 5.88211
#
# Compressibility (1/GPa) = 0.02724455
#
# Stress axis : x y z
#
# Youngs Moduli (GPa) = 35.04832 41.96675 54.54244
#
# Poissons Ratio (x) = 0.25875 0.36601
# Poissons Ratio (y) = 0.21610 0.48264
# Poissons Ratio (z) = 0.23519 0.37136
#
# Static dielectric constant tensor:
#      x y z
#    x 3.396140 0.000000 0.000000 
#    y 0.000000 3.491380 0.000000 
#    z 0.000000 0.000000 3.877400 
# 
# 
# High freq. dielectric constant tensor:
#      x y z
#    x 1.743670 0.000000 0.000000 
#    y 0.000000 1.747090 0.000000 
#    z 0.000000 0.000000 1.770330 
# 
# From -- ./inp_files/21563.got.cif
#   From: 2010.03.12/outbox.cif.g09.slc.cpg/sg59_11_cif.got.tgz:21563.got - 2010.04.16 16:29:54.
