data_PCOD8242462
_publ_section_title
;
Structure prediction by ZEFSAII (Michael W. Deem and Ramdas Pophale) SiO2 
 PCOD8242462
Probable space group: P M M N
;
_chemical_formula_sum "Si O2"
_cell_formula_units_Z 56
_cell_length_a 9.382154
_cell_length_b 14.929081
_cell_length_c 21.986093
_cell_angle_alpha 90.000000
_cell_angle_beta 90.000000
_cell_angle_gamma 90.000000
_cell_volume 3079.524704
_symmetry_space_group_name_H-M "P M M N"
_symmetry_group_IT_number 59
_space_group.IT_coordinate_system_code '2'
_symmetry_cell_setting 'orthorhombic'
loop_
_space_group_symop_operation_xyz
x,y,z
1/2-x,1/2-y,z
1/2+x,-y,-z
-x,1/2+y,-z
-x,-y,-z
1/2+x,1/2+y,-z
1/2-x,y,z
x,1/2-y,z
loop_
_atom_site_type_symbol
_atom_site_label
_atom_site_fract_x
_atom_site_fract_y
_atom_site_fract_z
Si Si1 0.911935 0.145287 0.428839
Si Si2 0.581365 0.493809 0.787085
Si Si3 0.080611 0.848726 0.434912
Si Si4 0.085073 0.356360 0.862823
Si Si5 0.419340 0.351542 0.125481
Si Si6 0.581319 0.849014 0.005936
Si Si7 0.081486 0.009236 0.352274
O O1 0.750000 0.111198 0.421222
O O2 0.921509 0.250000 0.415197
O O3 0.968416 0.124560 0.497035
O O4 0.011957 0.096889 0.380657
O O5 0.750000 0.483494 0.794223
O O6 0.509892 0.404060 0.812313
O O7 0.522535 0.581229 0.823040
O O8 0.534937 0.503615 0.717512
O O9 0.250000 0.844625 0.433929
O O10 0.020387 0.750000 0.417558
O O11 0.022558 0.921048 0.386896
O O12 0.250000 0.380315 0.851476
O O13 0.061049 0.250000 0.858303
O O14 0.032828 0.393269 0.929940
O O15 0.250000 0.347376 0.128714
O O16 0.478603 0.250000 0.135847
O O17 0.466469 0.392358 0.058787
O O18 0.750000 0.842755 0.008772
O O19 0.516131 0.750000 0.004174
O O20 0.250000 0.017960 0.359380
#
# Coordination Sequence:
#
# PCOD8242462 Si02
#       7
#     8   8   8   8   8   8   8
#     4   9  18  33  53  74  94 121 159 200 241 282
#     4  10  21  32  45  72 102 128 160 192 230 282
#     4   8  15  30  51  72  94 123 160 199 239 283
#     4   9  18  33  51  69  91 122 161 202 241 282
#     4   8  14  27  46  66  92 125 159 197 239 284
#     4   7  11  23  45  68  86 113 157 201 239 280
#     4  10  20  32  48  72 101 131 160 192 232 280
#
# _framework density 18.184625
#
# number of rings (size 3 to 8) (size 9 to 14) (size 15 to 20)
#    0.000    3.286    0.000    3.000    0.000    2.857 
#    0.000    2.857    0.000    1.714    0.000    2.000 
#    0.000    0.000    0.000    0.000    0.000    0.000 
#
# Total GULP energy -693774.446324 kJ/mol
# GULP energy per Si atom -12388.829399 kJ/mol
# Density = 1.814324 g / cm^3
# Si number density = 18.184625 Si / 1000 Ang^3
#
#
#
# Elastic Constant Matrix: (Units=GPa)
#
#
# Indices 1 2 3 4 5 6 
#
# 1 21.0968 25.9320 37.3673 0.0000 0.0000 0.0000
# 2 25.9320 81.9875 71.1410 0.0000 0.0000 0.0000
# 3 37.3673 71.1410 167.3093 0.0000 0.0000 0.0000
# 4 0.0000 0.0000 0.0000 26.4714 0.0000 0.0000
# 5 0.0000 0.0000 0.0000 0.0000 2.5794 0.0000
# 6 0.0000 0.0000 0.0000 0.0000 0.0000 23.9237
#
#
#
# Elastic Compliance Matrix: (Units=1/GPa)
#
#
# Indices 1 2 3 4 5 6 
#
# 1 0.092579 -0.017971 -0.013035 0.000000 0.000000 0.000000
# 2 -0.017971 0.022817 -0.005688 0.000000 0.000000 0.000000
# 3 -0.013035 -0.005688 0.011307 0.000000 0.000000 0.000000
# 4 0.000000 0.000000 0.000000 0.037777 0.000000 0.000000
# 5 0.000000 0.000000 0.000000 0.000000 0.387694 0.000000
# 6 0.000000 0.000000 0.000000 0.000000 0.000000 0.041800
#
#
# Mechanical properties :
#
#
# Convention : Reuss Voigt Hill
#
# Bulk Modulus (GPa) = 18.75694 59.91936 39.33815
# Shear Modulus (GPa) = 7.29785 19.65844 13.47814
#
# Velocity S-wave (km/s) = 2.00547 3.29150 2.72542
# Velocity P-wave (km/s) = 3.96228 6.88966 5.61992
#
# Compressibility (1/GPa) = 0.05331359
#
# Stress axis : x y z
#
# Youngs Moduli (GPa) = 10.80155 43.82754 88.44130
#
# Poissons Ratio (x) = 0.78763 1.15287
# Poissons Ratio (y) = 0.19412 0.50306
# Poissons Ratio (z) = 0.14080 0.24930
#
# Static dielectric constant tensor:
#      x y z
#    x 2.845110 0.000000 0.000000 
#    y 0.000000 3.381900 0.000000 
#    z 0.000000 0.000000 3.625840 
# 
# 
# High freq. dielectric constant tensor:
#      x y z
#    x 1.652490 0.000000 0.000000 
#    y 0.000000 1.699960 0.000000 
#    z 0.000000 0.000000 1.715380 
# 
# From -- ./inp_files/30052.got.cif
#   From: 2010.03.12/outbox.cif.g09.slc.cpg/sg59_16_cif.got.tgz:30052.got - 2010.04.16 16:29:54.
