data_PCOD8242647
_publ_section_title
;
Structure prediction by ZEFSAII (Michael W. Deem and Ramdas Pophale) SiO2 
 PCOD8242647
Probable space group: P M M N
;
_chemical_formula_sum "Si O2"
_cell_formula_units_Z 48
_cell_length_a 9.238054
_cell_length_b 9.129398
_cell_length_c 31.266013
_cell_angle_alpha 90.000000
_cell_angle_beta 90.000000
_cell_angle_gamma 90.000000
_cell_volume 2636.908993
_symmetry_space_group_name_H-M "P M M N"
_symmetry_group_IT_number 59
_space_group.IT_coordinate_system_code '2'
_symmetry_cell_setting 'orthorhombic'
loop_
_space_group_symop_operation_xyz
x,y,z
1/2-x,1/2-y,z
1/2+x,-y,-z
-x,1/2+y,-z
-x,-y,-z
1/2+x,1/2+y,-z
1/2-x,y,z
x,1/2-y,z
loop_
_atom_site_type_symbol
_atom_site_label
_atom_site_fract_x
_atom_site_fract_y
_atom_site_fract_z
Si Si1 0.920605 0.580152 0.538220
Si Si2 0.077887 0.915091 0.377135
Si Si3 0.577629 0.413293 0.786873
Si Si4 0.577191 0.914679 0.705434
Si Si5 0.083609 0.423110 0.962057
Si Si6 0.588791 0.424286 0.880404
O O1 0.750000 0.559169 0.532339
O O2 0.964281 0.750000 0.538911
O O3 0.975545 0.507355 0.582155
O O4 0.000000 0.500000 0.500000
O O5 0.250000 0.912492 0.375600
O O6 0.016330 0.750000 0.380005
O O7 0.016931 0.991511 0.334358
O O8 0.750000 0.406359 0.785079
O O9 0.514558 0.250000 0.779738
O O10 0.516326 0.517138 0.749545
O O11 0.532026 0.476572 0.833619
O O12 0.750000 0.915997 0.705396
O O13 0.517945 0.750000 0.701329
O O14 0.250000 0.470323 0.963849
O O15 0.063500 0.250000 0.966601
O O16 0.018973 0.480652 0.917110
O O17 0.000000 0.500000 0.000000
O O18 0.750000 0.486524 0.889787
O O19 0.595347 0.250000 0.879495
#
# Coordination Sequence:
#
# PCOD8242647 Si02
#       6
#     8   8   8   8   8   8
#     4  10  20  33  49  70  96 126 161 201 245 293
#     4   9  16  26  41  61  87 120 156 193 234 281
#     4   8  13  22  37  56  78 108 145 180 218 268
#     4   9  15  22  34  56  87 117 143 179 229 278
#     4  10  20  33  50  72  96 124 159 197 238 284
#     4   8  14  26  44  64  88 119 152 186 225 271
#
# _framework density 18.203130000000002
#
# number of rings (size 3 to 8) (size 9 to 14) (size 15 to 20)
#    0.000    3.000    0.000    3.000    0.000    6.000 
#    0.000    0.833    0.000    3.000    0.000    1.167 
#    0.000    6.667    0.000    0.000    0.000    0.000 
#
# Total GULP energy -595014.155316 kJ/mol
# GULP energy per Si atom -12396.128236 kJ/mol
# Density = 1.816170 g / cm^3
# Si number density = 18.203130 Si / 1000 Ang^3
#
#
#
# Elastic Constant Matrix: (Units=GPa)
#
#
# Indices 1 2 3 4 5 6 
#
# 1 46.1507 28.8335 49.6593 0.0000 0.0000 0.0000
# 2 28.8335 116.3736 83.7906 0.0000 0.0000 0.0000
# 3 49.6593 83.7906 204.5062 0.0000 0.0000 0.0000
# 4 0.0000 0.0000 0.0000 35.0093 0.0000 0.0000
# 5 0.0000 0.0000 0.0000 0.0000 21.2503 0.0000
# 6 0.0000 0.0000 0.0000 0.0000 0.0000 14.2692
#
#
#
# Elastic Compliance Matrix: (Units=1/GPa)
#
#
# Indices 1 2 3 4 5 6 
#
# 1 0.030108 -0.003115 -0.006035 0.000000 0.000000 0.000000
# 2 -0.003115 0.012511 -0.004370 0.000000 0.000000 0.000000
# 3 -0.006035 -0.004370 0.008146 0.000000 0.000000 0.000000
# 4 0.000000 0.000000 0.000000 0.028564 0.000000 0.000000
# 5 0.000000 0.000000 0.000000 0.000000 0.047058 0.000000
# 6 0.000000 0.000000 0.000000 0.000000 0.000000 0.070081
#
#
# Mechanical properties :
#
#
# Convention : Reuss Voigt Hill
#
# Bulk Modulus (GPa) = 42.14779 76.84415 59.49597
# Shear Modulus (GPa) = 21.60631 27.75557 24.68094
#
# Velocity S-wave (km/s) = 3.44896 3.90907 3.68620
# Velocity P-wave (km/s) = 6.25019 7.91712 7.13252
#
# Compressibility (1/GPa) = 0.02372604
#
# Stress axis : x y z
#
# Youngs Moduli (GPa) = 33.21423 79.92994 122.76573
#
# Poissons Ratio (x) = 0.24894 0.74087
# Poissons Ratio (y) = 0.10345 0.53645
# Poissons Ratio (z) = 0.20044 0.34927
#
# Static dielectric constant tensor:
#      x y z
#    x 2.714630 0.000000 0.000000 
#    y 0.000000 3.421140 0.000000 
#    z 0.000000 0.000000 3.786150 
# 
# 
# High freq. dielectric constant tensor:
#      x y z
#    x 1.641380 0.000000 0.000000 
#    y 0.000000 1.694080 0.000000 
#    z 0.000000 0.000000 1.728110 
# 
# From -- ./inp_files/32908.got.cif
#   From: 2010.03.12/outbox.cif.g09.slc.cpg/sg59_17_cif.got.tgz:32908.got - 2010.04.16 16:29:54.
