data_PCOD8242967
_publ_section_title
;
Structure prediction by ZEFSAII (Michael W. Deem and Ramdas Pophale) SiO2 
 PCOD8242967
Probable space group: P M M N
;
_chemical_formula_sum "Si O2"
_cell_formula_units_Z 64
_cell_length_a 15.644711
_cell_length_b 9.209229
_cell_length_c 23.612629
_cell_angle_alpha 90.000000
_cell_angle_beta 90.000000
_cell_angle_gamma 90.000000
_cell_volume 3402.006672
_symmetry_space_group_name_H-M "P M M N"
_symmetry_group_IT_number 59
_space_group.IT_coordinate_system_code '2'
_symmetry_cell_setting 'orthorhombic'
loop_
_space_group_symop_operation_xyz
x,y,z
1/2-x,1/2-y,z
1/2+x,-y,-z
-x,1/2+y,-z
-x,-y,-z
1/2+x,1/2+y,-z
1/2-x,y,z
x,1/2-y,z
loop_
_atom_site_type_symbol
_atom_site_label
_atom_site_fract_x
_atom_site_fract_y
_atom_site_fract_z
Si Si1 0.102022 0.918480 0.446968
Si Si2 0.844873 0.082682 0.081016
Si Si3 0.153549 0.916648 0.668273
Si Si4 0.926257 0.085331 0.970869
Si Si5 0.997608 0.579753 0.140208
Si Si6 0.402289 0.081283 0.559312
Si Si7 0.154902 0.084465 0.340217
Si Si8 0.994351 0.920145 0.743533
O O1 0.124174 0.750000 0.453906
O O2 0.002788 0.945311 0.434048
O O3 0.131757 0.999653 0.503758
O O4 0.154672 0.984124 0.395302
O O5 0.750000 0.045318 0.102348
O O6 0.868412 0.250000 0.095053
O O7 0.844562 0.059872 0.011743
O O8 0.909019 0.978673 0.114212
O O9 0.250000 0.934249 0.692621
O O10 0.135187 0.750000 0.650731
O O11 0.085182 0.965219 0.715784
O O12 0.145079 0.016357 0.613400
O O13 0.956299 0.250000 0.972444
O O14 0.923487 0.043208 0.903870
O O15 0.000000 0.000000 0.000000
O O16 0.987691 0.750000 0.151750
O O17 0.019433 0.502926 0.198342
O O18 0.379225 0.250000 0.553965
O O19 0.250000 0.073484 0.313131
O O20 0.133853 0.250000 0.358145
O O21 0.083962 0.029587 0.296074
O O22 0.991108 0.750000 0.755976
#
# Coordination Sequence:
#
# PCOD8242967 Si02
#       8
#     8   8   8   8   8   8   8   8
#     4  10  20  34  56  83 110 140 175 218 271 330
#     4   9  17  31  53  79 107 140 178 218 262 316
#     4  10  21  37  57  79 104 139 182 225 271 322
#     4   8  15  29  48  72 100 131 166 206 250 300
#     4  10  20  33  52  77 107 141 179 220 266 317
#     4  10  20  34  55  82 111 142 175 215 269 330
#     4  10  21  38  60  82 104 136 180 228 277 325
#     4  10  21  38  57  77 107 145 185 229 271 317
#
# _framework density 18.812425999999999
#
# number of rings (size 3 to 8) (size 9 to 14) (size 15 to 20)
#    0.000    2.375    1.250    1.125    0.000    4.250 
#    0.000    1.875    0.000    0.750    0.000    0.000 
#    0.000    0.000    0.000    0.000    0.000    0.000 
#
# Total GULP energy -793187.607979 kJ/mol
# GULP energy per Si atom -12393.556375 kJ/mol
# Density = 1.876961 g / cm^3
# Si number density = 18.812426 Si / 1000 Ang^3
#
#
#
# Elastic Constant Matrix: (Units=GPa)
#
#
# Indices 1 2 3 4 5 6 
#
# 1 68.7567 22.6918 30.3471 0.0000 0.0000 0.0000
# 2 22.6918 71.0906 49.9536 0.0000 0.0000 0.0000
# 3 30.3471 49.9536 120.5451 0.0000 0.0000 0.0000
# 4 0.0000 0.0000 0.0000 36.3276 0.0000 0.0000
# 5 0.0000 0.0000 0.0000 0.0000 14.6172 0.0000
# 6 0.0000 0.0000 0.0000 0.0000 0.0000 18.7330
#
#
#
# Elastic Compliance Matrix: (Units=1/GPa)
#
#
# Indices 1 2 3 4 5 6 
#
# 1 0.016924 -0.003398 -0.002853 0.000000 0.000000 0.000000
# 2 -0.003398 0.020527 -0.007651 0.000000 0.000000 0.000000
# 3 -0.002853 -0.007651 0.012184 0.000000 0.000000 0.000000
# 4 0.000000 0.000000 0.000000 0.027527 0.000000 0.000000
# 5 0.000000 0.000000 0.000000 0.000000 0.068412 0.000000
# 6 0.000000 0.000000 0.000000 0.000000 0.000000 0.053382
#
#
# Mechanical properties :
#
#
# Convention : Reuss Voigt Hill
#
# Bulk Modulus (GPa) = 45.80182 51.81971 48.81077
# Shear Modulus (GPa) = 21.36400 24.42889 22.89645
#
# Velocity S-wave (km/s) = 3.37357 3.60745 3.49247
# Velocity P-wave (km/s) = 6.29079 6.70499 6.50119
#
# Compressibility (1/GPa) = 0.02183319
#
# Stress axis : x y z
#
# Youngs Moduli (GPa) = 59.08597 48.71553 82.07196
#
# Poissons Ratio (x) = 0.16552 0.23413
# Poissons Ratio (y) = 0.20076 0.62794
# Poissons Ratio (z) = 0.16856 0.37273
#
# Static dielectric constant tensor:
#      x y z
#    x 3.677940 0.000000 0.000000 
#    y 0.000000 3.430890 0.000000 
#    z 0.000000 0.000000 3.569290 
# 
# 
# High freq. dielectric constant tensor:
#      x y z
#    x 1.717760 0.000000 0.000000 
#    y 0.000000 1.732010 0.000000 
#    z 0.000000 0.000000 1.727120 
# 
# From -- ./inp_files/32214.got.cif
#   From: 2010.03.12/outbox.cif.g09.slc.cpg/sg59_17_cif.got.tgz:32214.got - 2010.04.16 16:29:54.
