data_PCOD8242847
_publ_section_title
;
Structure prediction by ZEFSAII (Michael W. Deem and Ramdas Pophale) SiO2 
 PCOD8242847
Probable space group: P M M N
;
_chemical_formula_sum "Si O2"
_cell_formula_units_Z 64
_cell_length_a 9.211014
_cell_length_b 17.736567
_cell_length_c 21.718639
_cell_angle_alpha 90.000000
_cell_angle_beta 90.000000
_cell_angle_gamma 90.000000
_cell_volume 3548.212429
_symmetry_space_group_name_H-M "P M M N"
_symmetry_group_IT_number 59
_space_group.IT_coordinate_system_code '2'
_symmetry_cell_setting 'orthorhombic'
loop_
_space_group_symop_operation_xyz
x,y,z
1/2-x,1/2-y,z
1/2+x,-y,-z
-x,1/2+y,-z
-x,-y,-z
1/2+x,1/2+y,-z
1/2-x,y,z
x,1/2-y,z
loop_
_atom_site_type_symbol
_atom_site_label
_atom_site_fract_x
_atom_site_fract_y
_atom_site_fract_z
Si Si1 0.580289 0.662902 0.630414
Si Si2 0.083500 0.833684 0.868756
Si Si3 0.420134 0.947262 0.176309
Si Si4 0.584264 0.660610 0.260727
Si Si5 0.082137 0.398677 0.241505
Si Si6 0.412907 0.839681 0.378411
Si Si7 0.585338 0.160797 0.486478
Si Si8 0.077834 0.517295 0.936634
O O1 0.750000 0.653276 0.621774
O O2 0.535929 0.750000 0.639481
O O3 0.523094 0.616826 0.689775
O O4 0.509443 0.626671 0.569082
O O5 0.250000 0.844204 0.850211
O O6 0.052930 0.750000 0.895856
O O7 0.041236 0.895760 0.919844
O O8 0.995027 0.843566 0.806288
O O9 0.250000 0.936005 0.161457
O O10 0.486718 0.872206 0.205831
O O11 0.446415 0.014623 0.224612
O O12 0.507546 0.962542 0.113858
O O13 0.750000 0.632851 0.254705
O O14 0.573016 0.750000 0.255789
O O15 0.522585 0.631092 0.326198
O O16 0.250000 0.377166 0.237960
O O17 0.250000 0.869708 0.363967
O O18 0.409327 0.750000 0.379218
O O19 0.464936 0.868980 0.445907
O O20 0.750000 0.136352 0.474927
O O21 0.567669 0.250000 0.485654
O O22 0.250000 0.502420 0.941192
O O23 0.000000 0.500000 0.000000
#
# Coordination Sequence:
#
# PCOD8242847 Si02
#       8
#     8   8   8   8   8   8   8   8
#     4   9  16  25  39  62  93 126 158 196 242 287
#     4   9  18  32  51  76 103 131 166 207 246 284
#     4  10  20  35  55  76  99 130 165 199 240 292
#     4  10  20  33  51  76 102 125 155 201 253 301
#     4   9  18  31  47  69  97 130 166 202 242 289
#     4   8  14  26  44  65  90 121 157 198 245 295
#     4   8  14  24  38  59  88 121 158 199 241 288
#     4  10  20  36  57  79 106 138 171 206 244 292
#
# _framework density 18.037251000000001
#
# number of rings (size 3 to 8) (size 9 to 14) (size 15 to 20)
#    0.000    2.875    0.000    2.250    0.000    3.500 
#    0.000    4.375    0.000    3.000    0.000    0.000 
#    0.000    0.000    0.000    0.000    0.000    0.000 
#
# Total GULP energy -793369.655553 kJ/mol
# GULP energy per Si atom -12396.400868 kJ/mol
# Density = 1.799620 g / cm^3
# Si number density = 18.037251 Si / 1000 Ang^3
#
#
#
# Elastic Constant Matrix: (Units=GPa)
#
#
# Indices 1 2 3 4 5 6 
#
# 1 91.3381 32.4351 71.6528 0.0000 0.0000 0.0000
# 2 32.4351 41.9555 45.1028 0.0000 0.0000 0.0000
# 3 71.6528 45.1028 155.3283 0.0000 0.0000 0.0000
# 4 0.0000 0.0000 0.0000 21.3739 0.0000 0.0000
# 5 0.0000 0.0000 0.0000 0.0000 38.4223 0.0000
# 6 0.0000 0.0000 0.0000 0.0000 0.0000 20.3174
#
#
#
# Elastic Compliance Matrix: (Units=1/GPa)
#
#
# Indices 1 2 3 4 5 6 
#
# 1 0.018657 -0.007518 -0.006423 0.000000 0.000000 0.000000
# 2 -0.007518 0.037681 -0.007473 0.000000 0.000000 0.000000
# 3 -0.006423 -0.007473 0.011571 0.000000 0.000000 0.000000
# 4 0.000000 0.000000 0.000000 0.046786 0.000000 0.000000
# 5 0.000000 0.000000 0.000000 0.000000 0.026027 0.000000
# 6 0.000000 0.000000 0.000000 0.000000 0.000000 0.049219
#
#
# Mechanical properties :
#
#
# Convention : Reuss Voigt Hill
#
# Bulk Modulus (GPa) = 39.87363 65.22260 52.54812
# Shear Modulus (GPa) = 20.73565 25.31812 23.02688
#
# Velocity S-wave (km/s) = 3.39426 3.75061 3.57687
# Velocity P-wave (km/s) = 6.12499 7.41583 6.80111
#
# Compressibility (1/GPa) = 0.02507923
#
# Stress axis : x y z
#
# Youngs Moduli (GPa) = 53.59853 26.53866 86.42201
#
# Poissons Ratio (x) = 0.19953 0.55513
# Poissons Ratio (y) = 0.40297 0.64585
# Poissons Ratio (z) = 0.34429 0.19833
#
# Static dielectric constant tensor:
#      x y z
#    x 3.409750 0.000000 0.000000 
#    y 0.000000 3.093020 0.000000 
#    z 0.000000 0.000000 3.580770 
# 
# 
# High freq. dielectric constant tensor:
#      x y z
#    x 1.700700 0.000000 0.000000 
#    y 0.000000 1.665760 0.000000 
#    z 0.000000 0.000000 1.700410 
# 
# From -- ./inp_files/29364.got.cif
#   From: 2010.03.12/outbox.cif.g09.slc.cpg/sg59_15_cif.got.tgz:29364.got - 2010.04.16 16:29:54.
