data_PCOD8242505
_publ_section_title
;
Structure prediction by ZEFSAII (Michael W. Deem and Ramdas Pophale) SiO2 
 PCOD8242505
Probable space group: P M M N
;
_chemical_formula_sum "Si O2"
_cell_formula_units_Z 48
_cell_length_a 18.579302
_cell_length_b 9.674754
_cell_length_c 14.825750
_cell_angle_alpha 90.000000
_cell_angle_beta 90.000000
_cell_angle_gamma 90.000000
_cell_volume 2664.931177
_symmetry_space_group_name_H-M "P M M N"
_symmetry_group_IT_number 59
_space_group.IT_coordinate_system_code '2'
_symmetry_cell_setting 'orthorhombic'
loop_
_space_group_symop_operation_xyz
x,y,z
1/2-x,1/2-y,z
1/2+x,-y,-z
-x,1/2+y,-z
-x,-y,-z
1/2+x,1/2+y,-z
1/2-x,y,z
x,1/2-y,z
loop_
_atom_site_type_symbol
_atom_site_label
_atom_site_fract_x
_atom_site_fract_y
_atom_site_fract_z
Si Si1 0.669744 0.091720 0.733325
Si Si2 0.917569 0.410022 0.176509
Si Si3 0.580476 0.909875 0.865307
Si Si4 0.583162 0.094786 0.567157
Si Si5 0.166700 0.410245 0.957678
Si Si6 0.953348 0.409445 0.374349
O O1 0.750000 0.037826 0.752609
O O2 0.660896 0.250000 0.765355
O O3 0.655710 0.079637 0.625592
O O4 0.612874 0.998989 0.785072
O O5 0.896182 0.250000 0.166293
O O6 0.857168 0.500786 0.128039
O O7 0.916156 0.457199 0.281448
O O8 0.995296 0.438226 0.131204
O O9 0.596874 0.750000 0.844758
O O10 0.617680 0.956320 0.958149
O O11 0.551592 0.250000 0.576348
O O12 0.598974 0.065177 0.460901
O O13 0.526033 0.991389 0.609143
O O14 0.250000 0.440918 0.980385
O O15 0.154530 0.250000 0.934584
O O16 0.975604 0.250000 0.363131
#
# Coordination Sequence:
#
# PCOD8242505 Si02
#       6
#     8   8   8   8   8   8
#     4  10  20  32  48  75 109 141 175 214 259 312
#     4  10  20  34  55  82 106 132 173 221 261 306
#     4  10  20  36  56  78 104 135 173 217 264 315
#     4   9  17  30  49  73 103 137 169 206 254 304
#     4  10  22  38  54  74 103 140 177 213 261 317
#     4   9  17  31  51  76 103 130 169 214 254 300
#
# _framework density 18.011721000000001
#
# number of rings (size 3 to 8) (size 9 to 14) (size 15 to 20)
#    0.000    2.333    1.667    1.000    0.000    3.333 
#    0.000    0.833    0.000    3.000    0.000    0.000 
#    0.000    0.000    0.000    0.000    0.000    0.000 
#
# Total GULP energy -595071.051787 kJ/mol
# GULP energy per Si atom -12397.313579 kJ/mol
# Density = 1.797073 g / cm^3
# Si number density = 18.011721 Si / 1000 Ang^3
#
#
#
# Elastic Constant Matrix: (Units=GPa)
#
#
# Indices 1 2 3 4 5 6 
#
# 1 48.3446 22.4962 28.5915 0.0000 0.0000 0.0000
# 2 22.4962 45.9179 38.7159 0.0000 0.0000 0.0000
# 3 28.5915 38.7159 120.3475 0.0000 0.0000 0.0000
# 4 0.0000 0.0000 0.0000 28.7632 0.0000 0.0000
# 5 0.0000 0.0000 0.0000 0.0000 18.7368 0.0000
# 6 0.0000 0.0000 0.0000 0.0000 0.0000 23.6739
#
#
#
# Elastic Compliance Matrix: (Units=1/GPa)
#
#
# Indices 1 2 3 4 5 6 
#
# 1 0.027573 -0.010958 -0.003026 0.000000 0.000000 0.000000
# 2 -0.010958 0.034238 -0.008411 0.000000 0.000000 0.000000
# 3 -0.003026 -0.008411 0.011734 0.000000 0.000000 0.000000
# 4 0.000000 0.000000 0.000000 0.034767 0.000000 0.000000
# 5 0.000000 0.000000 0.000000 0.000000 0.053371 0.000000
# 6 0.000000 0.000000 0.000000 0.000000 0.000000 0.042241
#
#
# Mechanical properties :
#
#
# Convention : Reuss Voigt Hill
#
# Bulk Modulus (GPa) = 34.77474 43.80191 39.28833
# Shear Modulus (GPa) = 19.35749 22.55523 20.95636
#
# Velocity S-wave (km/s) = 3.28184 3.54256 3.41469
# Velocity P-wave (km/s) = 5.80597 6.41126 6.11611
#
# Compressibility (1/GPa) = 0.02875650
#
# Stress axis : x y z
#
# Youngs Moduli (GPa) = 36.26722 29.20696 85.22257
#
# Poissons Ratio (x) = 0.32004 0.25785
# Poissons Ratio (y) = 0.39740 0.71683
# Poissons Ratio (z) = 0.10973 0.24567
#
# Static dielectric constant tensor:
#      x y z
#    x 3.109350 0.000000 0.000000 
#    y 0.000000 3.313540 0.000000 
#    z 0.000000 0.000000 3.554500 
# 
# 
# High freq. dielectric constant tensor:
#      x y z
#    x 1.672210 0.000000 0.000000 
#    y 0.000000 1.697450 0.000000 
#    z 0.000000 0.000000 1.709590 
# 
# From -- ./inp_files/20377.got.cif
#   From: 2010.03.12/outbox.cif.g09.slc.cpg/sg59_11_cif.got.tgz:20377.got - 2010.04.16 16:29:54.
