data_PCOD8242576
_publ_section_title
;
Structure prediction by ZEFSAII (Michael W. Deem and Ramdas Pophale) SiO2 
 PCOD8242576
Probable space group: P M M N
;
_chemical_formula_sum "Si O2"
_cell_formula_units_Z 64
_cell_length_a 9.049840
_cell_length_b 21.525008
_cell_length_c 16.735371
_cell_angle_alpha 90.000000
_cell_angle_beta 90.000000
_cell_angle_gamma 90.000000
_cell_volume 3260.014765
_symmetry_space_group_name_H-M "P M M N"
_symmetry_group_IT_number 59
_space_group.IT_coordinate_system_code '2'
_symmetry_cell_setting 'orthorhombic'
loop_
_space_group_symop_operation_xyz
x,y,z
1/2-x,1/2-y,z
1/2+x,-y,-z
-x,1/2+y,-z
-x,-y,-z
1/2+x,1/2+y,-z
1/2-x,y,z
x,1/2-y,z
loop_
_atom_site_type_symbol
_atom_site_label
_atom_site_fract_x
_atom_site_fract_y
_atom_site_fract_z
Si Si1 0.915398 0.180363 0.202609
Si Si2 0.079843 0.420587 0.296992
Si Si3 0.920766 0.639497 0.944023
Si Si4 0.585216 0.990242 0.862811
Si Si5 0.424254 0.820730 0.437459
Si Si6 0.081351 0.177715 0.725542
Si Si7 0.924022 0.886949 0.117369
Si Si8 0.425376 0.940127 0.539395
O O1 0.750000 0.151289 0.203779
O O2 0.909448 0.250000 0.235201
O O3 0.024452 0.144331 0.261287
O O4 0.977024 0.181522 0.112104
O O5 0.250000 0.413098 0.324049
O O6 0.062775 0.473208 0.230000
O O7 0.976895 0.439867 0.369740
O O8 0.750000 0.659138 0.932362
O O9 0.943667 0.568212 0.919164
O O10 0.973483 0.647924 0.035850
O O11 0.750000 0.016264 0.875958
O O12 0.468895 0.041687 0.887598
O O13 0.250000 0.820747 0.428616
O O14 0.477303 0.750000 0.461827
O O15 0.490341 0.841003 0.352558
O O16 0.474729 0.873919 0.500110
O O17 0.250000 0.156486 0.711582
O O18 0.071361 0.250000 0.742989
O O19 0.008855 0.144782 0.803217
O O20 0.750000 0.883218 0.122306
O O21 0.250000 0.948085 0.534018
O O22 0.500000 0.000000 0.500000
#
# Coordination Sequence:
#
# PCOD8242576 Si02
#       8
#     8   8   8   8   8   8   8   8
#     4  10  21  37  58  84 114 149 190 236 285 338
#     4  10  22  40  59  84 115 148 188 231 282 346
#     4   9  19  35  52  76 110 147 188 232 280 335
#     4   9  19  34  52  75 107 144 182 226 276 334
#     4   9  20  40  62  82 109 149 193 235 284 342
#     4   9  19  35  53  77 108 140 180 230 280 334
#     4  10  20  32  52  80 106 141 187 232 281 335
#     4  11  24  40  61  90 123 155 191 242 299 353
#
# _framework density 19.631813000000001
#
# number of rings (size 3 to 8) (size 9 to 14) (size 15 to 20)
#    0.000    2.375    0.000    2.250    1.750    6.500 
#    0.000    2.500    0.000    1.500    0.000    0.000 
#    0.000    0.000    0.000    0.000    0.000    0.000 
#
# Total GULP energy -793462.348259 kJ/mol
# GULP energy per Si atom -12397.849192 kJ/mol
# Density = 1.958713 g / cm^3
# Si number density = 19.631813 Si / 1000 Ang^3
#
#
#
# Elastic Constant Matrix: (Units=GPa)
#
#
# Indices 1 2 3 4 5 6 
#
# 1 43.3643 26.0728 27.7123 0.0000 0.0000 0.0000
# 2 26.0728 65.0999 23.6329 0.0000 0.0000 0.0000
# 3 27.7123 23.6329 93.4999 0.0000 0.0000 0.0000
# 4 0.0000 0.0000 0.0000 15.6048 0.0000 0.0000
# 5 0.0000 0.0000 0.0000 0.0000 32.6310 0.0000
# 6 0.0000 0.0000 0.0000 0.0000 0.0000 28.5393
#
#
#
# Elastic Compliance Matrix: (Units=1/GPa)
#
#
# Indices 1 2 3 4 5 6 
#
# 1 0.034481 -0.011120 -0.007409 0.000000 0.000000 0.000000
# 2 -0.011120 0.020499 -0.001885 0.000000 0.000000 0.000000
# 3 -0.007409 -0.001885 0.013368 0.000000 0.000000 0.000000
# 4 0.000000 0.000000 0.000000 0.064083 0.000000 0.000000
# 5 0.000000 0.000000 0.000000 0.000000 0.030646 0.000000
# 6 0.000000 0.000000 0.000000 0.000000 0.000000 0.035039
#
#
# Mechanical properties :
#
#
# Convention : Reuss Voigt Hill
#
# Bulk Modulus (GPa) = 36.33899 39.64446 37.99172
# Shear Modulus (GPa) = 20.15165 23.65810 21.90488
#
# Velocity S-wave (km/s) = 3.20735 3.47521 3.34396
# Velocity P-wave (km/s) = 5.68036 6.02831 5.85692
#
# Compressibility (1/GPa) = 0.02751865
#
# Stress axis : x y z
#
# Youngs Moduli (GPa) = 29.00115 48.78237 74.80702
#
# Poissons Ratio (x) = 0.54247 0.55425
# Poissons Ratio (y) = 0.32250 0.14104
# Poissons Ratio (z) = 0.21487 0.09198
#
# Static dielectric constant tensor:
#      x y z
#    x 3.567760 0.000000 0.000000 
#    y 0.000000 3.536460 0.000000 
#    z 0.000000 0.000000 3.808920 
# 
# 
# High freq. dielectric constant tensor:
#      x y z
#    x 1.760330 0.000000 0.000000 
#    y 0.000000 1.758290 0.000000 
#    z 0.000000 0.000000 1.770980 
# 
# From -- ./inp_files/21529.got.cif
#   From: 2010.03.12/outbox.cif.g09.slc.cpg/sg59_11_cif.got.tgz:21529.got - 2010.04.16 16:29:54.
