data_PCOD8242676
_publ_section_title
;
Structure prediction by ZEFSAII (Michael W. Deem and Ramdas Pophale) SiO2 
 PCOD8242676
Probable space group: P M M N
;
_chemical_formula_sum "Si O2"
_cell_formula_units_Z 56
_cell_length_a 8.929273
_cell_length_b 18.486590
_cell_length_c 19.656251
_cell_angle_alpha 90.000000
_cell_angle_beta 90.000000
_cell_angle_gamma 90.000000
_cell_volume 3244.692910
_symmetry_space_group_name_H-M "P M M N"
_symmetry_group_IT_number 59
_space_group.IT_coordinate_system_code '2'
_symmetry_cell_setting 'orthorhombic'
loop_
_space_group_symop_operation_xyz
x,y,z
1/2-x,1/2-y,z
1/2+x,-y,-z
-x,1/2+y,-z
-x,-y,-z
1/2+x,1/2+y,-z
1/2-x,y,z
x,1/2-y,z
loop_
_atom_site_type_symbol
_atom_site_label
_atom_site_fract_x
_atom_site_fract_y
_atom_site_fract_z
Si Si1 0.072041 0.532396 0.847827
Si Si2 0.923418 0.832852 0.478857
Si Si3 0.580079 0.464846 0.306229
Si Si4 0.074237 0.965015 0.433118
Si Si5 0.583150 0.170170 0.386545
Si Si6 0.074085 0.831858 0.937684
Si Si7 0.073761 0.941423 0.047661
O O1 0.250000 0.528503 0.855339
O O2 0.018842 0.527330 0.769898
O O3 0.014272 0.608107 0.882759
O O4 0.000958 0.458671 0.879482
O O5 0.750000 0.849665 0.467053
O O6 0.963975 0.750000 0.463668
O O7 0.023306 0.881383 0.428971
O O8 0.963760 0.853502 0.556565
O O9 0.750000 0.494395 0.313021
O O10 0.475966 0.502819 0.361375
O O11 0.572841 0.379457 0.320612
O O12 0.250000 0.973107 0.441164
O O13 0.000000 0.000000 0.500000
O O14 0.750000 0.165169 0.419378
O O15 0.547486 0.250000 0.359745
O O16 0.250000 0.825123 0.927246
O O17 0.004205 0.750000 0.929163
O O18 0.039249 0.862335 0.014402
O O19 0.250000 0.954120 0.052443
O O20 0.000000 0.000000 0.000000
#
# Coordination Sequence:
#
# PCOD8242676 Si02
#       7
#     8   8   8   8   8   8   8
#     4   9  18  31  48  71 101 136 169 203 247 300
#     4  10  20  34  53  75  98 125 159 206 264 317
#     4  10  20  33  49  72 102 135 170 211 258 308
#     4  12  23  35  53  75 100 132 174 222 265 308
#     4   9  17  29  46  69  97 129 164 203 249 305
#     4   8  14  26  47  75 102 128 162 202 241 284
#     4   9  16  28  48  71  96 128 164 202 241 286
#
# _framework density 17.258953000000002
#
# number of rings (size 3 to 8) (size 9 to 14) (size 15 to 20)
#    0.000    2.429    1.429    3.000    0.000    2.000 
#    0.000    2.857    0.000   11.571    0.000    8.000 
#    0.000    0.000    0.000    0.000    0.000    0.000 
#
# Total GULP energy -693782.104532 kJ/mol
# GULP energy per Si atom -12388.966152 kJ/mol
# Density = 1.721967 g / cm^3
# Si number density = 17.258953 Si / 1000 Ang^3
#
#
#
# Elastic Constant Matrix: (Units=GPa)
#
#
# Indices 1 2 3 4 5 6 
#
# 1 70.9907 34.4090 45.0320 0.0000 0.0000 0.0000
# 2 34.4090 78.2398 62.0937 0.0000 0.0000 0.0000
# 3 45.0320 62.0937 125.3769 0.0000 0.0000 0.0000
# 4 0.0000 0.0000 0.0000 22.7874 0.0000 0.0000
# 5 0.0000 0.0000 0.0000 0.0000 25.7240 0.0000
# 6 0.0000 0.0000 0.0000 0.0000 0.0000 22.9495
#
#
#
# Elastic Compliance Matrix: (Units=1/GPa)
#
#
# Indices 1 2 3 4 5 6 
#
# 1 0.019331 -0.004928 -0.004502 0.000000 0.000000 0.000000
# 2 -0.004928 0.022315 -0.009281 0.000000 0.000000 0.000000
# 3 -0.004502 -0.009281 0.014190 0.000000 0.000000 0.000000
# 4 0.000000 0.000000 0.000000 0.043884 0.000000 0.000000
# 5 0.000000 0.000000 0.000000 0.000000 0.038874 0.000000
# 6 0.000000 0.000000 0.000000 0.000000 0.000000 0.043574
#
#
# Mechanical properties :
#
#
# Convention : Reuss Voigt Hill
#
# Bulk Modulus (GPa) = 54.31446 61.96409 58.13928
# Shear Modulus (GPa) = 22.15048 23.16372 22.65710
#
# Velocity S-wave (km/s) = 3.58637 3.66748 3.62715
# Velocity P-wave (km/s) = 6.97768 7.34264 7.16249
#
# Compressibility (1/GPa) = 0.01841130
#
# Stress axis : x y z
#
# Youngs Moduli (GPa) = 51.72999 44.81366 70.47338
#
# Poissons Ratio (x) = 0.22086 0.31730
# Poissons Ratio (y) = 0.25494 0.65409
# Poissons Ratio (z) = 0.23291 0.41593
#
# Static dielectric constant tensor:
#      x y z
#    x 3.314210 0.000000 0.000000 
#    y 0.000000 3.638950 0.000000 
#    z 0.000000 0.000000 3.248020 
# 
# 
# High freq. dielectric constant tensor:
#      x y z
#    x 1.655240 0.000000 0.000000 
#    y 0.000000 1.664800 0.000000 
#    z 0.000000 0.000000 1.644010 
# 
# From -- ./inp_files/29331.got.cif
#   From: 2010.03.12/outbox.cif.g09.slc.cpg/sg59_15_cif.got.tgz:29331.got - 2010.04.16 16:29:54.
