data_PCOD8242753
_publ_section_title
;
Structure prediction by ZEFSAII (Michael W. Deem and Ramdas Pophale) SiO2 
 PCOD8242753
Probable space group: P M M N
;
_chemical_formula_sum "Si O2"
_cell_formula_units_Z 32
_cell_length_a 17.568374
_cell_length_b 9.180208
_cell_length_c 11.421243
_cell_angle_alpha 90.000000
_cell_angle_beta 90.000000
_cell_angle_gamma 90.000000
_cell_volume 1842.033233
_symmetry_space_group_name_H-M "P M M N"
_symmetry_group_IT_number 59
_space_group.IT_coordinate_system_code '2'
_symmetry_cell_setting 'orthorhombic'
loop_
_space_group_symop_operation_xyz
x,y,z
1/2-x,1/2-y,z
1/2+x,-y,-z
-x,1/2+y,-z
-x,-y,-z
1/2+x,1/2+y,-z
1/2-x,y,z
x,1/2-y,z
loop_
_atom_site_type_symbol
_atom_site_label
_atom_site_fract_x
_atom_site_fract_y
_atom_site_fract_z
Si Si1 0.593672 0.580770 0.597673
Si Si2 0.666637 0.585829 0.146071
Si Si3 0.050581 0.422005 0.660622
Si Si4 0.750000 0.077303 0.963560
Si Si5 0.250000 0.080950 0.279452
O O1 0.575009 0.750000 0.611221
O O2 0.588168 0.531207 0.462548
O O3 0.532009 0.494354 0.675299
O O4 0.677233 0.541969 0.642408
O O5 0.750000 0.588843 0.209077
O O6 0.643852 0.750000 0.107495
O O7 0.604950 0.520098 0.235493
O O8 0.674144 0.484456 0.029949
O O9 0.041487 0.250000 0.669008
O O10 0.750000 0.250000 0.966109
O O11 0.750000 0.021862 0.832126
O O12 0.250000 0.250000 0.240635
#
# Coordination Sequence:
#
# PCOD8242753 Si02
#       5
#     8   8   8   4   4
#     4   9  19  32  51  76 104 133 163 201 242 294
#     4   8  16  31  53  74  97 130 164 200 243 295
#     4   9  17  32  53  78 104 129 161 202 248 294
#     4  10  20  33  50  74 100 127 167 218 253 282
#     4  10  20  35  52  70  98 139 173 196 239 300
#
# _framework density 17.372108000000001
#
# number of rings (size 3 to 8) (size 9 to 14) (size 15 to 20)
#    0.750    2.250    0.000    0.750    1.750    2.000 
#    0.000    1.250    0.000    1.500    0.000    0.000 
#    0.000    0.000    0.000    0.000    0.000    0.000 
#
# Total GULP energy -396604.331287 kJ/mol
# GULP energy per Si atom -12393.885353 kJ/mol
# Density = 1.733257 g / cm^3
# Si number density = 17.372108 Si / 1000 Ang^3
#
#
#
# Elastic Constant Matrix: (Units=GPa)
#
#
# Indices 1 2 3 4 5 6 
#
# 1 113.9382 39.7701 51.2713 0.0000 0.0000 0.0000
# 2 39.7701 62.8187 41.0830 0.0000 0.0000 0.0000
# 3 51.2713 41.0830 77.1879 0.0000 0.0000 0.0000
# 4 0.0000 0.0000 0.0000 23.3681 0.0000 0.0000
# 5 0.0000 0.0000 0.0000 0.0000 6.3646 0.0000
# 6 0.0000 0.0000 0.0000 0.0000 0.0000 24.0322
#
#
#
# Elastic Compliance Matrix: (Units=1/GPa)
#
#
# Indices 1 2 3 4 5 6 
#
# 1 0.013144 -0.004006 -0.006599 0.000000 0.000000 0.000000
# 2 -0.004006 0.025639 -0.010986 0.000000 0.000000 0.000000
# 3 -0.006599 -0.010986 0.023186 0.000000 0.000000 0.000000
# 4 0.000000 0.000000 0.000000 0.042793 0.000000 0.000000
# 5 0.000000 0.000000 0.000000 0.000000 0.157119 0.000000
# 6 0.000000 0.000000 0.000000 0.000000 0.000000 0.041611
#
#
# Mechanical properties :
#
#
# Convention : Reuss Voigt Hill
#
# Bulk Modulus (GPa) = 53.22358 57.57705 55.40032
# Shear Modulus (GPa) = 14.16683 18.87434 16.52059
#
# Velocity S-wave (km/s) = 2.85878 3.29975 3.08715
# Velocity P-wave (km/s) = 6.44986 6.90891 6.68333
#
# Compressibility (1/GPa) = 0.01878866
#
# Stress axis : x y z
#
# Youngs Moduli (GPa) = 76.07782 39.00238 43.13010
#
# Poissons Ratio (x) = 0.15624 0.28461
# Poissons Ratio (y) = 0.30477 0.47381
# Poissons Ratio (z) = 0.50203 0.42846
#
# Static dielectric constant tensor:
#      x y z
#    x 3.198260 0.000000 0.000000 
#    y 0.000000 3.083410 0.000000 
#    z 0.000000 0.000000 3.123550 
# 
# 
# High freq. dielectric constant tensor:
#      x y z
#    x 1.662310 0.000000 0.000000 
#    y 0.000000 1.660670 0.000000 
#    z 0.000000 0.000000 1.658450 
# 
# From -- ./inp_files/17433.got.cif
#   From: 2010.03.12/outbox.cif.g09.slc.cpg/sg59_9_cif.got.tgz:17433.got - 2010.04.16 16:29:54.
