data_PCOD8242848
_publ_section_title
;
Structure prediction by ZEFSAII (Michael W. Deem and Ramdas Pophale) SiO2 
 PCOD8242848
Probable space group: P M M N
;
_chemical_formula_sum "Si O2"
_cell_formula_units_Z 64
_cell_length_a 18.816436
_cell_length_b 8.685525
_cell_length_c 21.496529
_cell_angle_alpha 90.000000
_cell_angle_beta 90.000000
_cell_angle_gamma 90.000000
_cell_volume 3513.191176
_symmetry_space_group_name_H-M "P M M N"
_symmetry_group_IT_number 59
_space_group.IT_coordinate_system_code '2'
_symmetry_cell_setting 'orthorhombic'
loop_
_space_group_symop_operation_xyz
x,y,z
1/2-x,1/2-y,z
1/2+x,-y,-z
-x,1/2+y,-z
-x,-y,-z
1/2+x,1/2+y,-z
1/2-x,y,z
x,1/2-y,z
loop_
_atom_site_type_symbol
_atom_site_label
_atom_site_fract_x
_atom_site_fract_y
_atom_site_fract_z
Si Si1 0.030459 0.932141 0.437435
Si Si2 0.172213 0.566806 0.377353
Si Si3 0.667808 0.432799 0.881062
Si Si4 0.891496 0.432670 0.750187
Si Si5 0.077683 0.433108 0.006702
Si Si6 0.965813 0.933097 0.309996
Si Si7 0.328424 0.067290 0.895118
Si Si8 0.671212 0.933575 0.243403
O O1 0.027607 0.750000 0.441900
O O2 0.111802 0.989220 0.425984
O O3 0.982944 0.991834 0.379534
O O4 0.000000 0.000000 0.500000
O O5 0.250000 0.504768 0.398008
O O6 0.171345 0.750000 0.375688
O O7 0.155414 0.506040 0.307767
O O8 0.750000 0.482312 0.889936
O O9 0.659659 0.250000 0.884875
O O10 0.639650 0.497655 0.814730
O O11 0.618521 0.508763 0.932750
O O12 0.887552 0.250000 0.752255
O O13 0.973033 0.486858 0.738588
O O14 0.074922 0.250000 0.008361
O O15 0.117645 0.498553 0.945833
O O16 0.000000 0.500000 0.000000
O O17 0.963965 0.750000 0.310103
O O18 0.889271 0.000876 0.289251
O O19 0.250000 0.008711 0.913398
O O20 0.330492 0.250000 0.895545
O O21 0.347689 0.007861 0.826037
O O22 0.750000 0.992601 0.263397
O O23 0.670779 0.750000 0.244596
#
# Coordination Sequence:
#
# PCOD8242848 Si02
#       8
#     8   8   8   8   8   8   8   8
#     4   9  17  29  45  67  93 124 157 188 229 277
#     4   8  13  24  44  69  93 118 157 204 237 267
#     4  10  20  33  51  76 102 127 157 195 246 303
#     4   8  14  24  43  70  96 120 151 196 243 281
#     4  11  23  36  50  69  96 130 167 206 246 289
#     4   8  14  24  41  65  91 119 152 192 233 273
#     4   8  15  28  46  67  89 117 153 192 237 285
#     4   8  13  22  39  64  90 114 145 190 238 277
#
# _framework density 18.217057
#
# number of rings (size 3 to 8) (size 9 to 14) (size 15 to 20)
#    0.000    3.250    0.000    3.375    1.750    2.250 
#    0.000    0.625    0.000    4.125    0.000    0.000 
#    0.000    0.000    0.000    0.000    0.000    0.000 
#
# Total GULP energy -792994.762893 kJ/mol
# GULP energy per Si atom -12390.543170 kJ/mol
# Density = 1.817559 g / cm^3
# Si number density = 18.217057 Si / 1000 Ang^3
#
#
#
# Elastic Constant Matrix: (Units=GPa)
#
#
# Indices 1 2 3 4 5 6 
#
# 1 193.3101 20.6329 112.1080 0.0000 0.0000 0.0000
# 2 20.6329 16.0319 19.6383 0.0000 0.0000 0.0000
# 3 112.1080 19.6383 142.5515 0.0000 0.0000 0.0000
# 4 0.0000 0.0000 0.0000 22.3157 0.0000 0.0000
# 5 0.0000 0.0000 0.0000 0.0000 33.0257 0.0000
# 6 0.0000 0.0000 0.0000 0.0000 0.0000 14.9023
#
#
#
# Elastic Compliance Matrix: (Units=1/GPa)
#
#
# Indices 1 2 3 4 5 6 
#
# 1 0.009697 -0.003776 -0.007106 0.000000 0.000000 0.000000
# 2 -0.003776 0.076508 -0.007571 0.000000 0.000000 0.000000
# 3 -0.007106 -0.007571 0.013646 0.000000 0.000000 0.000000
# 4 0.000000 0.000000 0.000000 0.044812 0.000000 0.000000
# 5 0.000000 0.000000 0.000000 0.000000 0.030279 0.000000
# 6 0.000000 0.000000 0.000000 0.000000 0.000000 0.067104
#
#
# Mechanical properties :
#
#
# Convention : Reuss Voigt Hill
#
# Bulk Modulus (GPa) = 15.88634 72.96134 44.42384
# Shear Modulus (GPa) = 16.67034 27.34968 22.01001
#
# Velocity S-wave (km/s) = 3.02834 3.87889 3.47970
# Velocity P-wave (km/s) = 4.57900 7.75881 6.37050
#
# Compressibility (1/GPa) = 0.06294717
#
# Stress axis : x y z
#
# Youngs Moduli (GPa) = 103.12381 13.07047 73.27910
#
# Poissons Ratio (x) = 0.04935 0.52072
# Poissons Ratio (y) = 0.38934 0.55478
# Poissons Ratio (z) = 0.73280 0.09895
#
# Static dielectric constant tensor:
#      x y z
#    x 3.847210 0.000000 0.000000 
#    y 0.000000 2.731140 0.000000 
#    z 0.000000 0.000000 3.600300 
# 
# 
# High freq. dielectric constant tensor:
#      x y z
#    x 1.721670 0.000000 0.000000 
#    y 0.000000 1.639940 0.000000 
#    z 0.000000 0.000000 1.703050 
# 
# From -- ./inp_files/32322.got.cif
#   From: 2010.03.12/outbox.cif.g09.slc.cpg/sg59_17_cif.got.tgz:32322.got - 2010.04.16 16:29:54.
