data_PCOD8242442
_publ_section_title
;
Structure prediction by ZEFSAII (Michael W. Deem and Ramdas Pophale) SiO2 
 PCOD8242442
Probable space group: P M M N
;
_chemical_formula_sum "Si O2"
_cell_formula_units_Z 64
_cell_length_a 9.101026
_cell_length_b 19.182742
_cell_length_c 21.584667
_cell_angle_alpha 90.000000
_cell_angle_beta 90.000000
_cell_angle_gamma 90.000000
_cell_volume 3768.308012
_symmetry_space_group_name_H-M "P M M N"
_symmetry_group_IT_number 59
_space_group.IT_coordinate_system_code '2'
_symmetry_cell_setting 'orthorhombic'
loop_
_space_group_symop_operation_xyz
x,y,z
1/2-x,1/2-y,z
1/2+x,-y,-z
-x,1/2+y,-z
-x,-y,-z
1/2+x,1/2+y,-z
1/2-x,y,z
x,1/2-y,z
loop_
_atom_site_type_symbol
_atom_site_label
_atom_site_fract_x
_atom_site_fract_y
_atom_site_fract_z
Si Si1 0.918062 0.671191 0.389543
Si Si2 0.577153 0.828887 0.132666
Si Si3 0.422811 0.459494 0.443982
Si Si4 0.912240 0.603895 0.010332
Si Si5 0.419540 0.542995 0.188856
Si Si6 0.922022 0.329229 0.482344
Si Si7 0.412836 0.963721 0.911333
Si Si8 0.582652 0.054858 0.671170
O O1 0.750000 0.653635 0.407113
O O2 0.932030 0.750000 0.365105
O O3 0.020257 0.658176 0.448560
O O4 0.975102 0.620971 0.335491
O O5 0.750000 0.845431 0.139232
O O6 0.539565 0.750000 0.152395
O O7 0.530052 0.839866 0.060602
O O8 0.490196 0.881232 0.177012
O O9 0.500000 0.500000 0.500000
O O10 0.250000 0.455140 0.457366
O O11 0.490997 0.381942 0.437632
O O12 0.458160 0.496445 0.379109
O O13 0.750000 0.624234 0.986727
O O14 0.907197 0.530328 0.044909
O O15 0.015924 0.600146 0.950001
O O16 0.250000 0.547069 0.169400
O O17 0.494261 0.481236 0.149886
O O18 0.440454 0.523112 0.260702
O O19 0.750000 0.346644 0.481495
O O20 0.953242 0.250000 0.460636
O O21 0.250000 0.940866 0.890842
O O22 0.750000 0.080357 0.662326
#
# Coordination Sequence:
#
# PCOD8242442 Si02
#       8
#     8   8   8   8   8   8   8   8
#     4  10  20  32  48  70  94 125 165 204 242 292
#     4   9  18  32  48  68  97 131 165 200 235 273
#     4  11  21  34  53  76 100 128 164 210 262 309
#     4   8  14  25  43  66  90 118 150 187 231 274
#     4  10  20  33  47  65  92 128 166 200 237 288
#     4  10  20  34  52  74 100 127 155 194 249 308
#     4   9  16  27  44  66  90 116 149 192 236 273
#     4  10  22  36  49  68  97 132 168 207 254 304
#
# _framework density 16.983750000000001
#
# number of rings (size 3 to 8) (size 9 to 14) (size 15 to 20)
#    0.000    2.375    1.250    2.625    0.000    6.750 
#    0.000    2.500    0.000    0.000    0.000    0.875 
#    0.000    3.000    0.000    0.000    0.000    0.000 
#
# Total GULP energy -793506.791468 kJ/mol
# GULP energy per Si atom -12398.543617 kJ/mol
# Density = 1.694509 g / cm^3
# Si number density = 16.983750 Si / 1000 Ang^3
#
#
#
# Elastic Constant Matrix: (Units=GPa)
#
#
# Indices 1 2 3 4 5 6 
#
# 1 105.7410 40.8348 53.4496 0.0000 0.0000 0.0000
# 2 40.8348 56.6885 37.8519 0.0000 0.0000 0.0000
# 3 53.4496 37.8519 97.4329 0.0000 0.0000 0.0000
# 4 0.0000 0.0000 0.0000 18.5991 0.0000 0.0000
# 5 0.0000 0.0000 0.0000 0.0000 24.5866 0.0000
# 6 0.0000 0.0000 0.0000 0.0000 0.0000 25.8620
#
#
#
# Elastic Compliance Matrix: (Units=1/GPa)
#
#
# Indices 1 2 3 4 5 6 
#
# 1 0.014964 -0.007154 -0.005430 0.000000 0.000000 0.000000
# 2 -0.007154 0.027239 -0.006658 0.000000 0.000000 0.000000
# 3 -0.005430 -0.006658 0.015829 0.000000 0.000000 0.000000
# 4 0.000000 0.000000 0.000000 0.053766 0.000000 0.000000
# 5 0.000000 0.000000 0.000000 0.000000 0.040672 0.000000
# 6 0.000000 0.000000 0.000000 0.000000 0.000000 0.038667
#
#
# Mechanical properties :
#
#
# Convention : Reuss Voigt Hill
#
# Bulk Modulus (GPa) = 51.15315 58.23721 54.69518
# Shear Modulus (GPa) = 21.17420 22.32461 21.74941
#
# Velocity S-wave (km/s) = 3.53474 3.62949 3.58243
# Velocity P-wave (km/s) = 6.84423 7.20616 7.02752
#
# Compressibility (1/GPa) = 0.01954914
#
# Stress axis : x y z
#
# Youngs Moduli (GPa) = 66.82527 36.71236 63.17632
#
# Poissons Ratio (x) = 0.26263 0.34305
# Poissons Ratio (y) = 0.47805 0.42061
# Poissons Ratio (z) = 0.36286 0.24442
#
# Static dielectric constant tensor:
#      x y z
#    x 3.376160 0.000000 0.000000 
#    y 0.000000 3.157680 0.000000 
#    z 0.000000 0.000000 3.034700 
# 
# 
# High freq. dielectric constant tensor:
#      x y z
#    x 1.668950 0.000000 0.000000 
#    y 0.000000 1.629220 0.000000 
#    z 0.000000 0.000000 1.632310 
# 
# From -- ./inp_files/29609.got.cif
#   From: 2010.03.12/outbox.cif.g09.slc.cpg/sg59_15_cif.got.tgz:29609.got - 2010.04.16 16:29:54.
