data_PCOD8242837
_publ_section_title
;
Structure prediction by ZEFSAII (Michael W. Deem and Ramdas Pophale) SiO2 
 PCOD8242837
Probable space group: P M M N
;
_chemical_formula_sum "Si O2"
_cell_formula_units_Z 56
_cell_length_a 9.346382
_cell_length_b 14.453279
_cell_length_c 21.126357
_cell_angle_alpha 90.000000
_cell_angle_beta 90.000000
_cell_angle_gamma 90.000000
_cell_volume 2853.872245
_symmetry_space_group_name_H-M "P M M N"
_symmetry_group_IT_number 59
_space_group.IT_coordinate_system_code '2'
_symmetry_cell_setting 'orthorhombic'
loop_
_space_group_symop_operation_xyz
x,y,z
1/2-x,1/2-y,z
1/2+x,-y,-z
-x,1/2+y,-z
-x,-y,-z
1/2+x,1/2+y,-z
1/2-x,y,z
x,1/2-y,z
loop_
_atom_site_type_symbol
_atom_site_label
_atom_site_fract_x
_atom_site_fract_y
_atom_site_fract_z
Si Si1 0.085801 0.005968 0.409921
Si Si2 0.586937 0.419520 0.033001
Si Si3 0.081431 0.642715 0.829934
Si Si4 0.087797 0.359497 0.793477
Si Si5 0.416857 0.011742 0.265752
Si Si6 0.418209 0.143509 0.519632
Si Si7 0.597296 0.148179 0.904106
O O1 0.250000 0.978442 0.421623
O O2 0.993970 0.913932 0.424387
O O3 0.060107 0.039857 0.338510
O O4 0.041602 0.093156 0.453597
O O5 0.750000 0.450432 0.042700
O O6 0.524766 0.385595 0.099933
O O7 0.500000 0.500000 0.000000
O O8 0.570215 0.340806 0.979220
O O9 0.250000 0.623145 0.823267
O O10 0.047285 0.750000 0.819611
O O11 0.995326 0.586763 0.777484
O O12 0.250000 0.394646 0.787889
O O13 0.079427 0.250000 0.782456
O O14 0.988275 0.410496 0.742485
O O15 0.031782 0.395841 0.862967
O O16 0.250000 0.007027 0.247929
O O17 0.250000 0.141171 0.532697
O O18 0.472801 0.250000 0.517841
O O19 0.750000 0.095375 0.892362
O O20 0.612070 0.250000 0.875544
#
# Coordination Sequence:
#
# PCOD8242837 Si02
#       7
#     8   8   8   8   8   8   8
#     4   9  20  37  56  82 115 148 182 222 268 319
#     4  10  20  33  51  75 102 134 174 223 281 337
#     4  10  22  40  59  80 111 151 193 237 284 334
#     4  10  21  36  54  78 109 145 186 234 288 343
#     4  11  23  38  57  81 112 151 191 230 273 325
#     4   9  18  35  60  87 114 144 178 219 268 320
#     4   9  17  31  51  72  95 126 167 216 270 328
#
# _framework density 19.622461999999999
#
# number of rings (size 3 to 8) (size 9 to 14) (size 15 to 20)
#    0.000    2.286    0.000    2.143    0.000    8.857 
#    0.000    4.286    0.000    2.571    0.000    0.000 
#    0.000    0.000    0.000    0.000    0.000    0.000 
#
# Total GULP energy -693902.726128 kJ/mol
# GULP energy per Si atom -12391.120109 kJ/mol
# Density = 1.957780 g / cm^3
# Si number density = 19.622462 Si / 1000 Ang^3
#
#
#
# Elastic Constant Matrix: (Units=GPa)
#
#
# Indices 1 2 3 4 5 6 
#
# 1 87.3848 49.4258 47.2071 0.0000 0.0000 0.0000
# 2 49.4258 109.0654 39.1207 0.0000 0.0000 0.0000
# 3 47.2071 39.1207 109.8204 0.0000 0.0000 0.0000
# 4 0.0000 0.0000 0.0000 22.5825 0.0000 0.0000
# 5 0.0000 0.0000 0.0000 0.0000 29.6836 0.0000
# 6 0.0000 0.0000 0.0000 0.0000 0.0000 29.5962
#
#
#
# Elastic Compliance Matrix: (Units=1/GPa)
#
#
# Indices 1 2 3 4 5 6 
#
# 1 0.017885 -0.006131 -0.005504 0.000000 0.000000 0.000000
# 2 -0.006131 0.012613 -0.001858 0.000000 0.000000 0.000000
# 3 -0.005504 -0.001858 0.012134 0.000000 0.000000 0.000000
# 4 0.000000 0.000000 0.000000 0.044282 0.000000 0.000000
# 5 0.000000 0.000000 0.000000 0.000000 0.033689 0.000000
# 6 0.000000 0.000000 0.000000 0.000000 0.000000 0.033788
#
#
# Mechanical properties :
#
#
# Convention : Reuss Voigt Hill
#
# Bulk Modulus (GPa) = 63.91179 64.19754 64.05466
# Shear Modulus (GPa) = 26.79658 27.74024 27.26841
#
# Velocity S-wave (km/s) = 3.69942 3.76400 3.73185
# Velocity P-wave (km/s) = 7.13366 7.18871 7.16124
#
# Compressibility (1/GPa) = 0.01564657
#
# Stress axis : x y z
#
# Youngs Moduli (GPa) = 55.91425 79.28018 82.41632
#
# Poissons Ratio (x) = 0.48604 0.45361
# Poissons Ratio (y) = 0.34279 0.15312
# Poissons Ratio (z) = 0.30775 0.14730
#
# Static dielectric constant tensor:
#      x y z
#    x 3.680230 0.000000 0.000000 
#    y 0.000000 3.310910 0.000000 
#    z 0.000000 0.000000 3.848920 
# 
# 
# High freq. dielectric constant tensor:
#      x y z
#    x 1.763780 0.000000 0.000000 
#    y 0.000000 1.760000 0.000000 
#    z 0.000000 0.000000 1.763060 
# 
# From -- ./inp_files/29165.got.cif
#   From: 2010.03.12/outbox.cif.g09.slc.cpg/sg59_15_cif.got.tgz:29165.got - 2010.04.16 16:29:54.
