data_PCOD8242556
_publ_section_title
;
Structure prediction by ZEFSAII (Michael W. Deem and Ramdas Pophale) SiO2 
 PCOD8242556
Probable space group: P M M N
;
_chemical_formula_sum "Si O2"
_cell_formula_units_Z 48
_cell_length_a 15.440456
_cell_length_b 8.814117
_cell_length_c 17.262747
_cell_angle_alpha 90.000000
_cell_angle_beta 90.000000
_cell_angle_gamma 90.000000
_cell_volume 2349.356044
_symmetry_space_group_name_H-M "P M M N"
_symmetry_group_IT_number 59
_space_group.IT_coordinate_system_code '2'
_symmetry_cell_setting 'orthorhombic'
loop_
_space_group_symop_operation_xyz
x,y,z
1/2-x,1/2-y,z
1/2+x,-y,-z
-x,1/2+y,-z
-x,-y,-z
1/2+x,1/2+y,-z
1/2-x,y,z
x,1/2-y,z
loop_
_atom_site_type_symbol
_atom_site_label
_atom_site_fract_x
_atom_site_fract_y
_atom_site_fract_z
Si Si1 0.615563 0.585236 0.341694
Si Si2 0.250000 0.074523 0.086072
Si Si3 0.586265 0.084436 0.652835
Si Si4 0.099764 0.432378 0.824363
Si Si5 0.250000 0.928700 0.923093
Si Si6 0.085694 0.073159 0.192232
Si Si7 0.652051 0.922289 0.506222
O O1 0.661447 0.750000 0.346131
O O2 0.514189 0.606471 0.336525
O O3 0.639350 0.508740 0.258999
O O4 0.643544 0.498089 0.420643
O O5 0.250000 0.250000 0.059581
O O6 0.163535 0.037598 0.134027
O O7 0.250000 0.962852 0.013723
O O8 0.632033 0.250000 0.655732
O O9 0.619862 0.981058 0.723332
O O10 0.597479 0.011784 0.568789
O O11 0.099199 0.250000 0.827528
O O12 0.162410 0.498570 0.889326
O O13 0.001317 0.489327 0.837079
O O14 0.250000 0.750000 0.908006
O O15 0.064536 0.250000 0.197609
O O16 0.750000 0.926065 0.535033
O O17 0.616170 0.750000 0.501519
#
# Coordination Sequence:
#
# PCOD8242556 Si02
#       7
#     8   4   8   8   4   8   8
#     4   8  17  34  56  80 106 147 197 240 289 347
#     4  10  24  44  66  91 120 159 200 245 302 365
#     4  10  20  35  54  79 113 152 195 241 296 354
#     4  10  21  40  66  93 124 162 203 248 304 362
#     4  12  26  42  64  95 126 159 198 245 300 361
#     4  10  21  40  65  92 122 157 203 252 302 361
#     4  10  20  32  50  77 109 148 196 243 288 340
#
# _framework density 20.43113
#
# number of rings (size 3 to 8) (size 9 to 14) (size 15 to 20)
#    0.000    2.167    0.000    3.750    2.333    2.333 
#    0.000    4.167    0.000    0.000    0.000    0.000 
#    0.000    0.000    0.000    0.000    0.000    0.000 
#
# Total GULP energy -594826.735343 kJ/mol
# GULP energy per Si atom -12392.223653 kJ/mol
# Density = 2.038463 g / cm^3
# Si number density = 20.431130 Si / 1000 Ang^3
#
#
#
# Elastic Constant Matrix: (Units=GPa)
#
#
# Indices 1 2 3 4 5 6 
#
# 1 80.7437 39.9134 49.2798 0.0000 0.0000 0.0000
# 2 39.9134 103.7552 52.7824 0.0000 0.0000 0.0000
# 3 49.2798 52.7824 141.6038 0.0000 0.0000 0.0000
# 4 0.0000 0.0000 0.0000 26.9131 0.0000 0.0000
# 5 0.0000 0.0000 0.0000 0.0000 20.9789 0.0000
# 6 0.0000 0.0000 0.0000 0.0000 0.0000 5.9413
#
#
#
# Elastic Compliance Matrix: (Units=1/GPa)
#
#
# Indices 1 2 3 4 5 6 
#
# 1 0.017220 -0.004412 -0.004348 0.000000 0.000000 0.000000
# 2 -0.004412 0.013024 -0.003319 0.000000 0.000000 0.000000
# 3 -0.004348 -0.003319 0.009812 0.000000 0.000000 0.000000
# 4 0.000000 0.000000 0.000000 0.037157 0.000000 0.000000
# 5 0.000000 0.000000 0.000000 0.000000 0.047667 0.000000
# 6 0.000000 0.000000 0.000000 0.000000 0.000000 0.168312
#
#
# Mechanical properties :
#
#
# Convention : Reuss Voigt Hill
#
# Bulk Modulus (GPa) = 62.90446 67.78378 65.34412
# Shear Modulus (GPa) = 15.49669 23.04181 19.26925
#
# Velocity S-wave (km/s) = 2.75705 3.36189 3.07438
# Velocity P-wave (km/s) = 6.40238 6.95115 6.68240
#
# Compressibility (1/GPa) = 0.01589712
#
# Stress axis : x y z
#
# Youngs Moduli (GPa) = 58.07320 76.78180 101.91294
#
# Poissons Ratio (x) = 0.33878 0.44312
# Poissons Ratio (y) = 0.25624 0.33826
# Poissons Ratio (z) = 0.25250 0.25485
#
# Static dielectric constant tensor:
#      x y z
#    x 3.556990 0.000000 0.000000 
#    y 0.000000 3.690670 0.000000 
#    z 0.000000 0.000000 3.899910 
# 
# 
# High freq. dielectric constant tensor:
#      x y z
#    x 1.797610 0.000000 0.000000 
#    y 0.000000 1.779790 0.000000 
#    z 0.000000 0.000000 1.809550 
# 
# From -- ./inp_files/27483.got.cif
#   From: 2010.03.12/outbox.cif.g09.slc.cpg/sg59_14_cif.got.tgz:27483.got - 2010.04.16 16:29:54.
