data_PCOD8242013
_publ_section_title
;
Structure prediction by ZEFSAII (Michael W. Deem and Ramdas Pophale) SiO2 
 PCOD8242013
Probable space group: P M M N
;
_chemical_formula_sum "Si O2"
_cell_formula_units_Z 64
_cell_length_a 22.847167
_cell_length_b 15.283877
_cell_length_c 9.489813
_cell_angle_alpha 90.000000
_cell_angle_beta 90.000000
_cell_angle_gamma 90.000000
_cell_volume 3313.779025
_symmetry_space_group_name_H-M "P M M N"
_symmetry_group_IT_number 59
_space_group.IT_coordinate_system_code '2'
_symmetry_cell_setting 'orthorhombic'
loop_
_space_group_symop_operation_xyz
x,y,z
1/2-x,1/2-y,z
1/2+x,-y,-z
-x,1/2+y,-z
-x,-y,-z
1/2+x,1/2+y,-z
1/2-x,y,z
x,1/2-y,z
loop_
_atom_site_type_symbol
_atom_site_label
_atom_site_fract_x
_atom_site_fract_y
_atom_site_fract_z
Si Si1 0.981768 0.611401 0.372585
Si Si2 0.593751 0.348832 0.122277
Si Si3 0.358956 0.347991 0.698545
Si Si4 0.991566 0.583372 0.686990
Si Si5 0.368659 0.028633 0.193399
Si Si6 0.907259 0.345427 0.799253
Si Si7 0.184106 0.153980 0.400853
Si Si8 0.318443 0.001724 0.894424
O O1 0.928665 0.649862 0.279733
O O2 0.978983 0.507908 0.352027
O O3 0.978408 0.634207 0.540099
O O4 0.038787 0.655220 0.306939
O O5 0.616894 0.250000 0.146558
O O6 0.537558 0.362942 0.220391
O O7 0.647250 0.414919 0.158719
O O8 0.572514 0.361581 0.960718
O O9 0.334935 0.250000 0.731751
O O10 0.353708 0.373333 0.534728
O O11 0.322819 0.419081 0.784993
O O12 0.932860 0.569121 0.778664
O O13 0.321368 0.082001 0.280702
O O14 0.364816 0.926247 0.240896
O O15 0.350407 0.038588 0.032354
O O16 0.875812 0.250000 0.785613
O O17 0.250000 0.156766 0.454346
O O18 0.165086 0.250000 0.343251
O O19 0.250000 0.978507 0.919144
#
# Coordination Sequence:
#
# PCOD8242013 Si02
#       8
#     8   8   8   8   8   8   8   8
#     4  10  19  34  57  86 118 150 183 228 285 348
#     4  10  22  39  60  85 117 154 193 239 291 345
#     4  11  22  37  58  83 113 150 191 235 286 342
#     4  10  20  35  58  88 118 146 186 233 288 346
#     4  10  21  37  61  83 115 151 189 237 288 341
#     4   9  20  35  55  86 118 149 184 227 280 341
#     4  10  21  38  57  78 108 148 194 238 283 338
#     4  11  24  40  59  84 115 152 199 245 286 337
#
# _framework density 19.313296000000001
#
# number of rings (size 3 to 8) (size 9 to 14) (size 15 to 20)
#    0.000    1.875    2.500    1.125    1.750    4.500 
#    0.000    0.000    0.000    1.125    0.000    0.000 
#    0.000    0.000    0.000    0.000    0.000    0.000 
#
# Total GULP energy -793326.980643 kJ/mol
# GULP energy per Si atom -12395.734073 kJ/mol
# Density = 1.926934 g / cm^3
# Si number density = 19.313296 Si / 1000 Ang^3
#
#
#
# Elastic Constant Matrix: (Units=GPa)
#
#
# Indices 1 2 3 4 5 6 
#
# 1 82.4736 32.0742 33.0068 0.0000 0.0000 0.0000
# 2 32.0742 126.6893 48.6264 0.0000 0.0000 0.0000
# 3 33.0068 48.6264 69.7324 0.0000 0.0000 0.0000
# 4 0.0000 0.0000 0.0000 27.7413 0.0000 0.0000
# 5 0.0000 0.0000 0.0000 0.0000 23.3801 0.0000
# 6 0.0000 0.0000 0.0000 0.0000 0.0000 21.8999
#
#
#
# Elastic Compliance Matrix: (Units=1/GPa)
#
#
# Indices 1 2 3 4 5 6 
#
# 1 0.015159 -0.001480 -0.006143 0.000000 0.000000 0.000000
# 2 -0.001480 0.010923 -0.006916 0.000000 0.000000 0.000000
# 3 -0.006143 -0.006916 0.022071 0.000000 0.000000 0.000000
# 4 0.000000 0.000000 0.000000 0.036047 0.000000 0.000000
# 5 0.000000 0.000000 0.000000 0.000000 0.042771 0.000000
# 6 0.000000 0.000000 0.000000 0.000000 0.000000 0.045662
#
#
# Mechanical properties :
#
#
# Convention : Reuss Voigt Hill
#
# Bulk Modulus (GPa) = 52.42694 56.25667 54.34180
# Shear Modulus (GPa) = 24.03024 25.61679 24.82352
#
# Velocity S-wave (km/s) = 3.53120 3.64590 3.58901
# Velocity P-wave (km/s) = 6.62044 6.84947 6.73593
#
# Compressibility (1/GPa) = 0.01907416
#
# Stress axis : x y z
#
# Youngs Moduli (GPa) = 65.96604 91.55357 45.30782
#
# Poissons Ratio (x) = 0.13549 0.27835
# Poissons Ratio (y) = 0.09762 0.31335
# Poissons Ratio (z) = 0.40526 0.63320
#
# Static dielectric constant tensor:
#      x y z
#    x 3.339740 0.000000 0.000000 
#    y 0.000000 3.703300 0.000000 
#    z 0.000000 0.000000 3.477370 
# 
# 
# High freq. dielectric constant tensor:
#      x y z
#    x 1.735700 0.000000 0.000000 
#    y 0.000000 1.761010 0.000000 
#    z 0.000000 0.000000 1.746320 
# 
# From -- ./inp_files/9596.got.cif
#   From: 2010.03.12/outbox.cif.g09.slc.cpg/sg59_5_cif.got.tgz:9596.got - 2010.04.16 16:29:54.
