data_PCOD8242118
_publ_section_title
;
Structure prediction by ZEFSAII (Michael W. Deem and Ramdas Pophale) SiO2 
 PCOD8242118
Probable space group: P M M N
;
_chemical_formula_sum "Si O2"
_cell_formula_units_Z 64
_cell_length_a 25.651805
_cell_length_b 8.616712
_cell_length_c 14.737631
_cell_angle_alpha 90.000000
_cell_angle_beta 90.000000
_cell_angle_gamma 90.000000
_cell_volume 3257.520713
_symmetry_space_group_name_H-M "P M M N"
_symmetry_group_IT_number 59
_space_group.IT_coordinate_system_code '2'
_symmetry_cell_setting 'orthorhombic'
loop_
_space_group_symop_operation_xyz
x,y,z
1/2-x,1/2-y,z
1/2+x,-y,-z
-x,1/2+y,-z
-x,-y,-z
1/2+x,1/2+y,-z
1/2-x,y,z
x,1/2-y,z
loop_
_atom_site_type_symbol
_atom_site_label
_atom_site_fract_x
_atom_site_fract_y
_atom_site_fract_z
Si Si1 0.307795 0.066255 0.787393
Si Si2 0.841240 0.069421 0.021808
Si Si3 0.552151 0.925048 0.033068
Si Si4 0.013654 0.423987 0.770678
Si Si5 0.556428 0.567522 0.527805
Si Si6 0.603686 0.567046 0.344019
Si Si7 0.905610 0.433939 0.716245
Si Si8 0.192565 0.934026 0.173403
O O1 0.250000 0.001411 0.766425
O O2 0.308350 0.250000 0.782853
O O3 0.346131 0.996268 0.709180
O O4 0.323267 0.021849 0.889528
O O5 0.831778 0.250000 0.039488
O O6 0.901644 0.035883 0.001399
O O7 0.811812 0.010100 0.931385
O O8 0.559512 0.750000 0.995987
O O9 0.548774 0.925371 0.140786
O O10 0.500000 0.000000 0.000000
O O11 0.002684 0.250000 0.736760
O O12 0.050152 0.507944 0.696317
O O13 0.955192 0.495101 0.777147
O O14 0.500000 0.500000 0.500000
O O15 0.549175 0.750000 0.542336
O O16 0.600577 0.532004 0.450856
O O17 0.582863 0.491970 0.615296
O O18 0.603459 0.750000 0.324086
O O19 0.899052 0.250000 0.715001
O O20 0.852744 0.505395 0.761285
O O21 0.250000 0.984778 0.209459
O O22 0.186639 0.750000 0.172943
#
# Coordination Sequence:
#
# PCOD8242118 Si02
#       8
#     8   8   8   8   8   8   8   8
#     4  10  20  36  58  81 106 144 190 229 271 329
#     4  11  21  35  56  82 112 147 189 232 277 325
#     4  11  21  34  52  77 112 149 189 229 274 330
#     4   9  16  30  52  74 104 143 176 213 267 333
#     4  11  21  35  57  83 111 141 178 222 275 330
#     4   9  17  33  54  76 106 142 175 213 267 333
#     4  10  19  35  58  81 105 139 183 227 273 326
#     4   9  19  36  57  79 107 148 193 228 267 329
#
# _framework density 19.646844000000002
#
# number of rings (size 3 to 8) (size 9 to 14) (size 15 to 20)
#    0.000    2.000    2.500    2.250    0.000    2.750 
#    0.000    6.875    0.000    2.625    0.000    0.000 
#    0.000    0.000    0.000    0.000    0.000    0.000 
#
# Total GULP energy -792891.973476 kJ/mol
# GULP energy per Si atom -12388.937086 kJ/mol
# Density = 1.960213 g / cm^3
# Si number density = 19.646844 Si / 1000 Ang^3
#
#
#
# Elastic Constant Matrix: (Units=GPa)
#
#
# Indices 1 2 3 4 5 6 
#
# 1 160.6298 9.1443 54.1219 0.0000 0.0000 0.0000
# 2 9.1443 19.0606 7.2375 0.0000 0.0000 0.0000
# 3 54.1219 7.2375 83.1907 0.0000 0.0000 0.0000
# 4 0.0000 0.0000 0.0000 27.0013 0.0000 0.0000
# 5 0.0000 0.0000 0.0000 0.0000 25.8934 0.0000
# 6 0.0000 0.0000 0.0000 0.0000 0.0000 17.0703
#
#
#
# Elastic Compliance Matrix: (Units=1/GPa)
#
#
# Indices 1 2 3 4 5 6 
#
# 1 0.008042 -0.001935 -0.005063 0.000000 0.000000 0.000000
# 2 -0.001935 0.054722 -0.003502 0.000000 0.000000 0.000000
# 3 -0.005063 -0.003502 0.015619 0.000000 0.000000 0.000000
# 4 0.000000 0.000000 0.000000 0.037035 0.000000 0.000000
# 5 0.000000 0.000000 0.000000 0.000000 0.038620 0.000000
# 6 0.000000 0.000000 0.000000 0.000000 0.000000 0.058581
#
#
# Mechanical properties :
#
#
# Convention : Reuss Voigt Hill
#
# Bulk Modulus (GPa) = 17.42687 44.87651 31.15169
# Shear Modulus (GPa) = 19.78253 26.81816 23.30034
#
# Velocity S-wave (km/s) = 3.17662 3.69861 3.44751
# Velocity P-wave (km/s) = 4.72693 6.41333 5.63359
#
# Compressibility (1/GPa) = 0.05738266
#
# Stress axis : x y z
#
# Youngs Moduli (GPa) = 124.35174 18.27403 64.02328
#
# Poissons Ratio (x) = 0.03537 0.32417
# Poissons Ratio (y) = 0.24067 0.22419
# Poissons Ratio (z) = 0.62964 0.06399
#
# Static dielectric constant tensor:
#      x y z
#    x 4.098890 0.000000 0.000000 
#    y 0.000000 3.227700 0.000000 
#    z 0.000000 0.000000 3.940340 
# 
# 
# High freq. dielectric constant tensor:
#      x y z
#    x 1.776760 0.000000 0.000000 
#    y 0.000000 1.724080 0.000000 
#    z 0.000000 0.000000 1.764710 
# 
# From -- ./inp_files/24786.got.cif
#   From: 2010.03.12/outbox.cif.g09.slc.cpg/sg59_13_cif.got.tgz:24786.got - 2010.04.16 16:29:54.
