data_PCOD8242187
_publ_section_title
;
Structure prediction by ZEFSAII (Michael W. Deem and Ramdas Pophale) SiO2 
 PCOD8242187
Probable space group: P M M N
;
_chemical_formula_sum "Si O2"
_cell_formula_units_Z 64
_cell_length_a 8.781130
_cell_length_b 30.597595
_cell_length_c 11.915423
_cell_angle_alpha 90.000000
_cell_angle_beta 90.000000
_cell_angle_gamma 90.000000
_cell_volume 3201.453241
_symmetry_space_group_name_H-M "P M M N"
_symmetry_group_IT_number 59
_space_group.IT_coordinate_system_code '2'
_symmetry_cell_setting 'orthorhombic'
loop_
_space_group_symop_operation_xyz
x,y,z
1/2-x,1/2-y,z
1/2+x,-y,-z
-x,1/2+y,-z
-x,-y,-z
1/2+x,1/2+y,-z
1/2-x,y,z
x,1/2-y,z
loop_
_atom_site_type_symbol
_atom_site_label
_atom_site_fract_x
_atom_site_fract_y
_atom_site_fract_z
Si Si1 0.923193 0.178257 0.736629
Si Si2 0.570282 0.547785 0.495547
Si Si3 0.430978 0.798836 0.507664
Si Si4 0.927981 0.876131 0.891696
Si Si5 0.575325 0.077224 0.729256
Si Si6 0.923227 0.701816 0.041621
Si Si7 0.069804 0.619384 0.651172
Si Si8 0.072092 0.457508 0.947671
O O1 0.750000 0.193766 0.734964
O O2 0.997142 0.190688 0.616430
O O3 0.939048 0.127368 0.763065
O O4 0.002303 0.203878 0.836513
O O5 0.500000 0.500000 0.500000
O O6 0.750000 0.544217 0.507878
O O7 0.526623 0.570154 0.379338
O O8 0.507068 0.577112 0.596500
O O9 0.250000 0.801689 0.504134
O O10 0.484110 0.750000 0.544989
O O11 0.491750 0.835638 0.593967
O O12 0.750000 0.871561 0.860597
O O13 0.027076 0.880540 0.780815
O O14 0.993737 0.833504 0.956392
O O15 0.959362 0.917490 0.969704
O O16 0.750000 0.064060 0.703949
O O17 0.511387 0.048474 0.829781
O O18 0.750000 0.687878 0.061456
O O19 0.939015 0.750000 0.987143
O O20 0.250000 0.615116 0.635977
O O21 0.250000 0.464124 0.925298
O O22 0.000000 0.500000 0.000000
#
# Coordination Sequence:
#
# PCOD8242187 Si02
#       8
#     8   8   8   8   8   8   8   8
#     4  10  19  35  61  90 124 159 198 248 302 361
#     4  12  26  44  67  93 125 163 204 251 306 367
#     4   9  18  35  59  88 122 159 199 248 304 359
#     4  10  23  42  60  84 120 164 207 251 306 366
#     4  11  22  40  66  96 127 159 202 253 306 364
#     4  10  21  38  60  87 122 161 203 253 306 362
#     4  11  23  41  63  90 123 162 208 257 307 362
#     4  11  24  42  64  90 123 163 206 254 307 365
#
# _framework density 19.990922999999999
#
# number of rings (size 3 to 8) (size 9 to 14) (size 15 to 20)
#    0.000    1.500    2.500    2.625    1.750    3.250 
#    0.000    0.000    0.000    1.875    0.000    0.000 
#    0.000    0.000    0.000    0.000    0.000    0.000 
#
# Total GULP energy -793740.529910 kJ/mol
# GULP energy per Si atom -12402.195780 kJ/mol
# Density = 1.994542 g / cm^3
# Si number density = 19.990923 Si / 1000 Ang^3
#
#
#
# Elastic Constant Matrix: (Units=GPa)
#
#
# Indices 1 2 3 4 5 6 
#
# 1 82.0381 43.3376 34.6308 0.0000 0.0000 0.0000
# 2 43.3376 110.9148 29.8094 0.0000 0.0000 0.0000
# 3 34.6308 29.8094 103.5713 0.0000 0.0000 0.0000
# 4 0.0000 0.0000 0.0000 29.9691 0.0000 0.0000
# 5 0.0000 0.0000 0.0000 0.0000 36.8741 0.0000
# 6 0.0000 0.0000 0.0000 0.0000 0.0000 23.4100
#
#
#
# Elastic Compliance Matrix: (Units=1/GPa)
#
#
# Indices 1 2 3 4 5 6 
#
# 1 0.016785 -0.005473 -0.004037 0.000000 0.000000 0.000000
# 2 -0.005473 0.011557 -0.001496 0.000000 0.000000 0.000000
# 3 -0.004037 -0.001496 0.011436 0.000000 0.000000 0.000000
# 4 0.000000 0.000000 0.000000 0.033368 0.000000 0.000000
# 5 0.000000 0.000000 0.000000 0.000000 0.027119 0.000000
# 6 0.000000 0.000000 0.000000 0.000000 0.000000 0.042717
#
#
# Mechanical properties :
#
#
# Convention : Reuss Voigt Hill
#
# Bulk Modulus (GPa) = 56.29268 56.89777 56.59523
# Shear Modulus (GPa) = 29.25423 30.63373 29.94398
#
# Velocity S-wave (km/s) = 3.82956 3.91881 3.87444
# Velocity P-wave (km/s) = 6.91189 6.99998 6.95608
#
# Compressibility (1/GPa) = 0.01776430
#
# Stress axis : x y z
#
# Youngs Moduli (GPa) = 59.57699 86.53041 87.44615
#
# Poissons Ratio (x) = 0.47362 0.35302
# Poissons Ratio (y) = 0.32609 0.13082
# Poissons Ratio (z) = 0.24051 0.12945
#
# Static dielectric constant tensor:
#      x y z
#    x 3.652110 0.000000 0.000000 
#    y 0.000000 3.923540 0.000000 
#    z 0.000000 0.000000 3.631660 
# 
# 
# High freq. dielectric constant tensor:
#      x y z
#    x 1.766570 0.000000 0.000000 
#    y 0.000000 1.797880 0.000000 
#    z 0.000000 0.000000 1.783680 
# 
# From -- ./inp_files/14935.got.cif
#   From: 2010.03.12/outbox.cif.g09.slc.cpg/sg59_8_cif.got.tgz:14935.got - 2010.04.16 16:29:54.
