data_PCOD8242575
_publ_section_title
;
Structure prediction by ZEFSAII (Michael W. Deem and Ramdas Pophale) SiO2 
 PCOD8242575
Probable space group: P M M N
;
_chemical_formula_sum "Si O2"
_cell_formula_units_Z 48
_cell_length_a 17.836713
_cell_length_b 17.695088
_cell_length_c 8.798094
_cell_angle_alpha 90.000000
_cell_angle_beta 90.000000
_cell_angle_gamma 90.000000
_cell_volume 2776.873838
_symmetry_space_group_name_H-M "P M M N"
_symmetry_group_IT_number 59
_space_group.IT_coordinate_system_code '2'
_symmetry_cell_setting 'orthorhombic'
loop_
_space_group_symop_operation_xyz
x,y,z
1/2-x,1/2-y,z
1/2+x,-y,-z
-x,1/2+y,-z
-x,-y,-z
1/2+x,1/2+y,-z
1/2-x,y,z
x,1/2-y,z
loop_
_atom_site_type_symbol
_atom_site_label
_atom_site_fract_x
_atom_site_fract_y
_atom_site_fract_z
Si Si1 0.857980 0.167335 0.041158
Si Si2 0.338186 0.585496 0.254263
Si Si3 0.331392 0.516600 0.789945
Si Si4 0.420642 0.035335 0.053119
Si Si5 0.507388 0.834330 0.788710
Si Si6 0.438247 0.562712 0.538103
O O1 0.824241 0.250000 0.084996
O O2 0.820199 0.099840 0.135464
O O3 0.945497 0.166601 0.079392
O O4 0.845092 0.156176 0.860805
O O5 0.250000 0.573093 0.298400
O O6 0.373524 0.514066 0.170429
O O7 0.391928 0.599696 0.399267
O O8 0.250000 0.484009 0.750930
O O9 0.377645 0.518493 0.636721
O O10 0.371502 0.457162 0.901676
O O11 0.427251 0.115069 0.138693
O O12 0.500000 0.000000 0.000000
O O13 0.537184 0.750000 0.753885
O O14 0.476232 0.869351 0.632028
O O15 0.500000 0.500000 0.500000
#
# Coordination Sequence:
#
# PCOD8242575 Si02
#       6
#     8   8   8   8   8   8
#     4   9  18  32  50  74 107 142 174 210 258 309
#     4  11  21  31  51  81 108 138 177 217 257 309
#     4  10  20  32  52  79 105 136 177 217 262 314
#     4  11  16  34  56  78 101 135 180 219 257 300
#     4  10  20  34  55  80 105 134 177 223 264 307
#     4  11  20  35  54  75 106 141 177 214 257 313
#
# _framework density 17.285626000000001
#
# number of rings (size 3 to 8) (size 9 to 14) (size 15 to 20)
#    0.000    1.667    6.667    2.500    0.000    2.000 
#    0.000    0.000    0.000    5.000    0.000    0.000 
#    0.000    0.000    0.000    0.000    0.000    0.000 
#
# Total GULP energy -594686.250376 kJ/mol
# GULP energy per Si atom -12389.296883 kJ/mol
# Density = 1.724628 g / cm^3
# Si number density = 17.285626 Si / 1000 Ang^3
#
#
#
# Elastic Constant Matrix: (Units=GPa)
#
#
# Indices 1 2 3 4 5 6 
#
# 1 95.3753 39.3108 37.4749 0.0000 0.0000 0.0000
# 2 39.3108 76.9545 18.0852 0.0000 0.0000 0.0000
# 3 37.4749 18.0852 94.7491 0.0000 0.0000 0.0000
# 4 0.0000 0.0000 0.0000 16.0099 0.0000 0.0000
# 5 0.0000 0.0000 0.0000 0.0000 15.9804 0.0000
# 6 0.0000 0.0000 0.0000 0.0000 0.0000 11.2092
#
#
#
# Elastic Compliance Matrix: (Units=1/GPa)
#
#
# Indices 1 2 3 4 5 6 
#
# 1 0.015041 -0.006581 -0.004693 0.000000 0.000000 0.000000
# 2 -0.006581 0.016484 -0.000544 0.000000 0.000000 0.000000
# 3 -0.004693 -0.000544 0.012514 0.000000 0.000000 0.000000
# 4 0.000000 0.000000 0.000000 0.062461 0.000000 0.000000
# 5 0.000000 0.000000 0.000000 0.000000 0.062577 0.000000
# 6 0.000000 0.000000 0.000000 0.000000 0.000000 0.089213
#
#
# Mechanical properties :
#
#
# Convention : Reuss Voigt Hill
#
# Bulk Modulus (GPa) = 49.00785 50.75783 49.88284
# Shear Modulus (GPa) = 17.31745 20.12042 18.71893
#
# Velocity S-wave (km/s) = 3.16862 3.41544 3.29434
# Velocity P-wave (km/s) = 6.46531 6.70683 6.58718
#
# Compressibility (1/GPa) = 0.02040489
#
# Stress axis : x y z
#
# Youngs Moduli (GPa) = 66.48406 60.66467 79.90979
#
# Poissons Ratio (x) = 0.39921 0.37501
# Poissons Ratio (y) = 0.43751 0.04344
# Poissons Ratio (z) = 0.31201 0.03298
#
# Static dielectric constant tensor:
#      x y z
#    x 3.224870 0.000000 0.000000 
#    y 0.000000 2.993110 0.000000 
#    z 0.000000 0.000000 1.156470 
# 
# 
# High freq. dielectric constant tensor:
#      x y z
#    x 1.668030 0.000000 0.000000 
#    y 0.000000 1.639630 0.000000 
#    z 0.000000 0.000000 1.671850 
# 
# From -- ./inp_files/10385.got.cif
#   From: 2010.03.12/outbox.cif.g09.slc.cpg/sg59_6_cif.got.tgz:10385.got - 2010.04.16 16:29:54.
