data_PCOD8242830
_publ_section_title
;
Structure prediction by ZEFSAII (Michael W. Deem and Ramdas Pophale) SiO2 
 PCOD8242830
Probable space group: P M M N
;
_chemical_formula_sum "Si O2"
_cell_formula_units_Z 64
_cell_length_a 9.196883
_cell_length_b 17.695223
_cell_length_c 21.202230
_cell_angle_alpha 90.000000
_cell_angle_beta 90.000000
_cell_angle_gamma 90.000000
_cell_volume 3450.469899
_symmetry_space_group_name_H-M "P M M N"
_symmetry_group_IT_number 59
_space_group.IT_coordinate_system_code '2'
_symmetry_cell_setting 'orthorhombic'
loop_
_space_group_symop_operation_xyz
x,y,z
1/2-x,1/2-y,z
1/2+x,-y,-z
-x,1/2+y,-z
-x,-y,-z
1/2+x,1/2+y,-z
1/2-x,y,z
x,1/2-y,z
loop_
_atom_site_type_symbol
_atom_site_label
_atom_site_fract_x
_atom_site_fract_y
_atom_site_fract_z
Si Si1 0.917532 0.833840 0.632735
Si Si2 0.917585 0.057514 0.910269
Si Si3 0.422042 0.595182 0.742132
Si Si4 0.581281 0.452058 0.694204
Si Si5 0.579586 0.334755 0.797300
Si Si6 0.416807 0.016520 0.436837
Si Si7 0.086020 0.164884 0.147836
Si Si8 0.583489 0.091517 0.052026
O O1 0.750000 0.845373 0.653110
O O2 0.942383 0.750000 0.603645
O O3 0.015377 0.842105 0.694556
O O4 0.962656 0.898659 0.583505
O O5 0.750000 0.034125 0.896305
O O6 0.978832 0.112415 0.854607
O O7 0.928440 0.099770 0.977027
O O8 0.017642 0.984243 0.916630
O O9 0.250000 0.598297 0.740954
O O10 0.476415 0.512122 0.725962
O O11 0.482554 0.612701 0.810624
O O12 0.750000 0.474946 0.705270
O O13 0.546469 0.372122 0.728243
O O14 0.549006 0.454899 0.618659
O O15 0.750000 0.326548 0.806997
O O16 0.509708 0.250000 0.798958
O O17 0.250000 0.013389 0.455109
O O18 0.500000 0.000000 0.500000
O O19 0.250000 0.133137 0.147392
O O20 0.084782 0.250000 0.172642
O O21 0.013813 0.160436 0.078494
O O22 0.750000 0.097123 0.073909
#
# Coordination Sequence:
#
# PCOD8242830 Si02
#       8
#     8   8   8   8   8   8   8   8
#     4   9  18  34  54  75 102 136 173 211 255 311
#     4   9  18  33  54  77 101 131 166 208 262 320
#     4  11  21  32  51  78 104 130 165 210 257 306
#     4   9  18  34  55  77 103 136 172 208 250 305
#     4   9  17  31  54  80 101 127 169 217 261 307
#     4   9  18  32  51  76 104 137 174 208 247 297
#     4  11  23  36  49  67  97 137 173 204 248 307
#     4  10  20  33  51  75 101 130 169 216 259 306
#
# _framework density 18.548199
#
# number of rings (size 3 to 8) (size 9 to 14) (size 15 to 20)
#    0.000    2.375    0.000    3.750    0.000    6.750 
#    0.000    1.875    0.000    2.250    0.000    0.000 
#    0.000    0.000    0.000    0.000    0.000    0.000 
#
# Total GULP energy -793179.441341 kJ/mol
# GULP energy per Si atom -12393.428771 kJ/mol
# Density = 1.850598 g / cm^3
# Si number density = 18.548199 Si / 1000 Ang^3
#
#
#
# Elastic Constant Matrix: (Units=GPa)
#
#
# Indices 1 2 3 4 5 6 
#
# 1 91.6362 27.7865 43.1393 0.0000 0.0000 0.0000
# 2 27.7865 85.9998 53.6327 0.0000 0.0000 0.0000
# 3 43.1393 53.6327 120.0543 0.0000 0.0000 0.0000
# 4 0.0000 0.0000 0.0000 21.7226 0.0000 0.0000
# 5 0.0000 0.0000 0.0000 0.0000 30.9831 0.0000
# 6 0.0000 0.0000 0.0000 0.0000 0.0000 15.9873
#
#
#
# Elastic Compliance Matrix: (Units=1/GPa)
#
#
# Indices 1 2 3 4 5 6 
#
# 1 0.013339 -0.001831 -0.003975 0.000000 0.000000 0.000000
# 2 -0.001831 0.016370 -0.006655 0.000000 0.000000 0.000000
# 3 -0.003975 -0.006655 0.012731 0.000000 0.000000 0.000000
# 4 0.000000 0.000000 0.000000 0.046035 0.000000 0.000000
# 5 0.000000 0.000000 0.000000 0.000000 0.032276 0.000000
# 6 0.000000 0.000000 0.000000 0.000000 0.000000 0.062550
#
#
# Mechanical properties :
#
#
# Convention : Reuss Voigt Hill
#
# Bulk Modulus (GPa) = 57.08496 60.75637 58.92067
# Shear Modulus (GPa) = 23.35766 25.28072 24.31919
#
# Velocity S-wave (km/s) = 3.55250 3.69585 3.62489
# Velocity P-wave (km/s) = 6.90438 7.14419 7.02531
#
# Compressibility (1/GPa) = 0.01751775
#
# Stress axis : x y z
#
# Youngs Moduli (GPa) = 74.96638 61.08780 78.54739
#
# Poissons Ratio (x) = 0.11184 0.31226
# Poissons Ratio (y) = 0.13724 0.52275
# Poissons Ratio (z) = 0.29802 0.40655
#
# Static dielectric constant tensor:
#      x y z
#    x 3.314770 0.000000 0.000000 
#    y 0.000000 3.497060 0.000000 
#    z 0.000000 0.000000 3.479050 
# 
# 
# High freq. dielectric constant tensor:
#      x y z
#    x 1.705770 0.000000 0.000000 
#    y 0.000000 1.709530 0.000000 
#    z 0.000000 0.000000 1.716370 
# 
# From -- ./inp_files/29618.got.cif
#   From: 2010.03.12/outbox.cif.g09.slc.cpg/sg59_15_cif.got.tgz:29618.got - 2010.04.16 16:29:54.
