data_PCOD8242333
_publ_section_title
;
Structure prediction by ZEFSAII (Michael W. Deem and Ramdas Pophale) SiO2 
 PCOD8242333
Probable space group: P M M N
;
_chemical_formula_sum "Si O2"
_cell_formula_units_Z 56
_cell_length_a 9.201497
_cell_length_b 15.014373
_cell_length_c 22.108489
_cell_angle_alpha 90.000000
_cell_angle_beta 90.000000
_cell_angle_gamma 90.000000
_cell_volume 3054.391845
_symmetry_space_group_name_H-M "P M M N"
_symmetry_group_IT_number 59
_space_group.IT_coordinate_system_code '2'
_symmetry_cell_setting 'orthorhombic'
loop_
_space_group_symop_operation_xyz
x,y,z
1/2-x,1/2-y,z
1/2+x,-y,-z
-x,1/2+y,-z
-x,-y,-z
1/2+x,1/2+y,-z
1/2-x,y,z
x,1/2-y,z
loop_
_atom_site_type_symbol
_atom_site_label
_atom_site_fract_x
_atom_site_fract_y
_atom_site_fract_z
Si Si1 0.923370 0.502715 0.287010
Si Si2 0.418883 0.644427 0.362691
Si Si3 0.422752 0.648787 0.624046
Si Si4 0.579727 0.148461 0.057946
Si Si5 0.578047 0.496302 0.151319
Si Si6 0.578009 0.151531 0.506613
Si Si7 0.079763 0.351087 0.936404
O O1 0.750000 0.508199 0.288928
O O2 0.983224 0.417822 0.324857
O O3 0.984962 0.492167 0.219039
O O4 0.985470 0.594493 0.313134
O O5 0.250000 0.622552 0.351705
O O6 0.446685 0.750000 0.357300
O O7 0.471349 0.607848 0.429553
O O8 0.250000 0.651818 0.627382
O O9 0.481890 0.750000 0.634298
O O10 0.471183 0.608429 0.557703
O O11 0.750000 0.134370 0.047163
O O12 0.541707 0.250000 0.074446
O O13 0.521664 0.088389 0.113167
O O14 0.500477 0.117888 0.997019
O O15 0.750000 0.493274 0.155296
O O16 0.526695 0.587168 0.118760
O O17 0.750000 0.157654 0.509049
O O18 0.511734 0.250000 0.504990
O O19 0.250000 0.362429 0.948455
O O20 0.038670 0.250000 0.919212
#
# Coordination Sequence:
#
# PCOD8242333 Si02
#       7
#     8   8   8   8   8   8   8
#     4  10  20  31  46  71  97 123 158 193 226 270
#     4   9  18  33  50  66  89 123 159 194 235 282
#     4   8  14  26  45  69  95 121 153 194 234 274
#     4   9  17  30  49  71  92 114 144 184 225 261
#     4   9  18  31  45  65  95 125 148 174 218 273
#     4   7  11  23  44  66  87 116 153 190 232 280
#     4   9  17  30  48  67  87 115 150 183 218 263
#
# _framework density 18.334256
#
# number of rings (size 3 to 8) (size 9 to 14) (size 15 to 20)
#    0.000    3.286    0.000    2.143    0.000    2.000 
#    0.000    5.714    0.000    2.143    0.000    2.000 
#    0.000    0.000    0.000    0.000    0.000    0.000 
#
# Total GULP energy -693773.801941 kJ/mol
# GULP energy per Si atom -12388.817892 kJ/mol
# Density = 1.829253 g / cm^3
# Si number density = 18.334256 Si / 1000 Ang^3
#
#
#
# Elastic Constant Matrix: (Units=GPa)
#
#
# Indices 1 2 3 4 5 6 
#
# 1 18.2073 18.2051 25.7612 0.0000 0.0000 0.0000
# 2 18.2051 91.3843 73.0836 0.0000 0.0000 0.0000
# 3 25.7612 73.0836 176.9350 0.0000 0.0000 0.0000
# 4 0.0000 0.0000 0.0000 29.5221 0.0000 0.0000
# 5 0.0000 0.0000 0.0000 0.0000 12.6494 0.0000
# 6 0.0000 0.0000 0.0000 0.0000 0.0000 17.5354
#
#
#
# Elastic Compliance Matrix: (Units=1/GPa)
#
#
# Indices 1 2 3 4 5 6 
#
# 1 0.073956 -0.009142 -0.006992 0.000000 0.000000 0.000000
# 2 -0.009142 0.017471 -0.005885 0.000000 0.000000 0.000000
# 3 -0.006992 -0.005885 0.009101 0.000000 0.000000 0.000000
# 4 0.000000 0.000000 0.000000 0.033873 0.000000 0.000000
# 5 0.000000 0.000000 0.000000 0.000000 0.079055 0.000000
# 6 0.000000 0.000000 0.000000 0.000000 0.000000 0.057028
#
#
# Mechanical properties :
#
#
# Convention : Reuss Voigt Hill
#
# Bulk Modulus (GPa) = 17.70223 57.84736 37.77480
# Shear Modulus (GPa) = 14.99923 23.23981 19.11952
#
# Velocity S-wave (km/s) = 2.86335 3.56415 3.23279
# Velocity P-wave (km/s) = 4.53959 6.96832 5.88071
#
# Compressibility (1/GPa) = 0.05649007
#
# Stress axis : x y z
#
# Youngs Moduli (GPa) = 13.52154 57.23880 109.88124
#
# Poissons Ratio (x) = 0.52325 0.76827
# Poissons Ratio (y) = 0.12361 0.64669
# Poissons Ratio (z) = 0.09454 0.33687
#
# Static dielectric constant tensor:
#      x y z
#    x 2.866650 0.000000 0.000000 
#    y 0.000000 3.410220 0.000000 
#    z 0.000000 0.000000 3.799190 
# 
# 
# High freq. dielectric constant tensor:
#      x y z
#    x 1.656470 0.000000 0.000000 
#    y 0.000000 1.709100 0.000000 
#    z 0.000000 0.000000 1.720210 
# 
# From -- ./inp_files/29156.got.cif
#   From: 2010.03.12/outbox.cif.g09.slc.cpg/sg59_15_cif.got.tgz:29156.got - 2010.04.16 16:29:54.
