data_PCOD8242885
_publ_section_title
;
Structure prediction by ZEFSAII (Michael W. Deem and Ramdas Pophale) SiO2 
 PCOD8242885
Probable space group: P M M N
;
_chemical_formula_sum "Si O2"
_cell_formula_units_Z 56
_cell_length_a 14.239023
_cell_length_b 22.927082
_cell_length_c 8.883247
_cell_angle_alpha 90.000000
_cell_angle_beta 90.000000
_cell_angle_gamma 90.000000
_cell_volume 2900.018135
_symmetry_space_group_name_H-M "P M M N"
_symmetry_group_IT_number 59
_space_group.IT_coordinate_system_code '2'
_symmetry_cell_setting 'orthorhombic'
loop_
_space_group_symop_operation_xyz
x,y,z
1/2-x,1/2-y,z
1/2+x,-y,-z
-x,1/2+y,-z
-x,-y,-z
1/2+x,1/2+y,-z
1/2-x,y,z
x,1/2-y,z
loop_
_atom_site_type_symbol
_atom_site_label
_atom_site_fract_x
_atom_site_fract_y
_atom_site_fract_z
Si Si1 0.358726 0.816409 0.409102
Si Si2 0.976441 0.184932 0.313450
Si Si3 0.357585 0.358642 0.480409
Si Si4 0.357508 0.584227 0.179757
Si Si5 0.644080 0.958019 0.737784
Si Si6 0.640048 0.818596 0.191136
Si Si7 0.984476 0.889598 0.958455
O O1 0.250000 0.819630 0.448258
O O2 0.390175 0.750000 0.370437
O O3 0.412331 0.841530 0.554073
O O4 0.383984 0.857139 0.268836
O O5 0.944354 0.250000 0.277862
O O6 0.084419 0.183507 0.369674
O O7 0.960975 0.149591 0.162078
O O8 0.250000 0.339357 0.464454
O O9 0.375972 0.425078 0.421372
O O10 0.389656 0.350511 0.653018
O O11 0.250000 0.587761 0.118685
O O12 0.368949 0.527345 0.286559
O O13 0.432284 0.577892 0.046284
O O14 0.750000 0.943654 0.789400
O O15 0.577772 0.937492 0.873587
O O16 0.750000 0.827819 0.157856
O O17 0.615584 0.750000 0.201385
O O18 0.581171 0.848629 0.059925
#
# Coordination Sequence:
#
# PCOD8242885 Si02
#       7
#     8   8   8   8   8   8   8
#     4   9  19  37  58  77  99 132 176 224 269 311
#     4  10  20  33  51  76 105 137 170 208 258 313
#     4   9  18  33  53  76 103 136 175 217 257 301
#     4  10  21  37  57  78 102 136 178 222 266 315
#     4   9  19  37  56  76 105 140 178 218 262 312
#     4  10  20  34  54  81 111 143 178 215 258 310
#     4  11  21  34  52  79 111 143 173 212 262 316
#
# _framework density 19.310224000000002
#
# number of rings (size 3 to 8) (size 9 to 14) (size 15 to 20)
#    0.000    2.286    0.000    2.571    0.000    4.286 
#    0.000    7.857    0.000    3.429    0.000    0.000 
#    0.000    0.000    0.000    0.000    0.000    0.000 
#
# Total GULP energy -694271.995538 kJ/mol
# GULP energy per Si atom -12397.714206 kJ/mol
# Density = 1.926627 g / cm^3
# Si number density = 19.310224 Si / 1000 Ang^3
#
#
#
# Elastic Constant Matrix: (Units=GPa)
#
#
# Indices 1 2 3 4 5 6 
#
# 1 55.1739 33.2387 31.6176 0.0000 0.0000 0.0000
# 2 33.2387 97.4586 45.7085 0.0000 0.0000 0.0000
# 3 31.6176 45.7085 88.2972 0.0000 0.0000 0.0000
# 4 0.0000 0.0000 0.0000 26.9861 0.0000 0.0000
# 5 0.0000 0.0000 0.0000 0.0000 34.0145 0.0000
# 6 0.0000 0.0000 0.0000 0.0000 0.0000 18.9570
#
#
#
# Elastic Compliance Matrix: (Units=1/GPa)
#
#
# Indices 1 2 3 4 5 6 
#
# 1 0.025003 -0.005716 -0.005994 0.000000 0.000000 0.000000
# 2 -0.005716 0.014858 -0.005644 0.000000 0.000000 0.000000
# 3 -0.005994 -0.005644 0.016394 0.000000 0.000000 0.000000
# 4 0.000000 0.000000 0.000000 0.037056 0.000000 0.000000
# 5 0.000000 0.000000 0.000000 0.000000 0.029399 0.000000
# 6 0.000000 0.000000 0.000000 0.000000 0.000000 0.052751
#
#
# Mechanical properties :
#
#
# Convention : Reuss Voigt Hill
#
# Bulk Modulus (GPa) = 46.41448 51.33993 48.87721
# Shear Modulus (GPa) = 23.00422 24.68253 23.84338
#
# Velocity S-wave (km/s) = 3.45526 3.57909 3.51772
# Velocity P-wave (km/s) = 6.32510 6.61245 6.47037
#
# Compressibility (1/GPa) = 0.02154500
#
# Stress axis : x y z
#
# Youngs Moduli (GPa) = 39.99510 67.30591 60.99918
#
# Poissons Ratio (x) = 0.38473 0.36563
# Poissons Ratio (y) = 0.22862 0.34430
# Poissons Ratio (z) = 0.23973 0.37990
#
# Static dielectric constant tensor:
#      x y z
#    x 3.602840 0.000000 0.000000 
#    y 0.000000 3.528000 0.000000 
#    z 0.000000 0.000000 3.446600 
# 
# 
# High freq. dielectric constant tensor:
#      x y z
#    x 1.761370 0.000000 0.000000 
#    y 0.000000 1.748190 0.000000 
#    z 0.000000 0.000000 1.738940 
# 
# From -- ./inp_files/9332.got.cif
#   From: 2010.03.12/outbox.cif.g09.slc.cpg/sg59_5_cif.got.tgz:9332.got - 2010.04.16 16:29:54.
