data_PCOD8242525
_publ_section_title
;
Structure prediction by ZEFSAII (Michael W. Deem and Ramdas Pophale) SiO2 
 PCOD8242525
Probable space group: P M M N
;
_chemical_formula_sum "Si O2"
_cell_formula_units_Z 40
_cell_length_a 9.317250
_cell_length_b 13.435722
_cell_length_c 18.296909
_cell_angle_alpha 90.000000
_cell_angle_beta 90.000000
_cell_angle_gamma 90.000000
_cell_volume 2290.479905
_symmetry_space_group_name_H-M "P M M N"
_symmetry_group_IT_number 59
_space_group.IT_coordinate_system_code '2'
_symmetry_cell_setting 'orthorhombic'
loop_
_space_group_symop_operation_xyz
x,y,z
1/2-x,1/2-y,z
1/2+x,-y,-z
-x,1/2+y,-z
-x,-y,-z
1/2+x,1/2+y,-z
1/2-x,y,z
x,1/2-y,z
loop_
_atom_site_type_symbol
_atom_site_label
_atom_site_fract_x
_atom_site_fract_y
_atom_site_fract_z
Si Si1 0.086799 0.138940 0.520758
Si Si2 0.082428 0.948142 0.608829
Si Si3 0.082088 0.135048 0.257714
Si Si4 0.581890 0.637206 0.045552
Si Si5 0.416829 0.037974 0.105572
O O1 0.250000 0.122879 0.493068
O O2 0.064448 0.250000 0.551992
O O3 0.982615 0.124702 0.452114
O O4 0.051709 0.062301 0.585788
O O5 0.250000 0.924855 0.616366
O O6 0.006566 0.930974 0.685722
O O7 0.250000 0.119977 0.272746
O O8 0.038287 0.250000 0.265720
O O9 0.038921 0.098537 0.177322
O O10 0.750000 0.626146 0.059241
O O11 0.530541 0.750000 0.058678
O O12 0.501635 0.566181 0.102977
O O13 0.540987 0.606925 0.962952
O O14 0.250000 0.011556 0.105188
#
# Coordination Sequence:
#
# PCOD8242525 Si02
#       5
#     8   8   8   8   8
#     4   9  18  34  53  70  93 128 163 193 233 286
#     4  10  20  32  49  75 101 123 156 201 240 277
#     4  10  20  34  51  70  96 130 161 191 235 289
#     4   9  17  31  51  73  97 126 160 199 243 287
#     4   9  18  32  50  72  97 126 163 201 235 280
#
# _framework density 17.463588999999999
#
# number of rings (size 3 to 8) (size 9 to 14) (size 15 to 20)
#    0.000    2.600    0.000    1.800    0.000    7.600 
#    0.000    1.000    0.000    7.200    0.000    0.000 
#    0.000    0.000    0.000    0.000    0.000    0.000 
#
# Total GULP energy -496073.641735 kJ/mol
# GULP energy per Si atom -12401.841043 kJ/mol
# Density = 1.742384 g / cm^3
# Si number density = 17.463589 Si / 1000 Ang^3
#
#
#
# Elastic Constant Matrix: (Units=GPa)
#
#
# Indices 1 2 3 4 5 6 
#
# 1 58.8386 44.1481 43.3883 0.0000 0.0000 0.0000
# 2 44.1481 121.4600 38.7672 0.0000 0.0000 0.0000
# 3 43.3883 38.7672 86.5380 0.0000 0.0000 0.0000
# 4 0.0000 0.0000 0.0000 21.9815 0.0000 0.0000
# 5 0.0000 0.0000 0.0000 0.0000 31.6009 0.0000
# 6 0.0000 0.0000 0.0000 0.0000 0.0000 29.7824
#
#
#
# Elastic Compliance Matrix: (Units=1/GPa)
#
#
# Indices 1 2 3 4 5 6 
#
# 1 0.032032 -0.007604 -0.012654 0.000000 0.000000 0.000000
# 2 -0.007604 0.011412 -0.001300 0.000000 0.000000 0.000000
# 3 -0.012654 -0.001300 0.018482 0.000000 0.000000 0.000000
# 4 0.000000 0.000000 0.000000 0.045493 0.000000 0.000000
# 5 0.000000 0.000000 0.000000 0.000000 0.031645 0.000000
# 6 0.000000 0.000000 0.000000 0.000000 0.000000 0.033577
#
#
# Mechanical properties :
#
#
# Convention : Reuss Voigt Hill
#
# Bulk Modulus (GPa) = 53.16037 57.71600 55.43818
# Shear Modulus (GPa) = 22.51979 26.04183 24.28081
#
# Velocity S-wave (km/s) = 3.59490 3.86580 3.73281
# Velocity P-wave (km/s) = 6.90926 7.28334 7.09876
#
# Compressibility (1/GPa) = 0.01881100
#
# Stress axis : x y z
#
# Youngs Moduli (GPa) = 31.21836 87.62705 54.10605
#
# Poissons Ratio (x) = 0.66634 0.68465
# Poissons Ratio (y) = 0.23739 0.07032
# Poissons Ratio (z) = 0.39503 0.11389
#
# Static dielectric constant tensor:
#      x y z
#    x 3.241620 0.000000 0.000000 
#    y 0.000000 3.378790 0.000000 
#    z 0.000000 0.000000 3.117270 
# 
# 
# High freq. dielectric constant tensor:
#      x y z
#    x 1.674030 0.000000 0.000000 
#    y 0.000000 1.681170 0.000000 
#    z 0.000000 0.000000 1.659360 
# 
# From -- ./inp_files/19880.got.cif
#   From: 2010.03.12/outbox.cif.g09.slc.cpg/sg59_10_cif.got.tgz:19880.got - 2010.04.16 16:29:54.
