data_PCOD8242238
_publ_section_title
;
Structure prediction by ZEFSAII (Michael W. Deem and Ramdas Pophale) SiO2 
 PCOD8242238
Probable space group: P M M N
;
_chemical_formula_sum "Si O2"
_cell_formula_units_Z 64
_cell_length_a 9.019561
_cell_length_b 31.473604
_cell_length_c 11.674816
_cell_angle_alpha 90.000000
_cell_angle_beta 90.000000
_cell_angle_gamma 90.000000
_cell_volume 3314.224481
_symmetry_space_group_name_H-M "P M M N"
_symmetry_group_IT_number 59
_space_group.IT_coordinate_system_code '2'
_symmetry_cell_setting 'orthorhombic'
loop_
_space_group_symop_operation_xyz
x,y,z
1/2-x,1/2-y,z
1/2+x,-y,-z
-x,1/2+y,-z
-x,-y,-z
1/2+x,1/2+y,-z
1/2-x,y,z
x,1/2-y,z
loop_
_atom_site_type_symbol
_atom_site_label
_atom_site_fract_x
_atom_site_fract_y
_atom_site_fract_z
Si Si1 0.074502 0.618732 0.371903
Si Si2 0.422411 0.863658 0.116713
Si Si3 0.572427 0.968183 0.409309
Si Si4 0.917160 0.059444 0.032476
Si Si5 0.081327 0.000920 0.184915
Si Si6 0.413552 0.300264 0.267594
Si Si7 0.925004 0.797053 0.980528
Si Si8 0.575452 0.297965 0.493876
O O1 0.250000 0.611774 0.390621
O O2 0.029332 0.617232 0.238563
O O3 0.022630 0.665036 0.419232
O O4 0.987752 0.579783 0.432167
O O5 0.250000 0.853296 0.121358
O O6 0.464148 0.894507 0.011955
O O7 0.509159 0.820957 0.089713
O O8 0.750000 0.968622 0.420273
O O9 0.500000 0.000000 0.500000
O O10 0.524063 0.983890 0.284242
O O11 0.750000 0.058584 0.079762
O O12 0.930283 0.030203 0.921426
O O13 0.023610 0.046310 0.137495
O O14 0.250000 0.005077 0.230218
O O15 0.250000 0.318706 0.296262
O O16 0.401758 0.250000 0.255464
O O17 0.470801 0.317214 0.143691
O O18 0.524757 0.313244 0.368285
O O19 0.750000 0.797120 0.990395
O O20 0.990440 0.750000 0.990620
O O21 0.750000 0.295300 0.493927
O O22 0.512780 0.250000 0.524041
#
# Coordination Sequence:
#
# PCOD8242238 Si02
#       8
#     8   8   8   8   8   8   8   8
#     4  10  21  40  60  83 118 155 192 239 289 344
#     4  10  20  35  56  81 113 150 189 233 283 341
#     4  12  25  42  64  87 115 153 196 241 294 351
#     4   9  18  34  56  84 114 145 184 230 278 335
#     4  10  19  36  61  86 113 145 184 229 280 337
#     4   8  15  31  53  73 101 142 183 228 282 334
#     4   9  19  35  53  77 111 150 190 234 286 340
#     4   9  18  33  57  87 116 150 192 237 286 339
#
# _framework density 19.310701999999999
#
# number of rings (size 3 to 8) (size 9 to 14) (size 15 to 20)
#    0.000    2.375    1.250    2.250    0.000    3.250 
#    2.250    2.500    0.000    1.500    0.000    0.000 
#    0.000    0.000    0.000    0.000    0.000    0.000 
#
# Total GULP energy -793163.681954 kJ/mol
# GULP energy per Si atom -12393.182531 kJ/mol
# Density = 1.926675 g / cm^3
# Si number density = 19.310702 Si / 1000 Ang^3
#
#
#
# Elastic Constant Matrix: (Units=GPa)
#
#
# Indices 1 2 3 4 5 6 
#
# 1 33.2576 80.2414 -7.6699 0.0000 0.0000 0.0000
# 2 80.2414 80.9046 87.0653 0.0000 0.0000 0.0000
# 3 -7.6699 87.0653 0.0671 0.0000 0.0000 0.0000
# 4 0.0000 0.0000 0.0000 8.2747 0.0000 0.0000
# 5 0.0000 0.0000 0.0000 0.0000 31.9020 0.0000
# 6 0.0000 0.0000 0.0000 0.0000 0.0000 29.5976
#
#
#
# Elastic Compliance Matrix: (Units=1/GPa)
#
#
# Indices 1 2 3 4 5 6 
#
# 1 0.020794 0.001848 -0.020881 0.000000 0.000000 0.000000
# 2 0.001848 0.000155 0.009638 0.000000 0.000000 0.000000
# 3 -0.020881 0.009638 0.010289 0.000000 0.000000 0.000000
# 4 0.000000 0.000000 0.000000 0.120850 0.000000 0.000000
# 5 0.000000 0.000000 0.000000 0.000000 0.031346 0.000000
# 6 0.000000 0.000000 0.000000 0.000000 0.000000 0.033787
#
#
# Mechanical properties :
#
#
# Convention : Reuss Voigt Hill
#
# Bulk Modulus (GPa) = 80.33828 48.16697 64.25263
# Shear Modulus (GPa) = 20.81938 10.92770 15.87354
#
# Velocity S-wave (km/s) = 3.28705 2.38142 2.87018
# Velocity P-wave (km/s) = 7.48996 5.70604 6.65802
#
# Compressibility (1/GPa) = 0.01244737
#
# Stress axis : x y z
#
# Youngs Moduli (GPa) = 48.09059 6436.42239 97.19444
#
# Poissons Ratio (x) = -11.89394 2.02956
# Poissons Ratio (y) = -0.08887 -0.93678
# Poissons Ratio (z) = 1.00420 -62.03543
#
# Static dielectric constant tensor:
#      x y z
#    x 3.485080 0.000000 0.000000 
#    y 0.000000 3.805350 0.000000 
#    z 0.000000 0.000000 3.692880 
# 
# 
# High freq. dielectric constant tensor:
#      x y z
#    x 1.741180 0.000000 0.000000 
#    y 0.000000 1.745060 0.000000 
#    z 0.000000 0.000000 1.746620 
# 
# From -- ./inp_files/15071.got.cif
#   From: 2010.03.12/outbox.cif.g09.slc.cpg/sg59_8_cif.got.tgz:15071.got - 2010.04.16 16:29:54.
