data_PCOD8242000
_publ_section_title
;
Structure prediction by ZEFSAII (Michael W. Deem and Ramdas Pophale) SiO2 
 PCOD8242000
Probable space group: P M M N
;
_chemical_formula_sum "Si O2"
_cell_formula_units_Z 64
_cell_length_a 25.334705
_cell_length_b 8.986371
_cell_length_c 14.483823
_cell_angle_alpha 90.000000
_cell_angle_beta 90.000000
_cell_angle_gamma 90.000000
_cell_volume 3297.489375
_symmetry_space_group_name_H-M "P M M N"
_symmetry_group_IT_number 59
_space_group.IT_coordinate_system_code '2'
_symmetry_cell_setting 'orthorhombic'
loop_
_space_group_symop_operation_xyz
x,y,z
1/2-x,1/2-y,z
1/2+x,-y,-z
-x,1/2+y,-z
-x,-y,-z
1/2+x,1/2+y,-z
1/2-x,y,z
x,1/2-y,z
loop_
_atom_site_type_symbol
_atom_site_label
_atom_site_fract_x
_atom_site_fract_y
_atom_site_fract_z
Si Si1 0.605084 0.073111 0.404585
Si Si2 0.310996 0.922691 0.905136
Si Si3 0.004718 0.573457 0.711556
Si Si4 0.901973 0.572726 0.601800
Si Si5 0.643370 0.919551 0.922618
Si Si6 0.308941 0.073364 0.267161
Si Si7 0.519923 0.581600 0.910211
Si Si8 0.311694 0.422710 0.717320
O O1 0.608344 0.250000 0.409071
O O2 0.557022 0.017798 0.340089
O O3 0.595778 0.008573 0.504962
O O4 0.659221 0.008140 0.364760
O O5 0.250000 0.955406 0.926780
O O6 0.321873 0.750000 0.886720
O O7 0.330026 0.011415 0.815203
O O8 0.345301 0.976272 0.990786
O O9 0.001900 0.750000 0.715970
O O10 0.953000 0.516766 0.657884
O O11 0.005108 0.511166 0.816715
O O12 0.901668 0.750000 0.587318
O O13 0.849700 0.516229 0.655580
O O14 0.660461 0.750000 0.945521
O O15 0.675057 0.983740 0.834609
O O16 0.582313 0.928250 0.898332
O O17 0.250000 0.015870 0.291302
O O18 0.311467 0.250000 0.264946
O O19 0.500880 0.750000 0.921272
O O20 0.500000 0.500000 0.000000
O O21 0.250000 0.449964 0.701550
O O22 0.326568 0.250000 0.714560
#
# Coordination Sequence:
#
# PCOD8242000 Si02
#       8
#     8   8   8   8   8   8   8   8
#     4  11  23  37  58  87 116 150 189 235 293 354
#     4  10  21  36  55  81 114 150 184 224 280 341
#     4   9  19  38  60  81 113 153 194 237 285 338
#     4  10  19  37  60  82 112 151 195 245 288 334
#     4  10  19  34  57  83 113 147 190 238 283 337
#     4   9  17  31  56  86 111 143 190 240 287 334
#     4  10  21  37  56  83 115 151 189 235 290 339
#     4  10  22  41  62  84 112 147 190 239 285 337
#
# _framework density 19.408707
#
# number of rings (size 3 to 8) (size 9 to 14) (size 15 to 20)
#    0.000    2.125    1.250    1.875    1.750    3.000 
#    0.000    3.750    0.000    0.750    0.000    0.000 
#    0.000    0.000    0.000    0.000    0.000    0.000 
#
# Total GULP energy -793724.805821 kJ/mol
# GULP energy per Si atom -12401.950091 kJ/mol
# Density = 1.936453 g / cm^3
# Si number density = 19.408707 Si / 1000 Ang^3
#
#
#
# Elastic Constant Matrix: (Units=GPa)
#
#
# Indices 1 2 3 4 5 6 
#
# 1 91.8557 33.4712 62.2111 0.0000 0.0000 0.0000
# 2 33.4712 61.4972 49.3234 0.0000 0.0000 0.0000
# 3 62.2111 49.3234 172.8146 0.0000 0.0000 0.0000
# 4 0.0000 0.0000 0.0000 31.5118 0.0000 0.0000
# 5 0.0000 0.0000 0.0000 0.0000 36.5440 0.0000
# 6 0.0000 0.0000 0.0000 0.0000 0.0000 21.0182
#
#
#
# Elastic Compliance Matrix: (Units=1/GPa)
#
#
# Indices 1 2 3 4 5 6 
#
# 1 0.015564 -0.005158 -0.004131 0.000000 0.000000 0.000000
# 2 -0.005158 0.022798 -0.004650 0.000000 0.000000 0.000000
# 3 -0.004131 -0.004650 0.008601 0.000000 0.000000 0.000000
# 4 0.000000 0.000000 0.000000 0.031734 0.000000 0.000000
# 5 0.000000 0.000000 0.000000 0.000000 0.027364 0.000000
# 6 0.000000 0.000000 0.000000 0.000000 0.000000 0.047578
#
#
# Mechanical properties :
#
#
# Convention : Reuss Voigt Hill
#
# Bulk Modulus (GPa) = 52.39705 68.46433 60.43069
# Shear Modulus (GPa) = 26.61316 29.89225 28.25270
#
# Velocity S-wave (km/s) = 3.70698 3.92873 3.81947
# Velocity P-wave (km/s) = 6.73629 7.47874 7.11720
#
# Compressibility (1/GPa) = 0.01908504
#
# Stress axis : x y z
#
# Youngs Moduli (GPa) = 64.25220 43.86409 116.27024
#
# Poissons Ratio (x) = 0.22625 0.48026
# Poissons Ratio (y) = 0.33141 0.54065
# Poissons Ratio (z) = 0.26540 0.20396
#
# Static dielectric constant tensor:
#      x y z
#    x 3.748250 0.000000 0.000000 
#    y 0.000000 3.326940 0.000000 
#    z 0.000000 0.000000 3.633210 
# 
# 
# High freq. dielectric constant tensor:
#      x y z
#    x 1.763890 0.000000 0.000000 
#    y 0.000000 1.726470 0.000000 
#    z 0.000000 0.000000 1.768350 
# 
# From -- ./inp_files/24726.got.cif
#   From: 2010.03.12/outbox.cif.g09.slc.cpg/sg59_13_cif.got.tgz:24726.got - 2010.04.16 16:29:54.
