data_PCOD8242649
_publ_section_title
;
Structure prediction by ZEFSAII (Michael W. Deem and Ramdas Pophale) SiO2 
 PCOD8242649
Probable space group: P M M N
;
_chemical_formula_sum "Si O2"
_cell_formula_units_Z 48
_cell_length_a 9.090461
_cell_length_b 9.108150
_cell_length_c 31.172719
_cell_angle_alpha 90.000000
_cell_angle_beta 90.000000
_cell_angle_gamma 90.000000
_cell_volume 2581.016417
_symmetry_space_group_name_H-M "P M M N"
_symmetry_group_IT_number 59
_space_group.IT_coordinate_system_code '2'
_symmetry_cell_setting 'orthorhombic'
loop_
_space_group_symop_operation_xyz
x,y,z
1/2-x,1/2-y,z
1/2+x,-y,-z
-x,1/2+y,-z
-x,-y,-z
1/2+x,1/2+y,-z
1/2-x,y,z
x,1/2-y,z
loop_
_atom_site_type_symbol
_atom_site_label
_atom_site_fract_x
_atom_site_fract_y
_atom_site_fract_z
Si Si1 0.576931 0.418784 0.461294
Si Si2 0.919898 0.923354 0.039045
Si Si3 0.084061 0.575163 0.291118
Si Si4 0.421285 0.420105 0.624280
Si Si5 0.583671 0.925221 0.207706
Si Si6 0.583886 0.424678 0.875883
O O1 0.500000 0.500000 0.500000
O O2 0.750000 0.438781 0.466804
O O3 0.528903 0.250000 0.461491
O O4 0.523627 0.489665 0.416772
O O5 0.750000 0.970318 0.039965
O O6 0.938065 0.750000 0.033995
O O7 0.995198 0.980203 0.082677
O O8 0.000000 0.000000 0.000000
O O9 0.250000 0.515001 0.289100
O O10 0.081380 0.750000 0.290181
O O11 0.008534 0.518618 0.334660
O O12 0.995205 0.513247 0.250320
O O13 0.250000 0.445185 0.633496
O O14 0.456462 0.250000 0.615572
O O15 0.750000 0.985106 0.206421
O O16 0.583127 0.750000 0.207672
O O17 0.496644 0.986293 0.166421
O O18 0.750000 0.486571 0.877530
O O19 0.585726 0.250000 0.874542
#
# Coordination Sequence:
#
# PCOD8242649 Si02
#       6
#     8   8   8   8   8   8
#     4  10  21  36  54  76 101 130 165 204 246 292
#     4  10  20  33  49  70  96 127 164 205 250 300
#     4   9  16  25  39  62  91 121 154 192 233 278
#     4   9  17  30  47  67  94 127 159 192 233 281
#     4   9  15  23  37  59  89 123 156 191 234 284
#     4   9  16  26  41  62  90 123 158 198 243 289
#
# _framework density 18.597325000000001
#
# number of rings (size 3 to 8) (size 9 to 14) (size 15 to 20)
#    0.000    2.667    0.000    2.500    0.000    8.667 
#    0.000    1.667    0.000    0.000    0.000    1.167 
#    0.000    6.667    0.000    0.000    0.000    0.000 
#
# Total GULP energy -595234.850883 kJ/mol
# GULP energy per Si atom -12400.726060 kJ/mol
# Density = 1.855500 g / cm^3
# Si number density = 18.597325 Si / 1000 Ang^3
#
#
#
# Elastic Constant Matrix: (Units=GPa)
#
#
# Indices 1 2 3 4 5 6 
#
# 1 152.5398 30.7752 106.9164 0.0000 0.0000 0.0000
# 2 30.7752 35.8578 45.1661 0.0000 0.0000 0.0000
# 3 106.9164 45.1661 215.5626 0.0000 0.0000 0.0000
# 4 0.0000 0.0000 0.0000 21.6065 0.0000 0.0000
# 5 0.0000 0.0000 0.0000 0.0000 45.2695 0.0000
# 6 0.0000 0.0000 0.0000 0.0000 0.0000 15.1925
#
#
#
# Elastic Compliance Matrix: (Units=1/GPa)
#
#
# Indices 1 2 3 4 5 6 
#
# 1 0.010325 -0.003275 -0.004435 0.000000 0.000000 0.000000
# 2 -0.003275 0.038926 -0.006531 0.000000 0.000000 0.000000
# 3 -0.004435 -0.006531 0.008207 0.000000 0.000000 0.000000
# 4 0.000000 0.000000 0.000000 0.046282 0.000000 0.000000
# 5 0.000000 0.000000 0.000000 0.000000 0.022090 0.000000
# 6 0.000000 0.000000 0.000000 0.000000 0.000000 0.065822
#
#
# Mechanical properties :
#
#
# Convention : Reuss Voigt Hill
#
# Bulk Modulus (GPa) = 34.51284 85.51951 60.01618
# Shear Modulus (GPa) = 21.75865 31.15387 26.45626
#
# Velocity S-wave (km/s) = 3.42422 4.09734 3.77581
# Velocity P-wave (km/s) = 5.85081 8.27459 7.16592
#
# Compressibility (1/GPa) = 0.02897472
#
# Stress axis : x y z
#
# Youngs Moduli (GPa) = 96.85415 25.68976 121.84606
#
# Poissons Ratio (x) = 0.08415 0.54035
# Poissons Ratio (y) = 0.31724 0.79583
# Poissons Ratio (z) = 0.42952 0.16779
#
# Static dielectric constant tensor:
#      x y z
#    x 3.589700 0.000000 0.000000 
#    y 0.000000 2.840750 0.000000 
#    z 0.000000 0.000000 3.662760 
# 
# 
# High freq. dielectric constant tensor:
#      x y z
#    x 1.732780 0.000000 0.000000 
#    y 0.000000 1.657190 0.000000 
#    z 0.000000 0.000000 1.741950 
# 
# From -- ./inp_files/32867.got.cif
#   From: 2010.03.12/outbox.cif.g09.slc.cpg/sg59_17_cif.got.tgz:32867.got - 2010.04.16 16:29:54.
