data_PCOD8242851
_publ_section_title
;
Structure prediction by ZEFSAII (Michael W. Deem and Ramdas Pophale) SiO2 
 PCOD8242851
Probable space group: P M M N
;
_chemical_formula_sum "Si O2"
_cell_formula_units_Z 48
_cell_length_a 9.418113
_cell_length_b 9.035235
_cell_length_c 30.998737
_cell_angle_alpha 90.000000
_cell_angle_beta 90.000000
_cell_angle_gamma 90.000000
_cell_volume 2637.833316
_symmetry_space_group_name_H-M "P M M N"
_symmetry_group_IT_number 59
_space_group.IT_coordinate_system_code '2'
_symmetry_cell_setting 'orthorhombic'
loop_
_space_group_symop_operation_xyz
x,y,z
1/2-x,1/2-y,z
1/2+x,-y,-z
-x,1/2+y,-z
-x,-y,-z
1/2+x,1/2+y,-z
1/2-x,y,z
x,1/2-y,z
loop_
_atom_site_type_symbol
_atom_site_label
_atom_site_fract_x
_atom_site_fract_y
_atom_site_fract_z
Si Si1 0.418611 0.414155 0.368591
Si Si2 0.414812 0.923314 0.790024
Si Si3 0.081421 0.416774 0.875873
Si Si4 0.917638 0.080218 0.715403
Si Si5 0.583331 0.077332 0.038139
Si Si6 0.589966 0.924582 0.536624
O O1 0.250000 0.405621 0.370829
O O2 0.478130 0.250000 0.357531
O O3 0.468841 0.528754 0.332028
O O4 0.472419 0.466404 0.415869
O O5 0.250000 0.961156 0.782145
O O6 0.438823 0.750000 0.796259
O O7 0.474192 0.003914 0.832722
O O8 0.504080 0.979355 0.749840
O O9 0.250000 0.415947 0.875587
O O10 0.020581 0.250000 0.877637
O O11 0.027114 0.507044 0.917289
O O12 0.750000 0.057537 0.720926
O O13 0.962275 0.250000 0.721744
O O14 0.750000 0.048316 0.031729
O O15 0.547349 0.250000 0.038784
O O16 0.500000 0.000000 0.000000
O O17 0.750000 0.983777 0.532170
O O18 0.584331 0.750000 0.530461
O O19 0.500000 0.000000 0.500000
#
# Coordination Sequence:
#
# PCOD8242851 Si02
#       6
#     8   8   8   8   8   8
#     4   8  15  30  50  69  93 128 166 201 239 288
#     4  10  20  34  53  76 101 131 167 204 243 291
#     4   9  17  31  52  75 100 132 167 203 246 296
#     4  10  20  33  51  76 102 128 162 204 248 294
#     4  10  20  34  53  77 104 134 169 208 249 295
#     4   9  18  32  50  73  99 127 162 202 243 290
#
# _framework density 18.196752
#
# number of rings (size 3 to 8) (size 9 to 14) (size 15 to 20)
#    0.000    2.667    0.000    3.000    0.000    6.000 
#    0.000    3.333    0.000    6.000    0.000    0.000 
#    0.000    0.000    0.000    0.000    0.000    0.000 
#
# Total GULP energy -595130.960216 kJ/mol
# GULP energy per Si atom -12398.561671 kJ/mol
# Density = 1.815534 g / cm^3
# Si number density = 18.196752 Si / 1000 Ang^3
#
#
#
# Elastic Constant Matrix: (Units=GPa)
#
#
# Indices 1 2 3 4 5 6 
#
# 1 34.5481 33.4794 42.5156 0.0000 0.0000 0.0000
# 2 33.4794 109.4458 71.2797 0.0000 0.0000 0.0000
# 3 42.5156 71.2797 165.8044 0.0000 0.0000 0.0000
# 4 0.0000 0.0000 0.0000 42.8191 0.0000 0.0000
# 5 0.0000 0.0000 0.0000 0.0000 30.5567 0.0000
# 6 0.0000 0.0000 0.0000 0.0000 0.0000 25.2619
#
#
#
# Elastic Compliance Matrix: (Units=1/GPa)
#
#
# Indices 1 2 3 4 5 6 
#
# 1 0.048277 -0.009313 -0.008375 0.000000 0.000000 0.000000
# 2 -0.009313 0.014487 -0.003840 0.000000 0.000000 0.000000
# 3 -0.008375 -0.003840 0.009830 0.000000 0.000000 0.000000
# 4 0.000000 0.000000 0.000000 0.023354 0.000000 0.000000
# 5 0.000000 0.000000 0.000000 0.000000 0.032726 0.000000
# 6 0.000000 0.000000 0.000000 0.000000 0.000000 0.039585
#
#
# Mechanical properties :
#
#
# Convention : Reuss Voigt Hill
#
# Bulk Modulus (GPa) = 33.85635 67.14974 50.50304
# Shear Modulus (GPa) = 22.60794 30.56243 26.58519
#
# Velocity S-wave (km/s) = 3.52862 4.10268 3.82643
# Velocity P-wave (km/s) = 5.93697 7.70875 6.88013
#
# Compressibility (1/GPa) = 0.02953656
#
# Stress axis : x y z
#
# Youngs Moduli (GPa) = 20.71368 69.02947 101.73408
#
# Poissons Ratio (x) = 0.64289 0.85207
# Poissons Ratio (y) = 0.19291 0.39063
# Poissons Ratio (z) = 0.17349 0.26505
#
# Static dielectric constant tensor:
#      x y z
#    x 3.013250 0.000000 0.000000 
#    y 0.000000 3.535210 0.000000 
#    z 0.000000 0.000000 3.912910 
# 
# 
# High freq. dielectric constant tensor:
#      x y z
#    x 1.660650 0.000000 0.000000 
#    y 0.000000 1.714830 0.000000 
#    z 0.000000 0.000000 1.723510 
# 
# From -- ./inp_files/31867.got.cif
#   From: 2010.03.12/outbox.cif.g09.slc.cpg/sg59_16_cif.got.tgz:31867.got - 2010.04.16 16:29:54.
