data_PCOD8242865
_publ_section_title
;
Structure prediction by ZEFSAII (Michael W. Deem and Ramdas Pophale) SiO2 
 PCOD8242865
Probable space group: P M M N
;
_chemical_formula_sum "Si O2"
_cell_formula_units_Z 64
_cell_length_a 19.067177
_cell_length_b 9.044518
_cell_length_c 20.451832
_cell_angle_alpha 90.000000
_cell_angle_beta 90.000000
_cell_angle_gamma 90.000000
_cell_volume 3526.988488
_symmetry_space_group_name_H-M "P M M N"
_symmetry_group_IT_number 59
_space_group.IT_coordinate_system_code '2'
_symmetry_cell_setting 'orthorhombic'
loop_
_space_group_symop_operation_xyz
x,y,z
1/2-x,1/2-y,z
1/2+x,-y,-z
-x,1/2+y,-z
-x,-y,-z
1/2+x,1/2+y,-z
1/2-x,y,z
x,1/2-y,z
loop_
_atom_site_type_symbol
_atom_site_label
_atom_site_fract_x
_atom_site_fract_y
_atom_site_fract_z
Si Si1 0.670194 0.922497 0.631831
Si Si2 0.576889 0.924562 0.253017
Si Si3 0.433207 0.076229 0.254002
Si Si4 0.330278 0.078040 0.623982
Si Si5 0.833449 0.082843 0.503871
Si Si6 0.567856 0.923361 0.892274
Si Si7 0.330872 0.076048 0.995991
Si Si8 0.409731 0.925908 0.882057
O O1 0.750000 0.972115 0.644304
O O2 0.664896 0.750000 0.617194
O O3 0.628305 0.967287 0.696672
O O4 0.637193 0.004288 0.569034
O O5 0.574822 0.750000 0.239915
O O6 0.628515 0.968062 0.311426
O O7 0.500777 0.982421 0.273854
O O8 0.605453 0.007135 0.189035
O O9 0.452141 0.250000 0.256438
O O10 0.408838 0.030652 0.180902
O O11 0.250000 0.031532 0.635526
O O12 0.337538 0.250000 0.608692
O O13 0.362971 0.994128 0.561435
O O14 0.750000 0.069458 0.504070
O O15 0.860172 0.250000 0.504403
O O16 0.572617 0.750000 0.900007
O O17 0.487832 0.975446 0.905373
O O18 0.621730 0.991317 0.945049
O O19 0.250000 0.042513 0.012361
O O20 0.343400 0.250000 0.985380
O O21 0.351985 0.991085 0.930440
O O22 0.403242 0.750000 0.878250
#
# Coordination Sequence:
#
# PCOD8242865 Si02
#       8
#     8   8   8   8   8   8   8   8
#     4   9  17  30  50  74 100 133 170 206 246 294
#     4  10  20  34  53  76 101 130 165 205 251 301
#     4   9  18  33  52  75 103 133 167 207 249 294
#     4   9  18  33  52  72  95 125 162 204 248 296
#     4   9  17  29  47  72 100 129 163 204 248 295
#     4   8  16  32  52  73  97 129 167 203 242 290
#     4  10  20  33  51  76 104 131 162 205 252 295
#     4  10  20  35  54  73  98 133 170 206 244 294
#
# _framework density 18.145793000000001
#
# number of rings (size 3 to 8) (size 9 to 14) (size 15 to 20)
#    0.000    2.750    0.000    2.250    0.000    4.250 
#    0.000    6.875    0.000    0.000    0.000    1.750 
#    0.000    0.000    0.000    0.000    0.000    0.000 
#
# Total GULP energy -793554.473862 kJ/mol
# GULP energy per Si atom -12399.288654 kJ/mol
# Density = 1.810449 g / cm^3
# Si number density = 18.145793 Si / 1000 Ang^3
#
#
#
# Elastic Constant Matrix: (Units=GPa)
#
#
# Indices 1 2 3 4 5 6 
#
# 1 67.3690 31.9559 60.7862 0.0000 0.0000 0.0000
# 2 31.9559 58.5555 51.9309 0.0000 0.0000 0.0000
# 3 60.7862 51.9309 134.5966 0.0000 0.0000 0.0000
# 4 0.0000 0.0000 0.0000 26.4742 0.0000 0.0000
# 5 0.0000 0.0000 0.0000 0.0000 28.9576 0.0000
# 6 0.0000 0.0000 0.0000 0.0000 0.0000 23.9453
#
#
#
# Elastic Compliance Matrix: (Units=1/GPa)
#
#
# Indices 1 2 3 4 5 6 
#
# 1 0.026288 -0.005803 -0.009633 0.000000 0.000000 0.000000
# 2 -0.005803 0.027242 -0.007890 0.000000 0.000000 0.000000
# 3 -0.009633 -0.007890 0.014824 0.000000 0.000000 0.000000
# 4 0.000000 0.000000 0.000000 0.037773 0.000000 0.000000
# 5 0.000000 0.000000 0.000000 0.000000 0.034533 0.000000
# 6 0.000000 0.000000 0.000000 0.000000 0.000000 0.041762
#
#
# Mechanical properties :
#
#
# Convention : Reuss Voigt Hill
#
# Bulk Modulus (GPa) = 46.07847 61.09634 53.58741
# Shear Modulus (GPa) = 21.15876 23.59863 22.37869
#
# Velocity S-wave (km/s) = 3.41844 3.61016 3.51561
# Velocity P-wave (km/s) = 6.40543 7.14986 6.78786
#
# Compressibility (1/GPa) = 0.02170211
#
# Stress axis : x y z
#
# Youngs Moduli (GPa) = 38.03993 36.70793 67.45674
#
# Poissons Ratio (x) = 0.21302 0.64983
# Poissons Ratio (y) = 0.22075 0.53223
# Poissons Ratio (z) = 0.36645 0.28962
#
# Static dielectric constant tensor:
#      x y z
#    x 3.278280 0.000000 0.000000 
#    y 0.000000 3.222280 0.000000 
#    z 0.000000 0.000000 3.545590 
# 
# 
# High freq. dielectric constant tensor:
#      x y z
#    x 1.682620 0.000000 0.000000 
#    y 0.000000 1.691810 0.000000 
#    z 0.000000 0.000000 1.716140 
# 
# From -- ./inp_files/30654.got.cif
#   From: 2010.03.12/outbox.cif.g09.slc.cpg/sg59_16_cif.got.tgz:30654.got - 2010.04.16 16:29:54.
