data_PCOD8242907
_publ_section_title
;
Structure prediction by ZEFSAII (Michael W. Deem and Ramdas Pophale) SiO2 
 PCOD8242907
Probable space group: P M M N
;
_chemical_formula_sum "Si O2"
_cell_formula_units_Z 64
_cell_length_a 17.687786
_cell_length_b 9.214875
_cell_length_c 20.501310
_cell_angle_alpha 90.000000
_cell_angle_beta 90.000000
_cell_angle_gamma 90.000000
_cell_volume 3341.523627
_symmetry_space_group_name_H-M "P M M N"
_symmetry_group_IT_number 59
_space_group.IT_coordinate_system_code '2'
_symmetry_cell_setting 'orthorhombic'
loop_
_space_group_symop_operation_xyz
x,y,z
1/2-x,1/2-y,z
1/2+x,-y,-z
-x,1/2+y,-z
-x,-y,-z
1/2+x,1/2+y,-z
1/2-x,y,z
x,1/2-y,z
loop_
_atom_site_type_symbol
_atom_site_label
_atom_site_fract_x
_atom_site_fract_y
_atom_site_fract_z
Si Si1 0.338250 0.580621 0.229523
Si Si2 0.663228 0.920937 0.249919
Si Si3 0.580641 0.582666 0.885137
Si Si4 0.336686 0.415482 0.984300
Si Si5 0.905566 0.417706 0.132556
Si Si6 0.839949 0.913827 0.642493
Si Si7 0.160197 0.089130 0.604575
Si Si8 0.659715 0.413086 0.517709
O O1 0.250000 0.550147 0.218265
O O2 0.355021 0.750000 0.238177
O O3 0.383262 0.520598 0.168344
O O4 0.368387 0.499566 0.293952
O O5 0.750000 0.966765 0.237395
O O6 0.653738 0.750000 0.239041
O O7 0.637241 0.964442 0.323129
O O8 0.608810 0.006183 0.201491
O O9 0.601706 0.750000 0.869823
O O10 0.491670 0.557373 0.887564
O O11 0.612457 0.534262 0.955088
O O12 0.250000 0.433234 0.005466
O O13 0.355188 0.250000 0.964679
O O14 0.352234 0.515213 0.922402
O O15 0.885011 0.250000 0.139547
O O16 0.750000 0.913266 0.640344
O O17 0.871692 0.750000 0.644463
O O18 0.871856 0.993865 0.578330
O O19 0.250000 0.096837 0.600726
O O20 0.127353 0.250000 0.591206
O O21 0.128081 0.980828 0.549677
O O22 0.750000 0.413858 0.517929
O O23 0.628565 0.250000 0.523799
#
# Coordination Sequence:
#
# PCOD8242907 Si02
#       8
#     8   8   8   8   8   8   8   8
#     4  10  20  33  51  77 105 132 168 216 264 305
#     4   9  18  33  52  73 100 137 178 216 257 310
#     4  10  22  39  56  76 104 139 175 207 248 306
#     4  10  21  38  60  81 102 134 173 209 250 305
#     4  11  23  36  53  79 108 136 169 212 257 301
#     4   9  16  26  42  64  94 134 173 208 251 305
#     4   8  14  25  41  62  90 126 168 210 252 303
#     4   9  15  22  35  60  95 130 164 208 260 306
#
# _framework density 19.152940000000001
#
# number of rings (size 3 to 8) (size 9 to 14) (size 15 to 20)
#    0.000    2.500    0.000    3.375    0.000    8.250 
#    0.000    1.250    0.000    0.000    0.000    0.875 
#    0.000    0.000    0.000    0.000    0.000    0.000 
#
# Total GULP energy -793682.581891 kJ/mol
# GULP energy per Si atom -12401.290342 kJ/mol
# Density = 1.910935 g / cm^3
# Si number density = 19.152940 Si / 1000 Ang^3
#
#
#
# Elastic Constant Matrix: (Units=GPa)
#
#
# Indices 1 2 3 4 5 6 
#
# 1 31.8081 22.0787 19.0553 0.0000 0.0000 0.0000
# 2 22.0787 111.8988 68.4419 0.0000 0.0000 0.0000
# 3 19.0553 68.4419 134.5479 0.0000 0.0000 0.0000
# 4 0.0000 0.0000 0.0000 32.0293 0.0000 0.0000
# 5 0.0000 0.0000 0.0000 0.0000 -312.8175 0.0000
# 6 0.0000 0.0000 0.0000 0.0000 0.0000 20.5967
#
#
#
# Elastic Compliance Matrix: (Units=1/GPa)
#
#
# Indices 1 2 3 4 5 6 
#
# 1 0.036874 -0.005925 -0.002208 0.000000 0.000000 0.000000
# 2 -0.005925 0.013925 -0.006244 0.000000 0.000000 0.000000
# 3 -0.002208 -0.006244 0.010921 0.000000 0.000000 0.000000
# 4 0.000000 0.000000 0.000000 0.031221 0.000000 0.000000
# 5 0.000000 0.000000 0.000000 0.000000 -0.003197 0.000000
# 6 0.000000 0.000000 0.000000 0.000000 0.000000 0.048552
#
#
# Mechanical properties :
#
#
# Convention : Reuss Voigt Hill
#
# Bulk Modulus (GPa) = 30.33484 55.26740 42.80112
# Shear Modulus (GPa) = 28.08356 -40.79304 -6.35474
#
# Velocity S-wave (km/s) = 3.83336 -4.62004 -1.82348
# Velocity P-wave (km/s) = 5.95529 0.67729 4.23817
#
# Compressibility (1/GPa) = 0.03296540
#
# Stress axis : x y z
#
# Youngs Moduli (GPa) = 27.11927 71.81381 91.56355
#
# Poissons Ratio (x) = 0.42549 0.20221
# Poissons Ratio (y) = 0.16068 0.57174
# Poissons Ratio (z) = 0.05989 0.44842
#
# Static dielectric constant tensor:
#      x y z
#    x 3.067480 0.000000 0.000000 
#    y 0.000000 3.618470 0.000000 
#    z 0.000000 0.000000 3.677970 
# 
# 
# High freq. dielectric constant tensor:
#      x y z
#    x 1.698450 0.000000 0.000000 
#    y 0.000000 1.749380 0.000000 
#    z 0.000000 0.000000 1.760630 
# 
# From -- ./inp_files/30735.got.cif
#   From: 2010.03.12/outbox.cif.g09.slc.cpg/sg59_16_cif.got.tgz:30735.got - 2010.04.16 16:29:54.
