data_PCOD8242568
_publ_section_title
;
Structure prediction by ZEFSAII (Michael W. Deem and Ramdas Pophale) SiO2 
 PCOD8242568
Probable space group: P M M N
;
_chemical_formula_sum "Si O2"
_cell_formula_units_Z 64
_cell_length_a 9.566983
_cell_length_b 23.425075
_cell_length_c 15.206269
_cell_angle_alpha 90.000000
_cell_angle_beta 90.000000
_cell_angle_gamma 90.000000
_cell_volume 3407.835802
_symmetry_space_group_name_H-M "P M M N"
_symmetry_group_IT_number 59
_space_group.IT_coordinate_system_code '2'
_symmetry_cell_setting 'orthorhombic'
loop_
_space_group_symop_operation_xyz
x,y,z
1/2-x,1/2-y,z
1/2+x,-y,-z
-x,1/2+y,-z
-x,-y,-z
1/2+x,1/2+y,-z
1/2-x,y,z
x,1/2-y,z
loop_
_atom_site_type_symbol
_atom_site_label
_atom_site_fract_x
_atom_site_fract_y
_atom_site_fract_z
Si Si1 0.092263 0.317371 0.333582
Si Si2 0.083698 0.314807 0.988485
Si Si3 0.402842 0.815267 0.512768
Si Si4 0.416405 0.989233 0.778609
Si Si5 0.086110 0.115872 0.159357
Si Si6 0.593456 0.985541 0.416489
Si Si7 0.415373 0.385140 0.823486
Si Si8 0.906753 0.854749 0.366646
O O1 0.250000 0.333404 0.360634
O O2 0.075293 0.250000 0.323208
O O3 0.049898 0.344927 0.242016
O O4 0.992767 0.343962 0.409042
O O5 0.250000 0.312247 0.983838
O O6 0.023990 0.250000 0.989100
O O7 0.021553 0.349837 0.905330
O O8 0.035310 0.348476 0.075079
O O9 0.250000 0.845139 0.506160
O O10 0.381721 0.750000 0.537793
O O11 0.484023 0.817604 0.421003
O O12 0.250000 0.981659 0.788660
O O13 0.497346 0.941796 0.834341
O O14 0.458644 0.985516 0.674947
O O15 0.468067 0.049430 0.819955
O O16 0.250000 0.100603 0.153819
O O17 0.750000 0.006620 0.437532
O O18 0.591452 0.918364 0.402916
O O19 0.500000 0.000000 0.500000
O O20 0.250000 0.387386 0.829998
O O21 0.457720 0.352467 0.734180
O O22 0.750000 0.829225 0.375897
#
# Coordination Sequence:
#
# PCOD8242568 Si02
#       8
#     8   8   8   8   8   8   8   8
#     4   9  18  33  50  68  97 136 172 213 264 312
#     4   9  17  31  54  83 108 132 170 221 271 312
#     4  10  21  34  48  71 102 135 172 212 258 313
#     4   9  19  35  51  73 107 144 176 209 258 315
#     4  10  20  32  51  80 108 133 171 221 263 309
#     4   9  19  33  49  71 100 134 172 214 255 300
#     4   8  16  33  54  76 106 138 172 214 260 313
#     4   9  18  33  52  74 100 131 170 215 257 303
#
# _framework density 18.780248
#
# number of rings (size 3 to 8) (size 9 to 14) (size 15 to 20)
#    0.000    2.875    0.000    2.250    1.750    4.750 
#    0.000    3.125    0.000    1.875    0.000    0.000 
#    0.000    0.000    0.000    0.000    0.000    0.000 
#
# Total GULP energy -793332.774419 kJ/mol
# GULP energy per Si atom -12395.824600 kJ/mol
# Density = 1.873750 g / cm^3
# Si number density = 18.780248 Si / 1000 Ang^3
#
#
#
# Elastic Constant Matrix: (Units=GPa)
#
#
# Indices 1 2 3 4 5 6 
#
# 1 70.7421 35.8624 60.6354 0.0000 0.0000 0.0000
# 2 35.8624 75.5258 69.4626 0.0000 0.0000 0.0000
# 3 60.6354 69.4626 165.6937 0.0000 0.0000 0.0000
# 4 0.0000 0.0000 0.0000 34.3961 0.0000 0.0000
# 5 0.0000 0.0000 0.0000 0.0000 15.7490 0.0000
# 6 0.0000 0.0000 0.0000 0.0000 0.0000 24.6234
#
#
#
# Elastic Compliance Matrix: (Units=1/GPa)
#
#
# Indices 1 2 3 4 5 6 
#
# 1 0.021644 -0.004870 -0.005879 0.000000 0.000000 0.000000
# 2 -0.004870 0.022645 -0.007711 0.000000 0.000000 0.000000
# 3 -0.005879 -0.007711 0.011419 0.000000 0.000000 0.000000
# 4 0.000000 0.000000 0.000000 0.029073 0.000000 0.000000
# 5 0.000000 0.000000 0.000000 0.000000 0.063496 0.000000
# 6 0.000000 0.000000 0.000000 0.000000 0.000000 0.040612
#
#
# Mechanical properties :
#
#
# Convention : Reuss Voigt Hill
#
# Bulk Modulus (GPa) = 53.22634 71.54249 62.38441
# Shear Modulus (GPa) = 21.54505 24.68713 23.11609
#
# Velocity S-wave (km/s) = 3.39074 3.62957 3.51219
# Velocity P-wave (km/s) = 6.61307 7.46608 7.05248
#
# Compressibility (1/GPa) = 0.01878769
#
# Stress axis : x y z
#
# Youngs Moduli (GPa) = 46.20273 44.15958 87.57212
#
# Poissons Ratio (x) = 0.21508 0.51481
# Poissons Ratio (y) = 0.22503 0.67527
# Poissons Ratio (z) = 0.27161 0.34051
#
# Static dielectric constant tensor:
#      x y z
#    x 3.346870 0.000000 0.000000 
#    y 0.000000 3.407890 0.000000 
#    z 0.000000 0.000000 3.756070 
# 
# 
# High freq. dielectric constant tensor:
#      x y z
#    x 1.694940 0.000000 0.000000 
#    y 0.000000 1.725840 0.000000 
#    z 0.000000 0.000000 1.735460 
# 
# From -- ./inp_files/21614.got.cif
#   From: 2010.03.12/outbox.cif.g09.slc.cpg/sg59_11_cif.got.tgz:21614.got - 2010.04.16 16:29:54.
