data_PCOD8242156
_publ_section_title
;
Structure prediction by ZEFSAII (Michael W. Deem and Ramdas Pophale) SiO2 
 PCOD8242156
Probable space group: P M M N
;
_chemical_formula_sum "Si O2"
_cell_formula_units_Z 48
_cell_length_a 27.967011
_cell_length_b 9.053046
_cell_length_c 9.962022
_cell_angle_alpha 90.000000
_cell_angle_beta 90.000000
_cell_angle_gamma 90.000000
_cell_volume 2522.250849
_symmetry_space_group_name_H-M "P M M N"
_symmetry_group_IT_number 59
_space_group.IT_coordinate_system_code '2'
_symmetry_cell_setting 'orthorhombic'
loop_
_space_group_symop_operation_xyz
x,y,z
1/2-x,1/2-y,z
1/2+x,-y,-z
-x,1/2+y,-z
-x,-y,-z
1/2+x,1/2+y,-z
1/2-x,y,z
x,1/2-y,z
loop_
_atom_site_type_symbol
_atom_site_label
_atom_site_fract_x
_atom_site_fract_y
_atom_site_fract_z
Si Si1 0.004957 0.422963 0.142286
Si Si2 0.105025 0.077222 0.254785
Si Si3 0.652658 0.576249 0.469489
Si Si4 0.250000 0.573685 0.579283
Si Si5 0.345266 0.579526 0.021186
Si Si6 0.750000 0.425610 0.114960
Si Si7 0.903732 0.080771 0.238876
O O1 0.007800 0.250000 0.112549
O O2 0.959976 0.458053 0.239432
O O3 0.051719 0.481184 0.221225
O O4 0.000000 0.500000 0.000000
O O5 0.107977 0.250000 0.230827
O O6 0.118285 0.034981 0.406518
O O7 0.143546 0.004621 0.157244
O O8 0.662865 0.750000 0.460809
O O9 0.702697 0.491634 0.490394
O O10 0.625250 0.525810 0.336202
O O11 0.250000 0.750000 0.565172
O O12 0.250000 0.517613 0.732690
O O13 0.338715 0.750000 0.057580
O O14 0.296433 0.513030 0.960699
O O15 0.387120 0.555067 0.913656
O O16 0.750000 0.250000 0.119235
O O17 0.893548 0.250000 0.282596
#
# Coordination Sequence:
#
# PCOD8242156 Si02
#       7
#     8   8   8   4   8   4   8
#     4  10  20  36  59  86 116 153 196 245 299 351
#     4  10  23  40  56  82 123 158 188 238 298 351
#     4  11  24  40  58  86 123 159 194 236 291 357
#     4  11  21  40  65  86 114 154 195 243 294 341
#     4  10  19  35  59  86 112 144 191 243 288 343
#     4   9  18  34  57  84 112 138 181 241 290 333
#     4  10  20  36  60  88 115 149 198 247 288 343
#
# _framework density 19.030621
#
# number of rings (size 3 to 8) (size 9 to 14) (size 15 to 20)
#    0.000    1.833    3.333    0.750    0.000    4.000 
#    0.000    2.083    0.000    0.000    0.000    0.000 
#    0.000    0.000    0.000    0.000    0.000    0.000 
#
# Total GULP energy -595313.950003 kJ/mol
# GULP energy per Si atom -12402.373958 kJ/mol
# Density = 1.898731 g / cm^3
# Si number density = 19.030621 Si / 1000 Ang^3
#
#
#
# Elastic Constant Matrix: (Units=GPa)
#
#
# Indices 1 2 3 4 5 6 
#
# 1 126.5830 35.8343 29.7310 0.0000 0.0000 0.0000
# 2 35.8343 50.9063 35.3333 0.0000 0.0000 0.0000
# 3 29.7310 35.3333 69.5369 0.0000 0.0000 0.0000
# 4 0.0000 0.0000 0.0000 33.1640 0.0000 0.0000
# 5 0.0000 0.0000 0.0000 0.0000 32.5732 0.0000
# 6 0.0000 0.0000 0.0000 0.0000 0.0000 29.1785
#
#
#
# Elastic Compliance Matrix: (Units=1/GPa)
#
#
# Indices 1 2 3 4 5 6 
#
# 1 0.009917 -0.006238 -0.001071 0.000000 0.000000 0.000000
# 2 -0.006238 0.034270 -0.014746 0.000000 0.000000 0.000000
# 3 -0.001071 -0.014746 0.022332 0.000000 0.000000 0.000000
# 4 0.000000 0.000000 0.000000 0.030153 0.000000 0.000000
# 5 0.000000 0.000000 0.000000 0.000000 0.030700 0.000000
# 6 0.000000 0.000000 0.000000 0.000000 0.000000 0.034272
#
#
# Mechanical properties :
#
#
# Convention : Reuss Voigt Hill
#
# Bulk Modulus (GPa) = 44.62446 49.86927 47.24686
# Shear Modulus (GPa) = 23.44953 28.72499 26.08726
#
# Velocity S-wave (km/s) = 3.51408 3.88933 3.70645
# Velocity P-wave (km/s) = 6.32176 6.81401 6.57250
#
# Compressibility (1/GPa) = 0.02240924
#
# Stress axis : x y z
#
# Youngs Moduli (GPa) = 100.83374 29.17976 44.77966
#
# Poissons Ratio (x) = 0.18202 0.04794
# Poissons Ratio (y) = 0.62900 0.66034
# Poissons Ratio (z) = 0.10795 0.43030
#
# Static dielectric constant tensor:
#      x y z
#    x 3.855210 0.000000 0.000000 
#    y 0.000000 3.338210 0.000000 
#    z 0.000000 0.000000 3.347450 
# 
# 
# High freq. dielectric constant tensor:
#      x y z
#    x 1.758360 0.000000 0.000000 
#    y 0.000000 1.726040 0.000000 
#    z 0.000000 0.000000 1.730910 
# 
# From -- ./inp_files/13067.got.cif
#   From: 2010.03.12/outbox.cif.g09.slc.cpg/sg59_7_cif.got.tgz:13067.got - 2010.04.16 16:29:54.
