data_PCOD8242220
_publ_section_title
;
Structure prediction by ZEFSAII (Michael W. Deem and Ramdas Pophale) SiO2 
 PCOD8242220
Probable space group: P M M N
;
_chemical_formula_sum "Si O2"
_cell_formula_units_Z 48
_cell_length_a 20.030537
_cell_length_b 14.676981
_cell_length_c 8.599186
_cell_angle_alpha 90.000000
_cell_angle_beta 90.000000
_cell_angle_gamma 90.000000
_cell_volume 2528.055868
_symmetry_space_group_name_H-M "P M M N"
_symmetry_group_IT_number 59
_space_group.IT_coordinate_system_code '2'
_symmetry_cell_setting 'orthorhombic'
loop_
_space_group_symop_operation_xyz
x,y,z
1/2-x,1/2-y,z
1/2+x,-y,-z
-x,1/2+y,-z
-x,-y,-z
1/2+x,1/2+y,-z
1/2-x,y,z
x,1/2-y,z
loop_
_atom_site_type_symbol
_atom_site_label
_atom_site_fract_x
_atom_site_fract_y
_atom_site_fract_z
Si Si1 0.523457 0.570049 0.133258
Si Si2 0.174567 0.648186 0.899496
Si Si3 0.415130 0.644748 0.354857
Si Si4 0.444578 0.903536 0.694807
Si Si5 0.081148 0.350678 0.143392
Si Si6 0.172995 0.519789 0.187112
O O1 0.462758 0.625996 0.207336
O O2 0.559324 0.511856 0.268831
O O3 0.500000 0.500000 0.000000
O O4 0.572501 0.639814 0.044544
O O5 0.250000 0.632177 0.837378
O O6 0.169130 0.750000 0.973354
O O7 0.123127 0.642663 0.756973
O O8 0.156403 0.571795 0.026430
O O9 0.396244 0.750000 0.363965
O O10 0.450770 0.612067 0.511697
O O11 0.347871 0.586258 0.328508
O O12 0.509768 0.859611 0.772687
O O13 0.110177 0.250000 0.177428
O O14 0.132321 0.426221 0.204260
O O15 0.250000 0.495260 0.202688
#
# Coordination Sequence:
#
# PCOD8242220 Si02
#       6
#     8   8   8   8   8   8
#     4  10  19  36  59  84 114 150 190 240 287 340
#     4  10  20  36  58  84 118 156 192 233 287 354
#     4  12  23  36  58  91 124 153 189 239 298 363
#     4  11  21  38  59  89 123 153 188 238 297 358
#     4  11  21  38  62  87 112 152 202 250 293 341
#     4  11  23  39  57  83 115 156 201 245 292 342
#
# _framework density 18.986923000000001
#
# number of rings (size 3 to 8) (size 9 to 14) (size 15 to 20)
#    0.000    1.167    5.000    4.000    0.000    2.000 
#    0.000    0.000    0.000    0.000    0.000    0.000 
#    0.000    0.000    0.000    0.000    0.000    0.000 
#
# Total GULP energy -595048.450341 kJ/mol
# GULP energy per Si atom -12396.842715 kJ/mol
# Density = 1.894371 g / cm^3
# Si number density = 18.986923 Si / 1000 Ang^3
#
#
#
# Elastic Constant Matrix: (Units=GPa)
#
#
# Indices 1 2 3 4 5 6 
#
# 1 108.4206 58.4967 33.0756 0.0000 0.0000 0.0000
# 2 58.4967 107.3972 50.1940 0.0000 0.0000 0.0000
# 3 33.0756 50.1940 78.6461 0.0000 0.0000 0.0000
# 4 0.0000 0.0000 0.0000 25.0777 0.0000 0.0000
# 5 0.0000 0.0000 0.0000 0.0000 16.8558 0.0000
# 6 0.0000 0.0000 0.0000 0.0000 0.0000 18.1280
#
#
#
# Elastic Compliance Matrix: (Units=1/GPa)
#
#
# Indices 1 2 3 4 5 6 
#
# 1 0.013164 -0.006531 -0.001368 0.000000 0.000000 0.000000
# 2 -0.006531 0.016509 -0.007790 0.000000 0.000000 0.000000
# 3 -0.001368 -0.007790 0.018262 0.000000 0.000000 0.000000
# 4 0.000000 0.000000 0.000000 0.039876 0.000000 0.000000
# 5 0.000000 0.000000 0.000000 0.000000 0.059327 0.000000
# 6 0.000000 0.000000 0.000000 0.000000 0.000000 0.055163
#
#
# Mechanical properties :
#
#
# Convention : Reuss Voigt Hill
#
# Bulk Modulus (GPa) = 60.39457 64.22182 62.30820
# Shear Modulus (GPa) = 20.90307 22.19217 21.54762
#
# Velocity S-wave (km/s) = 3.32161 3.42250 3.37243
# Velocity P-wave (km/s) = 6.82557 7.03674 6.93196
#
# Compressibility (1/GPa) = 0.01655778
#
# Stress axis : x y z
#
# Youngs Moduli (GPa) = 75.96269 60.57235 54.75730
#
# Poissons Ratio (x) = 0.39559 0.07492
# Poissons Ratio (y) = 0.49610 0.42656
# Poissons Ratio (z) = 0.10394 0.47186
#
# Static dielectric constant tensor:
#      x y z
#    x 3.361480 0.000000 0.000000 
#    y 0.000000 3.724570 0.000000 
#    z 0.000000 0.000000 3.553740 
# 
# 
# High freq. dielectric constant tensor:
#      x y z
#    x 1.722250 0.000000 0.000000 
#    y 0.000000 1.744640 0.000000 
#    z 0.000000 0.000000 1.724460 
# 
# From -- ./inp_files/11276.got.cif
#   From: 2010.03.12/outbox.cif.g09.slc.cpg/sg59_6_cif.got.tgz:11276.got - 2010.04.16 16:29:54.
