data_PCOD8242449
_publ_section_title
;
Structure prediction by ZEFSAII (Michael W. Deem and Ramdas Pophale) SiO2 
 PCOD8242449
Probable space group: P M M N
;
_chemical_formula_sum "Si O2"
_cell_formula_units_Z 48
_cell_length_a 9.431067
_cell_length_b 9.622984
_cell_length_c 30.965560
_cell_angle_alpha 90.000000
_cell_angle_beta 90.000000
_cell_angle_gamma 90.000000
_cell_volume 2810.279610
_symmetry_space_group_name_H-M "P M M N"
_symmetry_group_IT_number 59
_space_group.IT_coordinate_system_code '2'
_symmetry_cell_setting 'orthorhombic'
loop_
_space_group_symop_operation_xyz
x,y,z
1/2-x,1/2-y,z
1/2+x,-y,-z
-x,1/2+y,-z
-x,-y,-z
1/2+x,1/2+y,-z
1/2-x,y,z
x,1/2-y,z
loop_
_atom_site_type_symbol
_atom_site_label
_atom_site_fract_x
_atom_site_fract_y
_atom_site_fract_z
Si Si1 0.590103 0.914646 0.788046
Si Si2 0.413614 0.087879 0.533911
Si Si3 0.581307 0.904203 0.369995
Si Si4 0.084342 0.913857 0.964622
Si Si5 0.591613 0.914753 0.883178
Si Si6 0.916067 0.410778 0.292149
O O1 0.750000 0.961230 0.777568
O O2 0.576821 0.750000 0.788312
O O3 0.546059 0.971297 0.835686
O O4 0.488241 0.974670 0.750832
O O5 0.250000 0.047203 0.529058
O O6 0.437035 0.250000 0.524731
O O7 0.468966 0.050314 0.582171
O O8 0.500000 0.000000 0.500000
O O9 0.750000 0.902511 0.369854
O O10 0.523952 0.750000 0.359186
O O11 0.522732 0.010053 0.334047
O O12 0.250000 0.951492 0.966369
O O13 0.059141 0.750000 0.972204
O O14 0.022885 0.963522 0.918401
O O15 0.000000 0.000000 0.000000
O O16 0.750000 0.969885 0.895109
O O17 0.596851 0.750000 0.881406
O O18 0.750000 0.434736 0.286613
O O19 0.954628 0.250000 0.298606
#
# Coordination Sequence:
#
# PCOD8242449 Si02
#       6
#     8   8   8   8   8   8
#     4   8  14  25  41  62  89 118 144 175 221 268
#     4   9  18  32  49  69  92 119 153 191 231 275
#     4   8  15  29  46  62  85 118 149 176 213 265
#     4  10  20  32  48  71  96 123 156 193 234 278
#     4   8  14  26  44  64  87 117 151 185 223 269
#     4   9  16  25  41  66  88 106 138 183 220 251
#
# _framework density 17.080151000000001
#
# number of rings (size 3 to 8) (size 9 to 14) (size 15 to 20)
#    0.000    3.333    0.000    2.500    0.000    2.667 
#    0.000    5.833    0.000    4.500    0.000    4.667 
#    0.000    0.000    0.000    0.000    0.000    0.000 
#
# Total GULP energy -594847.480635 kJ/mol
# GULP energy per Si atom -12392.655847 kJ/mol
# Density = 1.704128 g / cm^3
# Si number density = 17.080151 Si / 1000 Ang^3
#
#
#
# Elastic Constant Matrix: (Units=GPa)
#
#
# Indices 1 2 3 4 5 6 
#
# 1 79.5014 37.4623 78.2408 0.0000 0.0000 0.0000
# 2 37.4623 43.4867 60.8529 0.0000 0.0000 0.0000
# 3 78.2408 60.8529 179.4816 0.0000 0.0000 0.0000
# 4 0.0000 0.0000 0.0000 25.2096 0.0000 0.0000
# 5 0.0000 0.0000 0.0000 0.0000 34.3897 0.0000
# 6 0.0000 0.0000 0.0000 0.0000 0.0000 17.8724
#
#
#
# Elastic Compliance Matrix: (Units=1/GPa)
#
#
# Indices 1 2 3 4 5 6 
#
# 1 0.024899 -0.011913 -0.006815 0.000000 0.000000 0.000000
# 2 -0.011913 0.049455 -0.011574 0.000000 0.000000 0.000000
# 3 -0.006815 -0.011574 0.012467 0.000000 0.000000 0.000000
# 4 0.000000 0.000000 0.000000 0.039667 0.000000 0.000000
# 5 0.000000 0.000000 0.000000 0.000000 0.029078 0.000000
# 6 0.000000 0.000000 0.000000 0.000000 0.000000 0.055952
#
#
# Mechanical properties :
#
#
# Convention : Reuss Voigt Hill
#
# Bulk Modulus (GPa) = 38.14522 72.84241 55.49382
# Shear Modulus (GPa) = 17.80234 23.88857 20.84545
#
# Velocity S-wave (km/s) = 3.23194 3.74386 3.49728
# Velocity P-wave (km/s) = 6.02568 7.83765 6.99062
#
# Compressibility (1/GPa) = 0.02621560
#
# Stress axis : x y z
#
# Youngs Moduli (GPa) = 40.16228 20.22052 80.21367
#
# Poissons Ratio (x) = 0.24089 0.54666
# Poissons Ratio (y) = 0.47846 0.92842
# Poissons Ratio (z) = 0.27371 0.23404
#
# Static dielectric constant tensor:
#      x y z
#    x 3.108380 0.000000 0.000000 
#    y 0.000000 2.257460 0.000000 
#    z 0.000000 0.000000 3.731090 
# 
# 
# High freq. dielectric constant tensor:
#      x y z
#    x 1.640980 0.000000 0.000000 
#    y 0.000000 1.617810 0.000000 
#    z 0.000000 0.000000 1.676250 
# 
# From -- ./inp_files/32471.got.cif
#   From: 2010.03.12/outbox.cif.g09.slc.cpg/sg59_17_cif.got.tgz:32471.got - 2010.04.16 16:29:54.
