data_PCOD8242412
_publ_section_title
;
Structure prediction by ZEFSAII (Michael W. Deem and Ramdas Pophale) SiO2 
 PCOD8242412
Probable space group: P M M N
;
_chemical_formula_sum "Si O2"
_cell_formula_units_Z 64
_cell_length_a 18.730669
_cell_length_b 9.207432
_cell_length_c 20.651424
_cell_angle_alpha 90.000000
_cell_angle_beta 90.000000
_cell_angle_gamma 90.000000
_cell_volume 3561.572692
_symmetry_space_group_name_H-M "P M M N"
_symmetry_group_IT_number 59
_space_group.IT_coordinate_system_code '2'
_symmetry_cell_setting 'orthorhombic'
loop_
_space_group_symop_operation_xyz
x,y,z
1/2-x,1/2-y,z
1/2+x,-y,-z
-x,1/2+y,-z
-x,-y,-z
1/2+x,1/2+y,-z
1/2-x,y,z
x,1/2-y,z
loop_
_atom_site_type_symbol
_atom_site_label
_atom_site_fract_x
_atom_site_fract_y
_atom_site_fract_z
Si Si1 0.666920 0.418351 0.423740
Si Si2 0.832902 0.419463 0.810010
Si Si3 0.335031 0.914008 0.939012
Si Si4 0.329217 0.922528 0.431034
Si Si5 0.832868 0.918984 0.187642
Si Si6 0.421208 0.922714 0.313297
Si Si7 0.834964 0.586124 0.937203
Si Si8 0.582746 0.577958 0.313854
O O1 0.750000 0.448825 0.410276
O O2 0.649178 0.250000 0.412581
O O3 0.646701 0.467284 0.496732
O O4 0.619466 0.513437 0.376716
O O5 0.750000 0.450552 0.795629
O O6 0.846035 0.250000 0.823373
O O7 0.877785 0.477754 0.749116
O O8 0.860988 0.506155 0.872384
O O9 0.250000 0.915009 0.941217
O O10 0.364623 0.750000 0.940430
O O11 0.361741 0.992276 0.873884
O O12 0.365938 0.000412 0.000798
O O13 0.250000 0.984240 0.416272
O O14 0.326164 0.750000 0.426677
O O15 0.384228 0.986323 0.378221
O O16 0.750000 0.950783 0.201208
O O17 0.846224 0.750000 0.173370
O O18 0.876312 0.974426 0.249709
O O19 0.419461 0.750000 0.315030
O O20 0.501904 0.980335 0.309815
O O21 0.750000 0.586222 0.940056
O O22 0.864907 0.750000 0.938003
O O23 0.585848 0.750000 0.320135
#
# Coordination Sequence:
#
# PCOD8242412 Si02
#       8
#     8   8   8   8   8   8   8   8
#     4   9  18  32  50  71  94 122 158 198 236 277
#     4   9  16  27  46  70  93 120 157 198 234 271
#     4   9  16  26  43  68  93 115 146 191 235 272
#     4   8  14  27  48  72  96 123 157 196 236 278
#     4   9  17  29  44  62  87 120 153 184 225 278
#     4   9  17  29  46  69  96 125 158 196 236 278
#     4   9  16  26  42  66  96 125 150 183 232 284
#     4  10  20  32  47  69  97 127 157 192 236 285
#
# _framework density 17.96959
#
# number of rings (size 3 to 8) (size 9 to 14) (size 15 to 20)
#    0.000    3.000    0.000    2.250    0.000    6.250 
#    0.000    1.875    0.000    1.500    0.000    1.750 
#    0.000    0.000    0.000    0.000    0.000    0.000 
#
# Total GULP energy -793506.098190 kJ/mol
# GULP energy per Si atom -12398.532784 kJ/mol
# Density = 1.792869 g / cm^3
# Si number density = 17.969590 Si / 1000 Ang^3
#
#
#
# Elastic Constant Matrix: (Units=GPa)
#
#
# Indices 1 2 3 4 5 6 
#
# 1 77.4169 30.1962 76.1990 0.0000 0.0000 0.0000
# 2 30.1962 60.9822 59.3576 0.0000 0.0000 0.0000
# 3 76.1990 59.3576 188.3032 0.0000 0.0000 0.0000
# 4 0.0000 0.0000 0.0000 26.9268 0.0000 0.0000
# 5 0.0000 0.0000 0.0000 0.0000 2.7942 0.0000
# 6 0.0000 0.0000 0.0000 0.0000 0.0000 12.6341
#
#
#
# Elastic Compliance Matrix: (Units=1/GPa)
#
#
# Indices 1 2 3 4 5 6 
#
# 1 0.021892 -0.003199 -0.007850 0.000000 0.000000 0.000000
# 2 -0.003199 0.024124 -0.006310 0.000000 0.000000 0.000000
# 3 -0.007850 -0.006310 0.010476 0.000000 0.000000 0.000000
# 4 0.000000 0.000000 0.000000 0.037138 0.000000 0.000000
# 5 0.000000 0.000000 0.000000 0.000000 0.357878 0.000000
# 6 0.000000 0.000000 0.000000 0.000000 0.000000 0.079151
#
#
# Mechanical properties :
#
#
# Convention : Reuss Voigt Hill
#
# Bulk Modulus (GPa) = 45.92677 73.13420 59.53049
# Shear Modulus (GPa) = 8.73156 19.20098 13.96627
#
# Velocity S-wave (km/s) = 2.20672 3.27238 2.79089
# Velocity P-wave (km/s) = 5.66625 7.42059 6.60195
#
# Compressibility (1/GPa) = 0.02177379
#
# Stress axis : x y z
#
# Youngs Moduli (GPa) = 45.67960 41.45231 95.45238
#
# Poissons Ratio (x) = 0.13259 0.74934
# Poissons Ratio (y) = 0.14611 0.60231
# Poissons Ratio (z) = 0.35860 0.26157
#
# Static dielectric constant tensor:
#      x y z
#    x 3.152800 0.000000 0.000000 
#    y 0.000000 3.088550 0.000000 
#    z 0.000000 0.000000 3.549630 
# 
# 
# High freq. dielectric constant tensor:
#      x y z
#    x 1.662910 0.000000 0.000000 
#    y 0.000000 1.667450 0.000000 
#    z 0.000000 0.000000 1.713130 
# 
# From -- ./inp_files/30684.got.cif
#   From: 2010.03.12/outbox.cif.g09.slc.cpg/sg59_16_cif.got.tgz:30684.got - 2010.04.16 16:29:54.
