data_PCOD8242382
_publ_section_title
;
Structure prediction by ZEFSAII (Michael W. Deem and Ramdas Pophale) SiO2 
 PCOD8242382
Probable space group: P M M N
;
_chemical_formula_sum "Si O2"
_cell_formula_units_Z 64
_cell_length_a 8.709632
_cell_length_b 23.555268
_cell_length_c 18.325885
_cell_angle_alpha 90.000000
_cell_angle_beta 90.000000
_cell_angle_gamma 90.000000
_cell_volume 3759.696709
_symmetry_space_group_name_H-M "P M M N"
_symmetry_group_IT_number 59
_space_group.IT_coordinate_system_code '2'
_symmetry_cell_setting 'orthorhombic'
loop_
_space_group_symop_operation_xyz
x,y,z
1/2-x,1/2-y,z
1/2+x,-y,-z
-x,1/2+y,-z
-x,-y,-z
1/2+x,1/2+y,-z
1/2-x,y,z
x,1/2-y,z
loop_
_atom_site_type_symbol
_atom_site_label
_atom_site_fract_x
_atom_site_fract_y
_atom_site_fract_z
Si Si1 0.428190 0.684139 0.762330
Si Si2 0.067709 0.312951 0.934691
Si Si3 0.067468 0.381376 0.639251
Si Si4 0.577998 0.682484 0.910023
Si Si5 0.430886 0.114130 0.365122
Si Si6 0.932826 0.813217 0.499006
Si Si7 0.432673 0.314861 0.777319
Si Si8 0.931592 0.000990 0.419128
O O1 0.250000 0.674532 0.746575
O O2 0.475302 0.750000 0.750821
O O3 0.465105 0.664359 0.844912
O O4 0.527640 0.644823 0.709901
O O5 0.250000 0.309700 0.938405
O O6 0.997772 0.250000 0.931517
O O7 0.017195 0.340975 0.857044
O O8 0.015521 0.342701 0.011432
O O9 0.250000 0.378369 0.640316
O O10 0.003083 0.342992 0.573428
O O11 0.999006 0.356143 0.714778
O O12 0.012744 0.445696 0.625853
O O13 0.750000 0.660115 0.892580
O O14 0.581905 0.750000 0.918576
O O15 0.250000 0.104699 0.369801
O O16 0.493047 0.152759 0.431011
O O17 0.512560 0.053625 0.371035
O O18 0.750000 0.811854 0.498733
O O19 0.001048 0.750000 0.502924
O O20 0.250000 0.313940 0.771822
O O21 0.492312 0.250000 0.766628
O O22 0.750000 0.001860 0.427644
O O23 0.000000 0.000000 0.500000
#
# Coordination Sequence:
#
# PCOD8242382 Si02
#       8
#     8   8   8   8   8   8   8   8
#     4  10  20  32  46  69 100 127 153 189 234 281
#     4   7  10  17  32  58  91 123 151 178 214 264
#     4   9  16  26  41  64  92 120 152 189 233 279
#     4   8  13  23  40  62  91 126 157 181 211 262
#     4  11  21  34  50  69  91 122 162 199 239 280
#     4   9  16  26  42  65  91 117 147 183 224 276
#     4   8  12  19  35  63  98 126 146 180 230 277
#     4  11  21  35  51  68  90 120 160 205 245 283
#
# _framework density 17.022649000000001
#
# number of rings (size 3 to 8) (size 9 to 14) (size 15 to 20)
#    0.000    2.875    1.250    3.375    0.000    2.750 
#    0.000    0.000    0.000    0.000    0.000    2.625 
#    0.000    2.000    0.000    0.000    0.000    0.000 
#
# Total GULP energy -792923.836101 kJ/mol
# GULP energy per Si atom -12389.434939 kJ/mol
# Density = 1.698390 g / cm^3
# Si number density = 17.022649 Si / 1000 Ang^3
#
#
#
# Elastic Constant Matrix: (Units=GPa)
#
#
# Indices 1 2 3 4 5 6 
#
# 1 27.9322 15.9284 14.1316 0.0000 0.0000 0.0000
# 2 15.9284 98.1502 56.1222 0.0000 0.0000 0.0000
# 3 14.1316 56.1222 152.8141 0.0000 0.0000 0.0000
# 4 0.0000 0.0000 0.0000 7.7180 0.0000 0.0000
# 5 0.0000 0.0000 0.0000 0.0000 10.4527 0.0000
# 6 0.0000 0.0000 0.0000 0.0000 0.0000 16.4279
#
#
#
# Elastic Compliance Matrix: (Units=1/GPa)
#
#
# Indices 1 2 3 4 5 6 
#
# 1 0.039780 -0.005509 -0.001655 0.000000 0.000000 0.000000
# 2 -0.005509 0.013660 -0.004507 0.000000 0.000000 0.000000
# 3 -0.001655 -0.004507 0.008352 0.000000 0.000000 0.000000
# 4 0.000000 0.000000 0.000000 0.129568 0.000000 0.000000
# 5 0.000000 0.000000 0.000000 0.000000 0.095669 0.000000
# 6 0.000000 0.000000 0.000000 0.000000 0.000000 0.060872
#
#
# Mechanical properties :
#
#
# Convention : Reuss Voigt Hill
#
# Bulk Modulus (GPa) = 26.00874 50.14011 38.07442
# Shear Modulus (GPa) = 13.01877 19.76732 16.39305
#
# Velocity S-wave (km/s) = 2.76849 3.41139 3.10661
# Velocity P-wave (km/s) = 5.05286 6.71086 5.93999
#
# Compressibility (1/GPa) = 0.03844861
#
# Stress axis : x y z
#
# Youngs Moduli (GPa) = 25.13813 73.20779 119.72771
#
# Poissons Ratio (x) = 0.40332 0.19820
# Poissons Ratio (y) = 0.13849 0.53964
# Poissons Ratio (z) = 0.04161 0.32996
#
# Static dielectric constant tensor:
#      x y z
#    x 2.772450 0.000000 0.000000 
#    y 0.000000 3.054980 0.000000 
#    z 0.000000 0.000000 3.670400 
# 
# 
# High freq. dielectric constant tensor:
#      x y z
#    x 1.614810 0.000000 0.000000 
#    y 0.000000 1.617230 0.000000 
#    z 0.000000 0.000000 1.675700 
# 
# From -- ./inp_files/26438.got.cif
#   From: 2010.03.12/outbox.cif.g09.slc.cpg/sg59_14_cif.got.tgz:26438.got - 2010.04.16 16:29:54.
