data_PCOD8242370
_publ_section_title
;
Structure prediction by ZEFSAII (Michael W. Deem and Ramdas Pophale) SiO2 
 PCOD8242370
Probable space group: P M M N
;
_chemical_formula_sum "Si O2"
_cell_formula_units_Z 64
_cell_length_a 9.145604
_cell_length_b 28.364726
_cell_length_c 15.314510
_cell_angle_alpha 90.000000
_cell_angle_beta 90.000000
_cell_angle_gamma 90.000000
_cell_volume 3972.776115
_symmetry_space_group_name_H-M "P M M N"
_symmetry_group_IT_number 59
_space_group.IT_coordinate_system_code '2'
_symmetry_cell_setting 'orthorhombic'
loop_
_space_group_symop_operation_xyz
x,y,z
1/2-x,1/2-y,z
1/2+x,-y,-z
-x,1/2+y,-z
-x,-y,-z
1/2+x,1/2+y,-z
1/2-x,y,z
x,1/2-y,z
loop_
_atom_site_type_symbol
_atom_site_label
_atom_site_fract_x
_atom_site_fract_y
_atom_site_fract_z
Si Si1 0.418919 0.801902 0.414676
Si Si2 0.920501 0.950975 0.486489
Si Si3 0.420427 0.552027 0.820231
Si Si4 0.420905 0.897287 0.331983
Si Si5 0.580620 0.697799 0.591846
Si Si6 0.581236 0.951479 0.986257
Si Si7 0.415991 0.058440 0.821553
Si Si8 0.082690 0.398240 0.333493
O O1 0.250000 0.802131 0.439277
O O2 0.466888 0.750000 0.379575
O O3 0.453430 0.841477 0.342364
O O4 0.499971 0.815092 0.503125
O O5 0.750000 0.959904 0.468416
O O6 0.945799 0.918722 0.570670
O O7 0.989468 0.926466 0.402589
O O8 0.000000 0.000000 0.500000
O O9 0.250000 0.561378 0.833218
O O10 0.504472 0.574496 0.904218
O O11 0.456001 0.496702 0.812327
O O12 0.473640 0.577592 0.733413
O O13 0.250000 0.908960 0.342624
O O14 0.472968 0.911223 0.235675
O O15 0.750000 0.696119 0.567763
O O16 0.535439 0.750000 0.626977
O O17 0.545879 0.657813 0.663975
O O18 0.750000 0.960860 0.963588
O O19 0.566882 0.923572 0.078074
O O20 0.500000 0.000000 0.000000
O O21 0.250000 0.066622 0.789550
O O22 0.250000 0.407273 0.304314
#
# Coordination Sequence:
#
# PCOD8242370 Si02
#       8
#     8   8   8   8   8   8   8   8
#     4   9  18  32  48  67  92 121 155 196 240 282
#     4  11  22  34  46  63  92 129 164 196 229 272
#     4  10  20  32  48  70  95 126 159 193 232 278
#     4  11  21  31  47  70  94 125 160 194 234 278
#     4   9  17  31  50  69  89 117 156 200 243 282
#     4   9  17  31  50  70  93 122 155 195 237 277
#     4   9  19  33  48  68  95 126 158 192 231 275
#     4  10  20  32  46  67  93 124 158 193 234 279
#
# _framework density 16.109642000000001
#
# number of rings (size 3 to 8) (size 9 to 14) (size 15 to 20)
#    0.000    2.250    1.250    3.000    0.000    7.000 
#    0.000    0.000    0.000    0.000    0.000    0.875 
#    0.000    1.000    0.000    0.000    0.000    0.000 
#
# Total GULP energy -793378.838914 kJ/mol
# GULP energy per Si atom -12396.544358 kJ/mol
# Density = 1.607298 g / cm^3
# Si number density = 16.109642 Si / 1000 Ang^3
#
#
#
# Elastic Constant Matrix: (Units=GPa)
#
#
# Indices 1 2 3 4 5 6 
#
# 1 87.1354 39.0670 45.8528 0.0000 0.0000 0.0000
# 2 39.0670 76.2177 28.3624 0.0000 0.0000 0.0000
# 3 45.8528 28.3624 78.0354 0.0000 0.0000 0.0000
# 4 0.0000 0.0000 0.0000 7.1163 0.0000 0.0000
# 5 0.0000 0.0000 0.0000 0.0000 30.5789 0.0000
# 6 0.0000 0.0000 0.0000 0.0000 0.0000 19.5797
#
#
#
# Elastic Compliance Matrix: (Units=1/GPa)
#
#
# Indices 1 2 3 4 5 6 
#
# 1 0.019019 -0.006464 -0.008826 0.000000 0.000000 0.000000
# 2 -0.006464 0.017369 -0.002515 0.000000 0.000000 0.000000
# 3 -0.008826 -0.002515 0.018915 0.000000 0.000000 0.000000
# 4 0.000000 0.000000 0.000000 0.140522 0.000000 0.000000
# 5 0.000000 0.000000 0.000000 0.000000 0.032702 0.000000
# 6 0.000000 0.000000 0.000000 0.000000 0.000000 0.051073
#
#
# Mechanical properties :
#
#
# Convention : Reuss Voigt Hill
#
# Bulk Modulus (GPa) = 50.77830 51.99476 51.38653
# Shear Modulus (GPa) = 15.53882 19.99542 17.76712
#
# Velocity S-wave (km/s) = 3.10912 3.52690 3.32458
# Velocity P-wave (km/s) = 6.66916 6.99507 6.83406
#
# Compressibility (1/GPa) = 0.01969345
#
# Stress axis : x y z
#
# Youngs Moduli (GPa) = 52.57879 57.57225 52.86897
#
# Poissons Ratio (x) = 0.37216 0.46662
# Poissons Ratio (y) = 0.33988 0.13295
# Poissons Ratio (z) = 0.46406 0.14478
#
# Static dielectric constant tensor:
#      x y z
#    x 3.263760 0.000000 0.000000 
#    y 0.000000 3.011710 0.000000 
#    z 0.000000 0.000000 3.272810 
# 
# 
# High freq. dielectric constant tensor:
#      x y z
#    x 1.633100 0.000000 0.000000 
#    y 0.000000 1.599230 0.000000 
#    z 0.000000 0.000000 1.606290 
# 
# From -- ./inp_files/21923.got.cif
#   From: 2010.03.12/outbox.cif.g09.slc.cpg/sg59_11_cif.got.tgz:21923.got - 2010.04.16 16:29:54.
