data_PCOD8242789
_publ_section_title
;
Structure prediction by ZEFSAII (Michael W. Deem and Ramdas Pophale) SiO2 
 PCOD8242789
Probable space group: P M M N
;
_chemical_formula_sum "Si O2"
_cell_formula_units_Z 56
_cell_length_a 20.461755
_cell_length_b 8.955575
_cell_length_c 15.503101
_cell_angle_alpha 90.000000
_cell_angle_beta 90.000000
_cell_angle_gamma 90.000000
_cell_volume 2840.893362
_symmetry_space_group_name_H-M "P M M N"
_symmetry_group_IT_number 59
_space_group.IT_coordinate_system_code '2'
_symmetry_cell_setting 'orthorhombic'
loop_
_space_group_symop_operation_xyz
x,y,z
1/2-x,1/2-y,z
1/2+x,-y,-z
-x,1/2+y,-z
-x,-y,-z
1/2+x,1/2+y,-z
1/2-x,y,z
x,1/2-y,z
loop_
_atom_site_type_symbol
_atom_site_label
_atom_site_fract_x
_atom_site_fract_y
_atom_site_fract_z
Si Si1 0.676840 0.421606 0.022320
Si Si2 0.056453 0.422017 0.055986
Si Si3 0.824392 0.411885 0.357980
Si Si4 0.324017 0.077301 0.474630
Si Si5 0.508197 0.078374 0.229867
Si Si6 0.638218 0.574969 0.191364
Si Si7 0.963227 0.576020 0.581125
O O1 0.750000 0.436474 0.983910
O O2 0.655017 0.250000 0.029000
O O3 0.677439 0.490671 0.117364
O O4 0.626900 0.507661 0.961352
O O5 0.056790 0.250000 0.027122
O O6 0.049248 0.437525 0.159570
O O7 0.000000 0.500000 0.000000
O O8 0.750000 0.379773 0.375726
O O9 0.859447 0.250000 0.341439
O O10 0.851868 0.488036 0.443381
O O11 0.831265 0.527066 0.281231
O O12 0.250000 0.027000 0.443200
O O13 0.319956 0.250000 0.499831
O O14 0.384300 0.046812 0.409436
O O15 0.531830 0.250000 0.233931
O O16 0.490512 0.020739 0.326083
O O17 0.563141 0.972429 0.190156
O O18 0.645736 0.750000 0.177603
O O19 0.976312 0.750000 0.568732
O O20 0.000000 0.500000 0.500000
#
# Coordination Sequence:
#
# PCOD8242789 Si02
#       7
#     8   8   8   8   8   8   8
#     4  11  24  41  61  86 120 159 197 246 307 361
#     4  11  22  39  64  90 119 158 202 248 295 353
#     4  10  20  33  50  74 108 149 189 232 291 359
#     4   9  18  34  55  78 107 145 192 244 294 345
#     4  10  22  39  59  84 117 155 195 239 297 361
#     4  12  23  34  54  83 114 149 192 242 295 358
#     4  10  21  37  57  85 118 154 195 243 296 349
#
# _framework density 19.712109000000002
#
# number of rings (size 3 to 8) (size 9 to 14) (size 15 to 20)
#    0.000    1.571    1.429    3.857    0.000    7.714 
#    0.000    0.714    0.000    2.571    0.000    2.000 
#    0.000    0.000    0.000    0.000    0.000    0.000 
#
# Total GULP energy -693919.689133 kJ/mol
# GULP energy per Si atom -12391.423020 kJ/mol
# Density = 1.966724 g / cm^3
# Si number density = 19.712109 Si / 1000 Ang^3
#
#
#
# Elastic Constant Matrix: (Units=GPa)
#
#
# Indices 1 2 3 4 5 6 
#
# 1 95.5880 38.1520 37.1627 0.0000 0.0000 0.0000
# 2 38.1520 106.4002 35.7294 0.0000 0.0000 0.0000
# 3 37.1627 35.7294 80.9104 0.0000 0.0000 0.0000
# 4 0.0000 0.0000 0.0000 27.8862 0.0000 0.0000
# 5 0.0000 0.0000 0.0000 0.0000 31.1786 0.0000
# 6 0.0000 0.0000 0.0000 0.0000 0.0000 27.2106
#
#
#
# Elastic Compliance Matrix: (Units=1/GPa)
#
#
# Indices 1 2 3 4 5 6 
#
# 1 0.013642 -0.003273 -0.004821 0.000000 0.000000 0.000000
# 2 -0.003273 0.011820 -0.003716 0.000000 0.000000 0.000000
# 3 -0.004821 -0.003716 0.016215 0.000000 0.000000 0.000000
# 4 0.000000 0.000000 0.000000 0.035860 0.000000 0.000000
# 5 0.000000 0.000000 0.000000 0.000000 0.032073 0.000000
# 6 0.000000 0.000000 0.000000 0.000000 0.000000 0.036750
#
#
# Mechanical properties :
#
#
# Convention : Reuss Voigt Hill
#
# Bulk Modulus (GPa) = 55.38033 56.10964 55.74499
# Shear Modulus (GPa) = 28.40924 28.71203 28.56064
#
# Velocity S-wave (km/s) = 3.80044 3.82064 3.81056
# Velocity P-wave (km/s) = 6.88574 6.92744 6.90662
#
# Compressibility (1/GPa) = 0.01805695
#
# Stress axis : x y z
#
# Youngs Moduli (GPa) = 73.30287 84.60242 61.67274
#
# Poissons Ratio (x) = 0.27689 0.29730
# Poissons Ratio (y) = 0.23991 0.22920
# Poissons Ratio (z) = 0.35337 0.31441
#
# Static dielectric constant tensor:
#      x y z
#    x 3.351450 0.000000 0.000000 
#    y 0.000000 3.369610 0.000000 
#    z 0.000000 0.000000 3.611300 
# 
# 
# High freq. dielectric constant tensor:
#      x y z
#    x 1.776020 0.000000 0.000000 
#    y 0.000000 1.773320 0.000000 
#    z 0.000000 0.000000 1.752160 
# 
# From -- ./inp_files/24279.got.cif
#   From: 2010.03.12/outbox.cif.g09.slc.cpg/sg59_13_cif.got.tgz:24279.got - 2010.04.16 16:29:54.
