data_PCOD8242875
_publ_section_title
;
Structure prediction by ZEFSAII (Michael W. Deem and Ramdas Pophale) SiO2 
 PCOD8242875
Probable space group: P M M N
;
_chemical_formula_sum "Si O2"
_cell_formula_units_Z 48
_cell_length_a 9.334883
_cell_length_b 9.263265
_cell_length_c 30.561240
_cell_angle_alpha 90.000000
_cell_angle_beta 90.000000
_cell_angle_gamma 90.000000
_cell_volume 2642.676111
_symmetry_space_group_name_H-M "P M M N"
_symmetry_group_IT_number 59
_space_group.IT_coordinate_system_code '2'
_symmetry_cell_setting 'orthorhombic'
loop_
_space_group_symop_operation_xyz
x,y,z
1/2-x,1/2-y,z
1/2+x,-y,-z
-x,1/2+y,-z
-x,-y,-z
1/2+x,1/2+y,-z
1/2-x,y,z
x,1/2-y,z
loop_
_atom_site_type_symbol
_atom_site_label
_atom_site_fract_x
_atom_site_fract_y
_atom_site_fract_z
Si Si1 0.917335 0.082860 0.282206
Si Si2 0.583436 0.080246 0.792030
Si Si3 0.584860 0.920616 0.537795
Si Si4 0.088821 0.917240 0.964359
Si Si5 0.908006 0.421100 0.380074
Si Si6 0.582933 0.083506 0.134465
O O1 0.750000 0.060428 0.271625
O O2 0.959096 0.250000 0.275845
O O3 0.952878 0.028850 0.331462
O O4 0.012157 0.986616 0.250727
O O5 0.750000 0.039771 0.792324
O O6 0.557864 0.250000 0.791203
O O7 0.511789 0.017999 0.835455
O O8 0.750000 0.966187 0.535748
O O9 0.564426 0.750000 0.532132
O O10 0.522480 0.975218 0.584296
O O11 0.500000 0.000000 0.500000
O O12 0.250000 0.974369 0.967479
O O13 0.080566 0.750000 0.975764
O O14 0.031920 0.945055 0.915253
O O15 0.000000 0.000000 0.000000
O O16 0.750000 0.482785 0.392025
O O17 0.899558 0.250000 0.379783
O O18 0.750000 0.045400 0.140252
O O19 0.557306 0.250000 0.147457
#
# Coordination Sequence:
#
# PCOD8242875 Si02
#       6
#     8   8   8   8   8   8
#     4   9  18  34  57  81 101 127 167 210 252 303
#     4  11  24  37  49  73 108 139 168 207 255 303
#     4  10  20  33  51  76 104 135 172 211 252 301
#     4   9  19  35  54  78 107 136 168 209 254 300
#     4   8  15  30  52  76 101 129 164 208 254 299
#     4   9  19  37  58  77  99 132 175 216 252 297
#
# _framework density 18.163405999999998
#
# number of rings (size 3 to 8) (size 9 to 14) (size 15 to 20)
#    0.000    2.667    0.000    3.500    0.000    7.333 
#    0.000    7.500    0.000    1.000    0.000    0.000 
#    0.000    0.000    0.000    0.000    0.000    0.000 
#
# Total GULP energy -595129.238644 kJ/mol
# GULP energy per Si atom -12398.525805 kJ/mol
# Density = 1.812206 g / cm^3
# Si number density = 18.163406 Si / 1000 Ang^3
#
#
#
# Elastic Constant Matrix: (Units=GPa)
#
#
# Indices 1 2 3 4 5 6 
#
# 1 122.5389 58.1278 88.8986 0.0000 0.0000 0.0000
# 2 58.1278 60.6157 58.0759 0.0000 0.0000 0.0000
# 3 88.8986 58.0759 148.8074 0.0000 0.0000 0.0000
# 4 0.0000 0.0000 0.0000 31.6874 0.0000 0.0000
# 5 0.0000 0.0000 0.0000 0.0000 38.1631 0.0000
# 6 0.0000 0.0000 0.0000 0.0000 0.0000 30.8212
#
#
#
# Elastic Compliance Matrix: (Units=1/GPa)
#
#
# Indices 1 2 3 4 5 6 
#
# 1 0.018195 -0.011235 -0.006485 0.000000 0.000000 0.000000
# 2 -0.011235 0.033287 -0.006280 0.000000 0.000000 0.000000
# 3 -0.006485 -0.006280 0.013045 0.000000 0.000000 0.000000
# 4 0.000000 0.000000 0.000000 0.031558 0.000000 0.000000
# 5 0.000000 0.000000 0.000000 0.000000 0.026203 0.000000
# 6 0.000000 0.000000 0.000000 0.000000 0.000000 0.032445
#
#
# Mechanical properties :
#
#
# Convention : Reuss Voigt Hill
#
# Bulk Modulus (GPa) = 60.50110 82.46294 71.48202
# Shear Modulus (GPa) = 24.01054 28.59165 26.30110
#
# Velocity S-wave (km/s) = 3.63976 3.97184 3.80942
# Velocity P-wave (km/s) = 7.14461 8.15679 7.66742
#
# Compressibility (1/GPa) = 0.01652863
#
# Stress axis : x y z
#
# Youngs Moduli (GPa) = 54.96126 30.04145 76.65728
#
# Poissons Ratio (x) = 0.33750 0.49712
# Poissons Ratio (y) = 0.61747 0.48138
# Poissons Ratio (z) = 0.35643 0.18865
#
# Static dielectric constant tensor:
#      x y z
#    x 3.277340 0.000000 0.000000 
#    y 0.000000 3.100680 0.000000 
#    z 0.000000 0.000000 3.567340 
# 
# 
# High freq. dielectric constant tensor:
#      x y z
#    x 1.703580 0.000000 0.000000 
#    y 0.000000 1.680190 0.000000 
#    z 0.000000 0.000000 1.720510 
# 
# From -- ./inp_files/32800.got.cif
#   From: 2010.03.12/outbox.cif.g09.slc.cpg/sg59_17_cif.got.tgz:32800.got - 2010.04.16 16:29:54.
