data_PCOD8242131
_publ_section_title
;
Structure prediction by ZEFSAII (Michael W. Deem and Ramdas Pophale) SiO2 
 PCOD8242131
Probable space group: P M M N
;
_chemical_formula_sum "Si O2"
_cell_formula_units_Z 64
_cell_length_a 17.897376
_cell_length_b 8.546192
_cell_length_c 21.600354
_cell_angle_alpha 90.000000
_cell_angle_beta 90.000000
_cell_angle_gamma 90.000000
_cell_volume 3303.869436
_symmetry_space_group_name_H-M "P M M N"
_symmetry_group_IT_number 59
_space_group.IT_coordinate_system_code '2'
_symmetry_cell_setting 'orthorhombic'
loop_
_space_group_symop_operation_xyz
x,y,z
1/2-x,1/2-y,z
1/2+x,-y,-z
-x,1/2+y,-z
-x,-y,-z
1/2+x,1/2+y,-z
1/2-x,y,z
x,1/2-y,z
loop_
_atom_site_type_symbol
_atom_site_label
_atom_site_fract_x
_atom_site_fract_y
_atom_site_fract_z
Si Si1 0.571584 0.432993 0.107009
Si Si2 0.165224 0.930175 0.370390
Si Si3 0.663910 0.568292 0.998330
Si Si4 0.452896 0.930194 0.685112
Si Si5 0.908529 0.068402 0.881525
Si Si6 0.166609 0.563060 0.776434
Si Si7 0.105350 0.430101 0.248160
Si Si8 0.528929 0.935850 0.564189
O O1 0.553175 0.250000 0.114001
O O2 0.495105 0.527220 0.110247
O O3 0.626171 0.493724 0.161236
O O4 0.612170 0.463650 0.042267
O O5 0.250000 0.950266 0.393463
O O6 0.142600 0.750000 0.363253
O O7 0.157164 0.012065 0.303967
O O8 0.113231 0.008593 0.422614
O O9 0.750000 0.523181 0.009418
O O10 0.649576 0.750000 0.012298
O O11 0.641879 0.531603 0.928069
O O12 0.437878 0.750000 0.672047
O O13 0.378502 0.003132 0.716369
O O14 0.518869 0.952522 0.734404
O O15 0.475417 0.005297 0.618917
O O16 0.896511 0.250000 0.895225
O O17 0.878787 0.030014 0.812936
O O18 0.250000 0.492907 0.774550
O O19 0.168212 0.750000 0.775143
O O20 0.123860 0.250000 0.234705
O O21 0.528269 0.750000 0.563804
O O22 0.500000 0.000000 0.500000
#
# Coordination Sequence:
#
# PCOD8242131 Si02
#       8
#     8   8   8   8   8   8   8   8
#     4  11  21  37  60  84 112 145 187 234 285 347
#     4  10  21  37  58  87 121 154 194 244 294 346
#     4  11  25  43  59  78 109 147 187 236 293 349
#     4   8  15  30  51  78 110 143 182 226 273 331
#     4  12  24  38  59  85 112 147 192 239 288 343
#     4   9  16  28  52  84 112 139 176 226 281 336
#     4  10  19  35  58  83 113 149 187 231 287 345
#     4  10  20  35  58  84 116 159 202 243 288 340
#
# _framework density 19.371226
#
# number of rings (size 3 to 8) (size 9 to 14) (size 15 to 20)
#    0.000    1.875    1.250    4.500    0.000    3.000 
#    0.000    0.625    0.000    2.250    0.000    0.000 
#    0.000    0.000    0.000    0.000    0.000    0.000 
#
# Total GULP energy -793645.028443 kJ/mol
# GULP energy per Si atom -12400.703569 kJ/mol
# Density = 1.932714 g / cm^3
# Si number density = 19.371226 Si / 1000 Ang^3
#
#
#
# Elastic Constant Matrix: (Units=GPa)
#
#
# Indices 1 2 3 4 5 6 
#
# 1 79.1084 26.5452 36.2484 0.0000 0.0000 0.0000
# 2 26.5452 54.4277 17.4255 0.0000 0.0000 0.0000
# 3 36.2484 17.4255 115.0694 0.0000 0.0000 0.0000
# 4 0.0000 0.0000 0.0000 29.4626 0.0000 0.0000
# 5 0.0000 0.0000 0.0000 0.0000 25.9961 0.0000
# 6 0.0000 0.0000 0.0000 0.0000 0.0000 22.1079
#
#
#
# Elastic Compliance Matrix: (Units=1/GPa)
#
#
# Indices 1 2 3 4 5 6 
#
# 1 0.016912 -0.006876 -0.004286 0.000000 0.000000 0.000000
# 2 -0.006876 0.022105 -0.001181 0.000000 0.000000 0.000000
# 3 -0.004286 -0.001181 0.010220 0.000000 0.000000 0.000000
# 4 0.000000 0.000000 0.000000 0.033941 0.000000 0.000000
# 5 0.000000 0.000000 0.000000 0.000000 0.038467 0.000000
# 6 0.000000 0.000000 0.000000 0.000000 0.000000 0.045233
#
#
# Mechanical properties :
#
#
# Convention : Reuss Voigt Hill
#
# Bulk Modulus (GPa) = 40.73473 45.44931 43.09202
# Shear Modulus (GPa) = 25.03150 26.73908 25.88529
#
# Velocity S-wave (km/s) = 3.59862 3.71934 3.65948
# Velocity P-wave (km/s) = 6.19200 6.47749 6.33635
#
# Compressibility (1/GPa) = 0.02454908
#
# Stress axis : x y z
#
# Youngs Moduli (GPa) = 59.12895 45.23914 97.85167
#
# Poissons Ratio (x) = 0.31107 0.41942
# Poissons Ratio (y) = 0.40657 0.11560
# Poissons Ratio (z) = 0.25344 0.05345
#
# Static dielectric constant tensor:
#      x y z
#    x 3.609090 0.000000 0.000000 
#    y 0.000000 3.370550 0.000000 
#    z 0.000000 0.000000 3.484910 
# 
# 
# High freq. dielectric constant tensor:
#      x y z
#    x 1.752960 0.000000 0.000000 
#    y 0.000000 1.740150 0.000000 
#    z 0.000000 0.000000 1.754190 
# 
# From -- ./inp_files/30752.got.cif
#   From: 2010.03.12/outbox.cif.g09.slc.cpg/sg59_16_cif.got.tgz:30752.got - 2010.04.16 16:29:54.
