data_PCOD8242111
_publ_section_title
;
Structure prediction by ZEFSAII (Michael W. Deem and Ramdas Pophale) SiO2 
 PCOD8242111
Probable space group: P M M N
;
_chemical_formula_sum "Si O2"
_cell_formula_units_Z 56
_cell_length_a 8.518364
_cell_length_b 19.551842
_cell_length_c 17.545625
_cell_angle_alpha 90.000000
_cell_angle_beta 90.000000
_cell_angle_gamma 90.000000
_cell_volume 2922.218703
_symmetry_space_group_name_H-M "P M M N"
_symmetry_group_IT_number 59
_space_group.IT_coordinate_system_code '2'
_symmetry_cell_setting 'orthorhombic'
loop_
_space_group_symop_operation_xyz
x,y,z
1/2-x,1/2-y,z
1/2+x,-y,-z
-x,1/2+y,-z
-x,-y,-z
1/2+x,1/2+y,-z
1/2-x,y,z
x,1/2-y,z
loop_
_atom_site_type_symbol
_atom_site_label
_atom_site_fract_x
_atom_site_fract_y
_atom_site_fract_z
Si Si1 0.066148 0.426850 0.637310
Si Si2 0.426677 0.945318 0.200309
Si Si3 0.563701 0.927679 0.609825
Si Si4 0.925729 0.898466 0.773199
Si Si5 0.065719 0.670585 0.481740
Si Si6 0.935600 0.567386 0.039242
Si Si7 0.062670 0.174301 0.082951
O O1 0.250000 0.419472 0.623694
O O2 0.028523 0.423502 0.726804
O O3 0.010379 0.497277 0.596652
O O4 0.979573 0.362069 0.599283
O O5 0.250000 0.917447 0.211112
O O6 0.499906 0.915984 0.123134
O O7 0.425931 0.026420 0.191109
O O8 0.750000 0.938896 0.615663
O O9 0.493303 0.898237 0.689841
O O10 0.523530 0.873421 0.545406
O O11 0.750000 0.871197 0.760946
O O12 0.010972 0.850949 0.836019
O O13 0.250000 0.664732 0.495839
O O14 0.011640 0.750000 0.484627
O O15 0.750000 0.562069 0.043720
O O16 0.996519 0.629475 0.987286
O O17 0.000000 0.500000 0.000000
O O18 0.250000 0.169494 0.088695
O O19 0.001226 0.250000 0.067652
#
# Coordination Sequence:
#
# PCOD8242111 Si02
#       7
#     8   8   8   8   8   8   8
#     4  11  22  38  61  88 116 147 188 238 291 348
#     4  10  19  35  57  83 111 142 185 236 283 336
#     4  10  20  35  59  88 118 150 190 236 283 342
#     4   8  15  29  50  79 108 137 176 223 276 328
#     4  11  24  41  59  81 114 155 196 241 294 344
#     4  11  20  32  54  82 109 145 189 234 285 334
#     4   9  17  30  49  76 110 145 184 229 277 330
#
# _framework density 19.163520999999999
#
# number of rings (size 3 to 8) (size 9 to 14) (size 15 to 20)
#    0.000    2.000    1.429    4.286    0.000    1.714 
#    0.000    2.143    0.000    4.286    0.000    0.000 
#    0.000    0.000    0.000    0.000    0.000    0.000 
#
# Total GULP energy -694222.297960 kJ/mol
# GULP energy per Si atom -12396.826749 kJ/mol
# Density = 1.911990 g / cm^3
# Si number density = 19.163521 Si / 1000 Ang^3
#
#
#
# Elastic Constant Matrix: (Units=GPa)
#
#
# Indices 1 2 3 4 5 6 
#
# 1 54.0730 18.5680 11.4302 0.0000 0.0000 0.0000
# 2 18.5680 108.0104 53.0825 0.0000 0.0000 0.0000
# 3 11.4302 53.0825 113.2091 0.0000 0.0000 0.0000
# 4 0.0000 0.0000 0.0000 28.0177 0.0000 0.0000
# 5 0.0000 0.0000 0.0000 0.0000 29.0835 0.0000
# 6 0.0000 0.0000 0.0000 0.0000 0.0000 20.6829
#
#
#
# Elastic Compliance Matrix: (Units=1/GPa)
#
#
# Indices 1 2 3 4 5 6 
#
# 1 0.019677 -0.003127 -0.000521 0.000000 0.000000 0.000000
# 2 -0.003127 0.012528 -0.005558 0.000000 0.000000 0.000000
# 3 -0.000521 -0.005558 0.011492 0.000000 0.000000 0.000000
# 4 0.000000 0.000000 0.000000 0.035692 0.000000 0.000000
# 5 0.000000 0.000000 0.000000 0.000000 0.034384 0.000000
# 6 0.000000 0.000000 0.000000 0.000000 0.000000 0.048349
#
#
# Mechanical properties :
#
#
# Convention : Reuss Voigt Hill
#
# Bulk Modulus (GPa) = 39.54864 49.05043 44.29954
# Shear Modulus (GPa) = 26.46041 28.37094 27.41568
#
# Velocity S-wave (km/s) = 3.71990 3.85186 3.78645
# Velocity P-wave (km/s) = 6.25560 6.74045 6.50255
#
# Compressibility (1/GPa) = 0.02528532
#
# Stress axis : x y z
#
# Youngs Moduli (GPa) = 50.82005 79.82377 87.01690
#
# Poissons Ratio (x) = 0.24960 0.04530
# Poissons Ratio (y) = 0.15891 0.48367
# Poissons Ratio (z) = 0.02645 0.44369
#
# Static dielectric constant tensor:
#      x y z
#    x 3.314380 0.000000 0.000000 
#    y 0.000000 3.463320 0.000000 
#    z 0.000000 0.000000 3.710560 
# 
# 
# High freq. dielectric constant tensor:
#      x y z
#    x 1.727760 0.000000 0.000000 
#    y 0.000000 1.725860 0.000000 
#    z 0.000000 0.000000 1.763920 
# 
# From -- ./inp_files/26102.got.cif
#   From: 2010.03.12/outbox.cif.g09.slc.cpg/sg59_14_cif.got.tgz:26102.got - 2010.04.16 16:29:54.
