data_PCOD8242494
_publ_section_title
;
Structure prediction by ZEFSAII (Michael W. Deem and Ramdas Pophale) SiO2 
 PCOD8242494
Probable space group: P M M N
;
_chemical_formula_sum "Si O2"
_cell_formula_units_Z 56
_cell_length_a 18.990207
_cell_length_b 9.207967
_cell_length_c 17.596777
_cell_angle_alpha 90.000000
_cell_angle_beta 90.000000
_cell_angle_gamma 90.000000
_cell_volume 3076.993531
_symmetry_space_group_name_H-M "P M M N"
_symmetry_group_IT_number 59
_space_group.IT_coordinate_system_code '2'
_symmetry_cell_setting 'orthorhombic'
loop_
_space_group_symop_operation_xyz
x,y,z
1/2-x,1/2-y,z
1/2+x,-y,-z
-x,1/2+y,-z
-x,-y,-z
1/2+x,1/2+y,-z
1/2-x,y,z
x,1/2-y,z
loop_
_atom_site_type_symbol
_atom_site_label
_atom_site_fract_x
_atom_site_fract_y
_atom_site_fract_z
Si Si1 0.088248 0.418625 0.629980
Si Si2 0.416861 0.414007 0.805504
Si Si3 0.667914 0.581359 0.921079
Si Si4 0.331538 0.919085 0.928051
Si Si5 0.580828 0.417309 0.797006
Si Si6 0.931260 0.422521 0.627436
Si Si7 0.669574 0.078891 0.495114
O O1 0.095163 0.250000 0.609019
O O2 0.103260 0.444974 0.718484
O O3 0.145916 0.507175 0.583344
O O4 0.010167 0.478207 0.609087
O O5 0.394744 0.250000 0.827478
O O6 0.375051 0.528043 0.855914
O O7 0.499525 0.435069 0.819202
O O8 0.750000 0.552399 0.907595
O O9 0.650324 0.750000 0.929965
O O10 0.627318 0.518906 0.849388
O O11 0.641538 0.501766 0.997101
O O12 0.250000 0.953250 0.912519
O O13 0.345523 0.750000 0.940770
O O14 0.604601 0.250000 0.806207
O O15 0.593209 0.473768 0.710916
O O16 0.933754 0.250000 0.629142
O O17 0.877333 0.482978 0.564596
O O18 0.750000 0.036841 0.511958
O O19 0.659703 0.250000 0.487122
#
# Coordination Sequence:
#
# PCOD8242494 Si02
#       7
#     8   8   8   8   8   8   8
#     4   9  18  34  54  73  97 132 171 207 246 298
#     4   9  19  35  54  77 103 131 166 210 259 305
#     4  10  21  36  53  75 105 138 169 204 251 303
#     4  10  21  36  54  76 101 133 174 212 247 296
#     4   9  18  34  56  79 101 129 170 214 252 298
#     4   8  16  33  54  74  98 131 170 208 248 296
#     4  10  20  32  48  74 105 133 165 207 252 296
#
# _framework density 18.199583000000001
#
# number of rings (size 3 to 8) (size 9 to 14) (size 15 to 20)
#    0.000    2.714    0.000    3.000    0.000    4.857 
#    0.000    7.143    0.000    0.000    0.000    0.000 
#    0.000    0.000    0.000    0.000    0.000    0.000 
#
# Total GULP energy -694468.671729 kJ/mol
# GULP energy per Si atom -12401.226281 kJ/mol
# Density = 1.815816 g / cm^3
# Si number density = 18.199583 Si / 1000 Ang^3
#
#
#
# Elastic Constant Matrix: (Units=GPa)
#
#
# Indices 1 2 3 4 5 6 
#
# 1 68.5640 42.3966 55.9784 0.0000 0.0000 0.0000
# 2 42.3966 70.1032 51.1972 0.0000 0.0000 0.0000
# 3 55.9784 51.1972 108.6459 0.0000 0.0000 0.0000
# 4 0.0000 0.0000 0.0000 33.5983 0.0000 0.0000
# 5 0.0000 0.0000 0.0000 0.0000 30.5368 0.0000
# 6 0.0000 0.0000 0.0000 0.0000 0.0000 30.6221
#
#
#
# Elastic Compliance Matrix: (Units=1/GPa)
#
#
# Indices 1 2 3 4 5 6 
#
# 1 0.029290 -0.010204 -0.010283 0.000000 0.000000 0.000000
# 2 -0.010204 0.025305 -0.006667 0.000000 0.000000 0.000000
# 3 -0.010283 -0.006667 0.017644 0.000000 0.000000 0.000000
# 4 0.000000 0.000000 0.000000 0.029763 0.000000 0.000000
# 5 0.000000 0.000000 0.000000 0.000000 0.032747 0.000000
# 6 0.000000 0.000000 0.000000 0.000000 0.000000 0.032656
#
#
# Mechanical properties :
#
#
# Convention : Reuss Voigt Hill
#
# Bulk Modulus (GPa) = 55.76899 60.71750 58.24324
# Shear Modulus (GPa) = 21.95971 25.46751 23.71361
#
# Velocity S-wave (km/s) = 3.47739 3.74484 3.61359
# Velocity P-wave (km/s) = 6.84343 7.22031 7.03439
#
# Compressibility (1/GPa) = 0.01793111
#
# Stress axis : x y z
#
# Youngs Moduli (GPa) = 34.14148 39.51832 56.67694
#
# Poissons Ratio (x) = 0.40325 0.58279
# Poissons Ratio (y) = 0.34838 0.37785
# Poissons Ratio (z) = 0.35107 0.26346
#
# Static dielectric constant tensor:
#      x y z
#    x 3.327690 0.000000 0.000000 
#    y 0.000000 3.166750 0.000000 
#    z 0.000000 0.000000 3.420520 
# 
# 
# High freq. dielectric constant tensor:
#      x y z
#    x 1.702070 0.000000 0.000000 
#    y 0.000000 1.690260 0.000000 
#    z 0.000000 0.000000 1.713670 
# 
# From -- ./inp_files/20954.got.cif
#   From: 2010.03.12/outbox.cif.g09.slc.cpg/sg59_11_cif.got.tgz:20954.got - 2010.04.16 16:29:54.
