data_PCOD8242474
_publ_section_title
;
Structure prediction by ZEFSAII (Michael W. Deem and Ramdas Pophale) SiO2 
 PCOD8242474
Probable space group: P M M N
;
_chemical_formula_sum "Si O2"
_cell_formula_units_Z 48
_cell_length_a 9.923765
_cell_length_b 9.507152
_cell_length_c 29.449479
_cell_angle_alpha 90.000000
_cell_angle_beta 90.000000
_cell_angle_gamma 90.000000
_cell_volume 2778.462405
_symmetry_space_group_name_H-M "P M M N"
_symmetry_group_IT_number 59
_space_group.IT_coordinate_system_code '2'
_symmetry_cell_setting 'orthorhombic'
loop_
_space_group_symop_operation_xyz
x,y,z
1/2-x,1/2-y,z
1/2+x,-y,-z
-x,1/2+y,-z
-x,-y,-z
1/2+x,1/2+y,-z
1/2-x,y,z
x,1/2-y,z
loop_
_atom_site_type_symbol
_atom_site_label
_atom_site_fract_x
_atom_site_fract_y
_atom_site_fract_z
Si Si1 0.750000 0.412178 0.969728
Si Si2 0.590848 0.085043 0.465373
Si Si3 0.399117 0.583470 0.633253
Si Si4 0.402865 0.412344 0.190973
Si Si5 0.529988 0.087148 0.896919
Si Si6 0.750000 0.587171 0.060789
Si Si7 0.096098 0.582736 0.731030
O O1 0.750000 0.250000 0.984186
O O2 0.881802 0.450610 0.940820
O O3 0.750000 0.502180 0.014716
O O4 0.750000 0.049449 0.470756
O O5 0.567346 0.250000 0.473572
O O6 0.535430 0.038145 0.414940
O O7 0.500000 0.000000 0.500000
O O8 0.250000 0.519625 0.633916
O O9 0.390028 0.750000 0.632870
O O10 0.464897 0.534207 0.681399
O O11 0.250000 0.428529 0.208331
O O12 0.438204 0.250000 0.181400
O O13 0.421376 0.495669 0.144820
O O14 0.500649 0.478330 0.229493
O O15 0.548396 0.250000 0.883769
O O16 0.377196 0.047983 0.908406
O O17 0.750000 0.750000 0.046910
O O18 0.250000 0.529014 0.737863
O O19 0.093545 0.750000 0.733362
#
# Coordination Sequence:
#
# PCOD8242474 Si02
#       7
#     4   8   8   8   8   4   8
#     4  10  20  36  56  74  96 130 162 186 225 284
#     4   9  17  29  46  69  97 130 167 205 248 297
#     4   7  11  23  43  65  90 122 158 196 241 289
#     4  10  20  32  48  73 100 125 156 194 235 278
#     4  10  21  37  53  72 100 131 158 187 231 283
#     4  10  22  36  54  78 100 122 156 200 235 264
#     4   8  14  26  46  70  94 120 154 199 245 284
#
# _framework density 17.275741
#
# number of rings (size 3 to 8) (size 9 to 14) (size 15 to 20)
#    0.000    3.000    0.833    2.500    1.167    1.667 
#    0.000    0.833    0.000    4.000    0.000    2.333 
#    0.000    0.000    0.000    0.000    0.000    0.000 
#
# Total GULP energy -594648.468733 kJ/mol
# GULP energy per Si atom -12388.509765 kJ/mol
# Density = 1.723642 g / cm^3
# Si number density = 17.275741 Si / 1000 Ang^3
#
#
#
# Elastic Constant Matrix: (Units=GPa)
#
#
# Indices 1 2 3 4 5 6 
#
# 1 83.5546 25.4082 38.8820 0.0000 0.0000 0.0000
# 2 25.4082 36.1558 41.3221 0.0000 0.0000 0.0000
# 3 38.8820 41.3221 119.1724 0.0000 0.0000 0.0000
# 4 0.0000 0.0000 0.0000 19.3955 0.0000 0.0000
# 5 0.0000 0.0000 0.0000 0.0000 28.7110 0.0000
# 6 0.0000 0.0000 0.0000 0.0000 0.0000 16.8299
#
#
#
# Elastic Compliance Matrix: (Units=1/GPa)
#
#
# Indices 1 2 3 4 5 6 
#
# 1 0.015539 -0.008490 -0.002126 0.000000 0.000000 0.000000
# 2 -0.008490 0.050452 -0.014724 0.000000 0.000000 0.000000
# 3 -0.002126 -0.014724 0.014190 0.000000 0.000000 0.000000
# 4 0.000000 0.000000 0.000000 0.051558 0.000000 0.000000
# 5 0.000000 0.000000 0.000000 0.000000 0.034830 0.000000
# 6 0.000000 0.000000 0.000000 0.000000 0.000000 0.059418
#
#
# Mechanical properties :
#
#
# Convention : Reuss Voigt Hill
#
# Bulk Modulus (GPa) = 33.89656 50.01193 41.95424
# Shear Modulus (GPa) = 17.45184 21.87198 19.66191
#
# Velocity S-wave (km/s) = 3.18180 3.56202 3.37727
# Velocity P-wave (km/s) = 5.75864 6.77712 6.28854
#
# Compressibility (1/GPa) = 0.02950152
#
# Stress axis : x y z
#
# Youngs Moduli (GPa) = 64.35241 19.82065 70.47111
#
# Poissons Ratio (x) = 0.16829 0.14982
# Poissons Ratio (y) = 0.54638 1.03760
# Poissons Ratio (z) = 0.13681 0.29184
#
# Static dielectric constant tensor:
#      x y z
#    x 3.793140 0.000000 0.000000 
#    y 0.000000 2.850500 0.000000 
#    z 0.000000 0.000000 3.549370 
# 
# 
# High freq. dielectric constant tensor:
#      x y z
#    x 1.656760 0.000000 0.000000 
#    y 0.000000 1.625740 0.000000 
#    z 0.000000 0.000000 1.683340 
# 
# From -- ./inp_files/33090.got.cif
#   From: 2010.03.12/outbox.cif.g09.slc.cpg/sg59_17_cif.got.tgz:33090.got - 2010.04.16 16:29:54.
