data_PCOD8242127
_publ_section_title
;
Structure prediction by ZEFSAII (Michael W. Deem and Ramdas Pophale) SiO2 
 PCOD8242127
Probable space group: P M M N
;
_chemical_formula_sum "Si O2"
_cell_formula_units_Z 56
_cell_length_a 8.918988
_cell_length_b 14.724829
_cell_length_c 22.482825
_cell_angle_alpha 90.000000
_cell_angle_beta 90.000000
_cell_angle_gamma 90.000000
_cell_volume 2952.682293
_symmetry_space_group_name_H-M "P M M N"
_symmetry_group_IT_number 59
_space_group.IT_coordinate_system_code '2'
_symmetry_cell_setting 'orthorhombic'
loop_
_space_group_symop_operation_xyz
x,y,z
1/2-x,1/2-y,z
1/2+x,-y,-z
-x,1/2+y,-z
-x,-y,-z
1/2+x,1/2+y,-z
1/2-x,y,z
x,1/2-y,z
loop_
_atom_site_type_symbol
_atom_site_label
_atom_site_fract_x
_atom_site_fract_y
_atom_site_fract_z
Si Si1 0.072631 0.855218 0.479291
Si Si2 0.571146 0.076246 0.156893
Si Si3 0.572728 0.482845 0.413685
Si Si4 0.423023 0.899487 0.113184
Si Si5 0.924389 0.481863 0.283294
Si Si6 0.077704 0.250000 0.961511
Si Si7 0.077858 0.250000 0.102063
Si Si8 0.083159 0.850319 0.245422
O O1 0.250000 0.856292 0.470870
O O2 0.014545 0.750000 0.476660
O O3 0.025563 0.901553 0.542056
O O4 0.001364 0.919387 0.428661
O O5 0.750000 0.075602 0.155298
O O6 0.508521 0.069767 0.225449
O O7 0.507263 0.165525 0.128788
O O8 0.510252 0.994083 0.117184
O O9 0.750000 0.499049 0.414801
O O10 0.516392 0.450003 0.348110
O O11 0.250000 0.917941 0.097005
O O12 0.496544 0.840260 0.061457
O O13 0.440394 0.845646 0.174720
O O14 0.750000 0.466660 0.281459
O O15 0.960684 0.588264 0.277404
O O16 0.250000 0.250000 0.940393
O O17 0.063643 0.250000 0.031833
O O18 0.250000 0.250000 0.122611
O O19 0.250000 0.887944 0.259502
O O20 0.062992 0.750000 0.271754
#
# Coordination Sequence:
#
# PCOD8242127 Si02
#       8
#     8   8   8   8   8   4   4   8
#     4   9  18  33  53  77 105 141 180 218 263 313
#     4  10  21  39  60  83 110 143 184 232 279 325
#     4   9  18  34  53  76 107 140 176 220 267 314
#     4  10  19  35  58  83 111 144 180 222 276 336
#     4   9  19  34  52  78 106 137 179 221 268 319
#     4  11  23  37  57  85 113 143 184 229 272 329
#     4  11  25  43  59  79 109 147 186 227 280 331
#     4   9  17  30  48  74 106 140 175 212 264 324
#
# _framework density 18.965807000000002
#
# number of rings (size 3 to 8) (size 9 to 14) (size 15 to 20)
#    0.000    2.429    0.714    1.286    0.000    4.571 
#    1.286    2.857    0.000    0.000    0.000    0.000 
#    0.000    0.000    0.000    0.000    0.000    0.000 
#
# Total GULP energy -694105.276254 kJ/mol
# GULP energy per Si atom -12394.737076 kJ/mol
# Density = 1.892264 g / cm^3
# Si number density = 18.965807 Si / 1000 Ang^3
#
#
#
# Elastic Constant Matrix: (Units=GPa)
#
#
# Indices 1 2 3 4 5 6 
#
# 1 62.8325 38.6690 39.4554 0.0000 0.0000 0.0000
# 2 38.6690 122.7147 45.1945 0.0000 0.0000 0.0000
# 3 39.4554 45.1945 96.3048 0.0000 0.0000 0.0000
# 4 0.0000 0.0000 0.0000 17.0564 0.0000 0.0000
# 5 0.0000 0.0000 0.0000 0.0000 24.7847 0.0000
# 6 0.0000 0.0000 0.0000 0.0000 0.0000 33.7635
#
#
#
# Elastic Compliance Matrix: (Units=1/GPa)
#
#
# Indices 1 2 3 4 5 6 
#
# 1 0.023438 -0.004653 -0.007418 0.000000 0.000000 0.000000
# 2 -0.004653 0.010776 -0.003150 0.000000 0.000000 0.000000
# 3 -0.007418 -0.003150 0.014901 0.000000 0.000000 0.000000
# 4 0.000000 0.000000 0.000000 0.058629 0.000000 0.000000
# 5 0.000000 0.000000 0.000000 0.000000 0.040348 0.000000
# 6 0.000000 0.000000 0.000000 0.000000 0.000000 0.029618
#
#
# Mechanical properties :
#
#
# Convention : Reuss Voigt Hill
#
# Bulk Modulus (GPa) = 53.56137 58.72109 56.14123
# Shear Modulus (GPa) = 23.32347 25.68981 24.50664
#
# Velocity S-wave (km/s) = 3.51060 3.68439 3.59855
# Velocity P-wave (km/s) = 6.68841 7.00917 6.85066
#
# Compressibility (1/GPa) = 0.01867017
#
# Stress axis : x y z
#
# Youngs Moduli (GPa) = 42.66664 92.80264 67.10777
#
# Poissons Ratio (x) = 0.43184 0.49784
# Poissons Ratio (y) = 0.19854 0.21141
# Poissons Ratio (z) = 0.31652 0.29236
#
# Static dielectric constant tensor:
#      x y z
#    x 3.480530 0.000000 0.000000 
#    y 0.000000 3.477730 0.000000 
#    z 0.000000 0.000000 3.717450 
# 
# 
# High freq. dielectric constant tensor:
#      x y z
#    x 1.733710 0.000000 0.000000 
#    y 0.000000 1.729430 0.000000 
#    z 0.000000 0.000000 1.737830 
# 
# From -- ./inp_files/29248.got.cif
#   From: 2010.03.12/outbox.cif.g09.slc.cpg/sg59_15_cif.got.tgz:29248.got - 2010.04.16 16:29:54.
