data_PCOD8242371
_publ_section_title
;
Structure prediction by ZEFSAII (Michael W. Deem and Ramdas Pophale) SiO2 
 PCOD8242371
Probable space group: P M M N
;
_chemical_formula_sum "Si O2"
_cell_formula_units_Z 64
_cell_length_a 30.747316
_cell_length_b 8.888756
_cell_length_c 14.525304
_cell_angle_alpha 90.000000
_cell_angle_beta 90.000000
_cell_angle_gamma 90.000000
_cell_volume 3969.843868
_symmetry_space_group_name_H-M "P M M N"
_symmetry_group_IT_number 59
_space_group.IT_coordinate_system_code '2'
_symmetry_cell_setting 'orthorhombic'
loop_
_space_group_symop_operation_xyz
x,y,z
1/2-x,1/2-y,z
1/2+x,-y,-z
-x,1/2+y,-z
-x,-y,-z
1/2+x,1/2+y,-z
1/2-x,y,z
x,1/2-y,z
loop_
_atom_site_type_symbol
_atom_site_label
_atom_site_fract_x
_atom_site_fract_y
_atom_site_fract_z
Si Si1 0.460181 0.574654 0.444782
Si Si2 0.616799 0.920333 0.067340
Si Si3 0.612855 0.077716 0.415183
Si Si4 0.933270 0.580533 0.256790
Si Si5 0.022399 0.074701 0.259134
Si Si6 0.701620 0.571247 0.154927
Si Si7 0.959444 0.570614 0.946404
Si Si8 0.702462 0.077459 0.348644
O O1 0.500000 0.500000 0.500000
O O2 0.470610 0.750000 0.441350
O O3 0.413863 0.539900 0.492691
O O4 0.454212 0.512871 0.341801
O O5 0.624687 0.750000 0.036974
O O6 0.590440 0.932312 0.160910
O O7 0.664739 0.994541 0.084146
O O8 0.586094 0.994056 0.988703
O O9 0.603275 0.250000 0.385321
O O10 0.665104 0.051931 0.426435
O O11 0.599773 0.961882 0.336546
O O12 0.950920 0.750000 0.272590
O O13 0.971654 0.460768 0.260947
O O14 0.029511 0.250000 0.275773
O O15 0.041300 0.023049 0.160504
O O16 0.750000 0.521277 0.122064
O O17 0.697277 0.750000 0.158163
O O18 0.691787 0.516026 0.257404
O O19 0.963155 0.750000 0.958795
O O20 0.000000 0.500000 0.000000
O O21 0.750000 0.031278 0.389174
O O22 0.702915 0.250000 0.317141
#
# Coordination Sequence:
#
# PCOD8242371 Si02
#       8
#     8   8   8   8   8   8   8   8
#     4  11  22  34  49  68  93 124 159 197 232 275
#     4   9  17  29  44  67  93 121 154 187 226 269
#     4  10  20  32  46  67  94 123 157 192 227 273
#     4  11  19  28  47  68  93 127 157 190 229 271
#     4  11  22  34  47  66  93 125 160 198 234 274
#     4   9  16  27  44  66  92 120 150 183 221 271
#     4  10  20  33  48  66  91 121 156 193 229 272
#     4   9  17  29  45  66  93 121 148 183 229 277
#
# _framework density 16.121542000000002
#
# number of rings (size 3 to 8) (size 9 to 14) (size 15 to 20)
#    0.000    2.000    3.750    1.125    0.000    1.000 
#    0.000    0.625    0.000    0.000    0.000    0.875 
#    0.000    1.000    0.000    0.000    0.000    0.000 
#
# Total GULP energy -793031.885321 kJ/mol
# GULP energy per Si atom -12391.123208 kJ/mol
# Density = 1.608485 g / cm^3
# Si number density = 16.121542 Si / 1000 Ang^3
#
#
#
# Elastic Constant Matrix: (Units=GPa)
#
#
# Indices 1 2 3 4 5 6 
#
# 1 145.3972 20.2420 63.9803 0.0000 0.0000 0.0000
# 2 20.2420 33.8196 35.0247 0.0000 0.0000 0.0000
# 3 63.9803 35.0247 101.6048 0.0000 0.0000 0.0000
# 4 0.0000 0.0000 0.0000 19.7435 0.0000 0.0000
# 5 0.0000 0.0000 0.0000 0.0000 260.8205 0.0000
# 6 0.0000 0.0000 0.0000 0.0000 0.0000 12.7607
#
#
#
# Elastic Compliance Matrix: (Units=1/GPa)
#
#
# Indices 1 2 3 4 5 6 
#
# 1 0.009528 0.000794 -0.006273 0.000000 0.000000 0.000000
# 2 0.000794 0.046052 -0.016375 0.000000 0.000000 0.000000
# 3 -0.006273 -0.016375 0.019437 0.000000 0.000000 0.000000
# 4 0.000000 0.000000 0.000000 0.050650 0.000000 0.000000
# 5 0.000000 0.000000 0.000000 0.000000 0.003834 0.000000
# 6 0.000000 0.000000 0.000000 0.000000 0.000000 0.078365
#
#
# Mechanical properties :
#
#
# Convention : Reuss Voigt Hill
#
# Bulk Modulus (GPa) = 31.94020 57.70173 44.82097
# Shear Modulus (GPa) = 19.08329 69.43658 44.25994
#
# Velocity S-wave (km/s) = 3.44425 6.56995 5.24533
# Velocity P-wave (km/s) = 5.97262 9.66549 8.03411
#
# Compressibility (1/GPa) = 0.03130850
#
# Stress axis : x y z
#
# Youngs Moduli (GPa) = 104.95773 21.71477 51.44815
#
# Poissons Ratio (x) = -0.01725 0.32275
# Poissons Ratio (y) = -0.08337 0.84246
# Poissons Ratio (z) = 0.65844 0.35558
#
# Static dielectric constant tensor:
#      x y z
#    x 3.384510 0.000000 0.000000 
#    y 0.000000 3.045850 0.000000 
#    z 0.000000 0.000000 3.040670 
# 
# 
# High freq. dielectric constant tensor:
#      x y z
#    x 1.621080 0.000000 0.000000 
#    y 0.000000 1.614810 0.000000 
#    z 0.000000 0.000000 1.590980 
# 
# From -- ./inp_files/25007.got.cif
#   From: 2010.03.12/outbox.cif.g09.slc.cpg/sg59_13_cif.got.tgz:25007.got - 2010.04.16 16:29:54.
