data_PCOD8242340
_publ_section_title
;
Structure prediction by ZEFSAII (Michael W. Deem and Ramdas Pophale) SiO2 
 PCOD8242340
Probable space group: P M M N
;
_chemical_formula_sum "Si O2"
_cell_formula_units_Z 48
_cell_length_a 8.934657
_cell_length_b 26.512111
_cell_length_c 11.772944
_cell_angle_alpha 90.000000
_cell_angle_beta 90.000000
_cell_angle_gamma 90.000000
_cell_volume 2788.735160
_symmetry_space_group_name_H-M "P M M N"
_symmetry_group_IT_number 59
_space_group.IT_coordinate_system_code '2'
_symmetry_cell_setting 'orthorhombic'
loop_
_space_group_symop_operation_xyz
x,y,z
1/2-x,1/2-y,z
1/2+x,-y,-z
-x,1/2+y,-z
-x,-y,-z
1/2+x,1/2+y,-z
1/2-x,y,z
x,1/2-y,z
loop_
_atom_site_type_symbol
_atom_site_label
_atom_site_fract_x
_atom_site_fract_y
_atom_site_fract_z
Si Si1 0.916418 0.115760 0.334230
Si Si2 0.422211 0.119997 0.991595
Si Si3 0.576668 0.565305 0.227276
Si Si4 0.071493 0.807172 0.844228
Si Si5 0.571275 0.052769 0.537000
Si Si6 0.417052 0.540329 0.865321
O O1 0.750000 0.134673 0.361873
O O2 0.995155 0.162040 0.265157
O O3 0.990074 0.097388 0.452751
O O4 0.915581 0.066403 0.256879
O O5 0.250000 0.130263 0.019047
O O6 0.515799 0.167345 0.038943
O O7 0.468484 0.067801 0.051354
O O8 0.448099 0.113475 0.855830
O O9 0.750000 0.560299 0.264189
O O10 0.474703 0.570451 0.337829
O O11 0.527543 0.516431 0.154823
O O12 0.250000 0.810676 0.845650
O O13 0.013653 0.750000 0.837612
O O14 0.750000 0.047570 0.528167
O O15 0.500000 0.000000 0.500000
O O16 0.250000 0.542114 0.918440
#
# Coordination Sequence:
#
# PCOD8242340 Si02
#       6
#     8   8   8   8   8   8
#     4   8  15  29  48  71  97 125 159 204 247 281
#     4  10  20  31  47  73 102 128 161 206 253 298
#     4  10  20  33  46  66 101 140 171 200 239 290
#     4   9  18  35  58  76  93 123 161 203 257 312
#     4  11  20  31  48  70 101 138 174 207 240 291
#     4   9  16  30  48  65  97 135 167 202 236 286
#
# _framework density 17.212104
#
# number of rings (size 3 to 8) (size 9 to 14) (size 15 to 20)
#    0.000    2.500    1.667    2.500    0.000    2.333 
#    0.000    0.833    0.000    1.000    0.000    2.333 
#    0.000    0.000    0.000    0.000    0.000    0.000 
#
# Total GULP energy -594809.618037 kJ/mol
# GULP energy per Si atom -12391.867042 kJ/mol
# Density = 1.717293 g / cm^3
# Si number density = 17.212104 Si / 1000 Ang^3
#
#
#
# Elastic Constant Matrix: (Units=GPa)
#
#
# Indices 1 2 3 4 5 6 
#
# 1 43.8424 26.0228 35.0219 0.0000 0.0000 0.0000
# 2 26.0228 110.8326 56.5118 0.0000 0.0000 0.0000
# 3 35.0219 56.5118 105.0306 0.0000 0.0000 0.0000
# 4 0.0000 0.0000 0.0000 12.9931 0.0000 0.0000
# 5 0.0000 0.0000 0.0000 0.0000 27.9872 0.0000
# 6 0.0000 0.0000 0.0000 0.0000 0.0000 19.9153
#
#
#
# Elastic Compliance Matrix: (Units=1/GPa)
#
#
# Indices 1 2 3 4 5 6 
#
# 1 0.031722 -0.002832 -0.009054 0.000000 0.000000 0.000000
# 2 -0.002832 0.012686 -0.005882 0.000000 0.000000 0.000000
# 3 -0.009054 -0.005882 0.015705 0.000000 0.000000 0.000000
# 4 0.000000 0.000000 0.000000 0.076964 0.000000 0.000000
# 5 0.000000 0.000000 0.000000 0.000000 0.035731 0.000000
# 6 0.000000 0.000000 0.000000 0.000000 0.000000 0.050213
#
#
# Mechanical properties :
#
#
# Convention : Reuss Voigt Hill
#
# Bulk Modulus (GPa) = 40.68595 54.97984 47.83289
# Shear Modulus (GPa) = 18.74424 21.65572 20.19998
#
# Velocity S-wave (km/s) = 3.30360 3.55091 3.42949
# Velocity P-wave (km/s) = 6.18393 6.98741 6.59791
#
# Compressibility (1/GPa) = 0.02457851
#
# Stress axis : x y z
#
# Youngs Moduli (GPa) = 31.52370 78.82396 63.67497
#
# Poissons Ratio (x) = 0.22320 0.57651
# Poissons Ratio (y) = 0.08926 0.37452
# Poissons Ratio (z) = 0.28542 0.46363
#
# Static dielectric constant tensor:
#      x y z
#    x 3.056420 0.000000 0.000000 
#    y 0.000000 3.138270 0.000000 
#    z 0.000000 0.000000 3.304230 
# 
# 
# High freq. dielectric constant tensor:
#      x y z
#    x 1.648620 0.000000 0.000000 
#    y 0.000000 1.637210 0.000000 
#    z 0.000000 0.000000 1.663900 
# 
# From -- ./inp_files/14490.got.cif
#   From: 2010.03.12/outbox.cif.g09.slc.cpg/sg59_8_cif.got.tgz:14490.got - 2010.04.16 16:29:54.
