data_PCOD8242372
_publ_section_title
;
Structure prediction by ZEFSAII (Michael W. Deem and Ramdas Pophale) SiO2 
 PCOD8242372
Probable space group: P M M N
;
_chemical_formula_sum "Si O2"
_cell_formula_units_Z 56
_cell_length_a 9.321661
_cell_length_b 18.558314
_cell_length_c 18.299962
_cell_angle_alpha 90.000000
_cell_angle_beta 90.000000
_cell_angle_gamma 90.000000
_cell_volume 3165.789333
_symmetry_space_group_name_H-M "P M M N"
_symmetry_group_IT_number 59
_space_group.IT_coordinate_system_code '2'
_symmetry_cell_setting 'orthorhombic'
loop_
_space_group_symop_operation_xyz
x,y,z
1/2-x,1/2-y,z
1/2+x,-y,-z
-x,1/2+y,-z
-x,-y,-z
1/2+x,1/2+y,-z
1/2-x,y,z
x,1/2-y,z
loop_
_atom_site_type_symbol
_atom_site_label
_atom_site_fract_x
_atom_site_fract_y
_atom_site_fract_z
Si Si1 0.917721 0.832727 0.784569
Si Si2 0.588981 0.163828 0.353864
Si Si3 0.411293 0.663790 0.333170
Si Si4 0.583500 0.411647 0.930668
Si Si5 0.579582 0.329007 0.509992
Si Si6 0.912671 0.664390 0.195629
Si Si7 0.084251 0.421113 0.075189
O O1 0.750000 0.840952 0.772722
O O2 0.962766 0.750000 0.797953
O O3 0.969950 0.878547 0.853765
O O4 0.990472 0.864925 0.711735
O O5 0.750000 0.137289 0.337611
O O6 0.583241 0.250000 0.358465
O O7 0.533777 0.132494 0.433187
O O8 0.250000 0.637271 0.314241
O O9 0.412668 0.750000 0.337580
O O10 0.462077 0.632116 0.412966
O O11 0.518648 0.635074 0.271077
O O12 0.750000 0.390206 0.934001
O O13 0.505322 0.363458 0.871318
O O14 0.561920 0.494729 0.909553
O O15 0.512752 0.394325 0.008545
O O16 0.750000 0.320706 0.508226
O O17 0.507839 0.250000 0.510985
O O18 0.750000 0.635550 0.190157
O O19 0.916908 0.750000 0.193838
O O20 0.250000 0.403550 0.057012
#
# Coordination Sequence:
#
# PCOD8242372 Si02
#       7
#     8   8   8   8   8   8   8
#     4   9  17  29  45  66  93 122 148 176 217 268
#     4   8  13  22  37  59  88 119 150 183 217 254
#     4   8  13  23  40  61  86 117 152 185 217 260
#     4  10  20  34  52  70  88 115 153 192 225 265
#     4   7  10  18  34  56  83 116 149 180 216 256
#     4  10  20  32  46  67  96 124 148 182 231 278
#     4   9  19  35  51  68  92 120 150 185 226 271
#
# _framework density 17.689111
#
# number of rings (size 3 to 8) (size 9 to 14) (size 15 to 20)
#    0.000    3.286    0.000    2.571    0.000    2.571 
#    0.000    2.143    0.000    4.286    0.000    1.000 
#    0.000    0.000    0.000    0.000    0.000    0.000 
#
# Total GULP energy -693864.195113 kJ/mol
# GULP energy per Si atom -12390.432056 kJ/mol
# Density = 1.764885 g / cm^3
# Si number density = 17.689111 Si / 1000 Ang^3
#
#
#
# Elastic Constant Matrix: (Units=GPa)
#
#
# Indices 1 2 3 4 5 6 
#
# 1 85.1475 17.1771 74.8521 0.0000 0.0000 0.0000
# 2 17.1771 14.1840 26.4015 0.0000 0.0000 0.0000
# 3 74.8521 26.4015 170.8397 0.0000 0.0000 0.0000
# 4 0.0000 0.0000 0.0000 -0.8542 0.0000 0.0000
# 5 0.0000 0.0000 0.0000 0.0000 28.1509 0.0000
# 6 0.0000 0.0000 0.0000 0.0000 0.0000 15.1959
#
#
#
# Elastic Compliance Matrix: (Units=1/GPa)
#
#
# Indices 1 2 3 4 5 6 
#
# 1 0.020310 -0.011275 -0.007156 0.000000 0.000000 0.000000
# 2 -0.011275 0.105231 -0.011322 0.000000 0.000000 0.000000
# 3 -0.007156 -0.011322 0.010739 0.000000 0.000000 0.000000
# 4 0.000000 0.000000 0.000000 -1.170622 0.000000 0.000000
# 5 0.000000 0.000000 0.000000 0.000000 0.035523 0.000000
# 6 0.000000 0.000000 0.000000 0.000000 0.000000 0.065807
#
#
# Mechanical properties :
#
#
# Convention : Reuss Voigt Hill
#
# Bulk Modulus (GPa) = 13.02555 56.33693 34.68124
# Shear Modulus (GPa) = -5.89682 18.61456 6.35887
#
# Velocity S-wave (km/s) = -1.82779 3.24746 1.89805
# Velocity P-wave (km/s) = 1.71031 6.78077 4.94490
#
# Compressibility (1/GPa) = 0.07677222
#
# Stress axis : x y z
#
# Youngs Moduli (GPa) = 49.23741 9.50288 93.12258
#
# Poissons Ratio (x) = 0.10715 0.66639
# Poissons Ratio (y) = 0.55517 1.05435
# Poissons Ratio (z) = 0.35235 0.10759
#
# Static dielectric constant tensor:
#      x y z
#    x 3.256260 0.000000 0.000000 
#    y 0.000000 2.777030 0.000000 
#    z 0.000000 0.000000 3.778190 
# 
# 
# High freq. dielectric constant tensor:
#      x y z
#    x 1.670890 0.000000 0.000000 
#    y 0.000000 1.621700 0.000000 
#    z 0.000000 0.000000 1.709250 
# 
# From -- ./inp_files/26030.got.cif
#   From: 2010.03.12/outbox.cif.g09.slc.cpg/sg59_14_cif.got.tgz:26030.got - 2010.04.16 16:29:54.
