data_PCOD8242623
_publ_section_title
;
Structure prediction by ZEFSAII (Michael W. Deem and Ramdas Pophale) SiO2 
 PCOD8242623
Probable space group: P M M N
;
_chemical_formula_sum "Si O2"
_cell_formula_units_Z 64
_cell_length_a 9.213605
_cell_length_b 17.244684
_cell_length_c 23.170752
_cell_angle_alpha 90.000000
_cell_angle_beta 90.000000
_cell_angle_gamma 90.000000
_cell_volume 3681.501307
_symmetry_space_group_name_H-M "P M M N"
_symmetry_group_IT_number 59
_space_group.IT_coordinate_system_code '2'
_symmetry_cell_setting 'orthorhombic'
loop_
_space_group_symop_operation_xyz
x,y,z
1/2-x,1/2-y,z
1/2+x,-y,-z
-x,1/2+y,-z
-x,-y,-z
1/2+x,1/2+y,-z
1/2-x,y,z
x,1/2-y,z
loop_
_atom_site_type_symbol
_atom_site_label
_atom_site_fract_x
_atom_site_fract_y
_atom_site_fract_z
Si Si1 0.919089 0.940626 0.367228
Si Si2 0.077464 0.008579 0.261863
Si Si3 0.918160 0.474872 0.864328
Si Si4 0.919270 0.570088 0.969925
Si Si5 0.919561 0.162140 0.945159
Si Si6 0.917519 0.664492 0.679680
Si Si7 0.917910 0.102371 0.424612
Si Si8 0.416350 0.840820 0.452649
O O1 0.750000 0.927659 0.354929
O O2 0.984995 0.866088 0.398906
O O3 0.948863 0.013556 0.408624
O O4 0.000451 0.951127 0.306532
O O5 0.250000 0.996964 0.265614
O O6 0.033048 0.097905 0.275386
O O7 0.012717 0.987751 0.198717
O O8 0.750000 0.458925 0.855141
O O9 0.941335 0.554174 0.901495
O O10 0.980657 0.397850 0.896622
O O11 0.750000 0.571162 0.986092
O O12 0.000000 0.500000 0.000000
O O13 0.995235 0.648128 0.994082
O O14 0.750000 0.146965 0.956861
O O15 0.948388 0.250000 0.924402
O O16 0.750000 0.653067 0.664695
O O17 0.947483 0.750000 0.706594
O O18 0.000630 0.658550 0.619399
O O19 0.750000 0.124227 0.420023
O O20 0.973827 0.117319 0.489356
O O21 0.250000 0.864219 0.439842
O O22 0.433535 0.750000 0.461464
#
# Coordination Sequence:
#
# PCOD8242623 Si02
#       8
#     8   8   8   8   8   8   8   8
#     4  10  20  33  49  70  95 122 153 191 237 284
#     4   9  17  32  51  67  90 126 165 199 230 273
#     4   8  15  29  49  70  91 123 165 200 231 272
#     4   9  16  28  47  71  97 123 153 188 231 282
#     4   9  17  30  48  71  99 128 160 201 244 281
#     4   9  17  28  44  68  94 119 150 191 239 285
#     4   9  18  32  50  70  91 118 151 187 232 287
#     4  10  20  33  49  69  92 120 155 192 232 281
#
# _framework density 17.384212000000002
#
# number of rings (size 3 to 8) (size 9 to 14) (size 15 to 20)
#    0.000    2.875    0.000    2.250    0.000    2.250 
#    0.000    4.375    0.000    4.500    0.000    0.000 
#    0.000    0.000    0.000    0.000    0.000    0.000 
#
# Total GULP energy -793259.679529 kJ/mol
# GULP energy per Si atom -12394.682493 kJ/mol
# Density = 1.734464 g / cm^3
# Si number density = 17.384212 Si / 1000 Ang^3
#
#
#
# Elastic Constant Matrix: (Units=GPa)
#
#
# Indices 1 2 3 4 5 6 
#
# 1 51.7257 25.6586 40.8656 0.0000 0.0000 0.0000
# 2 25.6586 65.6695 48.9552 0.0000 0.0000 0.0000
# 3 40.8656 48.9552 134.0913 0.0000 0.0000 0.0000
# 4 0.0000 0.0000 0.0000 19.4184 0.0000 0.0000
# 5 0.0000 0.0000 0.0000 0.0000 22.8412 0.0000
# 6 0.0000 0.0000 0.0000 0.0000 0.0000 23.6709
#
#
#
# Elastic Compliance Matrix: (Units=1/GPa)
#
#
# Indices 1 2 3 4 5 6 
#
# 1 0.027131 -0.006096 -0.006043 0.000000 0.000000 0.000000
# 2 -0.006096 0.022292 -0.006281 0.000000 0.000000 0.000000
# 3 -0.006043 -0.006281 0.011592 0.000000 0.000000 0.000000
# 4 0.000000 0.000000 0.000000 0.051497 0.000000 0.000000
# 5 0.000000 0.000000 0.000000 0.000000 0.043780 0.000000
# 6 0.000000 0.000000 0.000000 0.000000 0.000000 0.042246
#
#
# Mechanical properties :
#
#
# Convention : Reuss Voigt Hill
#
# Bulk Modulus (GPa) = 41.36340 53.60504 47.48422
# Shear Modulus (GPa) = 20.53930 22.25325 21.39628
#
# Velocity S-wave (km/s) = 3.44101 3.58171 3.51206
# Velocity P-wave (km/s) = 6.29545 6.92873 6.61967
#
# Compressibility (1/GPa) = 0.02417596
#
# Stress axis : x y z
#
# Youngs Moduli (GPa) = 36.85859 44.85987 86.26476
#
# Poissons Ratio (x) = 0.27346 0.52128
# Poissons Ratio (y) = 0.22468 0.54180
# Poissons Ratio (z) = 0.22273 0.28175
#
# Static dielectric constant tensor:
#      x y z
#    x 3.209540 0.000000 0.000000 
#    y 0.000000 3.528060 0.000000 
#    z 0.000000 0.000000 3.423570 
# 
# 
# High freq. dielectric constant tensor:
#      x y z
#    x 1.659850 0.000000 0.000000 
#    y 0.000000 1.662480 0.000000 
#    z 0.000000 0.000000 1.660220 
# 
# From -- ./inp_files/31713.got.cif
#   From: 2010.03.12/outbox.cif.g09.slc.cpg/sg59_16_cif.got.tgz:31713.got - 2010.04.16 16:29:54.
