data_PCOD8242528
_publ_section_title
;
Structure prediction by ZEFSAII (Michael W. Deem and Ramdas Pophale) SiO2 
 PCOD8242528
Probable space group: P M M N
;
_chemical_formula_sum "Si O2"
_cell_formula_units_Z 64
_cell_length_a 22.540705
_cell_length_b 9.120659
_cell_length_c 16.153053
_cell_angle_alpha 90.000000
_cell_angle_beta 90.000000
_cell_angle_gamma 90.000000
_cell_volume 3320.842910
_symmetry_space_group_name_H-M "P M M N"
_symmetry_group_IT_number 59
_space_group.IT_coordinate_system_code '2'
_symmetry_cell_setting 'orthorhombic'
loop_
_space_group_symop_operation_xyz
x,y,z
1/2-x,1/2-y,z
1/2+x,-y,-z
-x,1/2+y,-z
-x,-y,-z
1/2+x,1/2+y,-z
1/2-x,y,z
x,1/2-y,z
loop_
_atom_site_type_symbol
_atom_site_label
_atom_site_fract_x
_atom_site_fract_y
_atom_site_fract_z
Si Si1 0.927077 0.581602 0.776131
Si Si2 0.131279 0.081254 0.832758
Si Si3 0.818477 0.091031 0.024312
Si Si4 0.503528 0.923370 0.089331
Si Si5 0.084723 0.920346 0.558682
Si Si6 0.184133 0.084766 0.128365
Si Si7 0.529931 0.419980 0.617273
Si Si8 0.319309 0.422070 0.655483
O O1 0.949594 0.750000 0.771417
O O2 0.856311 0.574273 0.790287
O O3 0.937251 0.497902 0.691682
O O4 0.955250 0.498195 0.853184
O O5 0.147479 0.250000 0.843606
O O6 0.065011 0.046213 0.862693
O O7 0.144590 0.033887 0.738478
O O8 0.175815 0.991611 0.889542
O O9 0.750000 0.108504 0.004612
O O10 0.849665 0.250000 0.030174
O O11 0.846508 0.004993 0.946770
O O12 0.492209 0.750000 0.079222
O O13 0.500000 0.000000 0.000000
O O14 0.083062 0.750000 0.583745
O O15 0.072472 0.941093 0.461464
O O16 0.148777 0.989236 0.581142
O O17 0.034000 0.006209 0.608106
O O18 0.250000 0.028544 0.152286
O O19 0.186882 0.250000 0.094889
O O20 0.518970 0.250000 0.637767
O O21 0.250000 0.468360 0.661569
O O22 0.324648 0.250000 0.637029
#
# Coordination Sequence:
#
# PCOD8242528 Si02
#       8
#     8   8   8   8   8   8   8   8
#     4  11  22  36  57  84 110 139 181 227 272 327
#     4  10  21  36  53  74 103 144 189 227 270 328
#     4  10  20  32  49  75 103 134 177 226 270 312
#     4  11  23  37  54  79 114 153 191 236 288 338
#     4  10  21  38  61  87 114 145 183 228 278 335
#     4   9  19  36  55  74 101 138 176 216 263 315
#     4  10  21  38  61  87 114 145 181 225 280 338
#     4  10  21  37  58  84 115 153 195 238 287 345
#
# _framework density 19.272216
#
# number of rings (size 3 to 8) (size 9 to 14) (size 15 to 20)
#    0.000    1.875    0.000    3.750    0.000    9.500 
#    0.000    0.625    0.000    2.250    0.000    0.000 
#    0.000    0.000    0.000    0.000    0.000    0.000 
#
# Total GULP energy -793526.324532 kJ/mol
# GULP energy per Si atom -12398.848821 kJ/mol
# Density = 1.922835 g / cm^3
# Si number density = 19.272216 Si / 1000 Ang^3
#
#
#
# Elastic Constant Matrix: (Units=GPa)
#
#
# Indices 1 2 3 4 5 6 
#
# 1 96.2554 58.7257 56.5909 0.0000 0.0000 0.0000
# 2 58.7257 116.1093 64.1759 0.0000 0.0000 0.0000
# 3 56.5909 64.1759 105.3493 0.0000 0.0000 0.0000
# 4 0.0000 0.0000 0.0000 37.1007 0.0000 0.0000
# 5 0.0000 0.0000 0.0000 0.0000 31.4495 0.0000
# 6 0.0000 0.0000 0.0000 0.0000 0.0000 28.2416
#
#
#
# Elastic Compliance Matrix: (Units=1/GPa)
#
#
# Indices 1 2 3 4 5 6 
#
# 1 0.017176 -0.005409 -0.005932 0.000000 0.000000 0.000000
# 2 -0.005409 0.014688 -0.006042 0.000000 0.000000 0.000000
# 3 -0.005932 -0.006042 0.016359 0.000000 0.000000 0.000000
# 4 0.000000 0.000000 0.000000 0.026954 0.000000 0.000000
# 5 0.000000 0.000000 0.000000 0.000000 0.031797 0.000000
# 6 0.000000 0.000000 0.000000 0.000000 0.000000 0.035409
#
#
# Mechanical properties :
#
#
# Convention : Reuss Voigt Hill
#
# Bulk Modulus (GPa) = 74.30365 75.18877 74.74621
# Shear Modulus (GPa) = 27.52789 28.57312 28.05050
#
# Velocity S-wave (km/s) = 3.78348 3.85464 3.81923
# Velocity P-wave (km/s) = 7.59768 7.67527 7.63658
#
# Compressibility (1/GPa) = 0.01345829
#
# Stress axis : x y z
#
# Youngs Moduli (GPa) = 58.21924 68.08405 61.12780
#
# Poissons Ratio (x) = 0.36826 0.36260
# Poissons Ratio (y) = 0.31490 0.36932
# Poissons Ratio (z) = 0.34534 0.41135
#
# Static dielectric constant tensor:
#      x y z
#    x 3.558900 0.000000 0.000000 
#    y 0.000000 3.773400 0.000000 
#    z 0.000000 0.000000 3.533740 
# 
# 
# High freq. dielectric constant tensor:
#      x y z
#    x 1.749730 0.000000 0.000000 
#    y 0.000000 1.760740 0.000000 
#    z 0.000000 0.000000 1.743210 
# 
# From -- ./inp_files/21571.got.cif
#   From: 2010.03.12/outbox.cif.g09.slc.cpg/sg59_11_cif.got.tgz:21571.got - 2010.04.16 16:29:54.
