data_PCOD8242697
_publ_section_title
;
Structure prediction by ZEFSAII (Michael W. Deem and Ramdas Pophale) SiO2 
 PCOD8242697
Probable space group: P M M N
;
_chemical_formula_sum "Si O2"
_cell_formula_units_Z 64
_cell_length_a 20.183751
_cell_length_b 9.070708
_cell_length_c 19.859513
_cell_angle_alpha 90.000000
_cell_angle_beta 90.000000
_cell_angle_gamma 90.000000
_cell_volume 3635.897745
_symmetry_space_group_name_H-M "P M M N"
_symmetry_group_IT_number 59
_space_group.IT_coordinate_system_code '2'
_symmetry_cell_setting 'orthorhombic'
loop_
_space_group_symop_operation_xyz
x,y,z
1/2-x,1/2-y,z
1/2+x,-y,-z
-x,1/2+y,-z
-x,-y,-z
1/2+x,1/2+y,-z
1/2-x,y,z
x,1/2-y,z
loop_
_atom_site_type_symbol
_atom_site_label
_atom_site_fract_x
_atom_site_fract_y
_atom_site_fract_z
Si Si1 0.674450 0.079085 0.436559
Si Si2 0.570647 0.422742 0.668835
Si Si3 0.063960 0.922053 0.669404
Si Si4 0.676432 0.074860 0.925378
Si Si5 0.432834 0.923473 0.822957
Si Si6 0.826815 0.921933 0.573789
Si Si7 0.433334 0.922654 0.175794
Si Si8 0.823599 0.074813 0.075569
O O1 0.750000 0.046056 0.414292
O O2 0.665457 0.250000 0.455559
O O3 0.626710 0.032504 0.375608
O O4 0.653828 0.983293 0.500715
O O5 0.569736 0.250000 0.653849
O O6 0.500559 0.489302 0.644726
O O7 0.630904 0.495979 0.629794
O O8 0.583157 0.458921 0.746973
O O9 0.047297 0.750000 0.662924
O O10 0.082748 0.964963 0.745718
O O11 0.750000 0.013992 0.908906
O O12 0.677540 0.250000 0.921614
O O13 0.625563 0.011931 0.870230
O O14 0.654928 0.024200 0.000465
O O15 0.440370 0.750000 0.832585
O O16 0.374208 0.989161 0.869226
O O17 0.500181 0.997646 0.847742
O O18 0.750000 0.953796 0.589402
O O19 0.843407 0.750000 0.575374
O O20 0.443255 0.750000 0.164380
O O21 0.750000 0.014436 0.091965
O O22 0.822857 0.250000 0.079393
#
# Coordination Sequence:
#
# PCOD8242697 Si02
#       8
#     8   8   8   8   8   8   8   8
#     4   9  18  33  52  73  96 123 157 195 233 276
#     4  10  20  33  50  71  95 125 161 199 235 276
#     4   9  18  32  49  70  98 128 156 192 237 281
#     4   8  14  26  44  66  92 121 155 195 234 272
#     4   9  17  29  46  69  96 124 154 190 232 276
#     4  10  21  36  53  73  97 124 153 189 236 286
#     4   9  18  31  47  68  93 122 157 195 233 274
#     4   8  14  25  43  68  95 122 155 194 232 272
#
# _framework density 17.602256000000001
#
# number of rings (size 3 to 8) (size 9 to 14) (size 15 to 20)
#    0.000    3.000    0.000    1.500    0.000    3.750 
#    0.000    3.750    0.000    0.750    0.000    5.250 
#    0.000    0.000    0.000    0.000    0.000    0.000 
#
# Total GULP energy -793524.954279 kJ/mol
# GULP energy per Si atom -12398.827411 kJ/mol
# Density = 1.756219 g / cm^3
# Si number density = 17.602256 Si / 1000 Ang^3
#
#
#
# Elastic Constant Matrix: (Units=GPa)
#
#
# Indices 1 2 3 4 5 6 
#
# 1 142.0792 44.9353 96.9651 0.0000 0.0000 0.0000
# 2 44.9353 44.1307 38.5642 0.0000 0.0000 0.0000
# 3 96.9651 38.5642 110.8131 0.0000 0.0000 0.0000
# 4 0.0000 0.0000 0.0000 15.6956 0.0000 0.0000
# 5 0.0000 0.0000 0.0000 0.0000 41.0495 0.0000
# 6 0.0000 0.0000 0.0000 0.0000 0.0000 25.4279
#
#
#
# Elastic Compliance Matrix: (Units=1/GPa)
#
#
# Indices 1 2 3 4 5 6 
#
# 1 0.018813 -0.006855 -0.014076 0.000000 0.000000 0.000000
# 2 -0.006855 0.035061 -0.006203 0.000000 0.000000 0.000000
# 3 -0.014076 -0.006203 0.023500 0.000000 0.000000 0.000000
# 4 0.000000 0.000000 0.000000 0.063712 0.000000 0.000000
# 5 0.000000 0.000000 0.000000 0.000000 0.024361 0.000000
# 6 0.000000 0.000000 0.000000 0.000000 0.000000 0.039327
#
#
# Mechanical properties :
#
#
# Convention : Reuss Voigt Hill
#
# Bulk Modulus (GPa) = 43.28094 73.10580 58.19337
# Shear Modulus (GPa) = 18.74447 24.20516 21.47481
#
# Velocity S-wave (km/s) = 3.26681 3.71228 3.49664
# Velocity P-wave (km/s) = 6.23466 7.74577 7.03093
#
# Compressibility (1/GPa) = 0.02310486
#
# Stress axis : x y z
#
# Youngs Moduli (GPa) = 53.15397 28.52189 42.55266
#
# Poissons Ratio (x) = 0.19553 0.59899
# Poissons Ratio (y) = 0.36439 0.26395
# Poissons Ratio (z) = 0.74822 0.17692
#
# Static dielectric constant tensor:
#      x y z
#    x 3.485720 0.000000 0.000000 
#    y 0.000000 3.024540 0.000000 
#    z 0.000000 0.000000 3.391140 
# 
# 
# High freq. dielectric constant tensor:
#      x y z
#    x 1.686340 0.000000 0.000000 
#    y 0.000000 1.653810 0.000000 
#    z 0.000000 0.000000 1.682210 
# 
# From -- ./inp_files/28271.got.cif
#   From: 2010.03.12/outbox.cif.g09.slc.cpg/sg59_15_cif.got.tgz:28271.got - 2010.04.16 16:29:54.
