data_PCOD8242365
_publ_section_title
;
Structure prediction by ZEFSAII (Michael W. Deem and Ramdas Pophale) SiO2 
 PCOD8242365
Probable space group: P M M N
;
_chemical_formula_sum "Si O2"
_cell_formula_units_Z 56
_cell_length_a 9.429754
_cell_length_b 19.169580
_cell_length_c 17.795190
_cell_angle_alpha 90.000000
_cell_angle_beta 90.000000
_cell_angle_gamma 90.000000
_cell_volume 3216.737265
_symmetry_space_group_name_H-M "P M M N"
_symmetry_group_IT_number 59
_space_group.IT_coordinate_system_code '2'
_symmetry_cell_setting 'orthorhombic'
loop_
_space_group_symop_operation_xyz
x,y,z
1/2-x,1/2-y,z
1/2+x,-y,-z
-x,1/2+y,-z
-x,-y,-z
1/2+x,1/2+y,-z
1/2-x,y,z
x,1/2-y,z
loop_
_atom_site_type_symbol
_atom_site_label
_atom_site_fract_x
_atom_site_fract_y
_atom_site_fract_z
Si Si1 0.417995 0.416898 0.289170
Si Si2 0.917561 0.086870 0.869041
Si Si3 0.082318 0.927358 0.300437
Si Si4 0.083329 0.330811 0.989369
Si Si5 0.917866 0.570470 0.878083
Si Si6 0.591498 0.167386 0.405771
Si Si7 0.080981 0.827635 0.428132
O O1 0.250000 0.409006 0.294713
O O2 0.469141 0.493735 0.314374
O O3 0.471244 0.404105 0.203692
O O4 0.486900 0.360580 0.342946
O O5 0.750000 0.096975 0.881102
O O6 0.961514 0.098774 0.782334
O O7 0.001423 0.144953 0.915326
O O8 0.966651 0.009101 0.894520
O O9 0.250000 0.925560 0.306281
O O10 0.014529 0.878095 0.364544
O O11 0.250000 0.343103 0.977285
O O12 0.049681 0.250000 0.005530
O O13 0.023858 0.376531 0.059090
O O14 0.750000 0.571270 0.876662
O O15 0.750000 0.138344 0.391475
O O16 0.592339 0.250000 0.401127
O O17 0.537243 0.144947 0.488944
O O18 0.250000 0.825565 0.423386
O O19 0.020388 0.750000 0.413870
#
# Coordination Sequence:
#
# PCOD8242365 Si02
#       7
#     8   8   8   8   8   8   8
#     4   9  17  30  49  71  92 115 149 192 230 265
#     4   9  17  31  51  71  91 116 150 193 231 263
#     4   8  15  28  46  70  95 116 146 189 229 266
#     4  10  20  32  46  66  93 123 153 184 222 273
#     4   8  16  32  50  67  90 122 155 183 220 274
#     4   9  18  31  45  64  92 123 154 187 222 265
#     4   8  14  26  44  64  89 124 157 180 215 273
#
# _framework density 17.408944000000002
#
# number of rings (size 3 to 8) (size 9 to 14) (size 15 to 20)
#    0.000    3.286    0.000    3.000    0.000    2.286 
#    0.000    6.429    0.000    0.857    0.000    0.000 
#    0.000    0.000    0.000    0.000    0.000    0.000 
#
# Total GULP energy -694091.075034 kJ/mol
# GULP energy per Si atom -12394.483483 kJ/mol
# Density = 1.736932 g / cm^3
# Si number density = 17.408944 Si / 1000 Ang^3
#
#
#
# Elastic Constant Matrix: (Units=GPa)
#
#
# Indices 1 2 3 4 5 6 
#
# 1 28.1505 23.5360 29.6931 0.0000 0.0000 0.0000
# 2 23.5360 65.0157 50.2991 0.0000 0.0000 0.0000
# 3 29.6931 50.2991 110.8616 0.0000 0.0000 0.0000
# 4 0.0000 0.0000 0.0000 35.6387 0.0000 0.0000
# 5 0.0000 0.0000 0.0000 0.0000 23.7562 0.0000
# 6 0.0000 0.0000 0.0000 0.0000 0.0000 22.2879
#
#
#
# Elastic Compliance Matrix: (Units=1/GPa)
#
#
# Indices 1 2 3 4 5 6 
#
# 1 0.056189 -0.013402 -0.008969 0.000000 0.000000 0.000000
# 2 -0.013402 0.026896 -0.008614 0.000000 0.000000 0.000000
# 3 -0.008969 -0.008614 0.015331 0.000000 0.000000 0.000000
# 4 0.000000 0.000000 0.000000 0.028059 0.000000 0.000000
# 5 0.000000 0.000000 0.000000 0.000000 0.042094 0.000000
# 6 0.000000 0.000000 0.000000 0.000000 0.000000 0.044867
#
#
# Mechanical properties :
#
#
# Convention : Reuss Voigt Hill
#
# Bulk Modulus (GPa) = 27.43723 45.67602 36.55663
# Shear Modulus (GPa) = 17.38802 23.03655 20.21228
#
# Velocity S-wave (km/s) = 3.16381 3.64161 3.41108
# Velocity P-wave (km/s) = 5.39823 6.63143 6.04635
#
# Compressibility (1/GPa) = 0.03644683
#
# Stress axis : x y z
#
# Youngs Moduli (GPa) = 17.79717 37.17982 65.22903
#
# Poissons Ratio (x) = 0.49827 0.58504
# Poissons Ratio (y) = 0.23851 0.56186
# Poissons Ratio (z) = 0.15962 0.32025
#
# Static dielectric constant tensor:
#      x y z
#    x 2.774660 0.000000 0.000000 
#    y 0.000000 3.392700 0.000000 
#    z 0.000000 0.000000 3.564020 
# 
# 
# High freq. dielectric constant tensor:
#      x y z
#    x 1.622630 0.000000 0.000000 
#    y 0.000000 1.671110 0.000000 
#    z 0.000000 0.000000 1.684510 
# 
# From -- ./inp_files/26113.got.cif
#   From: 2010.03.12/outbox.cif.g09.slc.cpg/sg59_14_cif.got.tgz:26113.got - 2010.04.16 16:29:54.
