data_PCOD8242584
_publ_section_title
;
Structure prediction by ZEFSAII (Michael W. Deem and Ramdas Pophale) SiO2 
 PCOD8242584
Probable space group: P M M N
;
_chemical_formula_sum "Si O2"
_cell_formula_units_Z 52
_cell_length_a 8.988259
_cell_length_b 14.269959
_cell_length_c 21.922955
_cell_angle_alpha 90.000000
_cell_angle_beta 90.000000
_cell_angle_gamma 90.000000
_cell_volume 2811.883971
_symmetry_space_group_name_H-M "P M M N"
_symmetry_group_IT_number 59
_space_group.IT_coordinate_system_code '2'
_symmetry_cell_setting 'orthorhombic'
loop_
_space_group_symop_operation_xyz
x,y,z
1/2-x,1/2-y,z
1/2+x,-y,-z
-x,1/2+y,-z
-x,-y,-z
1/2+x,1/2+y,-z
1/2-x,y,z
x,1/2-y,z
loop_
_atom_site_type_symbol
_atom_site_label
_atom_site_fract_x
_atom_site_fract_y
_atom_site_fract_z
Si Si1 0.921398 0.750000 0.990921
Si Si2 0.089313 0.250000 0.736302
Si Si3 0.574635 0.855293 0.499841
Si Si4 0.575791 0.483790 0.409604
Si Si5 0.417678 0.958998 0.155316
Si Si6 0.498452 0.250000 0.868350
Si Si7 0.073032 0.936558 0.949999
Si Si8 0.572530 0.950700 0.278412
O O1 0.750000 0.750000 0.970996
O O2 0.006033 0.834850 0.959505
O O3 0.924408 0.750000 0.064881
O O4 0.250000 0.250000 0.705271
O O5 0.010910 0.155888 0.712387
O O6 0.112107 0.250000 0.810406
O O7 0.750000 0.855867 0.507498
O O8 0.515946 0.750000 0.487827
O O9 0.506137 0.893809 0.562824
O O10 0.523442 0.921060 0.443728
O O11 0.750000 0.469568 0.418643
O O12 0.533809 0.489965 0.338356
O O13 0.250000 0.996876 0.148684
O O14 0.410848 0.847604 0.139060
O O15 0.478765 0.988033 0.221710
O O16 0.529636 0.017815 0.113839
O O17 0.250000 0.933695 0.957175
O O18 0.000000 0.000000 0.000000
O O19 0.750000 0.950888 0.264355
#
# Coordination Sequence:
#
# PCOD8242584 Si02
#       8
#     4   4   8   8   8   4   8   8
#     4  12  24  39  62  87 113 145 187 232 283 339
#     4   8  15  27  45  74 105 138 173 212 263 323
#     4   9  18  32  52  77 108 143 179 219 264 316
#     4   9  18  32  52  79 108 140 179 221 267 320
#     4  11  22  37  57  82 114 149 186 227 278 335
#     4  10  20  32  55  79 118 145 182 216 276 328
#     4  12  25  40  60  85 115 148 188 233 282 334
#     4   9  18  32  52  77 107 141 180 223 271 327
#
# _framework density 18.492940000000001
#
# number of rings (size 3 to 8) (size 9 to 14) (size 15 to 20)
#    0.000    2.000    1.538    2.538    1.077    2.769 
#    0.000    0.000    1.692    0.000    0.000    0.000 
#    0.000    0.000    0.000    0.000    0.000    0.000 
#
# Total GULP energy -644344.590241 kJ/mol
# GULP energy per Si atom -12391.242120 kJ/mol
# Density = 1.845085 g / cm^3
# Si number density = 18.492940 Si / 1000 Ang^3
#
#
#
# Elastic Constant Matrix: (Units=GPa)
#
#
# Indices 1 2 3 4 5 6 
#
# 1 98.9577 36.7213 34.4234 0.0000 0.0000 0.0000
# 2 36.7213 101.1958 38.0174 0.0000 0.0000 0.0000
# 3 34.4234 38.0174 97.3583 0.0000 0.0000 0.0000
# 4 0.0000 0.0000 0.0000 25.7433 0.0000 0.0000
# 5 0.0000 0.0000 0.0000 0.0000 28.3906 0.0000
# 6 0.0000 0.0000 0.0000 0.0000 0.0000 24.2159
#
#
#
# Elastic Compliance Matrix: (Units=1/GPa)
#
#
# Indices 1 2 3 4 5 6 
#
# 1 0.012421 -0.003349 -0.003084 0.000000 0.000000 0.000000
# 2 -0.003349 0.012483 -0.003691 0.000000 0.000000 0.000000
# 3 -0.003084 -0.003691 0.012803 0.000000 0.000000 0.000000
# 4 0.000000 0.000000 0.000000 0.038845 0.000000 0.000000
# 5 0.000000 0.000000 0.000000 0.000000 0.035223 0.000000
# 6 0.000000 0.000000 0.000000 0.000000 0.000000 0.041295
#
#
# Mechanical properties :
#
#
# Convention : Reuss Voigt Hill
#
# Bulk Modulus (GPa) = 57.27204 57.31510 57.29357
# Shear Modulus (GPa) = 27.91160 28.22663 28.06911
#
# Velocity S-wave (km/s) = 3.88920 3.91109 3.90016
# Velocity P-wave (km/s) = 7.15575 7.17326 7.16451
#
# Compressibility (1/GPa) = 0.01746053
#
# Stress axis : x y z
#
# Youngs Moduli (GPa) = 80.51065 80.10606 78.10691
#
# Poissons Ratio (x) = 0.26824 0.24089
# Poissons Ratio (y) = 0.26959 0.28827
# Poissons Ratio (z) = 0.24830 0.29565
#
# Static dielectric constant tensor:
#      x y z
#    x 3.230750 0.000000 0.000000 
#    y 0.000000 3.430580 0.000000 
#    z 0.000000 0.000000 2.468010 
# 
# 
# High freq. dielectric constant tensor:
#      x y z
#    x 1.708440 0.000000 0.000000 
#    y 0.000000 1.707250 0.000000 
#    z 0.000000 0.000000 1.715580 
# 
# From -- ./inp_files/28942.got.cif
#   From: 2010.03.12/outbox.cif.g09.slc.cpg/sg59_15_cif.got.tgz:28942.got - 2010.04.16 16:29:54.
