data_PCOD8242499
_publ_section_title
;
Structure prediction by ZEFSAII (Michael W. Deem and Ramdas Pophale) SiO2 
 PCOD8242499
Probable space group: P M M N
;
_chemical_formula_sum "Si O2"
_cell_formula_units_Z 48
_cell_length_a 8.800226
_cell_length_b 26.276888
_cell_length_c 11.639815
_cell_angle_alpha 90.000000
_cell_angle_beta 90.000000
_cell_angle_gamma 90.000000
_cell_volume 2691.620537
_symmetry_space_group_name_H-M "P M M N"
_symmetry_group_IT_number 59
_space_group.IT_coordinate_system_code '2'
_symmetry_cell_setting 'orthorhombic'
loop_
_space_group_symop_operation_xyz
x,y,z
1/2-x,1/2-y,z
1/2+x,-y,-z
-x,1/2+y,-z
-x,-y,-z
1/2+x,1/2+y,-z
1/2-x,y,z
x,1/2-y,z
loop_
_atom_site_type_symbol
_atom_site_label
_atom_site_fract_x
_atom_site_fract_y
_atom_site_fract_z
Si Si1 0.920512 0.863511 0.668846
Si Si2 0.075280 0.876259 0.299044
Si Si3 0.429086 0.445836 0.523127
Si Si4 0.574797 0.307935 0.132837
Si Si5 0.915129 0.807017 0.455626
Si Si6 0.071055 0.307787 0.890837
O O1 0.750000 0.874094 0.714851
O O2 0.974760 0.909415 0.584766
O O3 0.926705 0.812148 0.592564
O O4 0.030487 0.851589 0.775107
O O5 0.250000 0.889621 0.276231
O O6 0.991805 0.925600 0.353524
O O7 0.057808 0.833026 0.395519
O O8 0.003040 0.852987 0.183743
O O9 0.500000 0.500000 0.500000
O O10 0.250000 0.451001 0.532991
O O11 0.750000 0.315607 0.100563
O O12 0.545723 0.250000 0.177402
O O13 0.474316 0.318434 0.021350
O O14 0.750000 0.831584 0.417666
O O15 0.916329 0.750000 0.414970
O O16 0.250000 0.312309 0.877264
O O17 0.018315 0.250000 0.855547
#
# Coordination Sequence:
#
# PCOD8242499 Si02
#       6
#     8   8   8   8   8   8
#     4   9  18  32  50  72  99 132 168 205 248 302
#     4  11  21  32  49  74 103 133 167 209 256 305
#     4  10  21  38  58  79 102 130 168 213 262 313
#     4  10  20  32  48  74 107 140 175 213 249 291
#     4   9  17  29  45  67  98 134 169 205 247 298
#     4  10  20  34  52  73 102 142 181 213 249 297
#
# _framework density 17.833123000000001
#
# number of rings (size 3 to 8) (size 9 to 14) (size 15 to 20)
#    0.000    2.167    0.000    5.000    0.000    8.333 
#    0.000    0.000    0.000    1.000    0.000    0.000 
#    0.000    0.000    0.000    0.000    0.000    0.000 
#
# Total GULP energy -594636.533427 kJ/mol
# GULP energy per Si atom -12388.261113 kJ/mol
# Density = 1.779253 g / cm^3
# Si number density = 17.833123 Si / 1000 Ang^3
#
#
#
# Elastic Constant Matrix: (Units=GPa)
#
#
# Indices 1 2 3 4 5 6 
#
# 1 84.4351 34.4479 35.0132 0.0000 0.0000 0.0000
# 2 34.4479 82.8886 40.8506 0.0000 0.0000 0.0000
# 3 35.0132 40.8506 85.3934 0.0000 0.0000 0.0000
# 4 0.0000 0.0000 0.0000 24.4447 0.0000 0.0000
# 5 0.0000 0.0000 0.0000 0.0000 27.6452 0.0000
# 6 0.0000 0.0000 0.0000 0.0000 0.0000 26.2504
#
#
#
# Elastic Compliance Matrix: (Units=1/GPa)
#
#
# Indices 1 2 3 4 5 6 
#
# 1 0.015353 -0.004289 -0.004243 0.000000 0.000000 0.000000
# 2 -0.004289 0.016985 -0.006366 0.000000 0.000000 0.000000
# 3 -0.004243 -0.006366 0.016496 0.000000 0.000000 0.000000
# 4 0.000000 0.000000 0.000000 0.040909 0.000000 0.000000
# 5 0.000000 0.000000 0.000000 0.000000 0.036173 0.000000
# 6 0.000000 0.000000 0.000000 0.000000 0.000000 0.038095
#
#
# Mechanical properties :
#
#
# Convention : Reuss Voigt Hill
#
# Bulk Modulus (GPa) = 52.53301 52.59338 52.56319
# Shear Modulus (GPa) = 24.98099 25.16176 25.07137
#
# Velocity S-wave (km/s) = 3.74681 3.76034 3.75358
# Velocity P-wave (km/s) = 6.94552 6.95770 6.95161
#
# Compressibility (1/GPa) = 0.01903565
#
# Stress axis : x y z
#
# Youngs Moduli (GPa) = 65.13419 58.87680 60.62144
#
# Poissons Ratio (x) = 0.25255 0.25722
# Poissons Ratio (y) = 0.27939 0.38594
# Poissons Ratio (z) = 0.27637 0.37483
#
# Static dielectric constant tensor:
#      x y z
#    x 3.348390 0.000000 0.000000 
#    y 0.000000 3.286160 0.000000 
#    z 0.000000 0.000000 3.223730 
# 
# 
# High freq. dielectric constant tensor:
#      x y z
#    x 1.695240 0.000000 0.000000 
#    y 0.000000 1.664330 0.000000 
#    z 0.000000 0.000000 1.682550 
# 
# From -- ./inp_files/14482.got.cif
#   From: 2010.03.12/outbox.cif.g09.slc.cpg/sg59_8_cif.got.tgz:14482.got - 2010.04.16 16:29:54.
