data_PCOD8242145
_publ_section_title
;
Structure prediction by ZEFSAII (Michael W. Deem and Ramdas Pophale) SiO2 
 PCOD8242145
Probable space group: P M M N
;
_chemical_formula_sum "Si O2"
_cell_formula_units_Z 48
_cell_length_a 17.931043
_cell_length_b 8.540210
_cell_length_c 16.431324
_cell_angle_alpha 90.000000
_cell_angle_beta 90.000000
_cell_angle_gamma 90.000000
_cell_volume 2516.208710
_symmetry_space_group_name_H-M "P M M N"
_symmetry_group_IT_number 59
_space_group.IT_coordinate_system_code '2'
_symmetry_cell_setting 'orthorhombic'
loop_
_space_group_symop_operation_xyz
x,y,z
1/2-x,1/2-y,z
1/2+x,-y,-z
-x,1/2+y,-z
-x,-y,-z
1/2+x,1/2+y,-z
1/2-x,y,z
x,1/2-y,z
loop_
_atom_site_type_symbol
_atom_site_label
_atom_site_fract_x
_atom_site_fract_y
_atom_site_fract_z
Si Si1 0.833898 0.567675 0.838184
Si Si2 0.104492 0.932806 0.319686
Si Si3 0.521903 0.433792 0.913479
Si Si4 0.665098 0.430037 0.363832
Si Si5 0.418160 0.432357 0.487601
Si Si6 0.037872 0.931130 0.755134
O O1 0.750000 0.526511 0.866396
O O2 0.850958 0.750000 0.849499
O O3 0.842660 0.523584 0.743421
O O4 0.891969 0.471777 0.893273
O O5 0.119941 0.750000 0.310431
O O6 0.122629 0.987042 0.410987
O O7 0.018201 0.969671 0.300812
O O8 0.509905 0.250000 0.911975
O O9 0.466182 0.510890 0.847870
O O10 0.500000 0.500000 0.000000
O O11 0.750000 0.477365 0.346282
O O12 0.657489 0.250000 0.391952
O O13 0.632841 0.538965 0.434264
O O14 0.620683 0.457956 0.279620
O O15 0.500000 0.500000 0.500000
O O16 0.425826 0.250000 0.470170
O O17 0.013941 0.750000 0.751030
#
# Coordination Sequence:
#
# PCOD8242145 Si02
#       6
#     8   8   8   8   8   8
#     4  10  21  38  60  87 120 153 188 236 292 346
#     4  11  21  34  56  83 112 149 192 235 281 341
#     4  11  22  38  62  89 118 151 193 237 281 343
#     4  10  22  39  58  82 114 152 192 237 288 341
#     4  12  23  36  56  81 112 152 198 245 291 340
#     4  10  19  35  59  83 112 147 186 233 282 341
#
# _framework density 19.076319999999999
#
# number of rings (size 3 to 8) (size 9 to 14) (size 15 to 20)
#    0.000    1.333    1.667    7.500    0.000    3.000 
#    0.000    0.833    0.000    3.000    0.000    0.000 
#    0.000    0.000    0.000    0.000    0.000    0.000 
#
# Total GULP energy -595372.274621 kJ/mol
# GULP energy per Si atom -12403.589055 kJ/mol
# Density = 1.903290 g / cm^3
# Si number density = 19.076320 Si / 1000 Ang^3
#
#
#
# Elastic Constant Matrix: (Units=GPa)
#
#
# Indices 1 2 3 4 5 6 
#
# 1 105.8009 18.5507 44.8656 0.0000 0.0000 0.0000
# 2 18.5507 74.7752 22.8904 0.0000 0.0000 0.0000
# 3 44.8656 22.8904 129.5631 0.0000 0.0000 0.0000
# 4 0.0000 0.0000 0.0000 34.9587 0.0000 0.0000
# 5 0.0000 0.0000 0.0000 0.0000 20.9740 0.0000
# 6 0.0000 0.0000 0.0000 0.0000 0.0000 25.6763
#
#
#
# Elastic Compliance Matrix: (Units=1/GPa)
#
#
# Indices 1 2 3 4 5 6 
#
# 1 0.011278 -0.001694 -0.003606 0.000000 0.000000 0.000000
# 2 -0.001694 0.014393 -0.001956 0.000000 0.000000 0.000000
# 3 -0.003606 -0.001956 0.009313 0.000000 0.000000 0.000000
# 4 0.000000 0.000000 0.000000 0.028605 0.000000 0.000000
# 5 0.000000 0.000000 0.000000 0.000000 0.047678 0.000000
# 6 0.000000 0.000000 0.000000 0.000000 0.000000 0.038946
#
#
# Mechanical properties :
#
#
# Convention : Reuss Voigt Hill
#
# Bulk Modulus (GPa) = 48.85076 53.63918 51.24497
# Shear Modulus (GPa) = 29.14626 31.24397 30.19511
#
# Velocity S-wave (km/s) = 3.91305 4.05141 3.98283
# Velocity P-wave (km/s) = 6.78819 7.07563 6.93340
#
# Compressibility (1/GPa) = 0.02047051
#
# Stress axis : x y z
#
# Youngs Moduli (GPa) = 88.66891 69.48057 107.38161
#
# Poissons Ratio (x) = 0.11770 0.38723
# Poissons Ratio (y) = 0.15020 0.21006
# Poissons Ratio (z) = 0.31975 0.13592
#
# Static dielectric constant tensor:
#      x y z
#    x 3.438510 0.000000 0.000000 
#    y 0.000000 3.630140 0.000000 
#    z 0.000000 0.000000 3.520650 
# 
# 
# High freq. dielectric constant tensor:
#      x y z
#    x 1.730500 0.000000 0.000000 
#    y 0.000000 1.756100 0.000000 
#    z 0.000000 0.000000 1.736400 
# 
# From -- ./inp_files/23666.got.cif
#   From: 2010.03.12/outbox.cif.g09.slc.cpg/sg59_12_cif.got.tgz:23666.got - 2010.04.16 16:29:54.
