data_PCOD8242491
_publ_section_title
;
Structure prediction by ZEFSAII (Michael W. Deem and Ramdas Pophale) SiO2 
 PCOD8242491
Probable space group: P M M N
;
_chemical_formula_sum "Si O2"
_cell_formula_units_Z 48
_cell_length_a 9.407134
_cell_length_b 9.067814
_cell_length_c 31.405551
_cell_angle_alpha 90.000000
_cell_angle_beta 90.000000
_cell_angle_gamma 90.000000
_cell_volume 2678.960752
_symmetry_space_group_name_H-M "P M M N"
_symmetry_group_IT_number 59
_space_group.IT_coordinate_system_code '2'
_symmetry_cell_setting 'orthorhombic'
loop_
_space_group_symop_operation_xyz
x,y,z
1/2-x,1/2-y,z
1/2+x,-y,-z
-x,1/2+y,-z
-x,-y,-z
1/2+x,1/2+y,-z
1/2-x,y,z
x,1/2-y,z
loop_
_atom_site_type_symbol
_atom_site_label
_atom_site_fract_x
_atom_site_fract_y
_atom_site_fract_z
Si Si1 0.085576 0.577976 0.376086
Si Si2 0.084692 0.077882 0.963198
Si Si3 0.093559 0.074968 0.871391
Si Si4 0.581839 0.080970 0.302718
Si Si5 0.916068 0.920948 0.537139
Si Si6 0.419690 0.415542 0.780361
O O1 0.250000 0.546791 0.365673
O O2 0.055507 0.750000 0.382815
O O3 0.037746 0.493577 0.418507
O O4 0.991728 0.519067 0.337752
O O5 0.250000 0.034604 0.965972
O O6 0.063644 0.250000 0.969759
O O7 0.020686 0.028860 0.916440
O O8 0.000000 0.000000 0.000000
O O9 0.250000 0.003396 0.871871
O O10 0.108571 0.250000 0.870744
O O11 0.017240 0.029245 0.826569
O O12 0.750000 0.061382 0.307423
O O13 0.535043 0.250000 0.308314
O O14 0.528809 0.025767 0.256480
O O15 0.750000 0.944103 0.528601
O O16 0.958188 0.750000 0.538564
O O17 0.000000 0.000000 0.500000
O O18 0.250000 0.414764 0.783849
O O19 0.473763 0.250000 0.769625
#
# Coordination Sequence:
#
# PCOD8242491 Si02
#       6
#     8   8   8   8   8   8
#     4  10  21  37  56  76  99 131 170 207 242 283
#     4   9  17  29  45  66  92 121 154 193 236 283
#     4   7  11  22  41  63  86 115 152 192 234 279
#     4  10  20  32  48  74 105 132 158 193 240 290
#     4  10  21  37  57  80 105 134 167 203 245 290
#     4   8  13  24  44  67  90 118 154 197 240 279
#
# _framework density 17.917396
#
# number of rings (size 3 to 8) (size 9 to 14) (size 15 to 20)
#    0.000    3.000    0.000    3.500    0.000    4.000 
#    0.000    0.833    0.000    4.000    0.000    2.333 
#    0.000    0.000    0.000    0.000    0.000    0.000 
#
# Total GULP energy -594717.941262 kJ/mol
# GULP energy per Si atom -12389.957110 kJ/mol
# Density = 1.787661 g / cm^3
# Si number density = 17.917396 Si / 1000 Ang^3
#
#
#
# Elastic Constant Matrix: (Units=GPa)
#
#
# Indices 1 2 3 4 5 6 
#
# 1 30.4874 31.0527 47.8139 0.0000 0.0000 0.0000
# 2 31.0527 85.3331 68.8638 0.0000 0.0000 0.0000
# 3 47.8139 68.8638 186.0782 0.0000 0.0000 0.0000
# 4 0.0000 0.0000 0.0000 34.8142 0.0000 0.0000
# 5 0.0000 0.0000 0.0000 0.0000 24.3485 0.0000
# 6 0.0000 0.0000 0.0000 0.0000 0.0000 23.5038
#
#
#
# Elastic Compliance Matrix: (Units=1/GPa)
#
#
# Indices 1 2 3 4 5 6 
#
# 1 0.065703 -0.014665 -0.011456 0.000000 0.000000 0.000000
# 2 -0.014665 0.019982 -0.003627 0.000000 0.000000 0.000000
# 3 -0.011456 -0.003627 0.009660 0.000000 0.000000 0.000000
# 4 0.000000 0.000000 0.000000 0.028724 0.000000 0.000000
# 5 0.000000 0.000000 0.000000 0.000000 0.041070 0.000000
# 6 0.000000 0.000000 0.000000 0.000000 0.000000 0.042546
#
#
# Mechanical properties :
#
#
# Convention : Reuss Voigt Hill
#
# Bulk Modulus (GPa) = 27.89333 66.37327 47.13330
# Shear Modulus (GPa) = 17.91280 26.81119 22.36200
#
# Velocity S-wave (km/s) = 3.16530 3.87250 3.53662
# Velocity P-wave (km/s) = 5.38149 7.55774 6.56048
#
# Compressibility (1/GPa) = 0.03585086
#
# Stress axis : x y z
#
# Youngs Moduli (GPa) = 15.21998 50.04501 103.52050
#
# Poissons Ratio (x) = 0.73389 1.18591
# Poissons Ratio (y) = 0.22319 0.37545
# Poissons Ratio (z) = 0.17436 0.18150
#
# Static dielectric constant tensor:
#      x y z
#    x 2.901180 0.000000 0.000000 
#    y 0.000000 2.881290 0.000000 
#    z 0.000000 0.000000 3.827080 
# 
# 
# High freq. dielectric constant tensor:
#      x y z
#    x 1.643530 0.000000 0.000000 
#    y 0.000000 1.681920 0.000000 
#    z 0.000000 0.000000 1.721350 
# 
# From -- ./inp_files/32593.got.cif
#   From: 2010.03.12/outbox.cif.g09.slc.cpg/sg59_17_cif.got.tgz:32593.got - 2010.04.16 16:29:54.
