data_PCOD8242337
_publ_section_title
;
Structure prediction by ZEFSAII (Michael W. Deem and Ramdas Pophale) SiO2 
 PCOD8242337
Probable space group: P M M N
;
_chemical_formula_sum "Si O2"
_cell_formula_units_Z 48
_cell_length_a 9.598936
_cell_length_b 14.242612
_cell_length_c 19.356636
_cell_angle_alpha 90.000000
_cell_angle_beta 90.000000
_cell_angle_gamma 90.000000
_cell_volume 2646.321606
_symmetry_space_group_name_H-M "P M M N"
_symmetry_group_IT_number 59
_space_group.IT_coordinate_system_code '2'
_symmetry_cell_setting 'orthorhombic'
loop_
_space_group_symop_operation_xyz
x,y,z
1/2-x,1/2-y,z
1/2+x,-y,-z
-x,1/2+y,-z
-x,-y,-z
1/2+x,1/2+y,-z
1/2-x,y,z
x,1/2-y,z
loop_
_atom_site_type_symbol
_atom_site_label
_atom_site_fract_x
_atom_site_fract_y
_atom_site_fract_z
Si Si1 0.410301 0.998671 0.599678
Si Si2 0.412390 0.358119 0.481778
Si Si3 0.084963 0.145810 0.017772
Si Si4 0.584414 0.856036 0.130943
Si Si5 0.587456 0.499074 0.243019
Si Si6 0.091203 0.361535 0.166402
O O1 0.250000 0.968960 0.589971
O O2 0.502653 0.908867 0.579055
O O3 0.442660 0.027584 0.678215
O O4 0.446622 0.089922 0.553902
O O5 0.250000 0.365188 0.463286
O O6 0.459938 0.250000 0.488214
O O7 0.250000 0.151900 0.021699
O O8 0.022260 0.250000 0.014576
O O9 0.036974 0.099822 0.090717
O O10 0.038946 0.098952 0.944369
O O11 0.750000 0.852677 0.134984
O O12 0.525992 0.750000 0.139568
O O13 0.526353 0.919329 0.193324
O O14 0.750000 0.481583 0.229933
O O15 0.506531 0.403565 0.225632
O O16 0.250000 0.392900 0.180239
O O17 0.078487 0.250000 0.168920
#
# Coordination Sequence:
#
# PCOD8242337 Si02
#       6
#     8   8   8   8   8   8
#     4   9  19  34  49  71 103 127 146 183 233 280
#     4   9  18  34  56  76  92 118 157 193 223 264
#     4   7  11  23  43  64  86 116 158 202 234 265
#     4   8  14  26  45  68  93 122 157 195 234 278
#     4  10  20  31  46  72 101 125 150 186 235 283
#     4   9  18  32  48  65  89 126 167 200 232 272
#
# _framework density 18.138385
#
# number of rings (size 3 to 8) (size 9 to 14) (size 15 to 20)
#    0.000    3.333    0.000    2.000    0.000    3.333 
#    0.000    6.667    0.000    0.500    0.000    4.667 
#    0.000    0.000    0.000    0.000    0.000    0.000 
#
# Total GULP energy -594638.211832 kJ/mol
# GULP energy per Si atom -12388.296080 kJ/mol
# Density = 1.809710 g / cm^3
# Si number density = 18.138385 Si / 1000 Ang^3
#
#
#
# Elastic Constant Matrix: (Units=GPa)
#
#
# Indices 1 2 3 4 5 6 
#
# 1 33.6133 25.7695 28.8429 0.0000 0.0000 0.0000
# 2 25.7695 67.4482 22.7296 0.0000 0.0000 0.0000
# 3 28.8429 22.7296 97.0315 0.0000 0.0000 0.0000
# 4 0.0000 0.0000 0.0000 23.9609 0.0000 0.0000
# 5 0.0000 0.0000 0.0000 0.0000 19.9253 0.0000
# 6 0.0000 0.0000 0.0000 0.0000 0.0000 21.3199
#
#
#
# Elastic Compliance Matrix: (Units=1/GPa)
#
#
# Indices 1 2 3 4 5 6 
#
# 1 0.052027 -0.015923 -0.011735 0.000000 0.000000 0.000000
# 2 -0.015923 0.020970 -0.000179 0.000000 0.000000 0.000000
# 3 -0.011735 -0.000179 0.013836 0.000000 0.000000 0.000000
# 4 0.000000 0.000000 0.000000 0.041735 0.000000 0.000000
# 5 0.000000 0.000000 0.000000 0.000000 0.050187 0.000000
# 6 0.000000 0.000000 0.000000 0.000000 0.000000 0.046905
#
#
# Mechanical properties :
#
#
# Convention : Reuss Voigt Hill
#
# Bulk Modulus (GPa) = 32.09357 39.19744 35.64551
# Shear Modulus (GPa) = 17.13964 21.09129 19.11547
#
# Velocity S-wave (km/s) = 3.07732 3.41368 3.24986
# Velocity P-wave (km/s) = 5.50987 6.09875 5.81177
#
# Compressibility (1/GPa) = 0.03115888
#
# Stress axis : x y z
#
# Youngs Moduli (GPa) = 19.22066 47.68688 72.27402
#
# Poissons Ratio (x) = 0.75932 0.84816
# Poissons Ratio (y) = 0.30605 0.01294
# Poissons Ratio (z) = 0.22556 0.00854
#
# Static dielectric constant tensor:
#      x y z
#    x 2.991640 0.000000 0.000000 
#    y 0.000000 3.247390 0.000000 
#    z 0.000000 0.000000 3.629600 
# 
# 
# High freq. dielectric constant tensor:
#      x y z
#    x 1.663610 0.000000 0.000000 
#    y 0.000000 1.688040 0.000000 
#    z 0.000000 0.000000 1.714470 
# 
# From -- ./inp_files/26961.got.cif
#   From: 2010.03.12/outbox.cif.g09.slc.cpg/sg59_14_cif.got.tgz:26961.got - 2010.04.16 16:29:54.
