data_PCOD8242318
_publ_section_title
;
Structure prediction by ZEFSAII (Michael W. Deem and Ramdas Pophale) SiO2 
 PCOD8242318
Probable space group: P M M N
;
_chemical_formula_sum "Si O2"
_cell_formula_units_Z 56
_cell_length_a 9.174998
_cell_length_b 18.797059
_cell_length_c 17.541720
_cell_angle_alpha 90.000000
_cell_angle_beta 90.000000
_cell_angle_gamma 90.000000
_cell_volume 3025.297283
_symmetry_space_group_name_H-M "P M M N"
_symmetry_group_IT_number 59
_space_group.IT_coordinate_system_code '2'
_symmetry_cell_setting 'orthorhombic'
loop_
_space_group_symop_operation_xyz
x,y,z
1/2-x,1/2-y,z
1/2+x,-y,-z
-x,1/2+y,-z
-x,-y,-z
1/2+x,1/2+y,-z
1/2-x,y,z
x,1/2-y,z
loop_
_atom_site_type_symbol
_atom_site_label
_atom_site_fract_x
_atom_site_fract_y
_atom_site_fract_z
Si Si1 0.414670 0.952086 0.439631
Si Si2 0.411998 0.044329 0.290414
Si Si3 0.419060 0.066219 0.963963
Si Si4 0.585373 0.831881 0.904116
Si Si5 0.579703 0.927244 0.208223
Si Si6 0.579190 0.168898 0.245404
Si Si7 0.921743 0.832957 0.351042
O O1 0.250000 0.934281 0.468426
O O2 0.496411 0.878263 0.417266
O O3 0.500000 0.000000 0.500000
O O4 0.406025 0.001126 0.366956
O O5 0.250000 0.061402 0.260736
O O6 0.498346 0.118178 0.306019
O O7 0.495726 0.999488 0.226788
O O8 0.250000 0.046805 0.964226
O O9 0.466527 0.090060 0.878627
O O10 0.458595 0.132350 0.016912
O O11 0.500000 0.000000 0.000000
O O12 0.750000 0.851371 0.879128
O O13 0.566865 0.750000 0.921137
O O14 0.476082 0.855994 0.837622
O O15 0.750000 0.943242 0.215914
O O16 0.537161 0.863374 0.266745
O O17 0.750000 0.157706 0.250945
O O18 0.534120 0.250000 0.262755
O O19 0.750000 0.840487 0.366153
O O20 0.970034 0.750000 0.355005
#
# Coordination Sequence:
#
# PCOD8242318 Si02
#       7
#     8   8   8   8   8   8   8
#     4  10  21  37  58  83 110 140 172 207 250 303
#     4  10  20  34  53  76 100 128 164 204 247 297
#     4  10  20  31  45  68  97 130 170 215 260 305
#     4   9  18  32  48  66  92 128 167 207 252 299
#     4   9  18  32  50  73 101 135 174 216 260 305
#     4  10  20  33  50  72  97 127 165 208 253 302
#     4   9  18  34  57  83 110 141 177 217 262 313
#
# _framework density 18.510577999999999
#
# number of rings (size 3 to 8) (size 9 to 14) (size 15 to 20)
#    0.000    2.429    0.000    2.143    0.000    6.857 
#    0.000    3.571    0.000    0.857    0.000    4.000 
#    0.000    0.000    0.000    0.000    0.000    0.000 
#
# Total GULP energy -694154.023188 kJ/mol
# GULP energy per Si atom -12395.607557 kJ/mol
# Density = 1.846845 g / cm^3
# Si number density = 18.510578 Si / 1000 Ang^3
#
#
#
# Elastic Constant Matrix: (Units=GPa)
#
#
# Indices 1 2 3 4 5 6 
#
# 1 74.8075 53.6607 17.5117 0.0000 0.0000 0.0000
# 2 53.6607 121.3634 34.3458 0.0000 0.0000 0.0000
# 3 17.5117 34.3458 38.1642 0.0000 0.0000 0.0000
# 4 0.0000 0.0000 0.0000 28.4869 0.0000 0.0000
# 5 0.0000 0.0000 0.0000 0.0000 24.8859 0.0000
# 6 0.0000 0.0000 0.0000 0.0000 0.0000 31.1949
#
#
#
# Elastic Compliance Matrix: (Units=1/GPa)
#
#
# Indices 1 2 3 4 5 6 
#
# 1 0.019650 -0.008233 -0.001607 0.000000 0.000000 0.000000
# 2 -0.008233 0.014505 -0.009276 0.000000 0.000000 0.000000
# 3 -0.001607 -0.009276 0.035288 0.000000 0.000000 0.000000
# 4 0.000000 0.000000 0.000000 0.035104 0.000000 0.000000
# 5 0.000000 0.000000 0.000000 0.000000 0.040183 0.000000
# 6 0.000000 0.000000 0.000000 0.000000 0.000000 0.032057
#
#
# Mechanical properties :
#
#
# Convention : Reuss Voigt Hill
#
# Bulk Modulus (GPa) = 32.04054 49.48572 40.76313
# Shear Modulus (GPa) = 22.18061 25.50133 23.84097
#
# Velocity S-wave (km/s) = 3.46535 3.71571 3.59272
# Velocity P-wave (km/s) = 5.77568 6.72313 6.26733
#
# Compressibility (1/GPa) = 0.03121046
#
# Stress axis : x y z
#
# Youngs Moduli (GPa) = 50.89138 68.94072 28.33846
#
# Poissons Ratio (x) = 0.56762 0.04553
# Poissons Ratio (y) = 0.41901 0.26287
# Poissons Ratio (z) = 0.08176 0.63950
#
# Static dielectric constant tensor:
#      x y z
#    x 3.682010 0.000000 0.000000 
#    y 0.000000 3.228420 0.000000 
#    z 0.000000 0.000000 3.565110 
# 
# 
# High freq. dielectric constant tensor:
#      x y z
#    x 1.720330 0.000000 0.000000 
#    y 0.000000 1.721880 0.000000 
#    z 0.000000 0.000000 1.706140 
# 
# From -- ./inp_files/29280.got.cif
#   From: 2010.03.12/outbox.cif.g09.slc.cpg/sg59_15_cif.got.tgz:29280.got - 2010.04.16 16:29:54.
