data_PCOD8242618
_publ_section_title
;
Structure prediction by ZEFSAII (Michael W. Deem and Ramdas Pophale) SiO2 
 PCOD8242618
Probable space group: P M M N
;
_chemical_formula_sum "Si O2"
_cell_formula_units_Z 56
_cell_length_a 9.452675
_cell_length_b 14.980857
_cell_length_c 20.969171
_cell_angle_alpha 90.000000
_cell_angle_beta 90.000000
_cell_angle_gamma 90.000000
_cell_volume 2969.426952
_symmetry_space_group_name_H-M "P M M N"
_symmetry_group_IT_number 59
_space_group.IT_coordinate_system_code '2'
_symmetry_cell_setting 'orthorhombic'
loop_
_space_group_symop_operation_xyz
x,y,z
1/2-x,1/2-y,z
1/2+x,-y,-z
-x,1/2+y,-z
-x,-y,-z
1/2+x,1/2+y,-z
1/2-x,y,z
x,1/2-y,z
loop_
_atom_site_type_symbol
_atom_site_label
_atom_site_fract_x
_atom_site_fract_y
_atom_site_fract_z
Si Si1 0.090680 0.346442 0.804317
Si Si2 0.094286 0.651121 0.953413
Si Si3 0.584129 0.478558 0.265314
Si Si4 0.084369 0.145444 0.505454
Si Si5 0.914831 0.476548 0.411850
Si Si6 0.910370 0.095614 0.913348
Si Si7 0.588391 0.592483 0.845268
O O1 0.250000 0.368131 0.825354
O O2 0.079327 0.250000 0.769783
O O3 0.039542 0.421074 0.754563
O O4 0.001799 0.339899 0.869120
O O5 0.250000 0.614476 0.932147
O O6 0.109561 0.750000 0.981137
O O7 0.991130 0.659054 0.892702
O O8 0.033892 0.593891 0.013394
O O9 0.750000 0.459465 0.254765
O O10 0.540966 0.468305 0.338470
O O11 0.492168 0.410339 0.222662
O O12 0.250000 0.143418 0.489251
O O13 0.038545 0.250000 0.518481
O O14 0.000682 0.102429 0.446331
O O15 0.050465 0.078245 0.564712
O O16 0.750000 0.456687 0.422604
O O17 0.750000 0.130436 0.913171
O O18 0.924218 0.999084 0.883031
O O19 0.750000 0.622261 0.833370
#
# Coordination Sequence:
#
# PCOD8242618 Si02
#       7
#     8   8   8   8   8   8   8
#     4   9  17  28  44  69  98 126 159 201 247 294
#     4  10  20  33  49  68  91 121 157 198 245 294
#     4   9  18  33  51  70  97 133 167 199 238 287
#     4   9  18  33  54  81 111 139 167 204 250 294
#     4   9  18  33  54  79 106 138 174 208 243 290
#     4   9  18  32  49  68  91 122 157 194 243 300
#     4  10  20  33  50  71  94 122 158 199 241 287
#
# _framework density 18.858858000000001
#
# number of rings (size 3 to 8) (size 9 to 14) (size 15 to 20)
#    0.000    2.714    0.000    1.286    0.000    3.714 
#    0.000    3.571    0.000    0.857    0.000    8.000 
#    0.000    0.000    0.000    0.000    0.000    0.000 
#
# Total GULP energy -693879.380859 kJ/mol
# GULP energy per Si atom -12390.703230 kJ/mol
# Density = 1.881593 g / cm^3
# Si number density = 18.858858 Si / 1000 Ang^3
#
#
#
# Elastic Constant Matrix: (Units=GPa)
#
#
# Indices 1 2 3 4 5 6 
#
# 1 65.0975 20.2516 52.3752 0.0000 0.0000 0.0000
# 2 20.2516 65.0303 22.9410 0.0000 0.0000 0.0000
# 3 52.3752 22.9410 136.1868 0.0000 0.0000 0.0000
# 4 0.0000 0.0000 0.0000 17.8103 0.0000 0.0000
# 5 0.0000 0.0000 0.0000 0.0000 29.9489 0.0000
# 6 0.0000 0.0000 0.0000 0.0000 0.0000 22.1213
#
#
#
# Elastic Compliance Matrix: (Units=1/GPa)
#
#
# Indices 1 2 3 4 5 6 
#
# 1 0.023354 -0.004364 -0.008246 0.000000 0.000000 0.000000
# 2 -0.004364 0.017164 -0.001213 0.000000 0.000000 0.000000
# 3 -0.008246 -0.001213 0.010719 0.000000 0.000000 0.000000
# 4 0.000000 0.000000 0.000000 0.056147 0.000000 0.000000
# 5 0.000000 0.000000 0.000000 0.000000 0.033390 0.000000
# 6 0.000000 0.000000 0.000000 0.000000 0.000000 0.045205
#
#
# Mechanical properties :
#
#
# Convention : Reuss Voigt Hill
#
# Bulk Modulus (GPa) = 42.39031 50.82781 46.60906
# Shear Modulus (GPa) = 22.57439 25.35920 23.96680
#
# Velocity S-wave (km/s) = 3.46355 3.67097 3.56877
# Velocity P-wave (km/s) = 6.20656 6.70658 6.46141
#
# Compressibility (1/GPa) = 0.02359029
#
# Stress axis : x y z
#
# Youngs Moduli (GPa) = 42.81941 58.26023 93.29514
#
# Poissons Ratio (x) = 0.25423 0.76935
# Poissons Ratio (y) = 0.18685 0.11318
# Poissons Ratio (z) = 0.35311 0.07068
#
# Static dielectric constant tensor:
#      x y z
#    x 3.490450 0.000000 0.000000 
#    y 0.000000 3.417390 0.000000 
#    z 0.000000 0.000000 3.382170 
# 
# 
# High freq. dielectric constant tensor:
#      x y z
#    x 1.727630 0.000000 0.000000 
#    y 0.000000 1.726420 0.000000 
#    z 0.000000 0.000000 1.720440 
# 
# From -- ./inp_files/29038.got.cif
#   From: 2010.03.12/outbox.cif.g09.slc.cpg/sg59_15_cif.got.tgz:29038.got - 2010.04.16 16:29:54.
