data_PCOD8242110
_publ_section_title
;
Structure prediction by ZEFSAII (Michael W. Deem and Ramdas Pophale) SiO2 
 PCOD8242110
Probable space group: P M M N
;
_chemical_formula_sum "Si O2"
_cell_formula_units_Z 64
_cell_length_a 18.260605
_cell_length_b 20.088717
_cell_length_c 8.832411
_cell_angle_alpha 90.000000
_cell_angle_beta 90.000000
_cell_angle_gamma 90.000000
_cell_volume 3240.012106
_symmetry_space_group_name_H-M "P M M N"
_symmetry_group_IT_number 59
_space_group.IT_coordinate_system_code '2'
_symmetry_cell_setting 'orthorhombic'
loop_
_space_group_symop_operation_xyz
x,y,z
1/2-x,1/2-y,z
1/2+x,-y,-z
-x,1/2+y,-z
-x,-y,-z
1/2+x,1/2+y,-z
1/2-x,y,z
x,1/2-y,z
loop_
_atom_site_type_symbol
_atom_site_label
_atom_site_fract_x
_atom_site_fract_y
_atom_site_fract_z
Si Si1 0.557582 0.623472 0.186782
Si Si2 0.872500 0.674274 0.736146
Si Si3 0.170801 0.173944 0.588098
Si Si4 0.335306 0.935123 0.221306
Si Si5 0.040065 0.674714 0.704757
Si Si6 0.831589 0.934160 0.967600
Si Si7 0.458706 0.565424 0.445490
Si Si8 0.919171 0.174089 0.967346
O O1 0.614500 0.670062 0.274372
O O2 0.507870 0.587221 0.306900
O O3 0.504658 0.665112 0.077569
O O4 0.606193 0.570121 0.095448
O O5 0.843610 0.750000 0.752414
O O6 0.857932 0.642199 0.569314
O O7 0.831501 0.630267 0.859966
O O8 0.958196 0.670895 0.765909
O O9 0.250000 0.142306 0.631999
O O10 0.181323 0.250000 0.548959
O O11 0.250000 0.924573 0.257663
O O12 0.377208 0.946482 0.380484
O O13 0.364746 0.871691 0.128566
O O14 0.350969 0.000001 0.123500
O O15 0.056182 0.750000 0.642981
O O16 0.052450 0.621177 0.573639
O O17 0.089819 0.658909 0.852598
O O18 0.750000 0.939380 0.038803
O O19 0.500000 0.500000 0.500000
O O20 0.897026 0.250000 0.933094
#
# Coordination Sequence:
#
# PCOD8242110 Si02
#       8
#     8   8   8   8   8   8   8   8
#     4  11  22  35  58  86 120 156 201 249 304 355
#     4  10  19  35  57  82 121 164 205 248 295 357
#     4  10  20  33  50  79 119 161 202 244 293 351
#     4  10  25  45  64  90 124 161 201 253 313 371
#     4  10  20  38  63  92 121 152 198 255 307 362
#     4  11  23  39  57  85 126 167 205 247 299 363
#     4  11  24  39  65  93 119 159 205 250 304 366
#     4  10  22  40  67  92 116 154 202 257 314 370
#
# _framework density 19.753011999999998
#
# number of rings (size 3 to 8) (size 9 to 14) (size 15 to 20)
#    0.000    1.625    2.500    1.875    1.750    4.500 
#    0.000    1.250    0.000    0.750    0.000    0.000 
#    0.000    0.000    0.000    0.000    0.000    0.000 
#
# Total GULP energy -793296.611838 kJ/mol
# GULP energy per Si atom -12395.259560 kJ/mol
# Density = 1.970805 g / cm^3
# Si number density = 19.753012 Si / 1000 Ang^3
#
#
#
# Elastic Constant Matrix: (Units=GPa)
#
#
# Indices 1 2 3 4 5 6 
#
# 1 104.7038 37.0667 46.4946 0.0000 0.0000 0.0000
# 2 37.0667 105.5750 48.9355 0.0000 0.0000 0.0000
# 3 46.4946 48.9355 108.2320 0.0000 0.0000 0.0000
# 4 0.0000 0.0000 0.0000 31.3484 0.0000 0.0000
# 5 0.0000 0.0000 0.0000 0.0000 27.2801 0.0000
# 6 0.0000 0.0000 0.0000 0.0000 0.0000 75.9304
#
#
#
# Elastic Compliance Matrix: (Units=1/GPa)
#
#
# Indices 1 2 3 4 5 6 
#
# 1 0.012248 -0.002355 -0.004197 0.000000 0.000000 0.000000
# 2 -0.002355 0.012436 -0.004611 0.000000 0.000000 0.000000
# 3 -0.004197 -0.004611 0.013127 0.000000 0.000000 0.000000
# 4 0.000000 0.000000 0.000000 0.031900 0.000000 0.000000
# 5 0.000000 0.000000 0.000000 0.000000 0.036657 0.000000
# 6 0.000000 0.000000 0.000000 0.000000 0.000000 0.013170
#
#
# Mechanical properties :
#
#
# Convention : Reuss Voigt Hill
#
# Bulk Modulus (GPa) = 64.57653 64.83384 64.70519
# Shear Modulus (GPa) = 34.00777 39.31269 36.66023
#
# Velocity S-wave (km/s) = 4.15378 4.46602 4.31273
# Velocity P-wave (km/s) = 7.46781 7.71280 7.59129
#
# Compressibility (1/GPa) = 0.01548550
#
# Stress axis : x y z
#
# Youngs Moduli (GPa) = 81.64552 80.41118 76.17791
#
# Poissons Ratio (x) = 0.18936 0.31970
# Poissons Ratio (y) = 0.19227 0.35127
# Poissons Ratio (z) = 0.34265 0.37079
#
# Static dielectric constant tensor:
#      x y z
#    x 3.776070 0.000000 0.000000 
#    y 0.000000 3.545870 0.000000 
#    z 0.000000 0.000000 3.808510 
# 
# 
# High freq. dielectric constant tensor:
#      x y z
#    x 1.764290 0.000000 0.000000 
#    y 0.000000 1.762610 0.000000 
#    z 0.000000 0.000000 1.776400 
# 
# From -- ./inp_files/10706.got.cif
#   From: 2010.03.12/outbox.cif.g09.slc.cpg/sg59_6_cif.got.tgz:10706.got - 2010.04.16 16:29:54.
