data_PCOD8242748
_publ_section_title
;
Structure prediction by ZEFSAII (Michael W. Deem and Ramdas Pophale) SiO2 
 PCOD8242748
Probable space group: P M M N
;
_chemical_formula_sum "Si O2"
_cell_formula_units_Z 64
_cell_length_a 9.005284
_cell_length_b 14.890325
_cell_length_c 23.429304
_cell_angle_alpha 90.000000
_cell_angle_beta 90.000000
_cell_angle_gamma 90.000000
_cell_volume 3141.672989
_symmetry_space_group_name_H-M "P M M N"
_symmetry_group_IT_number 59
_space_group.IT_coordinate_system_code '2'
_symmetry_cell_setting 'orthorhombic'
loop_
_space_group_symop_operation_xyz
x,y,z
1/2-x,1/2-y,z
1/2+x,-y,-z
-x,1/2+y,-z
-x,-y,-z
1/2+x,1/2+y,-z
1/2-x,y,z
x,1/2-y,z
loop_
_atom_site_type_symbol
_atom_site_label
_atom_site_fract_x
_atom_site_fract_y
_atom_site_fract_z
Si Si1 0.574719 0.354160 0.634129
Si Si2 0.587075 0.915057 0.928730
Si Si3 0.423134 0.853095 0.593735
Si Si4 0.913100 0.117673 0.967316
Si Si5 0.574247 0.985103 0.809239
Si Si6 0.918310 0.849012 0.142796
Si Si7 0.916657 0.643530 0.480977
Si Si8 0.574724 0.013066 0.305546
O O1 0.750000 0.368562 0.634567
O O2 0.533235 0.250000 0.645983
O O3 0.511783 0.387447 0.573307
O O4 0.499503 0.416421 0.681962
O O5 0.750000 0.869181 0.928852
O O6 0.601704 0.012711 0.956139
O O7 0.528822 0.922977 0.863378
O O8 0.473960 0.860217 0.968797
O O9 0.250000 0.860053 0.579943
O O10 0.468272 0.750000 0.606881
O O11 0.508900 0.892967 0.538891
O O12 0.468817 0.913481 0.647330
O O13 0.750000 0.162049 0.962103
O O14 0.025260 0.160192 0.922032
O O15 0.750000 0.984940 0.799874
O O16 0.523212 0.087231 0.820116
O O17 0.490854 0.948218 0.753501
O O18 0.750000 0.886749 0.142483
O O19 0.923416 0.750000 0.170673
O O20 0.750000 0.604608 0.475097
O O21 0.914634 0.750000 0.484113
O O22 0.750000 0.999477 0.300411
#
# Coordination Sequence:
#
# PCOD8242748 Si02
#       8
#     8   8   8   8   8   8   8   8
#     4  10  21  37  56  78 109 149 186 222 268 323
#     4   8  15  28  46  68  93 122 157 199 248 299
#     4   9  19  37  59  82 108 138 174 219 274 333
#     4   9  16  26  45  72  97 123 157 199 248 300
#     4  10  21  36  53  73 100 136 178 221 261 310
#     4  10  20  33  50  73 103 139 176 216 262 311
#     4   9  17  31  54  83 111 139 175 221 272 325
#     4  11  23  37  56  81 108 142 185 231 274 320
#
# _framework density 20.371310999999999
#
# number of rings (size 3 to 8) (size 9 to 14) (size 15 to 20)
#    0.000    2.500    0.000    3.000    0.000    8.750 
#    0.000    0.000    0.000    0.750    0.000    3.500 
#    0.000    0.000    0.000    0.000    0.000    0.000 
#
# Total GULP energy -793450.674547 kJ/mol
# GULP energy per Si atom -12397.666790 kJ/mol
# Density = 2.032495 g / cm^3
# Si number density = 20.371311 Si / 1000 Ang^3
#
#
#
# Elastic Constant Matrix: (Units=GPa)
#
#
# Indices 1 2 3 4 5 6 
#
# 1 91.2857 9.5900 36.7585 0.0000 0.0000 0.0000
# 2 9.5900 31.4723 7.2395 0.0000 0.0000 0.0000
# 3 36.7585 7.2395 120.0437 0.0000 0.0000 0.0000
# 4 0.0000 0.0000 0.0000 7.0143 0.0000 0.0000
# 5 0.0000 0.0000 0.0000 0.0000 40.8997 0.0000
# 6 0.0000 0.0000 0.0000 0.0000 0.0000 14.4784
#
#
#
# Elastic Compliance Matrix: (Units=1/GPa)
#
#
# Indices 1 2 3 4 5 6 
#
# 1 0.012775 -0.003035 -0.003729 0.000000 0.000000 0.000000
# 2 -0.003035 0.032942 -0.001057 0.000000 0.000000 0.000000
# 3 -0.003729 -0.001057 0.009536 0.000000 0.000000 0.000000
# 4 0.000000 0.000000 0.000000 0.142565 0.000000 0.000000
# 5 0.000000 0.000000 0.000000 0.000000 0.024450 0.000000
# 6 0.000000 0.000000 0.000000 0.000000 0.000000 0.069068
#
#
# Mechanical properties :
#
#
# Convention : Reuss Voigt Hill
#
# Bulk Modulus (GPa) = 25.24571 38.88641 32.06606
# Shear Modulus (GPa) = 15.61613 25.09273 20.35443
#
# Velocity S-wave (km/s) = 2.77171 3.51346 3.16440
# Velocity P-wave (km/s) = 4.76055 5.96569 5.39687
#
# Compressibility (1/GPa) = 0.03961069
#
# Stress axis : x y z
#
# Youngs Moduli (GPa) = 78.27828 30.35638 104.86744
#
# Poissons Ratio (x) = 0.09213 0.39103
# Poissons Ratio (y) = 0.23757 0.11088
# Poissons Ratio (z) = 0.29188 0.03210
#
# Static dielectric constant tensor:
#      x y z
#    x 3.895350 0.000000 0.000000 
#    y 0.000000 3.397410 0.000000 
#    z 0.000000 0.000000 3.785660 
# 
# 
# High freq. dielectric constant tensor:
#      x y z
#    x 1.804560 0.000000 0.000000 
#    y 0.000000 1.764220 0.000000 
#    z 0.000000 0.000000 1.794030 
# 
# From -- ./inp_files/29452.got.cif
#   From: 2010.03.12/outbox.cif.g09.slc.cpg/sg59_15_cif.got.tgz:29452.got - 2010.04.16 16:29:54.
