data_PCOD8242945
_publ_section_title
;
Structure prediction by ZEFSAII (Michael W. Deem and Ramdas Pophale) SiO2 
 PCOD8242945
Probable space group: P M M N
;
_chemical_formula_sum "Si O2"
_cell_formula_units_Z 64
_cell_length_a 8.826402
_cell_length_b 19.652548
_cell_length_c 19.323490
_cell_angle_alpha 90.000000
_cell_angle_beta 90.000000
_cell_angle_gamma 90.000000
_cell_volume 3351.877483
_symmetry_space_group_name_H-M "P M M N"
_symmetry_group_IT_number 59
_space_group.IT_coordinate_system_code '2'
_symmetry_cell_setting 'orthorhombic'
loop_
_space_group_symop_operation_xyz
x,y,z
1/2-x,1/2-y,z
1/2+x,-y,-z
-x,1/2+y,-z
-x,-y,-z
1/2+x,1/2+y,-z
1/2-x,y,z
x,1/2-y,z
loop_
_atom_site_type_symbol
_atom_site_label
_atom_site_fract_x
_atom_site_fract_y
_atom_site_fract_z
Si Si1 0.425796 0.971021 0.432245
Si Si2 0.571549 0.539311 0.708236
Si Si3 0.427799 0.067379 0.971533
Si Si4 0.919211 0.825539 0.249668
Si Si5 0.578470 0.176248 0.609791
Si Si6 0.928192 0.826902 0.780815
Si Si7 0.575023 0.170798 0.073636
Si Si8 0.574758 0.437768 0.826046
O O1 0.250000 0.988443 0.434873
O O2 0.456413 0.889784 0.436646
O O3 0.500000 0.000000 0.500000
O O4 0.496702 0.007093 0.362807
O O5 0.750000 0.530252 0.703726
O O6 0.525906 0.618916 0.720461
O O7 0.515957 0.497940 0.775765
O O8 0.250000 0.066278 0.982721
O O9 0.466436 0.068500 0.891272
O O10 0.492525 0.132274 0.011657
O O11 0.500000 0.000000 0.000000
O O12 0.750000 0.856467 0.239357
O O13 0.924129 0.750000 0.218106
O O14 0.955177 0.823818 0.330435
O O15 0.052298 0.867480 0.213907
O O16 0.750000 0.168967 0.639469
O O17 0.564118 0.250000 0.570118
O O18 0.750000 0.830270 0.794637
O O19 0.977109 0.750000 0.758413
O O20 0.007418 0.849258 0.851919
O O21 0.750000 0.149992 0.073921
O O22 0.550525 0.250000 0.059100
O O23 0.750000 0.447175 0.847781
#
# Coordination Sequence:
#
# PCOD8242945 Si02
#       8
#     8   8   8   8   8   8   8   8
#     4  10  20  36  55  81 113 147 185 230 279 336
#     4   9  18  34  55  79 108 139 179 227 274 329
#     4  12  25  40  57  81 113 149 190 238 289 344
#     4  10  20  33  51  79 112 141 176 225 275 326
#     4   9  17  33  57  79 104 144 188 225 267 324
#     4   9  17  32  57  84 108 141 183 228 281 338
#     4  10  21  38  59  83 113 150 192 237 285 340
#     4  11  21  36  57  79 106 145 188 233 281 333
#
# _framework density 19.093776999999999
#
# number of rings (size 3 to 8) (size 9 to 14) (size 15 to 20)
#    0.000    2.000    1.250    3.000    0.000    3.500 
#    0.000    1.875    0.000    0.750    0.000    0.000 
#    0.000    0.000    0.000    0.000    0.000    0.000 
#
# Total GULP energy -793213.193852 kJ/mol
# GULP energy per Si atom -12393.956154 kJ/mol
# Density = 1.905032 g / cm^3
# Si number density = 19.093777 Si / 1000 Ang^3
#
#
#
# Elastic Constant Matrix: (Units=GPa)
#
#
# Indices 1 2 3 4 5 6 
#
# 1 64.9670 39.4636 29.2297 0.0000 0.0000 0.0000
# 2 39.4636 139.7177 73.7693 0.0000 0.0000 0.0000
# 3 29.2297 73.7693 103.4568 0.0000 0.0000 0.0000
# 4 0.0000 0.0000 0.0000 29.6436 0.0000 0.0000
# 5 0.0000 0.0000 0.0000 0.0000 30.6658 0.0000
# 6 0.0000 0.0000 0.0000 0.0000 0.0000 24.3227
#
#
#
# Elastic Compliance Matrix: (Units=1/GPa)
#
#
# Indices 1 2 3 4 5 6 
#
# 1 0.018965 -0.004054 -0.002468 0.000000 0.000000 0.000000
# 2 -0.004054 0.012345 -0.007657 0.000000 0.000000 0.000000
# 3 -0.002468 -0.007657 0.015823 0.000000 0.000000 0.000000
# 4 0.000000 0.000000 0.000000 0.033734 0.000000 0.000000
# 5 0.000000 0.000000 0.000000 0.000000 0.032610 0.000000
# 6 0.000000 0.000000 0.000000 0.000000 0.000000 0.041114
#
#
# Mechanical properties :
#
#
# Convention : Reuss Voigt Hill
#
# Bulk Modulus (GPa) = 53.26023 65.89630 59.57827
# Shear Modulus (GPa) = 26.42598 27.97169 27.19884
#
# Velocity S-wave (km/s) = 3.72426 3.83164 3.77833
# Velocity P-wave (km/s) = 6.81529 7.35949 7.09261
#
# Compressibility (1/GPa) = 0.01877574
#
# Stress axis : x y z
#
# Youngs Moduli (GPa) = 52.72833 81.00213 63.19852
#
# Poissons Ratio (x) = 0.32837 0.15595
# Poissons Ratio (y) = 0.21375 0.48394
# Poissons Ratio (z) = 0.13012 0.62027
#
# Static dielectric constant tensor:
#      x y z
#    x 3.428160 0.000000 0.000000 
#    y 0.000000 3.914130 0.000000 
#    z 0.000000 0.000000 3.304030 
# 
# 
# High freq. dielectric constant tensor:
#      x y z
#    x 1.733870 0.000000 0.000000 
#    y 0.000000 1.759960 0.000000 
#    z 0.000000 0.000000 1.716640 
# 
# From -- ./inp_files/26365.got.cif
#   From: 2010.03.12/outbox.cif.g09.slc.cpg/sg59_14_cif.got.tgz:26365.got - 2010.04.16 16:29:54.
