data_PCOD8242929
_publ_section_title
;
Structure prediction by ZEFSAII (Michael W. Deem and Ramdas Pophale) SiO2 
 PCOD8242929
Probable space group: P M M N
;
_chemical_formula_sum "Si O2"
_cell_formula_units_Z 64
_cell_length_a 19.387750
_cell_length_b 8.874662
_cell_length_c 20.737625
_cell_angle_alpha 90.000000
_cell_angle_beta 90.000000
_cell_angle_gamma 90.000000
_cell_volume 3568.110121
_symmetry_space_group_name_H-M "P M M N"
_symmetry_group_IT_number 59
_space_group.IT_coordinate_system_code '2'
_symmetry_cell_setting 'orthorhombic'
loop_
_space_group_symop_operation_xyz
x,y,z
1/2-x,1/2-y,z
1/2+x,-y,-z
-x,1/2+y,-z
-x,-y,-z
1/2+x,1/2+y,-z
1/2-x,y,z
x,1/2-y,z
loop_
_atom_site_type_symbol
_atom_site_label
_atom_site_fract_x
_atom_site_fract_y
_atom_site_fract_z
Si Si1 0.550294 0.925345 0.180918
Si Si2 0.671987 0.425618 0.519310
Si Si3 0.826102 0.579518 0.386756
Si Si4 0.539548 0.926869 0.560078
Si Si5 0.827956 0.076377 0.118637
Si Si6 0.459739 0.572837 0.059317
Si Si7 0.534607 0.577888 0.324196
Si Si8 0.671996 0.573108 0.983093
O O1 0.570033 0.750000 0.176795
O O2 0.495712 0.972012 0.126313
O O3 0.516699 0.963090 0.250349
O O4 0.620130 0.021698 0.173839
O O5 0.750000 0.468553 0.539931
O O6 0.657694 0.250000 0.528614
O O7 0.658993 0.465676 0.444852
O O8 0.618683 0.517944 0.563156
O O9 0.750000 0.549438 0.357045
O O10 0.830939 0.750000 0.414247
O O11 0.883021 0.553465 0.331942
O O12 0.536642 0.750000 0.550225
O O13 0.500000 0.000000 0.500000
O O14 0.506047 0.968997 0.628163
O O15 0.750000 0.051732 0.143436
O O16 0.841394 0.250000 0.100937
O O17 0.843105 0.976984 0.055847
O O18 0.458464 0.750000 0.048542
O O19 0.381624 0.510696 0.063732
O O20 0.500000 0.500000 0.000000
O O21 0.514045 0.750000 0.340268
O O22 0.750000 0.529452 0.962559
O O23 0.659360 0.750000 0.978594
#
# Coordination Sequence:
#
# PCOD8242929 Si02
#       8
#     8   8   8   8   8   8   8   8
#     4  10  22  37  54  78 110 147 186 225 273 327
#     4  10  20  34  55  83 112 141 176 222 272 321
#     4   9  17  30  50  76 106 142 181 219 262 314
#     4  12  23  36  57  83 111 145 183 227 274 323
#     4  10  20  33  51  77 109 146 185 224 269 324
#     4  11  21  34  55  82 110 144 182 225 273 325
#     4  10  21  37  55  78 110 147 186 229 271 323
#     4  10  20  34  54  80 108 139 179 229 280 327
#
# _framework density 17.936667
#
# number of rings (size 3 to 8) (size 9 to 14) (size 15 to 20)
#    0.000    1.750    2.500    2.625    0.000    3.750 
#    0.000    1.250    0.000    2.250    0.000    1.750 
#    0.000    0.000    0.000    0.000    0.000    0.000 
#
# Total GULP energy -793686.894781 kJ/mol
# GULP energy per Si atom -12401.357731 kJ/mol
# Density = 1.789584 g / cm^3
# Si number density = 17.936667 Si / 1000 Ang^3
#
#
#
# Elastic Constant Matrix: (Units=GPa)
#
#
# Indices 1 2 3 4 5 6 
#
# 1 117.2553 55.4391 59.1900 0.0000 0.0000 0.0000
# 2 55.4391 92.6454 44.3505 0.0000 0.0000 0.0000
# 3 59.1900 44.3505 102.0814 0.0000 0.0000 0.0000
# 4 0.0000 0.0000 0.0000 24.2914 0.0000 0.0000
# 5 0.0000 0.0000 0.0000 0.0000 23.1146 0.0000
# 6 0.0000 0.0000 0.0000 0.0000 0.0000 32.4386
#
#
#
# Elastic Compliance Matrix: (Units=1/GPa)
#
#
# Indices 1 2 3 4 5 6 
#
# 1 0.014105 -0.005714 -0.005696 0.000000 0.000000 0.000000
# 2 -0.005714 0.015943 -0.003614 0.000000 0.000000 0.000000
# 3 -0.005696 -0.003614 0.014669 0.000000 0.000000 0.000000
# 4 0.000000 0.000000 0.000000 0.041167 0.000000 0.000000
# 5 0.000000 0.000000 0.000000 0.000000 0.043263 0.000000
# 6 0.000000 0.000000 0.000000 0.000000 0.000000 0.030827
#
#
# Mechanical properties :
#
#
# Convention : Reuss Voigt Hill
#
# Bulk Modulus (GPa) = 68.16679 69.99348 69.08014
# Shear Modulus (GPa) = 25.65268 26.16908 25.91088
#
# Velocity S-wave (km/s) = 3.78588 3.82379 3.80488
# Velocity P-wave (km/s) = 7.56288 7.65522 7.60919
#
# Compressibility (1/GPa) = 0.01466990
#
# Stress axis : x y z
#
# Youngs Moduli (GPa) = 70.89479 62.72418 68.17113
#
# Poissons Ratio (x) = 0.35839 0.38833
# Poissons Ratio (y) = 0.40508 0.24634
# Poissons Ratio (z) = 0.40384 0.22666
#
# Static dielectric constant tensor:
#      x y z
#    x 3.617740 0.000000 0.000000 
#    y 0.000000 3.371080 0.000000 
#    z 0.000000 0.000000 3.055490 
# 
# 
# High freq. dielectric constant tensor:
#      x y z
#    x 1.702430 0.000000 0.000000 
#    y 0.000000 1.702600 0.000000 
#    z 0.000000 0.000000 1.659610 
# 
# From -- ./inp_files/30968.got.cif
#   From: 2010.03.12/outbox.cif.g09.slc.cpg/sg59_16_cif.got.tgz:30968.got - 2010.04.16 16:29:54.
