data_PCOD8242212
_publ_section_title
;
Structure prediction by ZEFSAII (Michael W. Deem and Ramdas Pophale) SiO2 
 PCOD8242212
Probable space group: P M M N
;
_chemical_formula_sum "Si O2"
_cell_formula_units_Z 40
_cell_length_a 29.063976
_cell_length_b 7.814063
_cell_length_c 8.973292
_cell_angle_alpha 90.000000
_cell_angle_beta 90.000000
_cell_angle_gamma 90.000000
_cell_volume 2037.904062
_symmetry_space_group_name_H-M "P M M N"
_symmetry_group_IT_number 59
_space_group.IT_coordinate_system_code '2'
_symmetry_cell_setting 'orthorhombic'
loop_
_space_group_symop_operation_xyz
x,y,z
1/2-x,1/2-y,z
1/2+x,-y,-z
-x,1/2+y,-z
-x,-y,-z
1/2+x,1/2+y,-z
1/2-x,y,z
x,1/2-y,z
loop_
_atom_site_type_symbol
_atom_site_label
_atom_site_fract_x
_atom_site_fract_y
_atom_site_fract_z
Si Si1 0.863929 0.060174 0.425985
Si Si2 0.801168 0.750000 0.078819
Si Si3 0.546987 0.941706 0.573484
Si Si4 0.134523 0.554506 0.919563
Si Si5 0.457165 0.947536 0.098404
Si Si6 0.801419 0.750000 0.432507
O O1 0.842165 0.250000 0.444651
O O2 0.875985 0.023874 0.254118
O O3 0.911050 0.058335 0.518733
O O4 0.827905 0.920328 0.488188
O O5 0.750000 0.750000 0.009559
O O6 0.826550 0.577266 0.023720
O O7 0.798261 0.750000 0.255821
O O8 0.557840 0.750000 0.521025
O O9 0.500000 0.000000 0.500000
O O10 0.542429 0.944659 0.751013
O O11 0.150824 0.750000 0.949636
O O12 0.088472 0.509467 0.006959
O O13 0.460085 0.750000 0.141802
O O14 0.500000 0.000000 0.000000
O O15 0.750000 0.750000 0.501359
#
# Coordination Sequence:
#
# PCOD8242212 Si02
#       6
#     8   4   8   8   8   4
#     4  10  19  36  58  84 115 151 191 237 285 338
#     4   9  18  32  57  85 115 151 189 235 288 335
#     4  12  24  38  57  83 114 152 192 237 286 345
#     4   9  20  35  56  83 115 149 188 234 284 337
#     4  11  23  38  57  83 113 151 191 234 284 342
#     4   9  18  34  55  87 119 151 191 237 290 341
#
# _framework density 19.628007
#
# number of rings (size 3 to 8) (size 9 to 14) (size 15 to 20)
#    0.000    1.800    1.000    3.600    2.800    2.400 
#    0.000    4.000    0.000    2.400    0.000    2.800 
#    0.000    0.000    0.000    0.000    0.000    0.000 
#
# Total GULP energy -496090.992540 kJ/mol
# GULP energy per Si atom -12402.274814 kJ/mol
# Density = 1.958333 g / cm^3
# Si number density = 19.628007 Si / 1000 Ang^3
#
#
#
# Elastic Constant Matrix: (Units=GPa)
#
#
# Indices 1 2 3 4 5 6 
#
# 1 163.9037 74.1334 41.5538 0.0000 0.0000 0.0000
# 2 74.1334 135.5620 28.6523 0.0000 0.0000 0.0000
# 3 41.5538 28.6523 68.8737 0.0000 0.0000 0.0000
# 4 0.0000 0.0000 0.0000 22.5822 0.0000 0.0000
# 5 0.0000 0.0000 0.0000 0.0000 22.3895 0.0000
# 6 0.0000 0.0000 0.0000 0.0000 0.0000 34.4583
#
#
#
# Elastic Compliance Matrix: (Units=1/GPa)
#
#
# Indices 1 2 3 4 5 6 
#
# 1 0.008873 -0.004080 -0.003656 0.000000 0.000000 0.000000
# 2 -0.004080 0.009964 -0.001684 0.000000 0.000000 0.000000
# 3 -0.003656 -0.001684 0.017426 0.000000 0.000000 0.000000
# 4 0.000000 0.000000 0.000000 0.044283 0.000000 0.000000
# 5 0.000000 0.000000 0.000000 0.000000 0.044664 0.000000
# 6 0.000000 0.000000 0.000000 0.000000 0.000000 0.029021
#
#
# Mechanical properties :
#
#
# Convention : Reuss Voigt Hill
#
# Bulk Modulus (GPa) = 57.39412 73.00204 65.19808
# Shear Modulus (GPa) = 27.95220 30.81933 29.38577
#
# Velocity S-wave (km/s) = 3.77782 3.96684 3.87348
# Velocity P-wave (km/s) = 6.95224 7.63247 7.30028
#
# Compressibility (1/GPa) = 0.01742339
#
# Stress axis : x y z
#
# Youngs Moduli (GPa) = 112.69694 100.36594 57.38641
#
# Poissons Ratio (x) = 0.40946 0.20983
# Poissons Ratio (y) = 0.45977 0.09661
# Poissons Ratio (z) = 0.41206 0.16897
#
# Static dielectric constant tensor:
#      x y z
#    x 3.647750 0.000000 0.000000 
#    y 0.000000 3.902170 0.000000 
#    z 0.000000 0.000000 3.321580 
# 
# 
# High freq. dielectric constant tensor:
#      x y z
#    x 1.759410 0.000000 0.000000 
#    y 0.000000 1.784930 0.000000 
#    z 0.000000 0.000000 1.739330 
# 
# From -- ./inp_files/12442.got.cif
#   From: 2010.03.12/outbox.cif.g09.slc.cpg/sg59_7_cif.got.tgz:12442.got - 2010.04.16 16:29:54.
