data_PCOD8242964
_publ_section_title
;
Structure prediction by ZEFSAII (Michael W. Deem and Ramdas Pophale) SiO2 
 PCOD8242964
Probable space group: P M M N
;
_chemical_formula_sum "Si O2"
_cell_formula_units_Z 64
_cell_length_a 18.688076
_cell_length_b 9.554361
_cell_length_c 18.799572
_cell_angle_alpha 90.000000
_cell_angle_beta 90.000000
_cell_angle_gamma 90.000000
_cell_volume 3356.712920
_symmetry_space_group_name_H-M "P M M N"
_symmetry_group_IT_number 59
_space_group.IT_coordinate_system_code '2'
_symmetry_cell_setting 'orthorhombic'
loop_
_space_group_symop_operation_xyz
x,y,z
1/2-x,1/2-y,z
1/2+x,-y,-z
-x,1/2+y,-z
-x,-y,-z
1/2+x,1/2+y,-z
1/2-x,y,z
x,1/2-y,z
loop_
_atom_site_type_symbol
_atom_site_label
_atom_site_fract_x
_atom_site_fract_y
_atom_site_fract_z
Si Si1 0.831595 0.404121 0.366444
Si Si2 0.170119 0.092448 0.509848
Si Si3 0.967762 0.590497 0.563698
Si Si4 0.427147 0.915648 0.149857
Si Si5 0.030932 0.094435 0.275831
Si Si6 0.875341 0.096397 0.218131
Si Si7 0.585560 0.910225 0.097781
Si Si8 0.833645 0.912101 0.953528
O O1 0.750000 0.389549 0.388159
O O2 0.869133 0.250000 0.366652
O O3 0.866501 0.501122 0.426707
O O4 0.837774 0.470128 0.287829
O O5 0.250000 0.042701 0.488072
O O6 0.172715 0.250000 0.539420
O O7 0.118864 0.080137 0.441819
O O8 0.993941 0.750000 0.553062
O O9 0.985227 0.537918 0.643888
O O10 0.000000 0.500000 0.500000
O O11 0.413971 0.750000 0.156236
O O12 0.501438 0.947257 0.107387
O O13 0.424435 0.982039 0.229552
O O14 0.361293 0.987227 0.108766
O O15 0.067692 0.250000 0.279802
O O16 0.958366 0.110826 0.233455
O O17 0.842535 0.250000 0.201231
O O18 0.863713 0.996812 0.151139
O O19 0.598561 0.750000 0.117188
O O20 0.614880 0.946223 0.020035
O O21 0.750000 0.944179 0.970041
O O22 0.842997 0.750000 0.930970
#
# Coordination Sequence:
#
# PCOD8242964 Si02
#       8
#     8   8   8   8   8   8   8   8
#     4   9  17  29  45  66  95 132 170 205 246 300
#     4   9  18  32  48  68  95 127 165 208 253 302
#     4  10  20  33  52  77 104 135 171 215 262 305
#     4  10  20  35  56  79 103 133 170 213 255 297
#     4   9  18  33  51  72 100 133 169 208 254 309
#     4   9  17  29  46  69  98 131 165 203 246 295
#     4   9  19  34  52  76 104 134 169 207 250 301
#     4  10  21  37  56  78 105 136 169 207 253 306
#
# _framework density 19.066272000000001
#
# number of rings (size 3 to 8) (size 9 to 14) (size 15 to 20)
#    0.000    2.625    0.000    1.500    0.000    4.250 
#    0.000    3.125    0.000    2.250    0.000    0.000 
#    0.000    0.000    0.000    0.000    0.000    0.000 
#
# Total GULP energy -793028.561671 kJ/mol
# GULP energy per Si atom -12391.071276 kJ/mol
# Density = 1.902288 g / cm^3
# Si number density = 19.066272 Si / 1000 Ang^3
#
#
#
# Elastic Constant Matrix: (Units=GPa)
#
#
# Indices 1 2 3 4 5 6 
#
# 1 49.9131 26.3692 28.7551 0.0000 0.0000 0.0000
# 2 26.3692 77.3976 58.3903 0.0000 0.0000 0.0000
# 3 28.7551 58.3903 113.1892 0.0000 0.0000 0.0000
# 4 0.0000 0.0000 0.0000 33.8299 0.0000 0.0000
# 5 0.0000 0.0000 0.0000 0.0000 27.7809 0.0000
# 6 0.0000 0.0000 0.0000 0.0000 0.0000 16.7503
#
#
#
# Elastic Compliance Matrix: (Units=1/GPa)
#
#
# Indices 1 2 3 4 5 6 
#
# 1 0.025130 -0.006132 -0.003221 0.000000 0.000000 0.000000
# 2 -0.006132 0.022648 -0.010126 0.000000 0.000000 0.000000
# 3 -0.003221 -0.010126 0.014877 0.000000 0.000000 0.000000
# 4 0.000000 0.000000 0.000000 0.029560 0.000000 0.000000
# 5 0.000000 0.000000 0.000000 0.000000 0.035996 0.000000
# 6 0.000000 0.000000 0.000000 0.000000 0.000000 0.059700
#
#
# Mechanical properties :
#
#
# Convention : Reuss Voigt Hill
#
# Bulk Modulus (GPa) = 42.19784 51.94767 47.07276
# Shear Modulus (GPa) = 21.29769 24.13790 22.71779
#
# Velocity S-wave (km/s) = 3.34583 3.56195 3.45558
# Velocity P-wave (km/s) = 6.09150 6.64994 6.37683
#
# Compressibility (1/GPa) = 0.02369790
#
# Stress axis : x y z
#
# Youngs Moduli (GPa) = 39.79329 44.15305 67.21980
#
# Poissons Ratio (x) = 0.27074 0.21651
# Poissons Ratio (y) = 0.24400 0.68065
# Poissons Ratio (z) = 0.12817 0.44709
#
# Static dielectric constant tensor:
#      x y z
#    x 3.421120 0.000000 0.000000 
#    y 0.000000 3.716690 0.000000 
#    z 0.000000 0.000000 3.456920 
# 
# 
# High freq. dielectric constant tensor:
#      x y z
#    x 1.727290 0.000000 0.000000 
#    y 0.000000 1.735560 0.000000 
#    z 0.000000 0.000000 1.733360 
# 
# From -- ./inp_files/28237.got.cif
#   From: 2010.03.12/outbox.cif.g09.slc.cpg/sg59_15_cif.got.tgz:28237.got - 2010.04.16 16:29:54.
