data_PCOD8242268
_publ_section_title
;
Structure prediction by ZEFSAII (Michael W. Deem and Ramdas Pophale) SiO2 
 PCOD8242268
Probable space group: P M M N
;
_chemical_formula_sum "Si O2"
_cell_formula_units_Z 64
_cell_length_a 17.360424
_cell_length_b 13.470010
_cell_length_c 13.749793
_cell_angle_alpha 90.000000
_cell_angle_beta 90.000000
_cell_angle_gamma 90.000000
_cell_volume 3215.321511
_symmetry_space_group_name_H-M "P M M N"
_symmetry_group_IT_number 59
_space_group.IT_coordinate_system_code '2'
_symmetry_cell_setting 'orthorhombic'
loop_
_space_group_symop_operation_xyz
x,y,z
1/2-x,1/2-y,z
1/2+x,-y,-z
-x,1/2+y,-z
-x,-y,-z
1/2+x,1/2+y,-z
1/2-x,y,z
x,1/2-y,z
loop_
_atom_site_type_symbol
_atom_site_label
_atom_site_fract_x
_atom_site_fract_y
_atom_site_fract_z
Si Si1 0.444561 0.364085 0.773464
Si Si2 0.161857 0.639194 0.825926
Si Si3 0.336608 0.361574 0.596301
Si Si4 0.339156 0.365240 0.144410
Si Si5 0.838607 0.555052 0.065169
Si Si6 0.161678 0.954148 0.468364
Si Si7 0.433754 0.863974 0.635960
Si Si8 0.066100 0.009371 0.294591
O O1 0.469989 0.250000 0.766449
O O2 0.393710 0.396449 0.680784
O O3 0.394247 0.377748 0.869978
O O4 0.520801 0.431760 0.774154
O O5 0.250000 0.635967 0.791478
O O6 0.139713 0.750000 0.862679
O O7 0.146616 0.561715 0.913057
O O8 0.112510 0.606585 0.733239
O O9 0.250000 0.368875 0.638602
O O10 0.355292 0.250000 0.561170
O O11 0.346373 0.432278 0.503924
O O12 0.250000 0.377666 0.172814
O O13 0.360782 0.250000 0.130667
O O14 0.390119 0.410988 0.229137
O O15 0.358814 0.424611 0.046323
O O16 0.750000 0.584855 0.087068
O O17 0.250000 0.919653 0.462410
O O18 0.118059 0.880687 0.541193
O O19 0.125137 0.947330 0.361222
O O20 0.458735 0.750000 0.638320
O O21 0.509563 0.931398 0.632793
#
# Coordination Sequence:
#
# PCOD8242268 Si02
#       8
#     8   8   8   8   8   8   8   8
#     4  11  22  36  57  88 124 156 192 246 305 360
#     4   9  17  32  57  91 127 160 195 240 298 360
#     4   9  18  33  56  86 118 152 191 240 298 356
#     4  10  23  43  66  90 117 155 204 251 296 353
#     4  10  19  37  64  91 120 157 202 248 294 350
#     4  11  23  40  60  84 113 155 205 246 288 350
#     4  11  22  37  60  90 121 157 197 245 299 356
#     4  12  24  41  58  86 122 161 196 245 306 360
#
# _framework density 19.904698
#
# number of rings (size 3 to 8) (size 9 to 14) (size 15 to 20)
#    0.000    1.625    2.500    2.250    0.000    6.000 
#    0.000    1.875    0.000    1.875    0.000    0.000 
#    0.000    0.000    0.000    0.000    0.000    0.000 
#
# Total GULP energy -793838.952994 kJ/mol
# GULP energy per Si atom -12403.733641 kJ/mol
# Density = 1.985939 g / cm^3
# Si number density = 19.904698 Si / 1000 Ang^3
#
#
#
# Elastic Constant Matrix: (Units=GPa)
#
#
# Indices 1 2 3 4 5 6 
#
# 1 85.1188 33.4824 46.4921 0.0000 0.0000 0.0000
# 2 33.4824 88.0212 31.6594 0.0000 0.0000 0.0000
# 3 46.4921 31.6594 88.6086 0.0000 0.0000 0.0000
# 4 0.0000 0.0000 0.0000 29.9855 0.0000 0.0000
# 5 0.0000 0.0000 0.0000 0.0000 23.0568 0.0000
# 6 0.0000 0.0000 0.0000 0.0000 0.0000 30.6627
#
#
#
# Elastic Compliance Matrix: (Units=1/GPa)
#
#
# Indices 1 2 3 4 5 6 
#
# 1 0.017539 -0.003858 -0.007825 0.000000 0.000000 0.000000
# 2 -0.003858 0.013885 -0.002937 0.000000 0.000000 0.000000
# 3 -0.007825 -0.002937 0.016440 0.000000 0.000000 0.000000
# 4 0.000000 0.000000 0.000000 0.033350 0.000000 0.000000
# 5 0.000000 0.000000 0.000000 0.000000 0.043371 0.000000
# 6 0.000000 0.000000 0.000000 0.000000 0.000000 0.032613
#
#
# Mechanical properties :
#
#
# Convention : Reuss Voigt Hill
#
# Bulk Modulus (GPa) = 53.68676 53.89073 53.78874
# Shear Modulus (GPa) = 25.95449 26.74862 26.35155
#
# Velocity S-wave (km/s) = 3.61493 3.66981 3.64247
# Velocity P-wave (km/s) = 6.66739 6.71490 6.69118
#
# Compressibility (1/GPa) = 0.01862657
#
# Stress axis : x y z
#
# Youngs Moduli (GPa) = 57.01431 72.02222 60.82582
#
# Poissons Ratio (x) = 0.27783 0.47593
# Poissons Ratio (y) = 0.21993 0.17864
# Poissons Ratio (z) = 0.44611 0.21152
#
# Static dielectric constant tensor:
#      x y z
#    x 3.639190 0.000000 0.000000 
#    y 0.000000 3.676320 0.000000 
#    z 0.000000 0.000000 3.348140 
# 
# 
# High freq. dielectric constant tensor:
#      x y z
#    x 1.775870 0.000000 0.000000 
#    y 0.000000 1.784900 0.000000 
#    z 0.000000 0.000000 1.754760 
# 
# From -- ./inp_files/17842.got.cif
#   From: 2010.03.12/outbox.cif.g09.slc.cpg/sg59_9_cif.got.tgz:17842.got - 2010.04.16 16:29:54.
