data_PCOD8242919
_publ_section_title
;
Structure prediction by ZEFSAII (Michael W. Deem and Ramdas Pophale) SiO2 
 PCOD8242919
Probable space group: P M M N
;
_chemical_formula_sum "Si O2"
_cell_formula_units_Z 64
_cell_length_a 18.310079
_cell_length_b 9.178558
_cell_length_c 20.425540
_cell_angle_alpha 90.000000
_cell_angle_beta 90.000000
_cell_angle_gamma 90.000000
_cell_volume 3432.718746
_symmetry_space_group_name_H-M "P M M N"
_symmetry_group_IT_number 59
_space_group.IT_coordinate_system_code '2'
_symmetry_cell_setting 'orthorhombic'
loop_
_space_group_symop_operation_xyz
x,y,z
1/2-x,1/2-y,z
1/2+x,-y,-z
-x,1/2+y,-z
-x,-y,-z
1/2+x,1/2+y,-z
1/2-x,y,z
x,1/2-y,z
loop_
_atom_site_type_symbol
_atom_site_label
_atom_site_fract_x
_atom_site_fract_y
_atom_site_fract_z
Si Si1 0.333943 0.421671 0.246041
Si Si2 0.076125 0.922341 0.503456
Si Si3 0.834454 0.080365 0.003114
Si Si4 0.164525 0.581383 0.770396
Si Si5 0.830407 0.422304 0.376451
Si Si6 0.665553 0.417359 0.623616
Si Si7 0.086911 0.918888 0.130733
Si Si8 0.418365 0.079050 0.882723
O O1 0.250000 0.466664 0.232090
O O2 0.343913 0.250000 0.248270
O O3 0.360068 0.485539 0.315389
O O4 0.385725 0.485082 0.190574
O O5 0.065401 0.750000 0.507216
O O6 0.115501 0.984158 0.568579
O O7 0.122140 0.968409 0.440173
O O8 0.000000 0.000000 0.500000
O O9 0.750000 0.034633 0.007383
O O10 0.844998 0.250000 0.019085
O O11 0.880318 0.990032 0.054745
O O12 0.863572 0.041900 0.931379
O O13 0.250000 0.551322 0.782692
O O14 0.146954 0.750000 0.784724
O O15 0.142020 0.538073 0.696395
O O16 0.116247 0.481619 0.816579
O O17 0.750000 0.490013 0.387925
O O18 0.824349 0.250000 0.383238
O O19 0.750000 0.442305 0.607377
O O20 0.649301 0.250000 0.641266
O O21 0.094814 0.750000 0.149837
O O22 0.003680 0.960225 0.114958
O O23 0.404995 0.250000 0.885026
#
# Coordination Sequence:
#
# PCOD8242919 Si02
#       8
#     8   8   8   8   8   8   8   8
#     4  10  21  36  56  83 110 137 175 223 270 314
#     4  10  20  33  51  77 107 137 172 216 266 317
#     4  10  21  38  60  81 102 136 181 222 261 311
#     4   9  18  34  56  79 103 136 178 219 261 313
#     4   8  15  31  55  77  96 127 176 223 254 293
#     4   9  18  34  56  78 103 141 184 221 260 314
#     4  10  22  39  57  79 109 145 180 213 257 315
#     4  11  23  36  53  80 112 142 173 214 263 313
#
# _framework density 18.644113000000001
#
# number of rings (size 3 to 8) (size 9 to 14) (size 15 to 20)
#    0.000    2.375    0.000    3.000    0.000    7.750 
#    0.000    3.125    0.000    1.875    0.000    0.000 
#    0.000    0.000    0.000    0.000    0.000    0.000 
#
# Total GULP energy -793725.833263 kJ/mol
# GULP energy per Si atom -12401.966145 kJ/mol
# Density = 1.860168 g / cm^3
# Si number density = 18.644113 Si / 1000 Ang^3
#
#
#
# Elastic Constant Matrix: (Units=GPa)
#
#
# Indices 1 2 3 4 5 6 
#
# 1 89.7485 48.4590 54.0203 0.0000 0.0000 0.0000
# 2 48.4590 61.8235 56.7112 0.0000 0.0000 0.0000
# 3 54.0203 56.7112 120.3019 0.0000 0.0000 0.0000
# 4 0.0000 0.0000 0.0000 16.6955 0.0000 0.0000
# 5 0.0000 0.0000 0.0000 0.0000 3.7518 0.0000
# 6 0.0000 0.0000 0.0000 0.0000 0.0000 31.9829
#
#
#
# Elastic Compliance Matrix: (Units=1/GPa)
#
#
# Indices 1 2 3 4 5 6 
#
# 1 0.019832 -0.012995 -0.002779 0.000000 0.000000 0.000000
# 2 -0.012995 0.037014 -0.011613 0.000000 0.000000 0.000000
# 3 -0.002779 -0.011613 0.015035 0.000000 0.000000 0.000000
# 4 0.000000 0.000000 0.000000 0.059896 0.000000 0.000000
# 5 0.000000 0.000000 0.000000 0.000000 0.266537 0.000000
# 6 0.000000 0.000000 0.000000 0.000000 0.000000 0.031267
#
#
# Mechanical properties :
#
#
# Convention : Reuss Voigt Hill
#
# Bulk Modulus (GPa) = 58.46151 65.58386 62.02269
# Shear Modulus (GPa) = 10.20287 17.99828 14.10058
#
# Velocity S-wave (km/s) = 2.34186 3.11039 2.75308
# Velocity P-wave (km/s) = 6.22391 6.93920 6.59126
#
# Compressibility (1/GPa) = 0.01710527
#
# Stress axis : x y z
#
# Youngs Moduli (GPa) = 50.42417 27.01668 66.51156
#
# Poissons Ratio (x) = 0.35109 0.18484
# Poissons Ratio (y) = 0.65528 0.77242
# Poissons Ratio (z) = 0.14014 0.31375
#
# Static dielectric constant tensor:
#      x y z
#    x 3.502140 0.000000 0.000000 
#    y 0.000000 3.249120 0.000000 
#    z 0.000000 0.000000 3.632390 
# 
# 
# High freq. dielectric constant tensor:
#      x y z
#    x 1.726740 0.000000 0.000000 
#    y 0.000000 1.705850 0.000000 
#    z 0.000000 0.000000 1.739720 
# 
# From -- ./inp_files/30777.got.cif
#   From: 2010.03.12/outbox.cif.g09.slc.cpg/sg59_16_cif.got.tgz:30777.got - 2010.04.16 16:29:54.
