data_PCOD8242985
_publ_section_title
;
Structure prediction by ZEFSAII (Michael W. Deem and Ramdas Pophale) SiO2 
 PCOD8242985
Probable space group: P M M N
;
_chemical_formula_sum "Si O2"
_cell_formula_units_Z 64
_cell_length_a 18.756671
_cell_length_b 9.017323
_cell_length_c 20.059834
_cell_angle_alpha 90.000000
_cell_angle_beta 90.000000
_cell_angle_gamma 90.000000
_cell_volume 3392.819237
_symmetry_space_group_name_H-M "P M M N"
_symmetry_group_IT_number 59
_space_group.IT_coordinate_system_code '2'
_symmetry_cell_setting 'orthorhombic'
loop_
_space_group_symop_operation_xyz
x,y,z
1/2-x,1/2-y,z
1/2+x,-y,-z
-x,1/2+y,-z
-x,-y,-z
1/2+x,1/2+y,-z
1/2-x,y,z
x,1/2-y,z
loop_
_atom_site_type_symbol
_atom_site_label
_atom_site_fract_x
_atom_site_fract_y
_atom_site_fract_z
Si Si1 0.428863 0.573909 0.528535
Si Si2 0.666799 0.922508 0.573491
Si Si3 0.571694 0.425778 0.320004
Si Si4 0.435135 0.576065 0.914224
Si Si5 0.330473 0.926644 0.798333
Si Si6 0.167891 0.079067 0.168209
Si Si7 0.420501 0.923366 0.066179
Si Si8 0.914317 0.926311 0.704024
O O1 0.500000 0.500000 0.500000
O O2 0.437624 0.750000 0.523637
O O3 0.360113 0.518460 0.488662
O O4 0.414538 0.522359 0.604494
O O5 0.750000 0.949786 0.583177
O O6 0.649273 0.750000 0.560675
O O7 0.626779 0.983764 0.638750
O O8 0.570344 0.250000 0.316164
O O9 0.632370 0.486502 0.269638
O O10 0.494908 0.487006 0.296520
O O11 0.447749 0.750000 0.904629
O O12 0.375630 0.517690 0.862346
O O13 0.510275 0.497756 0.900342
O O14 0.410277 0.535406 0.988700
O O15 0.250000 0.990944 0.802331
O O16 0.327924 0.750000 0.798148
O O17 0.250000 0.058498 0.185513
O O18 0.148637 0.250000 0.154852
O O19 0.124023 0.012128 0.230238
O O20 0.149206 0.985430 0.102655
O O21 0.427529 0.750000 0.076496
O O22 0.910904 0.750000 0.704211
#
# Coordination Sequence:
#
# PCOD8242985 Si02
#       8
#     8   8   8   8   8   8   8   8
#     4  11  21  35  55  80 110 142 177 218 268 326
#     4  10  20  35  56  80 106 139 180 225 273 324
#     4   9  17  29  51  78 103 133 171 219 265 307
#     4   9  18  34  56  78 102 137 179 222 264 316
#     4   9  17  30  51  80 107 132 172 224 269 310
#     4  10  20  33  52  78 106 139 178 217 258 311
#     4  10  20  33  52  78 107 139 176 220 271 320
#     4   9  16  31  54  77 100 133 181 225 260 306
#
# _framework density 18.863368999999999
#
# number of rings (size 3 to 8) (size 9 to 14) (size 15 to 20)
#    0.000    2.375    1.250    1.875    0.000    5.500 
#    0.000    3.125    0.000    2.625    0.000    0.000 
#    0.000    0.000    0.000    0.000    0.000    0.000 
#
# Total GULP energy -793612.961046 kJ/mol
# GULP energy per Si atom -12400.202516 kJ/mol
# Density = 1.882043 g / cm^3
# Si number density = 18.863369 Si / 1000 Ang^3
#
#
#
# Elastic Constant Matrix: (Units=GPa)
#
#
# Indices 1 2 3 4 5 6 
#
# 1 119.4005 21.5863 71.5458 0.0000 0.0000 0.0000
# 2 21.5863 29.1399 28.9047 0.0000 0.0000 0.0000
# 3 71.5458 28.9047 141.6646 0.0000 0.0000 0.0000
# 4 0.0000 0.0000 0.0000 24.5053 0.0000 0.0000
# 5 0.0000 0.0000 0.0000 0.0000 34.9099 0.0000
# 6 0.0000 0.0000 0.0000 0.0000 0.0000 23.4893
#
#
#
# Elastic Compliance Matrix: (Units=1/GPa)
#
#
# Indices 1 2 3 4 5 6 
#
# 1 0.012320 -0.003704 -0.005466 0.000000 0.000000 0.000000
# 2 -0.003704 0.044139 -0.007135 0.000000 0.000000 0.000000
# 3 -0.005466 -0.007135 0.011275 0.000000 0.000000 0.000000
# 4 0.000000 0.000000 0.000000 0.040807 0.000000 0.000000
# 5 0.000000 0.000000 0.000000 0.000000 0.028645 0.000000
# 6 0.000000 0.000000 0.000000 0.000000 0.000000 0.042573
#
#
# Mechanical properties :
#
#
# Convention : Reuss Voigt Hill
#
# Bulk Modulus (GPa) = 28.47145 59.36429 43.91787
# Shear Modulus (GPa) = 22.31352 27.79212 25.05282
#
# Velocity S-wave (km/s) = 3.44307 3.84257 3.64829
# Velocity P-wave (km/s) = 5.56170 7.15724 6.40932
#
# Compressibility (1/GPa) = 0.03512290
#
# Stress axis : x y z
#
# Youngs Moduli (GPa) = 81.16607 22.65580 88.68822
#
# Poissons Ratio (x) = 0.08393 0.48481
# Poissons Ratio (y) = 0.30068 0.63279
# Poissons Ratio (z) = 0.44369 0.16165
#
# Static dielectric constant tensor:
#      x y z
#    x 3.573260 0.000000 0.000000 
#    y 0.000000 3.080940 0.000000 
#    z 0.000000 0.000000 3.720200 
# 
# 
# High freq. dielectric constant tensor:
#      x y z
#    x 1.737140 0.000000 0.000000 
#    y 0.000000 1.686600 0.000000 
#    z 0.000000 0.000000 1.747240 
# 
# From -- ./inp_files/30829.got.cif
#   From: 2010.03.12/outbox.cif.g09.slc.cpg/sg59_16_cif.got.tgz:30829.got - 2010.04.16 16:29:54.
