data_PCOD8242348
_publ_section_title
;
Structure prediction by ZEFSAII (Michael W. Deem and Ramdas Pophale) SiO2 
 PCOD8242348
Probable space group: P M M N
;
_chemical_formula_sum "Si O2"
_cell_formula_units_Z 56
_cell_length_a 9.146252
_cell_length_b 15.973321
_cell_length_c 20.835871
_cell_angle_alpha 90.000000
_cell_angle_beta 90.000000
_cell_angle_gamma 90.000000
_cell_volume 3044.037808
_symmetry_space_group_name_H-M "P M M N"
_symmetry_group_IT_number 59
_space_group.IT_coordinate_system_code '2'
_symmetry_cell_setting 'orthorhombic'
loop_
_space_group_symop_operation_xyz
x,y,z
1/2-x,1/2-y,z
1/2+x,-y,-z
-x,1/2+y,-z
-x,-y,-z
1/2+x,1/2+y,-z
1/2-x,y,z
x,1/2-y,z
loop_
_atom_site_type_symbol
_atom_site_label
_atom_site_fract_x
_atom_site_fract_y
_atom_site_fract_z
Si Si1 0.421467 0.845145 0.417780
Si Si2 0.411818 0.513899 0.102292
Si Si3 0.078214 0.750000 0.943654
Si Si4 0.589563 0.889173 0.012919
Si Si5 0.420546 0.567987 0.781549
Si Si6 0.923242 0.342683 0.435377
Si Si7 0.078644 0.499652 0.644659
Si Si8 0.921121 0.250000 0.198158
O O1 0.250000 0.860294 0.409529
O O2 0.461896 0.750000 0.396368
O O3 0.469491 0.858909 0.491285
O O4 0.504636 0.912726 0.374792
O O5 0.250000 0.545852 0.123841
O O6 0.525069 0.587307 0.083348
O O7 0.480598 0.460415 0.159537
O O8 0.391624 0.464991 0.036043
O O9 0.250000 0.750000 0.939722
O O10 0.006556 0.750000 0.872721
O O11 0.028007 0.670230 0.981854
O O12 0.750000 0.848241 0.024087
O O13 0.250000 0.562337 0.801231
O O14 0.453761 0.511778 0.719772
O O15 0.464822 0.664685 0.764673
O O16 0.750000 0.341056 0.428514
O O17 0.981974 0.250000 0.413589
O O18 0.987182 0.419355 0.393118
O O19 0.250000 0.492340 0.630372
O O20 0.750000 0.250000 0.187988
#
# Coordination Sequence:
#
# PCOD8242348 Si02
#       8
#     8   8   4   8   8   8   8   4
#     4   9  18  34  55  75 101 140 182 224 272 322
#     4  10  20  34  52  74  99 133 172 210 253 306
#     4  11  19  31  53  79 105 135 170 209 256 313
#     4  10  20  33  52  76 103 131 166 213 260 303
#     4  10  20  34  51  75 106 140 174 210 260 315
#     4   8  15  29  50  79 111 142 177 217 263 319
#     4  10  20  31  52  82 109 139 178 224 268 315
#     4   9  18  31  49  73 105 141 172 203 246 313
#
# _framework density 18.396618
#
# number of rings (size 3 to 8) (size 9 to 14) (size 15 to 20)
#    0.000    2.429    1.429    2.357    1.000    2.000 
#    0.000    0.357    1.571    1.286    0.000    0.000 
#    0.000    0.000    0.000    0.000    0.000    0.000 
#
# Total GULP energy -693900.567099 kJ/mol
# GULP energy per Si atom -12391.081555 kJ/mol
# Density = 1.835475 g / cm^3
# Si number density = 18.396618 Si / 1000 Ang^3
#
#
#
# Elastic Constant Matrix: (Units=GPa)
#
#
# Indices 1 2 3 4 5 6 
#
# 1 71.9803 34.5382 37.7791 0.0000 0.0000 0.0000
# 2 34.5382 103.0815 46.8205 0.0000 0.0000 0.0000
# 3 37.7791 46.8205 73.5622 0.0000 0.0000 0.0000
# 4 0.0000 0.0000 0.0000 29.0903 0.0000 0.0000
# 5 0.0000 0.0000 0.0000 0.0000 20.5101 0.0000
# 6 0.0000 0.0000 0.0000 0.0000 0.0000 28.8412
#
#
#
# Elastic Compliance Matrix: (Units=1/GPa)
#
#
# Indices 1 2 3 4 5 6 
#
# 1 0.019579 -0.002803 -0.008271 0.000000 0.000000 0.000000
# 2 -0.002803 0.014047 -0.007501 0.000000 0.000000 0.000000
# 3 -0.008271 -0.007501 0.022616 0.000000 0.000000 0.000000
# 4 0.000000 0.000000 0.000000 0.034376 0.000000 0.000000
# 5 0.000000 0.000000 0.000000 0.000000 0.048757 0.000000
# 6 0.000000 0.000000 0.000000 0.000000 0.000000 0.034673
#
#
# Mechanical properties :
#
#
# Convention : Reuss Voigt Hill
#
# Bulk Modulus (GPa) = 52.37922 54.09994 53.23958
# Shear Modulus (GPa) = 22.98206 24.32074 23.65140
#
# Velocity S-wave (km/s) = 3.53831 3.63991 3.58947
# Velocity P-wave (km/s) = 6.72509 6.86561 6.79572
#
# Compressibility (1/GPa) = 0.01909154
#
# Stress axis : x y z
#
# Youngs Moduli (GPa) = 51.07578 71.18753 44.21693
#
# Poissons Ratio (x) = 0.19956 0.36571
# Poissons Ratio (y) = 0.14318 0.33168
# Poissons Ratio (z) = 0.42243 0.53398
#
# Static dielectric constant tensor:
#      x y z
#    x 3.346140 0.000000 0.000000 
#    y 0.000000 3.409910 0.000000 
#    z 0.000000 0.000000 3.247050 
# 
# 
# High freq. dielectric constant tensor:
#      x y z
#    x 1.694480 0.000000 0.000000 
#    y 0.000000 1.709900 0.000000 
#    z 0.000000 0.000000 1.698080 
# 
# From -- ./inp_files/29259.got.cif
#   From: 2010.03.12/outbox.cif.g09.slc.cpg/sg59_15_cif.got.tgz:29259.got - 2010.04.16 16:29:54.
