data_PCOD8242792
_publ_section_title
;
Structure prediction by ZEFSAII (Michael W. Deem and Ramdas Pophale) SiO2 
 PCOD8242792
Probable space group: P M M N
;
_chemical_formula_sum "Si O2"
_cell_formula_units_Z 56
_cell_length_a 18.473991
_cell_length_b 8.838419
_cell_length_c 19.260816
_cell_angle_alpha 90.000000
_cell_angle_beta 90.000000
_cell_angle_gamma 90.000000
_cell_volume 3144.922852
_symmetry_space_group_name_H-M "P M M N"
_symmetry_group_IT_number 59
_space_group.IT_coordinate_system_code '2'
_symmetry_cell_setting 'orthorhombic'
loop_
_space_group_symop_operation_xyz
x,y,z
1/2-x,1/2-y,z
1/2+x,-y,-z
-x,1/2+y,-z
-x,-y,-z
1/2+x,1/2+y,-z
1/2-x,y,z
x,1/2-y,z
loop_
_atom_site_type_symbol
_atom_site_label
_atom_site_fract_x
_atom_site_fract_y
_atom_site_fract_z
Si Si1 0.394198 0.572089 0.772177
Si Si2 0.967405 0.069399 0.431061
Si Si3 0.332958 0.427055 0.638454
Si Si4 0.663870 0.418291 0.935864
Si Si5 0.830897 0.929223 0.796959
Si Si6 0.330477 0.569811 0.914465
Si Si7 0.541965 0.927068 0.706167
O O1 0.377920 0.750000 0.763907
O O2 0.344317 0.486988 0.716473
O O3 0.377963 0.512138 0.849708
O O4 0.477944 0.534298 0.759561
O O5 0.964807 0.250000 0.435578
O O6 0.020882 0.010579 0.369737
O O7 0.886141 0.010928 0.415946
O O8 0.000000 0.000000 0.500000
O O9 0.250000 0.459297 0.616177
O O10 0.350479 0.250000 0.636215
O O11 0.750000 0.413302 0.940891
O O12 0.633294 0.250000 0.922162
O O13 0.638751 0.523682 0.872488
O O14 0.636269 0.483109 0.010815
O O15 0.750000 0.994045 0.783928
O O16 0.830491 0.750000 0.794778
O O17 0.883621 0.996920 0.737073
O O18 0.250000 0.503583 0.903902
O O19 0.327513 0.750000 0.915908
O O20 0.552751 0.750000 0.699370
#
# Coordination Sequence:
#
# PCOD8242792 Si02
#       7
#     8   8   8   8   8   8   8
#     4   9  16  28  47  67  90 123 161 199 237 281
#     4  10  20  36  57  77 100 130 161 195 239 291
#     4  10  20  33  50  75 105 133 162 197 236 281
#     4   8  14  25  40  59  84 113 148 192 238 281
#     4   9  16  28  46  64  84 115 155 194 231 277
#     4   8  13  22  39  62  85 113 152 193 233 281
#     4   8  16  30  47  68  91 117 151 189 231 280
#
# _framework density 17.806477999999998
#
# number of rings (size 3 to 8) (size 9 to 14) (size 15 to 20)
#    0.000    3.143    0.000    3.000    0.000    1.714 
#    0.000    5.714    0.000    5.143    0.000    0.000 
#    0.000    0.000    0.000    0.000    0.000    0.000 
#
# Total GULP energy -693896.950869 kJ/mol
# GULP energy per Si atom -12391.016980 kJ/mol
# Density = 1.776595 g / cm^3
# Si number density = 17.806478 Si / 1000 Ang^3
#
#
#
# Elastic Constant Matrix: (Units=GPa)
#
#
# Indices 1 2 3 4 5 6 
#
# 1 99.1603 33.2886 82.2680 0.0000 0.0000 0.0000
# 2 33.2886 44.0944 31.7276 0.0000 0.0000 0.0000
# 3 82.2680 31.7276 149.4760 0.0000 0.0000 0.0000
# 4 0.0000 0.0000 0.0000 27.0840 0.0000 0.0000
# 5 0.0000 0.0000 0.0000 0.0000 28.6194 0.0000
# 6 0.0000 0.0000 0.0000 0.0000 0.0000 17.0863
#
#
#
# Elastic Compliance Matrix: (Units=1/GPa)
#
#
# Indices 1 2 3 4 5 6 
#
# 1 0.021197 -0.008979 -0.009760 0.000000 0.000000 0.000000
# 2 -0.008979 0.030570 -0.001547 0.000000 0.000000 0.000000
# 3 -0.009760 -0.001547 0.012390 0.000000 0.000000 0.000000
# 4 0.000000 0.000000 0.000000 0.036922 0.000000 0.000000
# 5 0.000000 0.000000 0.000000 0.000000 0.034941 0.000000
# 6 0.000000 0.000000 0.000000 0.000000 0.000000 0.058526
#
#
# Mechanical properties :
#
#
# Convention : Reuss Voigt Hill
#
# Bulk Modulus (GPa) = 42.40065 65.25544 53.82805
# Shear Modulus (GPa) = 20.57773 24.25438 22.41606
#
# Velocity S-wave (km/s) = 3.40315 3.69468 3.55191
# Velocity P-wave (km/s) = 6.26941 7.41131 6.86414
#
# Compressibility (1/GPa) = 0.02358454
#
# Stress axis : x y z
#
# Youngs Moduli (GPa) = 47.17750 32.71130 80.70944
#
# Poissons Ratio (x) = 0.29372 0.78774
# Poissons Ratio (y) = 0.42362 0.12485
# Poissons Ratio (z) = 0.46046 0.05060
#
# Static dielectric constant tensor:
#      x y z
#    x 3.413510 0.000000 0.000000 
#    y 0.000000 3.051900 0.000000 
#    z 0.000000 0.000000 3.651920 
# 
# 
# High freq. dielectric constant tensor:
#      x y z
#    x 1.671510 0.000000 0.000000 
#    y 0.000000 1.659800 0.000000 
#    z 0.000000 0.000000 1.691270 
# 
# From -- ./inp_files/28117.got.cif
#   From: 2010.03.12/outbox.cif.g09.slc.cpg/sg59_15_cif.got.tgz:28117.got - 2010.04.16 16:29:54.
