data_PCOD8242408
_publ_section_title
;
Structure prediction by ZEFSAII (Michael W. Deem and Ramdas Pophale) SiO2 
 PCOD8242408
Probable space group: P M M N
;
_chemical_formula_sum "Si O2"
_cell_formula_units_Z 64
_cell_length_a 14.672116
_cell_length_b 9.306367
_cell_length_c 23.246978
_cell_angle_alpha 90.000000
_cell_angle_beta 90.000000
_cell_angle_gamma 90.000000
_cell_volume 3174.237600
_symmetry_space_group_name_H-M "P M M N"
_symmetry_group_IT_number 59
_space_group.IT_coordinate_system_code '2'
_symmetry_cell_setting 'orthorhombic'
loop_
_space_group_symop_operation_xyz
x,y,z
1/2-x,1/2-y,z
1/2+x,-y,-z
-x,1/2+y,-z
-x,-y,-z
1/2+x,1/2+y,-z
1/2-x,y,z
x,1/2-y,z
loop_
_atom_site_type_symbol
_atom_site_label
_atom_site_fract_x
_atom_site_fract_y
_atom_site_fract_z
Si Si1 0.601594 0.407295 0.316666
Si Si2 0.983473 0.917606 0.083719
Si Si3 0.403403 0.090828 0.369837
Si Si4 0.971213 0.419107 0.195417
Si Si5 0.648195 0.594348 0.416210
Si Si6 0.641365 0.087563 0.520726
Si Si7 0.152377 0.419144 0.250525
Si Si8 0.357391 0.083055 0.024615
O O1 0.648593 0.250000 0.321292
O O2 0.504006 0.398328 0.345623
O O3 0.595431 0.450793 0.249357
O O4 0.656411 0.524553 0.352808
O O5 0.002657 0.750000 0.093209
O O6 0.940202 0.989698 0.140527
O O7 0.903910 0.942650 0.037179
O O8 0.081052 0.991646 0.069048
O O9 0.368576 0.250000 0.388766
O O10 0.345503 0.024865 0.316589
O O11 0.400157 0.983623 0.422798
O O12 0.971815 0.250000 0.180385
O O13 0.071841 0.480993 0.211370
O O14 0.750000 0.619470 0.438147
O O15 0.598148 0.750000 0.412919
O O16 0.601034 0.492463 0.464021
O O17 0.750000 0.082130 0.523585
O O18 0.605821 0.250000 0.516948
O O19 0.250000 0.455982 0.221569
O O20 0.134286 0.250000 0.255490
O O21 0.250000 0.034760 0.024079
O O22 0.363637 0.250000 0.042575
#
# Coordination Sequence:
#
# PCOD8242408 Si02
#       8
#     8   8   8   8   8   8   8   8
#     4   9  19  35  53  73  98 129 166 206 248 297
#     4  10  20  34  55  84 115 144 178 225 272 308
#     4   9  17  30  49  71  94 123 160 202 248 299
#     4   9  18  33  52  75 105 141 177 208 247 305
#     4  10  21  36  53  71  90 118 160 208 258 311
#     4  10  20  32  47  69  96 125 157 197 250 309
#     4   8  14  26  46  70  95 128 170 209 243 290
#     4   9  19  37  59  81 109 149 189 220 259 314
#
# _framework density 20.162320999999999
#
# number of rings (size 3 to 8) (size 9 to 14) (size 15 to 20)
#    0.000    2.750    0.000    3.000    0.000    4.750 
#    0.000    3.750    0.000    3.000    0.000    0.000 
#    0.000    0.000    0.000    0.000    0.000    0.000 
#
# Total GULP energy -793019.501222 kJ/mol
# GULP energy per Si atom -12390.929707 kJ/mol
# Density = 2.011643 g / cm^3
# Si number density = 20.162321 Si / 1000 Ang^3
#
#
#
# Elastic Constant Matrix: (Units=GPa)
#
#
# Indices 1 2 3 4 5 6 
#
# 1 45.2248 11.9619 2.0316 0.0000 0.0000 0.0000
# 2 11.9619 115.6024 63.4124 0.0000 0.0000 0.0000
# 3 2.0316 63.4124 119.3425 0.0000 0.0000 0.0000
# 4 0.0000 0.0000 0.0000 35.9761 0.0000 0.0000
# 5 0.0000 0.0000 0.0000 0.0000 11.6999 0.0000
# 6 0.0000 0.0000 0.0000 0.0000 0.0000 16.4096
#
#
#
# Elastic Compliance Matrix: (Units=1/GPa)
#
#
# Indices 1 2 3 4 5 6 
#
# 1 0.022860 -0.003037 0.001225 0.000000 0.000000 0.000000
# 2 -0.003037 0.012612 -0.006650 0.000000 0.000000 0.000000
# 3 0.001225 -0.006650 0.011892 0.000000 0.000000 0.000000
# 4 0.000000 0.000000 0.000000 0.027796 0.000000 0.000000
# 5 0.000000 0.000000 0.000000 0.000000 0.085471 0.000000
# 6 0.000000 0.000000 0.000000 0.000000 0.000000 0.060940
#
#
# Mechanical properties :
#
#
# Convention : Reuss Voigt Hill
#
# Bulk Modulus (GPa) = 32.85214 48.33128 40.59171
# Shear Modulus (GPa) = 20.10922 26.33471 23.22197
#
# Velocity S-wave (km/s) = 3.16154 3.61797 3.39743
# Velocity P-wave (km/s) = 5.44576 6.44019 5.96374
#
# Compressibility (1/GPa) = 0.03043941
#
# Stress axis : x y z
#
# Youngs Moduli (GPa) = 43.74439 79.28769 84.09179
#
# Poissons Ratio (x) = 0.24081 -0.10298
# Poissons Ratio (y) = 0.13286 0.55920
# Poissons Ratio (z) = -0.05357 0.52725
#
# Static dielectric constant tensor:
#      x y z
#    x 3.615890 0.000000 0.000000 
#    y 0.000000 3.839020 0.000000 
#    z 0.000000 0.000000 3.714200 
# 
# 
# High freq. dielectric constant tensor:
#      x y z
#    x 1.774240 0.000000 0.000000 
#    y 0.000000 1.768430 0.000000 
#    z 0.000000 0.000000 1.785240 
# 
# From -- ./inp_files/32260.got.cif
#   From: 2010.03.12/outbox.cif.g09.slc.cpg/sg59_17_cif.got.tgz:32260.got - 2010.04.16 16:29:54.
