data_PCOD8242143
_publ_section_title
;
Structure prediction by ZEFSAII (Michael W. Deem and Ramdas Pophale) SiO2 
 PCOD8242143
Probable space group: P M M N
;
_chemical_formula_sum "Si O2"
_cell_formula_units_Z 40
_cell_length_a 8.743455
_cell_length_b 9.554451
_cell_length_c 24.104973
_cell_angle_alpha 90.000000
_cell_angle_beta 90.000000
_cell_angle_gamma 90.000000
_cell_volume 2013.703227
_symmetry_space_group_name_H-M "P M M N"
_symmetry_group_IT_number 59
_space_group.IT_coordinate_system_code '2'
_symmetry_cell_setting 'orthorhombic'
loop_
_space_group_symop_operation_xyz
x,y,z
1/2-x,1/2-y,z
1/2+x,-y,-z
-x,1/2+y,-z
-x,-y,-z
1/2+x,1/2+y,-z
1/2-x,y,z
x,1/2-y,z
loop_
_atom_site_type_symbol
_atom_site_label
_atom_site_fract_x
_atom_site_fract_y
_atom_site_fract_z
Si Si1 0.931756 0.517347 0.627703
Si Si2 0.068575 0.587766 0.149890
Si Si3 0.431017 0.096662 0.250976
Si Si4 0.429464 0.250000 0.579610
Si Si5 0.568680 0.412981 0.050442
Si Si6 0.568803 0.750000 0.544007
O O1 0.750000 0.499321 0.627949
O O2 0.992474 0.570647 0.687064
O O3 0.988348 0.616652 0.578183
O O4 0.015297 0.375170 0.616762
O O5 0.250000 0.576292 0.141290
O O6 0.016044 0.750000 0.145381
O O7 0.015466 0.526028 0.209367
O O8 0.986220 0.490215 0.105536
O O9 0.250000 0.098174 0.252871
O O10 0.490530 0.250000 0.231032
O O11 0.250000 0.250000 0.572866
O O12 0.503822 0.250000 0.517685
O O13 0.750000 0.418746 0.046480
O O14 0.513429 0.250000 0.049377
O O15 0.500000 0.500000 0.000000
O O16 0.750000 0.750000 0.540962
#
# Coordination Sequence:
#
# PCOD8242143 Si02
#       6
#     8   8   8   4   8   4
#     4  10  19  35  59  82 104 141 191 237 281 338
#     4  10  21  36  58  90 122 149 184 234 289 342
#     4   9  17  32  57  85 110 140 186 240 287 332
#     4  11  23  35  49  77 117 149 178 227 290 347
#     4  11  24  41  62  89 121 158 199 238 277 327
#     4   9  18  35  57  81 107 139 186 239 284 337
#
# _framework density 19.863902
#
# number of rings (size 3 to 8) (size 9 to 14) (size 15 to 20)
#    0.000    2.000    1.000    2.700    1.400    5.200 
#    0.000    2.500    0.000    1.200    0.000    0.000 
#    0.000    0.000    0.000    0.000    0.000    0.000 
#
# Total GULP energy -495840.261359 kJ/mol
# GULP energy per Si atom -12396.006534 kJ/mol
# Density = 1.981869 g / cm^3
# Si number density = 19.863902 Si / 1000 Ang^3
#
#
#
# Elastic Constant Matrix: (Units=GPa)
#
#
# Indices 1 2 3 4 5 6 
#
# 1 32.1254 32.6079 21.9814 0.0000 0.0000 0.0000
# 2 32.6079 187.4014 69.4997 0.0000 0.0000 0.0000
# 3 21.9814 69.4997 128.4660 0.0000 0.0000 0.0000
# 4 0.0000 0.0000 0.0000 43.1198 0.0000 0.0000
# 5 0.0000 0.0000 0.0000 0.0000 24.9861 0.0000
# 6 0.0000 0.0000 0.0000 0.0000 0.0000 330.2074
#
#
#
# Elastic Compliance Matrix: (Units=1/GPa)
#
#
# Indices 1 2 3 4 5 6 
#
# 1 0.039217 -0.005423 -0.003776 0.000000 0.000000 0.000000
# 2 -0.005423 0.007425 -0.003089 0.000000 0.000000 0.000000
# 3 -0.003776 -0.003089 0.010102 0.000000 0.000000 0.000000
# 4 0.000000 0.000000 0.000000 0.023191 0.000000 0.000000
# 5 0.000000 0.000000 0.000000 0.000000 0.040022 0.000000
# 6 0.000000 0.000000 0.000000 0.000000 0.000000 0.003028
#
#
# Mechanical properties :
#
#
# Convention : Reuss Voigt Hill
#
# Bulk Modulus (GPa) = 31.08858 66.24122 48.66490
# Shear Modulus (GPa) = 31.58862 94.58957 63.08909
#
# Velocity S-wave (km/s) = 3.99212 6.90813 5.64177
# Velocity P-wave (km/s) = 6.07735 9.85137 8.18485
#
# Compressibility (1/GPa) = 0.03216616
#
# Stress axis : x y z
#
# Youngs Moduli (GPa) = 25.49945 134.67212 98.99476
#
# Poissons Ratio (x) = 0.73036 0.37383
# Poissons Ratio (y) = 0.13829 0.30581
# Poissons Ratio (z) = 0.09629 0.41603
#
# Static dielectric constant tensor:
#      x y z
#    x 3.250310 0.000000 0.000000 
#    y 0.000000 3.934430 0.000000 
#    z 0.000000 0.000000 4.167630 
# 
# 
# High freq. dielectric constant tensor:
#      x y z
#    x 1.733610 0.000000 0.000000 
#    y 0.000000 1.793970 0.000000 
#    z 0.000000 0.000000 1.791700 
# 
# From -- ./inp_files/32411.got.cif
#   From: 2010.03.12/outbox.cif.g09.slc.cpg/sg59_17_cif.got.tgz:32411.got - 2010.04.16 16:29:54.
