data_PCOD8242787
_publ_section_title
;
Structure prediction by ZEFSAII (Michael W. Deem and Ramdas Pophale) SiO2 
 PCOD8242787
Probable space group: P M M N
;
_chemical_formula_sum "Si O2"
_cell_formula_units_Z 64
_cell_length_a 14.648364
_cell_length_b 26.809084
_cell_length_c 8.978176
_cell_angle_alpha 90.000000
_cell_angle_beta 90.000000
_cell_angle_gamma 90.000000
_cell_volume 3525.812502
_symmetry_space_group_name_H-M "P M M N"
_symmetry_group_IT_number 59
_space_group.IT_coordinate_system_code '2'
_symmetry_cell_setting 'orthorhombic'
loop_
_space_group_symop_operation_xyz
x,y,z
1/2-x,1/2-y,z
1/2+x,-y,-z
-x,1/2+y,-z
-x,-y,-z
1/2+x,1/2+y,-z
1/2-x,y,z
x,1/2-y,z
loop_
_atom_site_type_symbol
_atom_site_label
_atom_site_fract_x
_atom_site_fract_y
_atom_site_fract_z
Si Si1 0.645712 0.535457 0.203253
Si Si2 0.454000 0.393959 0.200293
Si Si3 0.649100 0.691323 0.289472
Si Si4 0.932090 0.038742 0.421205
Si Si5 0.354304 0.487561 0.118269
Si Si6 0.643764 0.692354 0.628360
Si Si7 0.643062 0.080894 0.708373
Si Si8 0.482956 0.376701 0.860540
O O1 0.750000 0.554393 0.188567
O O2 0.639784 0.495971 0.335467
O O3 0.579729 0.582407 0.224796
O O4 0.613498 0.507841 0.051973
O O5 0.524713 0.421299 0.308560
O O6 0.370858 0.432561 0.182541
O O7 0.418034 0.342132 0.266305
O O8 0.496951 0.383689 0.037257
O O9 0.750000 0.670396 0.246182
O O10 0.652208 0.750000 0.281329
O O11 0.625557 0.675234 0.458757
O O12 0.571747 0.674004 0.173398
O O13 0.875225 0.073176 0.534381
O O14 0.000000 0.000000 0.500000
O O15 0.250000 0.500007 0.137384
O O16 0.401189 0.531524 0.212231
O O17 0.750000 0.685358 0.669064
O O18 0.615009 0.750000 0.653372
O O19 0.750000 0.092038 0.736764
O O20 0.582364 0.125260 0.780388
#
# Coordination Sequence:
#
# PCOD8242787 Si02
#       8
#     8   8   8   8   8   8   8   8
#     4  10  20  33  50  74 107 141 176 218 267 321
#     4  11  21  33  52  76 107 145 181 223 271 325
#     4   9  19  36  58  84 114 145 178 219 269 325
#     4  12  21  34  50  74 104 142 183 229 270 320
#     4   9  18  32  48  71 103 140 178 217 263 316
#     4   9  19  35  54  80 114 148 181 219 264 319
#     4  11  22  36  53  74 103 141 185 230 272 318
#     4  11  21  35  54  79 107 142 184 224 271 327
#
# _framework density 18.151844000000001
#
# number of rings (size 3 to 8) (size 9 to 14) (size 15 to 20)
#    0.000    1.750    2.500    3.375    0.000    4.000 
#    0.000    1.875    0.000    0.375    0.000    0.000 
#    0.000    3.500    0.000    0.000    0.000    0.000 
#
# Total GULP energy -793283.997867 kJ/mol
# GULP energy per Si atom -12395.062467 kJ/mol
# Density = 1.811053 g / cm^3
# Si number density = 18.151844 Si / 1000 Ang^3
#
#
#
# Elastic Constant Matrix: (Units=GPa)
#
#
# Indices 1 2 3 4 5 6 
#
# 1 82.6511 27.6849 42.9566 0.0000 0.0000 0.0000
# 2 27.6849 46.2366 27.9103 0.0000 0.0000 0.0000
# 3 42.9566 27.9103 94.2929 0.0000 0.0000 0.0000
# 4 0.0000 0.0000 0.0000 30.9470 0.0000 0.0000
# 5 0.0000 0.0000 0.0000 0.0000 26.7441 0.0000
# 6 0.0000 0.0000 0.0000 0.0000 0.0000 26.1221
#
#
#
# Elastic Compliance Matrix: (Units=1/GPa)
#
#
# Indices 1 2 3 4 5 6 
#
# 1 0.017489 -0.006894 -0.005927 0.000000 0.000000 0.000000
# 2 -0.006894 0.029051 -0.005458 0.000000 0.000000 0.000000
# 3 -0.005927 -0.005458 0.014921 0.000000 0.000000 0.000000
# 4 0.000000 0.000000 0.000000 0.032313 0.000000 0.000000
# 5 0.000000 0.000000 0.000000 0.000000 0.037391 0.000000
# 6 0.000000 0.000000 0.000000 0.000000 0.000000 0.038282
#
#
# Mechanical properties :
#
#
# Convention : Reuss Voigt Hill
#
# Bulk Modulus (GPa) = 40.15680 46.69825 43.42752
# Shear Modulus (GPa) = 23.33126 25.07122 24.20124
#
# Velocity S-wave (km/s) = 3.58905 3.72047 3.65535
# Velocity P-wave (km/s) = 6.27262 6.65118 6.46467
#
# Compressibility (1/GPa) = 0.02490238
#
# Stress axis : x y z
#
# Youngs Moduli (GPa) = 57.18040 34.42270 67.02056
#
# Poissons Ratio (x) = 0.23731 0.39720
# Poissons Ratio (y) = 0.39420 0.36581
# Poissons Ratio (z) = 0.33888 0.18789
#
# Static dielectric constant tensor:
#      x y z
#    x 3.196390 0.000000 0.000000 
#    y 0.000000 3.164440 0.000000 
#    z 0.000000 0.000000 3.616400 
# 
# 
# High freq. dielectric constant tensor:
#      x y z
#    x 1.690270 0.000000 0.000000 
#    y 0.000000 1.676920 0.000000 
#    z 0.000000 0.000000 1.715490 
# 
# From -- ./inp_files/9570.got.cif
#   From: 2010.03.12/outbox.cif.g09.slc.cpg/sg59_5_cif.got.tgz:9570.got - 2010.04.16 16:29:54.
