data_PCOD8242316
_publ_section_title
;
Structure prediction by ZEFSAII (Michael W. Deem and Ramdas Pophale) SiO2 
 PCOD8242316
Probable space group: P M M N
;
_chemical_formula_sum "Si O2"
_cell_formula_units_Z 64
_cell_length_a 25.299241
_cell_length_b 9.145539
_cell_length_c 17.276990
_cell_angle_alpha 90.000000
_cell_angle_beta 90.000000
_cell_angle_gamma 90.000000
_cell_volume 3997.466934
_symmetry_space_group_name_H-M "P M M N"
_symmetry_group_IT_number 59
_space_group.IT_coordinate_system_code '2'
_symmetry_cell_setting 'orthorhombic'
loop_
_space_group_symop_operation_xyz
x,y,z
1/2-x,1/2-y,z
1/2+x,-y,-z
-x,1/2+y,-z
-x,-y,-z
1/2+x,1/2+y,-z
1/2-x,y,z
x,1/2-y,z
loop_
_atom_site_type_symbol
_atom_site_label
_atom_site_fract_x
_atom_site_fract_y
_atom_site_fract_z
Si Si1 0.402431 0.921326 0.172466
Si Si2 0.446752 0.581275 0.334019
Si Si3 0.495956 0.423263 0.082078
Si Si4 0.690509 0.578943 0.083025
Si Si5 0.688677 0.581488 0.906380
Si Si6 0.557328 0.078439 0.333611
Si Si7 0.554597 0.419030 0.499670
Si Si8 0.601322 0.420652 0.175288
O O1 0.409054 0.750000 0.153556
O O2 0.407004 0.954134 0.264195
O O3 0.445918 0.012686 0.126598
O O4 0.344541 0.975222 0.148493
O O5 0.463751 0.750000 0.331711
O O6 0.499873 0.490527 0.323935
O O7 0.417415 0.545243 0.417350
O O8 0.488552 0.250000 0.071716
O O9 0.548465 0.463029 0.129359
O O10 0.500000 0.500000 0.000000
O O11 0.750000 0.523723 0.099233
O O12 0.686678 0.750000 0.097745
O O13 0.651728 0.500401 0.141432
O O14 0.674566 0.542631 0.994941
O O15 0.750000 0.551580 0.889666
O O16 0.674624 0.750000 0.889106
O O17 0.548400 0.250000 0.323310
O O18 0.583804 0.038705 0.418234
O O19 0.595308 0.025118 0.264368
O O20 0.500000 0.500000 0.500000
O O21 0.540973 0.250000 0.495187
O O22 0.612619 0.250000 0.169338
#
# Coordination Sequence:
#
# PCOD8242316 Si02
#       8
#     8   8   8   8   8   8   8   8
#     4  11  21  31  46  70  98 125 154 188 231 279
#     4   9  17  28  42  65  94 123 154 185 221 270
#     4  11  22  34  46  64  94 127 159 190 227 277
#     4   9  19  35  52  68  86 113 151 193 235 276
#     4   9  19  36  54  69  87 116 157 201 241 278
#     4   9  16  28  44  64  91 122 154 187 225 267
#     4   8  14  25  42  61  86 120 153 185 220 262
#     4  10  20  31  45  68  94 120 151 188 228 269
#
# _framework density 16.010138999999999
#
# number of rings (size 3 to 8) (size 9 to 14) (size 15 to 20)
#    0.000    2.500    1.250    2.250    0.000    5.000 
#    0.000    1.250    0.000    0.000    0.000    0.875 
#    0.000    7.000    0.000    0.000    0.000    0.000 
#
# Total GULP energy -793011.062696 kJ/mol
# GULP energy per Si atom -12390.797855 kJ/mol
# Density = 1.597370 g / cm^3
# Si number density = 16.010139 Si / 1000 Ang^3
#
#
#
# Elastic Constant Matrix: (Units=GPa)
#
#
# Indices 1 2 3 4 5 6 
#
# 1 72.0393 32.0464 59.5560 0.0000 0.0000 0.0000
# 2 32.0464 45.9942 48.6588 0.0000 0.0000 0.0000
# 3 59.5560 48.6588 163.9530 0.0000 0.0000 0.0000
# 4 0.0000 0.0000 0.0000 20.4152 0.0000 0.0000
# 5 0.0000 0.0000 0.0000 0.0000 15.5226 0.0000
# 6 0.0000 0.0000 0.0000 0.0000 0.0000 26.6524
#
#
#
# Elastic Compliance Matrix: (Units=1/GPa)
#
#
# Indices 1 2 3 4 5 6 
#
# 1 0.022800 -0.010384 -0.005200 0.000000 0.000000 0.000000
# 2 -0.010384 0.036422 -0.007037 0.000000 0.000000 0.000000
# 3 -0.005200 -0.007037 0.010077 0.000000 0.000000 0.000000
# 4 0.000000 0.000000 0.000000 0.048983 0.000000 0.000000
# 5 0.000000 0.000000 0.000000 0.000000 0.064422 0.000000
# 6 0.000000 0.000000 0.000000 0.000000 0.000000 0.037520
#
#
# Mechanical properties :
#
#
# Convention : Reuss Voigt Hill
#
# Bulk Modulus (GPa) = 41.57123 62.50098 52.03611
# Shear Modulus (GPa) = 18.28242 21.96638 20.12440
#
# Velocity S-wave (km/s) = 3.38291 3.70811 3.54924
# Velocity P-wave (km/s) = 6.42500 7.58001 7.02628
#
# Compressibility (1/GPa) = 0.02405510
#
# Stress axis : x y z
#
# Youngs Moduli (GPa) = 43.86006 27.45564 99.23716
#
# Poissons Ratio (x) = 0.28511 0.51604
# Poissons Ratio (y) = 0.45546 0.69838
# Poissons Ratio (z) = 0.22808 0.19322
#
# Static dielectric constant tensor:
#      x y z
#    x 2.745430 0.000000 0.000000 
#    y 0.000000 4.493070 0.000000 
#    z 0.000000 0.000000 3.717700 
# 
# 
# High freq. dielectric constant tensor:
#      x y z
#    x 1.574320 0.000000 0.000000 
#    y 0.000000 1.620230 0.000000 
#    z 0.000000 0.000000 1.633080 
# 
# From -- ./inp_files/26450.got.cif
#   From: 2010.03.12/outbox.cif.g09.slc.cpg/sg59_14_cif.got.tgz:26450.got - 2010.04.16 16:29:54.
