data_PCOD8242593
_publ_section_title
;
Structure prediction by ZEFSAII (Michael W. Deem and Ramdas Pophale) SiO2 
 PCOD8242593
Probable space group: P M M N
;
_chemical_formula_sum "Si O2"
_cell_formula_units_Z 48
_cell_length_a 18.206766
_cell_length_b 9.954051
_cell_length_c 15.443010
_cell_angle_alpha 90.000000
_cell_angle_beta 90.000000
_cell_angle_gamma 90.000000
_cell_volume 2798.753339
_symmetry_space_group_name_H-M "P M M N"
_symmetry_group_IT_number 59
_space_group.IT_coordinate_system_code '2'
_symmetry_cell_setting 'orthorhombic'
loop_
_space_group_symop_operation_xyz
x,y,z
1/2-x,1/2-y,z
1/2+x,-y,-z
-x,1/2+y,-z
-x,-y,-z
1/2+x,1/2+y,-z
1/2-x,y,z
x,1/2-y,z
loop_
_atom_site_type_symbol
_atom_site_label
_atom_site_fract_x
_atom_site_fract_y
_atom_site_fract_z
Si Si1 0.069972 0.092979 0.509688
Si Si2 0.664914 0.902885 0.659024
Si Si3 0.668601 0.590696 0.332729
Si Si4 0.662712 0.400471 0.805718
Si Si5 0.662449 0.899644 0.141698
Si Si6 0.662565 0.099450 0.998112
O O1 0.047696 0.250000 0.517162
O O2 0.122739 0.067773 0.428969
O O3 0.112170 0.040025 0.594906
O O4 0.000000 0.000000 0.500000
O O5 0.750000 0.935636 0.641389
O O6 0.654529 0.750000 0.689763
O O7 0.631243 0.996514 0.734694
O O8 0.750000 0.529392 0.349840
O O9 0.675156 0.750000 0.336808
O O10 0.639260 0.548194 0.237371
O O11 0.750000 0.405720 0.805121
O O12 0.635561 0.250000 0.782797
O O13 0.634884 0.441370 0.901855
O O14 0.750000 0.896349 0.137181
O O15 0.631278 0.750000 0.124449
O O16 0.628621 0.998084 0.068985
O O17 0.750000 0.093078 0.000985
O O18 0.635980 0.250000 0.020365
#
# Coordination Sequence:
#
# PCOD8242593 Si02
#       6
#     8   8   8   8   8   8
#     4  10  20  33  48  66  89 116 146 181 222 266
#     4   9  17  29  46  67  88 113 148 186 219 252
#     4   8  14  27  47  67  87 115 150 183 215 256
#     4   8  14  24  38  58  86 118 146 172 209 258
#     4   8  13  21  36  59  83 108 141 177 209 244
#     4   8  13  21  33  53  85 119 142 164 205 258
#
# _framework density 17.150493000000001
#
# number of rings (size 3 to 8) (size 9 to 14) (size 15 to 20)
#    0.000    3.500    0.000    2.500    0.000    3.333 
#    0.000    4.167    0.000    2.500    0.000    1.167 
#    0.000    0.000    0.000    0.000    0.000    0.000 
#
# Total GULP energy -594847.851439 kJ/mol
# GULP energy per Si atom -12392.663572 kJ/mol
# Density = 1.711146 g / cm^3
# Si number density = 17.150493 Si / 1000 Ang^3
#
#
#
# Elastic Constant Matrix: (Units=GPa)
#
#
# Indices 1 2 3 4 5 6 
#
# 1 38.1769 32.2101 35.8425 0.0000 0.0000 0.0000
# 2 32.2101 91.1376 88.0725 0.0000 0.0000 0.0000
# 3 35.8425 88.0725 161.0110 0.0000 0.0000 0.0000
# 4 0.0000 0.0000 0.0000 27.1539 0.0000 0.0000
# 5 0.0000 0.0000 0.0000 0.0000 0.4832 0.0000
# 6 0.0000 0.0000 0.0000 0.0000 0.0000 17.2323
#
#
#
# Elastic Compliance Matrix: (Units=1/GPa)
#
#
# Indices 1 2 3 4 5 6 
#
# 1 0.037736 -0.011071 -0.002345 0.000000 0.000000 0.000000
# 2 -0.011071 0.026524 -0.012044 0.000000 0.000000 0.000000
# 3 -0.002345 -0.012044 0.013321 0.000000 0.000000 0.000000
# 4 0.000000 0.000000 0.000000 0.036827 0.000000 0.000000
# 5 0.000000 0.000000 0.000000 0.000000 2.069493 0.000000
# 6 0.000000 0.000000 0.000000 0.000000 0.000000 0.058031
#
#
# Mechanical properties :
#
#
# Convention : Reuss Voigt Hill
#
# Bulk Modulus (GPa) = 37.50742 66.95284 52.23013
# Shear Modulus (GPa) = 2.17227 17.92058 10.04643
#
# Velocity S-wave (km/s) = 1.12665 3.23600 2.42292
# Velocity P-wave (km/s) = 4.85896 7.28598 6.19253
#
# Compressibility (1/GPa) = 0.02666139
#
# Stress axis : x y z
#
# Youngs Moduli (GPa) = 26.50012 37.70134 75.07064
#
# Poissons Ratio (x) = 0.41739 0.17600
# Poissons Ratio (y) = 0.29338 0.90416
# Poissons Ratio (z) = 0.06213 0.45408
#
# Static dielectric constant tensor:
#      x y z
#    x 2.679930 0.000000 0.000000 
#    y 0.000000 3.253420 0.000000 
#    z 0.000000 0.000000 3.667990 
# 
# 
# High freq. dielectric constant tensor:
#      x y z
#    x 1.603150 0.000000 0.000000 
#    y 0.000000 1.645430 0.000000 
#    z 0.000000 0.000000 1.678390 
# 
# From -- ./inp_files/23170.got.cif
#   From: 2010.03.12/outbox.cif.g09.slc.cpg/sg59_12_cif.got.tgz:23170.got - 2010.04.16 16:29:54.
