data_PCOD8242262
_publ_section_title
;
Structure prediction by ZEFSAII (Michael W. Deem and Ramdas Pophale) SiO2 
 PCOD8242262
Probable space group: P M M N
;
_chemical_formula_sum "Si O2"
_cell_formula_units_Z 40
_cell_length_a 25.468601
_cell_length_b 8.320394
_cell_length_c 9.542741
_cell_angle_alpha 90.000000
_cell_angle_beta 90.000000
_cell_angle_gamma 90.000000
_cell_volume 2022.190746
_symmetry_space_group_name_H-M "P M M N"
_symmetry_group_IT_number 59
_space_group.IT_coordinate_system_code '2'
_symmetry_cell_setting 'orthorhombic'
loop_
_space_group_symop_operation_xyz
x,y,z
1/2-x,1/2-y,z
1/2+x,-y,-z
-x,1/2+y,-z
-x,-y,-z
1/2+x,1/2+y,-z
1/2-x,y,z
x,1/2-y,z
loop_
_atom_site_type_symbol
_atom_site_label
_atom_site_fract_x
_atom_site_fract_y
_atom_site_fract_z
Si Si1 0.659051 0.063387 0.895380
Si Si2 0.542053 0.062941 0.608088
Si Si3 0.346463 0.061797 0.408769
Si Si4 0.452574 0.064046 0.090352
Si Si5 0.750000 0.559231 0.407556
Si Si6 0.750000 0.559471 0.088437
O O1 0.666891 0.250000 0.863675
O O2 0.670365 0.967566 0.752102
O O3 0.600187 0.031618 0.950141
O O4 0.698256 0.006824 0.015087
O O5 0.533674 0.250000 0.639683
O O6 0.500000 0.000000 0.500000
O O7 0.600744 0.033551 0.550744
O O8 0.533261 0.961203 0.748042
O O9 0.356472 0.250000 0.430516
O O10 0.301467 0.995117 0.511816
O O11 0.442836 0.250000 0.059239
O O12 0.500000 0.000000 0.000000
O O13 0.750000 0.750000 0.413424
O O14 0.750000 0.496324 0.248359
O O15 0.750000 0.750000 0.082247
#
# Coordination Sequence:
#
# PCOD8242262 Si02
#       6
#     8   8   8   8   4   4
#     4  11  22  38  58  85 115 150 192 235 281 342
#     4  11  22  38  58  85 117 153 193 238 286 340
#     4  10  19  37  61  85 111 148 191 234 282 341
#     4  11  22  39  61  87 116 152 192 237 288 344
#     4   9  21  37  58  84 112 143 184 231 282 336
#     4  11  22  39  58  82 114 151 190 237 290 340
#
# _framework density 19.780526999999999
#
# number of rings (size 3 to 8) (size 9 to 14) (size 15 to 20)
#    0.000    1.400    0.000    9.300    0.000    2.400 
#    0.000   11.500    0.000    0.000    0.000    0.000 
#    0.000    0.000    0.000    0.000    0.000    0.000 
#
# Total GULP energy -496180.293042 kJ/mol
# GULP energy per Si atom -12404.507326 kJ/mol
# Density = 1.973551 g / cm^3
# Si number density = 19.780527 Si / 1000 Ang^3
#
#
#
# Elastic Constant Matrix: (Units=GPa)
#
#
# Indices 1 2 3 4 5 6 
#
# 1 151.0179 11.4832 96.8744 0.0000 0.0000 0.0000
# 2 11.4832 77.6760 7.8309 0.0000 0.0000 0.0000
# 3 96.8744 7.8309 111.9625 0.0000 0.0000 0.0000
# 4 0.0000 0.0000 0.0000 25.2231 0.0000 0.0000
# 5 0.0000 0.0000 0.0000 0.0000 47.9791 0.0000
# 6 0.0000 0.0000 0.0000 0.0000 0.0000 35.5533
#
#
#
# Elastic Compliance Matrix: (Units=1/GPa)
#
#
# Indices 1 2 3 4 5 6 
#
# 1 0.014945 -0.000912 -0.012867 0.000000 0.000000 0.000000
# 2 -0.000912 0.013021 -0.000121 0.000000 0.000000 0.000000
# 3 -0.012867 -0.000121 0.020073 0.000000 0.000000 0.000000
# 4 0.000000 0.000000 0.000000 0.039646 0.000000 0.000000
# 5 0.000000 0.000000 0.000000 0.000000 0.020842 0.000000
# 6 0.000000 0.000000 0.000000 0.000000 0.000000 0.028127
#
#
# Mechanical properties :
#
#
# Convention : Reuss Voigt Hill
#
# Bulk Modulus (GPa) = 49.41283 63.67036 56.54160
# Shear Modulus (GPa) = 29.20505 36.71561 32.96033
#
# Velocity S-wave (km/s) = 3.84663 4.31298 4.08646
# Velocity P-wave (km/s) = 6.69056 7.55385 7.13527
#
# Compressibility (1/GPa) = 0.02023766
#
# Stress axis : x y z
#
# Youngs Moduli (GPa) = 66.91099 76.79853 49.81703
#
# Poissons Ratio (x) = 0.07006 0.64102
# Poissons Ratio (y) = 0.06104 0.00605
# Poissons Ratio (z) = 0.86097 0.00933
#
# Static dielectric constant tensor:
#      x y z
#    x 3.751020 0.000000 0.000000 
#    y 0.000000 3.755270 0.000000 
#    z 0.000000 0.000000 3.625440 
# 
# 
# High freq. dielectric constant tensor:
#      x y z
#    x 1.785430 0.000000 0.000000 
#    y 0.000000 1.778980 0.000000 
#    z 0.000000 0.000000 1.764270 
# 
# From -- ./inp_files/12393.got.cif
#   From: 2010.03.12/outbox.cif.g09.slc.cpg/sg59_7_cif.got.tgz:12393.got - 2010.04.16 16:29:54.
