data_PCOD8242533
_publ_section_title
;
Structure prediction by ZEFSAII (Michael W. Deem and Ramdas Pophale) SiO2 
 PCOD8242533
Probable space group: P M M N
;
_chemical_formula_sum "Si O2"
_cell_formula_units_Z 56
_cell_length_a 9.166756
_cell_length_b 13.538557
_cell_length_c 25.251081
_cell_angle_alpha 90.000000
_cell_angle_beta 90.000000
_cell_angle_gamma 90.000000
_cell_volume 3133.776535
_symmetry_space_group_name_H-M "P M M N"
_symmetry_group_IT_number 59
_space_group.IT_coordinate_system_code '2'
_symmetry_cell_setting 'orthorhombic'
loop_
_space_group_symop_operation_xyz
x,y,z
1/2-x,1/2-y,z
1/2+x,-y,-z
-x,1/2+y,-z
-x,-y,-z
1/2+x,1/2+y,-z
1/2-x,y,z
x,1/2-y,z
loop_
_atom_site_type_symbol
_atom_site_label
_atom_site_fract_x
_atom_site_fract_y
_atom_site_fract_z
Si Si1 0.919453 0.440767 0.423246
Si Si2 0.920261 0.999805 0.055429
Si Si3 0.078019 0.362847 0.848891
Si Si4 0.083322 0.138802 0.522257
Si Si5 0.086030 0.493984 0.222978
Si Si6 0.576496 0.636631 0.680041
Si Si7 0.911222 0.861181 0.877802
O O1 0.750000 0.416886 0.414510
O O2 0.946016 0.558614 0.431409
O O3 0.974086 0.380697 0.474152
O O4 0.009410 0.403159 0.373745
O O5 0.750000 0.993914 0.044751
O O6 0.963828 0.102071 0.082774
O O7 0.972993 0.912755 0.095554
O O8 0.000000 0.000000 0.000000
O O9 0.250000 0.373448 0.843019
O O10 0.026184 0.250000 0.850897
O O11 0.009156 0.412969 0.796613
O O12 0.250000 0.127272 0.501853
O O13 0.056321 0.250000 0.544288
O O14 0.250000 0.532090 0.234072
O O15 0.020398 0.438484 0.274326
O O16 0.084129 0.412929 0.178009
O O17 0.750000 0.632662 0.676170
O O18 0.526181 0.750000 0.690848
O O19 0.750000 0.874414 0.903821
O O20 0.948617 0.750000 0.865219
#
# Coordination Sequence:
#
# PCOD8242533 Si02
#       7
#     8   8   8   8   8   8   8
#     4  10  20  32  49  76 104 129 166 212 250 291
#     4  10  20  33  49  72 101 130 163 203 245 291
#     4   9  19  36  55  73  97 132 169 204 248 299
#     4   9  18  34  53  70  95 134 172 205 249 302
#     4   9  18  33  53  76  99 125 163 206 242 285
#     4  10  20  34  52  74 103 136 164 195 244 302
#     4   9  17  31  51  72  95 125 159 196 242 292
#
# _framework density 17.869812
#
# number of rings (size 3 to 8) (size 9 to 14) (size 15 to 20)
#    0.000    2.571    0.000    1.714    0.000    6.857 
#    0.000    2.143    0.000    5.143    0.000    0.000 
#    0.000    0.000    0.000    0.000    0.000    0.000 
#
# Total GULP energy -694149.571912 kJ/mol
# GULP energy per Si atom -12395.528070 kJ/mol
# Density = 1.782914 g / cm^3
# Si number density = 17.869812 Si / 1000 Ang^3
#
#
#
# Elastic Constant Matrix: (Units=GPa)
#
#
# Indices 1 2 3 4 5 6 
#
# 1 33.7844 34.4751 27.0674 0.0000 0.0000 0.0000
# 2 34.4751 122.5610 35.3605 0.0000 0.0000 0.0000
# 3 27.0674 35.3605 82.2305 0.0000 0.0000 0.0000
# 4 0.0000 0.0000 0.0000 15.2752 0.0000 0.0000
# 5 0.0000 0.0000 0.0000 0.0000 28.8830 0.0000
# 6 0.0000 0.0000 0.0000 0.0000 0.0000 27.2321
#
#
#
# Elastic Compliance Matrix: (Units=1/GPa)
#
#
# Indices 1 2 3 4 5 6 
#
# 1 0.049957 -0.010626 -0.011874 0.000000 0.000000 0.000000
# 2 -0.010626 0.011575 -0.001480 0.000000 0.000000 0.000000
# 3 -0.011874 -0.001480 0.016706 0.000000 0.000000 0.000000
# 4 0.000000 0.000000 0.000000 0.065466 0.000000 0.000000
# 5 0.000000 0.000000 0.000000 0.000000 0.034622 0.000000
# 6 0.000000 0.000000 0.000000 0.000000 0.000000 0.036721
#
#
# Mechanical properties :
#
#
# Convention : Reuss Voigt Hill
#
# Bulk Modulus (GPa) = 33.02868 48.04241 40.53554
# Shear Modulus (GPa) = 18.30829 23.72292 21.01561
#
# Velocity S-wave (km/s) = 3.20431 3.64750 3.43306
# Velocity P-wave (km/s) = 5.67567 6.68446 6.20061
#
# Compressibility (1/GPa) = 0.03027672
#
# Stress axis : x y z
#
# Youngs Moduli (GPa) = 20.01739 86.39173 59.85911
#
# Poissons Ratio (x) = 0.91802 0.71079
# Poissons Ratio (y) = 0.21271 0.08857
# Poissons Ratio (z) = 0.23770 0.12784
#
# Static dielectric constant tensor:
#      x y z
#    x -1.496680 0.000000 0.000000 
#    y 0.000000 3.632230 0.000000 
#    z 0.000000 0.000000 3.318820 
# 
# 
# High freq. dielectric constant tensor:
#      x y z
#    x 1.689240 0.000000 0.000000 
#    y 0.000000 1.696340 0.000000 
#    z 0.000000 0.000000 1.679700 
# 
# From -- ./inp_files/29138.got.cif
#   From: 2010.03.12/outbox.cif.g09.slc.cpg/sg59_15_cif.got.tgz:29138.got - 2010.04.16 16:29:54.
