data_PCOD8242807
_publ_section_title
;
Structure prediction by ZEFSAII (Michael W. Deem and Ramdas Pophale) SiO2 
 PCOD8242807
Probable space group: P M M N
;
_chemical_formula_sum "Si O2"
_cell_formula_units_Z 64
_cell_length_a 18.717525
_cell_length_b 9.320791
_cell_length_c 19.535864
_cell_angle_alpha 90.000000
_cell_angle_beta 90.000000
_cell_angle_gamma 90.000000
_cell_volume 3408.268612
_symmetry_space_group_name_H-M "P M M N"
_symmetry_group_IT_number 59
_space_group.IT_coordinate_system_code '2'
_symmetry_cell_setting 'orthorhombic'
loop_
_space_group_symop_operation_xyz
x,y,z
1/2-x,1/2-y,z
1/2+x,-y,-z
-x,1/2+y,-z
-x,-y,-z
1/2+x,1/2+y,-z
1/2-x,y,z
x,1/2-y,z
loop_
_atom_site_type_symbol
_atom_site_label
_atom_site_fract_x
_atom_site_fract_y
_atom_site_fract_z
Si Si1 0.912318 0.414455 0.093336
Si Si2 0.333412 0.581989 0.043588
Si Si3 0.599753 0.585462 0.345690
Si Si4 0.329037 0.579501 0.382382
Si Si5 0.433444 0.416426 0.139835
Si Si6 0.169097 0.418027 0.792609
Si Si7 0.168028 0.582068 0.535262
Si Si8 0.948186 0.082960 0.720772
O O1 0.890981 0.250000 0.106037
O O2 0.883636 0.504326 0.156337
O O3 0.997922 0.433959 0.089909
O O4 0.875657 0.469647 0.023849
O O5 0.250000 0.544962 0.035148
O O6 0.345310 0.750000 0.057535
O O7 0.364972 0.494122 0.107170
O O8 0.614619 0.750000 0.363796
O O9 0.651795 0.533892 0.284626
O O10 0.614698 0.495048 0.413138
O O11 0.518815 0.560152 0.323356
O O12 0.250000 0.523044 0.362872
O O13 0.329505 0.750000 0.383502
O O14 0.349930 0.526560 0.458588
O O15 0.383644 0.522569 0.325567
O O16 0.414944 0.250000 0.151278
O O17 0.451984 0.488310 0.211701
O O18 0.250000 0.460195 0.810248
O O19 0.154541 0.250000 0.800655
O O20 0.250000 0.544927 0.553309
O O21 0.154078 0.750000 0.541455
O O22 0.938266 0.250000 0.740892
#
# Coordination Sequence:
#
# PCOD8242807 Si02
#       8
#     8   8   8   8   8   8   8   8
#     4  10  21  38  59  83 111 145 183 225 272 324
#     4  10  22  40  61  84 110 144 187 229 270 325
#     4  10  20  33  50  76 111 146 182 224 270 328
#     4   8  16  33  56  80 104 135 182 232 273 320
#     4  11  23  38  58  85 116 147 180 226 281 330
#     4  10  20  33  51  77 110 148 185 222 268 322
#     4   9  18  33  53  77 106 141 181 227 277 326
#     4  10  20  36  58  80 107 147 188 225 270 327
#
# _framework density 18.777863
#
# number of rings (size 3 to 8) (size 9 to 14) (size 15 to 20)
#    0.000    2.250    1.250    2.250    0.000    4.750 
#    0.000    1.875    0.000    0.750    0.000    0.000 
#    0.000    0.000    0.000    0.000    0.000    0.000 
#
# Total GULP energy -793677.938469 kJ/mol
# GULP energy per Si atom -12401.217789 kJ/mol
# Density = 1.873512 g / cm^3
# Si number density = 18.777863 Si / 1000 Ang^3
#
#
#
# Elastic Constant Matrix: (Units=GPa)
#
#
# Indices 1 2 3 4 5 6 
#
# 1 89.5154 37.7376 43.6477 0.0000 0.0000 0.0000
# 2 37.7376 51.0662 32.9064 0.0000 0.0000 0.0000
# 3 43.6477 32.9064 73.2020 0.0000 0.0000 0.0000
# 4 0.0000 0.0000 0.0000 24.0190 0.0000 0.0000
# 5 0.0000 0.0000 0.0000 0.0000 37.3066 0.0000
# 6 0.0000 0.0000 0.0000 0.0000 0.0000 26.5919
#
#
#
# Elastic Compliance Matrix: (Units=1/GPa)
#
#
# Indices 1 2 3 4 5 6 
#
# 1 0.018368 -0.009174 -0.006828 0.000000 0.000000 0.000000
# 2 -0.009174 0.032150 -0.008982 0.000000 0.000000 0.000000
# 3 -0.006828 -0.008982 0.021770 0.000000 0.000000 0.000000
# 4 0.000000 0.000000 0.000000 0.041634 0.000000 0.000000
# 5 0.000000 0.000000 0.000000 0.000000 0.026805 0.000000
# 6 0.000000 0.000000 0.000000 0.000000 0.000000 0.037605
#
#
# Mechanical properties :
#
#
# Convention : Reuss Voigt Hill
#
# Bulk Modulus (GPa) = 44.80442 49.15191 46.97816
# Shear Modulus (GPa) = 21.20970 24.21631 22.71300
#
# Velocity S-wave (km/s) = 3.36446 3.59502 3.48165
# Velocity P-wave (km/s) = 6.24538 6.59276 6.42142
#
# Compressibility (1/GPa) = 0.02231923
#
# Stress axis : x y z
#
# Youngs Moduli (GPa) = 54.44155 31.10426 45.93450
#
# Poissons Ratio (x) = 0.28535 0.31366
# Poissons Ratio (y) = 0.49944 0.41259
# Poissons Ratio (z) = 0.37175 0.27938
#
# Static dielectric constant tensor:
#      x y z
#    x 3.624820 0.000000 0.000000 
#    y 0.000000 3.232020 0.000000 
#    z 0.000000 0.000000 3.446040 
# 
# 
# High freq. dielectric constant tensor:
#      x y z
#    x 1.737040 0.000000 0.000000 
#    y 0.000000 1.708610 0.000000 
#    z 0.000000 0.000000 1.732480 
# 
# From -- ./inp_files/30766.got.cif
#   From: 2010.03.12/outbox.cif.g09.slc.cpg/sg59_16_cif.got.tgz:30766.got - 2010.04.16 16:29:54.
