data_PCOD8242286
_publ_section_title
;
Structure prediction by ZEFSAII (Michael W. Deem and Ramdas Pophale) SiO2 
 PCOD8242286
Probable space group: P M M N
;
_chemical_formula_sum "Si O2"
_cell_formula_units_Z 56
_cell_length_a 9.583914
_cell_length_b 29.893483
_cell_length_c 12.652248
_cell_angle_alpha 90.000000
_cell_angle_beta 90.000000
_cell_angle_gamma 90.000000
_cell_volume 3624.825658
_symmetry_space_group_name_H-M "P M M N"
_symmetry_group_IT_number 59
_space_group.IT_coordinate_system_code '2'
_symmetry_cell_setting 'orthorhombic'
loop_
_space_group_symop_operation_xyz
x,y,z
1/2-x,1/2-y,z
1/2+x,-y,-z
-x,1/2+y,-z
-x,-y,-z
1/2+x,1/2+y,-z
1/2-x,y,z
x,1/2-y,z
loop_
_atom_site_type_symbol
_atom_site_label
_atom_site_fract_x
_atom_site_fract_y
_atom_site_fract_z
Si Si1 0.415891 0.200102 0.318637
Si Si2 0.095271 0.034123 0.133311
Si Si3 0.090789 0.803161 0.255428
Si Si4 0.583877 0.632015 0.854503
Si Si5 0.905505 0.696848 0.447347
Si Si6 0.403428 0.043445 0.883166
Si Si7 0.914788 0.856419 0.093020
O O1 0.250000 0.201875 0.309409
O O2 0.476472 0.250000 0.298193
O O3 0.479050 0.166308 0.231542
O O4 0.456946 0.182410 0.435550
O O5 0.250000 0.027440 0.180394
O O6 0.029528 0.081649 0.170861
O O7 0.102295 0.034717 0.007373
O O8 0.003843 0.992324 0.173987
O O9 0.250000 0.820722 0.254317
O O10 0.086895 0.750000 0.251745
O O11 0.014935 0.821463 0.361317
O O12 0.006325 0.820477 0.154655
O O13 0.750000 0.630075 0.850571
O O14 0.538524 0.647886 0.970932
O O15 0.750000 0.677615 0.423262
O O16 0.897795 0.750000 0.444287
O O17 0.250000 0.036488 0.834500
O O18 0.452795 0.094263 0.862734
O O19 0.750000 0.846445 0.106424
#
# Coordination Sequence:
#
# PCOD8242286 Si02
#       7
#     8   8   8   8   8   8   8
#     4   8  13  22  39  63  86 106 132 168 204 236
#     4   8  13  22  37  56  79 107 135 163 197 237
#     4  10  20  31  42  58  82 110 138 170 206 241
#     4   8  14  24  38  61  90 112 134 166 202 242
#     4   8  14  26  44  62  77  98 134 174 205 236
#     4   8  14  24  37  55  79 105 135 169 199 230
#     4   9  17  28  42  61  85 112 140 168 199 240
#
# _framework density 15.449019
#
# number of rings (size 3 to 8) (size 9 to 14) (size 15 to 20)
#    0.000    3.571    0.000    3.000    0.000    2.000 
#    0.000    3.571    0.000    1.714    0.000    3.000 
#    0.000    0.000    0.000    0.000    0.000    0.000 
#
# Total GULP energy -693911.392158 kJ/mol
# GULP energy per Si atom -12391.274860 kJ/mol
# Density = 1.541386 g / cm^3
# Si number density = 15.449019 Si / 1000 Ang^3
#
#
#
# Elastic Constant Matrix: (Units=GPa)
#
#
# Indices 1 2 3 4 5 6 
#
# 1 60.6309 27.7180 33.9176 0.0000 0.0000 0.0000
# 2 27.7180 44.2279 27.3802 0.0000 0.0000 0.0000
# 3 33.9176 27.3802 72.6884 0.0000 0.0000 0.0000
# 4 0.0000 0.0000 0.0000 3.1306 0.0000 0.0000
# 5 0.0000 0.0000 0.0000 0.0000 9.5739 0.0000
# 6 0.0000 0.0000 0.0000 0.0000 0.0000 22.3871
#
#
#
# Elastic Compliance Matrix: (Units=1/GPa)
#
#
# Indices 1 2 3 4 5 6 
#
# 1 0.026163 -0.011527 -0.007866 0.000000 0.000000 0.000000
# 2 -0.011527 0.034565 -0.007641 0.000000 0.000000 0.000000
# 3 -0.007866 -0.007641 0.020306 0.000000 0.000000 0.000000
# 4 0.000000 0.000000 0.000000 0.319425 0.000000 0.000000
# 5 0.000000 0.000000 0.000000 0.000000 0.104450 0.000000
# 6 0.000000 0.000000 0.000000 0.000000 0.000000 0.044669
#
#
# Mechanical properties :
#
#
# Convention : Reuss Voigt Hill
#
# Bulk Modulus (GPa) = 37.08458 39.50874 38.29666
# Shear Modulus (GPa) = 8.16147 12.92044 10.54095
#
# Velocity S-wave (km/s) = 2.30094 2.89507 2.61493
# Velocity P-wave (km/s) = 5.57814 6.06666 5.82752
#
# Compressibility (1/GPa) = 0.02696539
#
# Stress axis : x y z
#
# Youngs Moduli (GPa) = 38.22131 28.93132 49.24629
#
# Poissons Ratio (x) = 0.33349 0.38738
# Poissons Ratio (y) = 0.44058 0.37629
# Poissons Ratio (z) = 0.30066 0.22107
#
# Static dielectric constant tensor:
#      x y z
#    x 2.945870 0.000000 0.000000 
#    y 0.000000 3.066630 0.000000 
#    z 0.000000 0.000000 2.893410 
# 
# 
# High freq. dielectric constant tensor:
#      x y z
#    x 1.566370 0.000000 0.000000 
#    y 0.000000 1.581080 0.000000 
#    z 0.000000 0.000000 1.562480 
# 
# From -- ./inp_files/16288.got.cif
#   From: 2010.03.12/outbox.cif.g09.slc.cpg/sg59_9_cif.got.tgz:16288.got - 2010.04.16 16:29:54.
