data_PCOD8242129
_publ_section_title
;
Structure prediction by ZEFSAII (Michael W. Deem and Ramdas Pophale) SiO2 
 PCOD8242129
Probable space group: P M M N
;
_chemical_formula_sum "Si O2"
_cell_formula_units_Z 48
_cell_length_a 15.497974
_cell_length_b 8.642344
_cell_length_c 19.405982
_cell_angle_alpha 90.000000
_cell_angle_beta 90.000000
_cell_angle_gamma 90.000000
_cell_volume 2599.214381
_symmetry_space_group_name_H-M "P M M N"
_symmetry_group_IT_number 59
_space_group.IT_coordinate_system_code '2'
_symmetry_cell_setting 'orthorhombic'
loop_
_space_group_symop_operation_xyz
x,y,z
1/2-x,1/2-y,z
1/2+x,-y,-z
-x,1/2+y,-z
-x,-y,-z
1/2+x,1/2+y,-z
1/2-x,y,z
x,1/2-y,z
loop_
_atom_site_type_symbol
_atom_site_label
_atom_site_fract_x
_atom_site_fract_y
_atom_site_fract_z
Si Si1 0.250000 0.417731 0.047709
Si Si2 0.499638 0.932095 0.667268
Si Si3 0.565871 0.935098 0.945625
Si Si4 0.428352 0.568298 0.202783
Si Si5 0.654696 0.566418 0.572553
Si Si6 0.650956 0.570851 0.416833
Si Si7 0.750000 0.579866 0.790107
O O1 0.250000 0.250000 0.011233
O O2 0.339999 0.502910 0.029647
O O3 0.250000 0.395042 0.129143
O O4 0.508806 0.750000 0.679147
O O5 0.578925 0.998328 0.621128
O O6 0.501261 0.018182 0.740809
O O7 0.408643 0.968462 0.632299
O O8 0.567164 0.750000 0.945508
O O9 0.543580 0.991644 0.869232
O O10 0.500000 0.000000 0.000000
O O11 0.426897 0.750000 0.191787
O O12 0.335643 0.511996 0.231504
O O13 0.750000 0.509384 0.597985
O O14 0.653492 0.750000 0.571572
O O15 0.638136 0.508786 0.494654
O O16 0.750000 0.548092 0.393791
O O17 0.623944 0.750000 0.410682
O O18 0.750000 0.750000 0.753767
#
# Coordination Sequence:
#
# PCOD8242129 Si02
#       7
#     4   8   8   8   8   8   4
#     4   7  14  29  51  77 105 137 170 201 250 313
#     4  11  21  32  52  79 108 142 180 225 275 323
#     4  10  19  35  58  83 111 145 182 223 269 319
#     4  11  22  35  52  79 112 146 184 223 268 325
#     4   8  16  31  51  77 106 140 179 216 267 330
#     4   9  18  35  56  74  99 138 183 228 275 327
#     4   9  17  33  53  75 107 143 174 213 266 323
#
# _framework density 18.467117999999999
#
# number of rings (size 3 to 8) (size 9 to 14) (size 15 to 20)
#    0.000    2.500    0.000    5.250    1.167    0.333 
#    0.000    2.083    1.833    2.000    0.000    0.000 
#    0.000    0.000    0.000    0.000    0.000    0.000 
#
# Total GULP energy -594960.240859 kJ/mol
# GULP energy per Si atom -12395.005018 kJ/mol
# Density = 1.842509 g / cm^3
# Si number density = 18.467118 Si / 1000 Ang^3
#
#
#
# Elastic Constant Matrix: (Units=GPa)
#
#
# Indices 1 2 3 4 5 6 
#
# 1 114.0410 30.2182 64.2192 0.0000 0.0000 0.0000
# 2 30.2182 75.9091 30.0191 0.0000 0.0000 0.0000
# 3 64.2192 30.0191 96.0121 0.0000 0.0000 0.0000
# 4 0.0000 0.0000 0.0000 24.7481 0.0000 0.0000
# 5 0.0000 0.0000 0.0000 0.0000 29.5381 0.0000
# 6 0.0000 0.0000 0.0000 0.0000 0.0000 28.0678
#
#
#
# Elastic Compliance Matrix: (Units=1/GPa)
#
#
# Indices 1 2 3 4 5 6 
#
# 1 0.014380 -0.002192 -0.008933 0.000000 0.000000 0.000000
# 2 -0.002192 0.015366 -0.003338 0.000000 0.000000 0.000000
# 3 -0.008933 -0.003338 0.017434 0.000000 0.000000 0.000000
# 4 0.000000 0.000000 0.000000 0.040407 0.000000 0.000000
# 5 0.000000 0.000000 0.000000 0.000000 0.033855 0.000000
# 6 0.000000 0.000000 0.000000 0.000000 0.000000 0.035628
#
#
# Mechanical properties :
#
#
# Convention : Reuss Voigt Hill
#
# Bulk Modulus (GPa) = 54.78235 59.43058 57.10646
# Shear Modulus (GPa) = 26.03068 27.23786 26.63427
#
# Velocity S-wave (km/s) = 3.75850 3.84466 3.80182
# Velocity P-wave (km/s) = 6.96881 7.20834 7.08959
#
# Compressibility (1/GPa) = 0.01825406
#
# Stress axis : x y z
#
# Youngs Moduli (GPa) = 69.54153 65.07711 57.35887
#
# Poissons Ratio (x) = 0.14263 0.51238
# Poissons Ratio (y) = 0.15242 0.19149
# Poissons Ratio (z) = 0.62121 0.21726
#
# Static dielectric constant tensor:
#      x y z
#    x 1.981890 0.000000 0.000000 
#    y 0.000000 3.183650 0.000000 
#    z 0.000000 0.000000 3.260900 
# 
# 
# High freq. dielectric constant tensor:
#      x y z
#    x 1.716410 0.000000 0.000000 
#    y 0.000000 1.699240 0.000000 
#    z 0.000000 0.000000 1.700720 
# 
# From -- ./inp_files/27427.got.cif
#   From: 2010.03.12/outbox.cif.g09.slc.cpg/sg59_14_cif.got.tgz:27427.got - 2010.04.16 16:29:54.
