data_PCOD8242158
_publ_section_title
;
Structure prediction by ZEFSAII (Michael W. Deem and Ramdas Pophale) SiO2 
 PCOD8242158
Probable space group: P M M N
;
_chemical_formula_sum "Si O2"
_cell_formula_units_Z 56
_cell_length_a 9.344849
_cell_length_b 21.880519
_cell_length_c 14.568122
_cell_angle_alpha 90.000000
_cell_angle_beta 90.000000
_cell_angle_gamma 90.000000
_cell_volume 2978.746034
_symmetry_space_group_name_H-M "P M M N"
_symmetry_group_IT_number 59
_space_group.IT_coordinate_system_code '2'
_symmetry_cell_setting 'orthorhombic'
loop_
_space_group_symop_operation_xyz
x,y,z
1/2-x,1/2-y,z
1/2+x,-y,-z
-x,1/2+y,-z
-x,-y,-z
1/2+x,1/2+y,-z
1/2-x,y,z
x,1/2-y,z
loop_
_atom_site_type_symbol
_atom_site_label
_atom_site_fract_x
_atom_site_fract_y
_atom_site_fract_z
Si Si1 0.095312 0.750000 0.697386
Si Si2 0.914300 0.179263 0.851362
Si Si3 0.417097 0.060412 0.527009
Si Si4 0.582163 0.750000 0.868649
Si Si5 0.583307 0.914655 0.261142
Si Si6 0.085434 0.638764 0.948536
Si Si7 0.581691 0.455356 0.201054
Si Si8 0.088469 0.619765 0.622861
O O1 0.250000 0.750000 0.750981
O O2 0.089179 0.691763 0.633352
O O3 0.959137 0.750000 0.762732
O O4 0.750000 0.179302 0.820786
O O5 0.964807 0.250000 0.866618
O O6 0.004876 0.146633 0.772299
O O7 0.934793 0.137286 0.942115
O O8 0.250000 0.051651 0.508333
O O9 0.447205 0.078086 0.631564
O O10 0.481476 0.112072 0.461809
O O11 0.500000 0.000000 0.500000
O O12 0.750000 0.750000 0.881783
O O13 0.519036 0.809718 0.913905
O O14 0.750000 0.905843 0.240212
O O15 0.521441 0.975426 0.209253
O O16 0.250000 0.654901 0.923272
O O17 0.040564 0.575385 0.897323
O O18 0.750000 0.459648 0.211460
O O19 0.526329 0.413630 0.285713
O O20 0.250000 0.595433 0.601625
#
# Coordination Sequence:
#
# PCOD8242158 Si02
#       8
#     4   8   8   4   8   8   8   8
#     4  10  20  36  58  81 114 161 196 229 288 358
#     4  10  22  40  62  86 111 149 202 246 280 332
#     4  11  22  38  61  86 114 152 193 239 293 350
#     4  12  22  30  50  87 122 151 192 241 284 334
#     4  10  22  40  59  84 117 152 189 234 295 352
#     4  10  19  37  62  83 112 155 194 233 286 347
#     4   9  17  33  60  88 115 148 187 228 282 355
#     4  10  19  35  59  86 116 152 196 238 288 350
#
# _framework density 18.799855999999998
#
# number of rings (size 3 to 8) (size 9 to 14) (size 15 to 20)
#    0.000    1.857    3.571    1.071    0.000    3.143 
#    1.286    0.714    0.000    0.000    0.000    0.000 
#    0.000    0.000    0.000    0.000    0.000    0.000 
#
# Total GULP energy -694139.192166 kJ/mol
# GULP energy per Si atom -12395.342717 kJ/mol
# Density = 1.875707 g / cm^3
# Si number density = 18.799856 Si / 1000 Ang^3
#
#
#
# Elastic Constant Matrix: (Units=GPa)
#
#
# Indices 1 2 3 4 5 6 
#
# 1 82.1468 37.0389 55.6869 0.0000 0.0000 0.0000
# 2 37.0389 105.9120 53.4312 0.0000 0.0000 0.0000
# 3 55.6869 53.4312 103.0297 0.0000 0.0000 0.0000
# 4 0.0000 0.0000 0.0000 29.1986 0.0000 0.0000
# 5 0.0000 0.0000 0.0000 0.0000 29.6679 0.0000
# 6 0.0000 0.0000 0.0000 0.0000 0.0000 25.2549
#
#
#
# Elastic Compliance Matrix: (Units=1/GPa)
#
#
# Indices 1 2 3 4 5 6 
#
# 1 0.019532 -0.002038 -0.009500 0.000000 0.000000 0.000000
# 2 -0.002038 0.013000 -0.005640 0.000000 0.000000 0.000000
# 3 -0.009500 -0.005640 0.017766 0.000000 0.000000 0.000000
# 4 0.000000 0.000000 0.000000 0.034248 0.000000 0.000000
# 5 0.000000 0.000000 0.000000 0.000000 0.033706 0.000000
# 6 0.000000 0.000000 0.000000 0.000000 0.000000 0.039596
#
#
# Mechanical properties :
#
#
# Convention : Reuss Voigt Hill
#
# Bulk Modulus (GPa) = 62.73068 64.82252 63.77660
# Shear Modulus (GPa) = 25.31391 26.48637 25.90014
#
# Velocity S-wave (km/s) = 3.67344 3.75755 3.71573
# Velocity P-wave (km/s) = 7.17163 7.30621 7.23924
#
# Compressibility (1/GPa) = 0.01594116
#
# Stress axis : x y z
#
# Youngs Moduli (GPa) = 51.19697 76.92333 56.28794
#
# Poissons Ratio (x) = 0.15677 0.53475
# Poissons Ratio (y) = 0.10434 0.31748
# Poissons Ratio (z) = 0.48638 0.43387
#
# Static dielectric constant tensor:
#      x y z
#    x 3.594580 0.000000 0.000000 
#    y 0.000000 3.926760 0.000000 
#    z 0.000000 0.000000 3.620700 
# 
# 
# High freq. dielectric constant tensor:
#      x y z
#    x 1.710230 0.000000 0.000000 
#    y 0.000000 1.733640 0.000000 
#    z 0.000000 0.000000 1.725140 
# 
# From -- ./inp_files/21108.got.cif
#   From: 2010.03.12/outbox.cif.g09.slc.cpg/sg59_11_cif.got.tgz:21108.got - 2010.04.16 16:29:54.
