data_PCOD8242916
_publ_section_title
;
Structure prediction by ZEFSAII (Michael W. Deem and Ramdas Pophale) SiO2 
 PCOD8242916
Probable space group: P M M N
;
_chemical_formula_sum "Si O2"
_cell_formula_units_Z 48
_cell_length_a 8.656162
_cell_length_b 18.825379
_cell_length_c 15.402236
_cell_angle_alpha 90.000000
_cell_angle_beta 90.000000
_cell_angle_gamma 90.000000
_cell_volume 2509.879536
_symmetry_space_group_name_H-M "P M M N"
_symmetry_group_IT_number 59
_space_group.IT_coordinate_system_code '2'
_symmetry_cell_setting 'orthorhombic'
loop_
_space_group_symop_operation_xyz
x,y,z
1/2-x,1/2-y,z
1/2+x,-y,-z
-x,1/2+y,-z
-x,-y,-z
1/2+x,1/2+y,-z
1/2-x,y,z
x,1/2-y,z
loop_
_atom_site_type_symbol
_atom_site_label
_atom_site_fract_x
_atom_site_fract_y
_atom_site_fract_z
Si Si1 0.066411 0.170569 0.595637
Si Si2 0.432935 0.421129 0.245287
Si Si3 0.928567 0.167580 0.899944
Si Si4 0.068737 0.424068 0.751982
Si Si5 0.070976 0.331857 0.081737
Si Si6 0.433751 0.329690 0.403061
O O1 0.250000 0.171916 0.600509
O O2 0.003486 0.250000 0.615245
O O3 0.000799 0.116335 0.667280
O O4 0.011630 0.146218 0.499456
O O5 0.250000 0.417442 0.248361
O O6 0.485257 0.501445 0.240367
O O7 0.492561 0.379316 0.160677
O O8 0.502716 0.383528 0.331525
O O9 0.750000 0.149540 0.883591
O O10 0.965301 0.250000 0.882983
O O11 0.034633 0.122258 0.836464
O O12 0.971454 0.146949 0.998044
O O13 0.250000 0.436783 0.743948
O O14 0.250000 0.347291 0.061426
O O15 0.046085 0.250000 0.107681
O O16 0.250000 0.329681 0.399149
O O17 0.494044 0.250000 0.383608
#
# Coordination Sequence:
#
# PCOD8242916 Si02
#       6
#     8   8   8   8   8   8
#     4   8  15  29  50  75 100 129 170 215 253 294
#     4  10  20  33  51  77 107 136 167 208 256 302
#     4  10  21  37  57  79 101 128 166 213 261 304
#     4  11  22  34  50  74 106 143 176 206 247 301
#     4   9  18  34  56  79 101 129 168 211 255 306
#     4   8  14  28  52  78 101 129 169 214 256 300
#
# _framework density 19.124423
#
# number of rings (size 3 to 8) (size 9 to 14) (size 15 to 20)
#    0.000    2.667    0.000    3.000    0.000    5.667 
#    0.000    0.000    0.000    2.500    0.000    4.667 
#    0.000    0.000    0.000    0.000    0.000    0.000 
#
# Total GULP energy -595149.924645 kJ/mol
# GULP energy per Si atom -12398.956763 kJ/mol
# Density = 1.908089 g / cm^3
# Si number density = 19.124423 Si / 1000 Ang^3
#
#
#
# Elastic Constant Matrix: (Units=GPa)
#
#
# Indices 1 2 3 4 5 6 
#
# 1 4.6557 1.0101 7.0570 0.0000 0.0000 0.0000
# 2 1.0101 99.2891 76.2783 0.0000 0.0000 0.0000
# 3 7.0570 76.2783 141.8782 0.0000 0.0000 0.0000
# 4 0.0000 0.0000 0.0000 44.4555 0.0000 0.0000
# 5 0.0000 0.0000 0.0000 0.0000 13.9449 0.0000
# 6 0.0000 0.0000 0.0000 0.0000 0.0000 20.7520
#
#
#
# Elastic Compliance Matrix: (Units=1/GPa)
#
#
# Indices 1 2 3 4 5 6 
#
# 1 0.239713 0.011451 -0.018080 0.000000 0.000000 0.000000
# 2 0.011451 0.017706 -0.010089 0.000000 0.000000 0.000000
# 3 -0.018080 -0.010089 0.013372 0.000000 0.000000 0.000000
# 4 0.000000 0.000000 0.000000 0.022494 0.000000 0.000000
# 5 0.000000 0.000000 0.000000 0.000000 0.071711 0.000000
# 6 0.000000 0.000000 0.000000 0.000000 0.000000 0.048188
#
#
# Mechanical properties :
#
#
# Convention : Reuss Voigt Hill
#
# Bulk Modulus (GPa) = 4.21310 46.05707 25.13508
# Shear Modulus (GPa) = 9.51047 26.59567 18.05307
#
# Velocity S-wave (km/s) = 2.23243 3.73321 3.07576
# Velocity P-wave (km/s) = 2.97536 6.53587 5.07791
#
# Compressibility (1/GPa) = 0.23735515
#
# Stress axis : x y z
#
# Youngs Moduli (GPa) = 4.17166 56.47894 74.78538
#
# Poissons Ratio (x) = -0.64674 1.35209
# Poissons Ratio (y) = -0.04777 0.75449
# Poissons Ratio (z) = 0.07542 0.56980
#
# Static dielectric constant tensor:
#      x y z
#    x 3.076400 0.000000 0.000000 
#    y 0.000000 3.522580 0.000000 
#    z 0.000000 0.000000 3.830040 
# 
# 
# High freq. dielectric constant tensor:
#      x y z
#    x 1.704840 0.000000 0.000000 
#    y 0.000000 1.740570 0.000000 
#    z 0.000000 0.000000 1.760350 
# 
# From -- ./inp_files/20339.got.cif
#   From: 2010.03.12/outbox.cif.g09.slc.cpg/sg59_11_cif.got.tgz:20339.got - 2010.04.16 16:29:54.
