data_PCOD8242105
_publ_section_title
;
Structure prediction by ZEFSAII (Michael W. Deem and Ramdas Pophale) SiO2 
 PCOD8242105
Probable space group: P M M N
;
_chemical_formula_sum "Si O2"
_cell_formula_units_Z 64
_cell_length_a 17.941835
_cell_length_b 8.797937
_cell_length_c 21.508529
_cell_angle_alpha 90.000000
_cell_angle_beta 90.000000
_cell_angle_gamma 90.000000
_cell_volume 3395.145693
_symmetry_space_group_name_H-M "P M M N"
_symmetry_group_IT_number 59
_space_group.IT_coordinate_system_code '2'
_symmetry_cell_setting 'orthorhombic'
loop_
_space_group_symop_operation_xyz
x,y,z
1/2-x,1/2-y,z
1/2+x,-y,-z
-x,1/2+y,-z
-x,-y,-z
1/2+x,1/2+y,-z
1/2-x,y,z
x,1/2-y,z
loop_
_atom_site_type_symbol
_atom_site_label
_atom_site_fract_x
_atom_site_fract_y
_atom_site_fract_z
Si Si1 0.022065 0.070574 0.564968
Si Si2 0.555767 0.575097 0.675875
Si Si3 0.162503 0.423287 0.988197
Si Si4 0.407892 0.928882 0.105557
Si Si5 0.933721 0.071485 0.114594
Si Si6 0.832628 0.929446 0.365273
Si Si7 0.093739 0.575714 0.746905
Si Si8 0.336031 0.926898 0.235109
O O1 0.023283 0.250000 0.558464
O O2 0.103550 0.008116 0.587633
O O3 0.000000 0.000000 0.500000
O O4 0.959479 0.022226 0.614257
O O5 0.562586 0.750000 0.656251
O O6 0.490799 0.546822 0.725726
O O7 0.632454 0.520011 0.706472
O O8 0.250000 0.434737 0.979915
O O9 0.134659 0.250000 0.979828
O O10 0.127124 0.532238 0.936643
O O11 0.141247 0.481664 0.056059
O O12 0.398918 0.750000 0.094093
O O13 0.378169 0.977922 0.172872
O O14 0.493344 0.975569 0.098587
O O15 0.953108 0.250000 0.113561
O O16 0.900616 0.023528 0.181621
O O17 0.750000 0.988390 0.385078
O O18 0.834572 0.750000 0.366292
O O19 0.849259 0.979822 0.294746
O O20 0.116728 0.750000 0.738671
O O21 0.250000 0.968395 0.227534
O O22 0.348661 0.750000 0.248341
#
# Coordination Sequence:
#
# PCOD8242105 Si02
#       8
#     8   8   8   8   8   8   8   8
#     4  10  20  36  59  85 114 152 194 234 279 331
#     4  10  19  35  57  82 113 146 185 228 272 329
#     4  11  25  42  57  77 108 146 189 237 289 345
#     4  11  22  38  61  84 110 145 188 235 286 343
#     4  11  22  38  59  83 112 146 187 233 282 340
#     4   9  19  35  56  83 114 147 185 230 278 329
#     4   9  19  34  54  81 111 143 180 223 272 329
#     4  10  21  36  56  84 115 146 183 230 284 338
#
# _framework density 18.850442000000001
#
# number of rings (size 3 to 8) (size 9 to 14) (size 15 to 20)
#    0.000    1.875    1.250    2.625    0.000    5.000 
#    0.000    3.125    0.000    2.250    0.000    0.000 
#    0.000    0.000    0.000    0.000    0.000    0.000 
#
# Total GULP energy -793802.483275 kJ/mol
# GULP energy per Si atom -12403.163801 kJ/mol
# Density = 1.880754 g / cm^3
# Si number density = 18.850442 Si / 1000 Ang^3
#
#
#
# Elastic Constant Matrix: (Units=GPa)
#
#
# Indices 1 2 3 4 5 6 
#
# 1 91.3469 31.5542 38.5456 0.0000 0.0000 0.0000
# 2 31.5542 47.5700 30.9229 0.0000 0.0000 0.0000
# 3 38.5456 30.9229 96.7766 0.0000 0.0000 0.0000
# 4 0.0000 0.0000 0.0000 34.5568 0.0000 0.0000
# 5 0.0000 0.0000 0.0000 0.0000 21.2465 0.0000
# 6 0.0000 0.0000 0.0000 0.0000 0.0000 26.7106
#
#
#
# Elastic Compliance Matrix: (Units=1/GPa)
#
#
# Indices 1 2 3 4 5 6 
#
# 1 0.015111 -0.007713 -0.003554 0.000000 0.000000 0.000000
# 2 -0.007713 0.030470 -0.006664 0.000000 0.000000 0.000000
# 3 -0.003554 -0.006664 0.013878 0.000000 0.000000 0.000000
# 4 0.000000 0.000000 0.000000 0.028938 0.000000 0.000000
# 5 0.000000 0.000000 0.000000 0.000000 0.047067 0.000000
# 6 0.000000 0.000000 0.000000 0.000000 0.000000 0.037438
#
#
# Mechanical properties :
#
#
# Convention : Reuss Voigt Hill
#
# Bulk Modulus (GPa) = 42.37896 48.63765 45.50830
# Shear Modulus (GPa) = 23.08080 25.48084 24.28082
#
# Velocity S-wave (km/s) = 3.50296 3.68059 3.59287
# Velocity P-wave (km/s) = 6.23630 6.62723 6.43474
#
# Compressibility (1/GPa) = 0.02359662
#
# Stress axis : x y z
#
# Youngs Moduli (GPa) = 66.17485 32.81930 72.05665
#
# Poissons Ratio (x) = 0.25315 0.25610
# Poissons Ratio (y) = 0.51043 0.48017
# Poissons Ratio (z) = 0.23520 0.21870
#
# Static dielectric constant tensor:
#      x y z
#    x 3.557030 0.000000 0.000000 
#    y 0.000000 3.480680 0.000000 
#    z 0.000000 0.000000 3.493350 
# 
# 
# High freq. dielectric constant tensor:
#      x y z
#    x 1.729640 0.000000 0.000000 
#    y 0.000000 1.736140 0.000000 
#    z 0.000000 0.000000 1.731320 
# 
# From -- ./inp_files/30676.got.cif
#   From: 2010.03.12/outbox.cif.g09.slc.cpg/sg59_16_cif.got.tgz:30676.got - 2010.04.16 16:29:54.
