data_PCOD8242925
_publ_section_title
;
Structure prediction by ZEFSAII (Michael W. Deem and Ramdas Pophale) SiO2 
 PCOD8242925
Probable space group: P M M N
;
_chemical_formula_sum "Si O2"
_cell_formula_units_Z 64
_cell_length_a 18.554804
_cell_length_b 9.647576
_cell_length_c 19.494932
_cell_angle_alpha 90.000000
_cell_angle_beta 90.000000
_cell_angle_gamma 90.000000
_cell_volume 3489.765977
_symmetry_space_group_name_H-M "P M M N"
_symmetry_group_IT_number 59
_space_group.IT_coordinate_system_code '2'
_symmetry_cell_setting 'orthorhombic'
loop_
_space_group_symop_operation_xyz
x,y,z
1/2-x,1/2-y,z
1/2+x,-y,-z
-x,1/2+y,-z
-x,-y,-z
1/2+x,1/2+y,-z
1/2-x,y,z
x,1/2-y,z
loop_
_atom_site_type_symbol
_atom_site_label
_atom_site_fract_x
_atom_site_fract_y
_atom_site_fract_z
Si Si1 0.444153 0.911727 0.779066
Si Si2 0.332882 0.409480 0.022658
Si Si3 0.332407 0.907088 0.276525
Si Si4 0.412915 0.589671 0.411989
Si Si5 0.832990 0.089758 0.105967
Si Si6 0.934842 0.907607 0.355875
Si Si7 0.400443 0.089210 0.165145
Si Si8 0.667217 0.910407 0.476257
O O1 0.441814 0.750000 0.761279
O O2 0.378750 0.955893 0.828190
O O3 0.517766 0.951927 0.817700
O O4 0.435986 0.992241 0.708532
O O5 0.250000 0.442052 0.042286
O O6 0.342035 0.250000 0.001206
O O7 0.383999 0.447722 0.086360
O O8 0.358888 0.502181 0.959273
O O9 0.250000 0.918452 0.299228
O O10 0.353430 0.750000 0.256797
O O11 0.379617 0.960090 0.339985
O O12 0.345899 0.002946 0.211476
O O13 0.394158 0.750000 0.426416
O O14 0.498310 0.563439 0.407063
O O15 0.379950 0.499595 0.472158
O O16 0.750000 0.059124 0.123648
O O17 0.846490 0.250000 0.088024
O O18 0.938974 0.750000 0.328512
O O19 0.862392 0.933676 0.399319
O O20 0.384991 0.250000 0.179462
O O21 0.750000 0.959471 0.477899
O O22 0.659815 0.750000 0.497533
#
# Coordination Sequence:
#
# PCOD8242925 Si02
#       8
#     8   8   8   8   8   8   8   8
#     4  10  21  36  55  80 108 139 179 223 265 316
#     4   9  18  33  52  75 104 138 176 217 264 319
#     4  10  20  33  51  77 108 141 178 216 256 309
#     4  10  20  36  57  80 107 142 180 218 262 314
#     4   9  19  36  55  76 105 140 178 222 270 316
#     4  10  21  38  58  79 108 144 179 219 267 317
#     4  10  20  34  52  76 108 141 176 219 265 315
#     4  10  22  38  56  82 112 140 176 222 269 317
#
# _framework density 18.339338999999999
#
# number of rings (size 3 to 8) (size 9 to 14) (size 15 to 20)
#    0.000    2.250    1.250    1.125    0.000    5.000 
#    0.000    1.250    0.000    0.000    0.000    0.000 
#    0.000    0.000    0.000    0.000    0.000    0.000 
#
# Total GULP energy -793823.129957 kJ/mol
# GULP energy per Si atom -12403.486406 kJ/mol
# Density = 1.829760 g / cm^3
# Si number density = 18.339339 Si / 1000 Ang^3
#
#
#
# Elastic Constant Matrix: (Units=GPa)
#
#
# Indices 1 2 3 4 5 6 
#
# 1 71.3356 33.3244 51.7495 0.0000 0.0000 0.0000
# 2 33.3244 64.1040 63.3721 0.0000 0.0000 0.0000
# 3 51.7495 63.3721 116.5310 0.0000 0.0000 0.0000
# 4 0.0000 0.0000 0.0000 39.0507 0.0000 0.0000
# 5 0.0000 0.0000 0.0000 0.0000 31.9464 0.0000
# 6 0.0000 0.0000 0.0000 0.0000 0.0000 21.0666
#
#
#
# Elastic Compliance Matrix: (Units=1/GPa)
#
#
# Indices 1 2 3 4 5 6 
#
# 1 0.021075 -0.003684 -0.007356 0.000000 0.000000 0.000000
# 2 -0.003684 0.034381 -0.017061 0.000000 0.000000 0.000000
# 3 -0.007356 -0.017061 0.021126 0.000000 0.000000 0.000000
# 4 0.000000 0.000000 0.000000 0.025608 0.000000 0.000000
# 5 0.000000 0.000000 0.000000 0.000000 0.031302 0.000000
# 6 0.000000 0.000000 0.000000 0.000000 0.000000 0.047469
#
#
# Mechanical properties :
#
#
# Convention : Reuss Voigt Hill
#
# Bulk Modulus (GPa) = 49.06625 60.98472 55.02549
# Shear Modulus (GPa) = 20.49537 25.31436 22.90486
#
# Velocity S-wave (km/s) = 3.34662 3.71931 3.53788
# Velocity P-wave (km/s) = 6.46111 7.19514 6.83798
#
# Compressibility (1/GPa) = 0.02038061
#
# Stress axis : x y z
#
# Youngs Moduli (GPa) = 47.44859 29.08555 47.33471
#
# Poissons Ratio (x) = 0.10716 0.34817
# Poissons Ratio (y) = 0.17482 0.80758
# Poissons Ratio (z) = 0.34901 0.49623
#
# Static dielectric constant tensor:
#      x y z
#    x 3.511480 0.000000 0.000000 
#    y 0.000000 3.339910 0.000000 
#    z 0.000000 0.000000 3.257040 
# 
# 
# High freq. dielectric constant tensor:
#      x y z
#    x 1.718500 0.000000 0.000000 
#    y 0.000000 1.708110 0.000000 
#    z 0.000000 0.000000 1.707280 
# 
# From -- ./inp_files/28214.got.cif
#   From: 2010.03.12/outbox.cif.g09.slc.cpg/sg59_15_cif.got.tgz:28214.got - 2010.04.16 16:29:54.
