data_PCOD8242292
_publ_section_title
;
Structure prediction by ZEFSAII (Michael W. Deem and Ramdas Pophale) SiO2 
 PCOD8242292
Probable space group: P M M N
;
_chemical_formula_sum "Si O2"
_cell_formula_units_Z 64
_cell_length_a 9.229206
_cell_length_b 24.595400
_cell_length_c 17.876024
_cell_angle_alpha 90.000000
_cell_angle_beta 90.000000
_cell_angle_gamma 90.000000
_cell_volume 4057.786181
_symmetry_space_group_name_H-M "P M M N"
_symmetry_group_IT_number 59
_space_group.IT_coordinate_system_code '2'
_symmetry_cell_setting 'orthorhombic'
loop_
_space_group_symop_operation_xyz
x,y,z
1/2-x,1/2-y,z
1/2+x,-y,-z
-x,1/2+y,-z
-x,-y,-z
1/2+x,1/2+y,-z
1/2-x,y,z
x,1/2-y,z
loop_
_atom_site_type_symbol
_atom_site_label
_atom_site_fract_x
_atom_site_fract_y
_atom_site_fract_z
Si Si1 0.584019 0.814750 0.303564
Si Si2 0.581402 0.686727 0.694709
Si Si3 0.912949 0.185282 0.159662
Si Si4 0.417551 0.494999 0.577121
Si Si5 0.078511 0.190585 0.858511
Si Si6 0.086395 0.884782 0.582691
Si Si7 0.586813 0.815157 0.981464
Si Si8 0.581272 0.107165 0.592819
O O1 0.750000 0.830512 0.322094
O O2 0.565122 0.750000 0.305571
O O3 0.539156 0.838212 0.220566
O O4 0.477223 0.840424 0.363957
O O5 0.750000 0.675461 0.705775
O O6 0.548813 0.750000 0.681572
O O7 0.500574 0.664444 0.768319
O O8 0.525528 0.655009 0.622402
O O9 0.750000 0.162931 0.165085
O O10 0.916875 0.250000 0.157173
O O11 0.984608 0.161693 0.083999
O O12 0.500000 0.500000 0.500000
O O13 0.250000 0.480020 0.563161
O O14 0.430286 0.554067 0.616539
O O15 0.495462 0.446447 0.622943
O O16 0.250000 0.197853 0.861666
O O17 0.005031 0.250000 0.856958
O O18 0.032141 0.161476 0.937028
O O19 0.250000 0.863846 0.596505
O O20 0.051053 0.883897 0.494723
O O21 0.750000 0.834724 0.964014
O O22 0.582030 0.750000 0.984536
O O23 0.750000 0.098939 0.609430
#
# Coordination Sequence:
#
# PCOD8242292 Si02
#       8
#     8   8   8   8   8   8   8   8
#     4   9  17  29  44  62  87 120 154 184 216 256
#     4  10  20  31  43  61  85 114 147 178 208 248
#     4   9  16  25  37  54  79 110 140 171 209 250
#     4   9  17  31  50  69  86 105 135 177 223 265
#     4   7  11  21  37  56  78 107 142 177 212 249
#     4   9  19  33  47  63  83 109 140 176 219 260
#     4   8  12  20  36  55  75 102 138 176 209 245
#     4  10  20  32  46  65  88 115 146 180 220 261
#
# _framework density 15.772147
#
# number of rings (size 3 to 8) (size 9 to 14) (size 15 to 20)
#    0.000    3.125    0.000    3.750    0.000    6.000 
#    0.000    3.125    0.000    2.250    0.000    0.000 
#    0.000    1.000    0.000    3.000    0.000    4.375 
#
# Total GULP energy -792910.108566 kJ/mol
# GULP energy per Si atom -12389.220446 kJ/mol
# Density = 1.573625 g / cm^3
# Si number density = 15.772147 Si / 1000 Ang^3
#
#
#
# Elastic Constant Matrix: (Units=GPa)
#
#
# Indices 1 2 3 4 5 6 
#
# 1 105.0434 38.1895 56.0796 0.0000 0.0000 0.0000
# 2 38.1895 41.8474 35.7700 0.0000 0.0000 0.0000
# 3 56.0796 35.7700 95.2454 0.0000 0.0000 0.0000
# 4 0.0000 0.0000 0.0000 1.0713 0.0000 0.0000
# 5 0.0000 0.0000 0.0000 0.0000 20.5478 0.0000
# 6 0.0000 0.0000 0.0000 0.0000 0.0000 21.9404
#
#
#
# Elastic Compliance Matrix: (Units=1/GPa)
#
#
# Indices 1 2 3 4 5 6 
#
# 1 0.016208 -0.009770 -0.005874 0.000000 0.000000 0.000000
# 2 -0.009770 0.041084 -0.009677 0.000000 0.000000 0.000000
# 3 -0.005874 -0.009677 0.017592 0.000000 0.000000 0.000000
# 4 0.000000 0.000000 0.000000 0.933469 0.000000 0.000000
# 5 0.000000 0.000000 0.000000 0.000000 0.048667 0.000000
# 6 0.000000 0.000000 0.000000 0.000000 0.000000 0.045578
#
#
# Mechanical properties :
#
#
# Convention : Reuss Voigt Hill
#
# Bulk Modulus (GPa) = 41.25057 55.80160 48.52608
# Shear Modulus (GPa) = 4.30545 16.18503 10.24524
#
# Velocity S-wave (km/s) = 1.65400 3.20688 2.55145
# Velocity P-wave (km/s) = 5.46429 7.01204 6.28598
#
# Compressibility (1/GPa) = 0.02424209
#
# Stress axis : x y z
#
# Youngs Moduli (GPa) = 61.69876 24.34035 56.84512
#
# Poissons Ratio (x) = 0.23782 0.33389
# Poissons Ratio (y) = 0.60282 0.55007
# Poissons Ratio (z) = 0.36240 0.23553
#
# Static dielectric constant tensor:
#      x y z
#    x 3.028580 0.000000 0.000000 
#    y 0.000000 2.876950 0.000000 
#    z 0.000000 0.000000 3.200500 
# 
# 
# High freq. dielectric constant tensor:
#      x y z
#    x 1.606010 0.000000 0.000000 
#    y 0.000000 1.552340 0.000000 
#    z 0.000000 0.000000 1.603490 
# 
# From -- ./inp_files/26621.got.cif
#   From: 2010.03.12/outbox.cif.g09.slc.cpg/sg59_14_cif.got.tgz:26621.got - 2010.04.16 16:29:54.
