data_PCOD8242660
_publ_section_title
;
Structure prediction by ZEFSAII (Michael W. Deem and Ramdas Pophale) SiO2 
 PCOD8242660
Probable space group: P M M N
;
_chemical_formula_sum "Si O2"
_cell_formula_units_Z 64
_cell_length_a 9.443389
_cell_length_b 13.666997
_cell_length_c 27.634678
_cell_angle_alpha 90.000000
_cell_angle_beta 90.000000
_cell_angle_gamma 90.000000
_cell_volume 3566.608067
_symmetry_space_group_name_H-M "P M M N"
_symmetry_group_IT_number 59
_space_group.IT_coordinate_system_code '2'
_symmetry_cell_setting 'orthorhombic'
loop_
_space_group_symop_operation_xyz
x,y,z
1/2-x,1/2-y,z
1/2+x,-y,-z
-x,1/2+y,-z
-x,-y,-z
1/2+x,1/2+y,-z
1/2-x,y,z
x,1/2-y,z
loop_
_atom_site_type_symbol
_atom_site_label
_atom_site_fract_x
_atom_site_fract_y
_atom_site_fract_z
Si Si1 0.413895 0.551548 0.379847
Si Si2 0.915253 0.535806 0.195025
Si Si3 0.590535 0.365366 0.518079
Si Si4 0.913829 0.859278 0.573344
Si Si5 0.905466 0.358138 0.878549
Si Si6 0.586710 0.974055 0.952498
Si Si7 0.584659 0.137376 0.126672
Si Si8 0.583877 0.636938 0.291505
O O1 0.250000 0.576997 0.370012
O O2 0.465076 0.592127 0.431436
O O3 0.439226 0.433562 0.381709
O O4 0.505584 0.603091 0.339365
O O5 0.750000 0.550686 0.192209
O O6 0.958150 0.428181 0.174030
O O7 0.966119 0.560853 0.249432
O O8 0.979666 0.618830 0.161503
O O9 0.750000 0.401795 0.508055
O O10 0.582436 0.250000 0.522120
O O11 0.493709 0.401148 0.473758
O O12 0.750000 0.857686 0.559044
O O13 0.966323 0.750000 0.588202
O O14 0.750000 0.369501 0.854641
O O15 0.932707 0.250000 0.898235
O O16 0.918041 0.424736 0.924911
O O17 0.750000 0.941684 0.963275
O O18 0.508843 0.891332 0.920086
O O19 0.500000 0.000000 0.000000
O O20 0.750000 0.121227 0.113775
O O21 0.553621 0.250000 0.140113
O O22 0.750000 0.627362 0.300840
O O23 0.544668 0.750000 0.278858
#
# Coordination Sequence:
#
# PCOD8242660 Si02
#       8
#     8   8   8   8   8   8   8   8
#     4  10  20  33  49  70  98 131 164 199 241 292
#     4   9  18  34  54  75  99 126 159 201 247 294
#     4   9  17  29  46  69  95 123 159 202 244 288
#     4   9  18  32  49  69  94 126 164 203 242 285
#     4   9  18  32  50  72  97 126 161 201 243 288
#     4  10  20  33  49  73 106 140 173 209 250 296
#     4   9  18  34  56  78 101 134 174 214 256 300
#     4  10  21  35  51  74 103 130 156 195 249 303
#
# _framework density 17.944219
#
# number of rings (size 3 to 8) (size 9 to 14) (size 15 to 20)
#    0.000    2.625    0.000    1.500    0.000    4.250 
#    0.000    3.125    0.000    0.750    0.000    0.000 
#    0.000    0.000    0.000    0.000    0.000    0.000 
#
# Total GULP energy -793213.836233 kJ/mol
# GULP energy per Si atom -12393.966191 kJ/mol
# Density = 1.790338 g / cm^3
# Si number density = 17.944219 Si / 1000 Ang^3
#
#
#
# Elastic Constant Matrix: (Units=GPa)
#
#
# Indices 1 2 3 4 5 6 
#
# 1 49.8654 37.9858 45.8130 0.0000 0.0000 0.0000
# 2 37.9858 96.3462 58.3759 0.0000 0.0000 0.0000
# 3 45.8130 58.3759 90.1506 0.0000 0.0000 0.0000
# 4 0.0000 0.0000 0.0000 18.5291 0.0000 0.0000
# 5 0.0000 0.0000 0.0000 0.0000 26.8742 0.0000
# 6 0.0000 0.0000 0.0000 0.0000 0.0000 23.0888
#
#
#
# Elastic Compliance Matrix: (Units=1/GPa)
#
#
# Indices 1 2 3 4 5 6 
#
# 1 0.039368 -0.005595 -0.016383 0.000000 0.000000 0.000000
# 2 -0.005595 0.017876 -0.008732 0.000000 0.000000 0.000000
# 3 -0.016383 -0.008732 0.025073 0.000000 0.000000 0.000000
# 4 0.000000 0.000000 0.000000 0.053969 0.000000 0.000000
# 5 0.000000 0.000000 0.000000 0.000000 0.037210 0.000000
# 6 0.000000 0.000000 0.000000 0.000000 0.000000 0.043311
#
#
# Mechanical properties :
#
#
# Convention : Reuss Voigt Hill
#
# Bulk Modulus (GPa) = 47.85605 57.85684 52.85644
# Shear Modulus (GPa) = 17.53207 19.97760 18.75484
#
# Velocity S-wave (km/s) = 3.12914 3.34026 3.23642
# Velocity P-wave (km/s) = 6.30735 6.86943 6.59438
#
# Compressibility (1/GPa) = 0.02089600
#
# Stress axis : x y z
#
# Youngs Moduli (GPa) = 25.40160 55.94153 39.88430
#
# Poissons Ratio (x) = 0.31298 0.65343
# Poissons Ratio (y) = 0.14212 0.34827
# Poissons Ratio (z) = 0.41616 0.48849
#
# Static dielectric constant tensor:
#      x y z
#    x 3.540980 0.000000 0.000000 
#    y 0.000000 3.646280 0.000000 
#    z 0.000000 0.000000 3.224950 
# 
# 
# High freq. dielectric constant tensor:
#      x y z
#    x 1.694430 0.000000 0.000000 
#    y 0.000000 1.704810 0.000000 
#    z 0.000000 0.000000 1.675570 
# 
# From -- ./inp_files/31631.got.cif
#   From: 2010.03.12/outbox.cif.g09.slc.cpg/sg59_16_cif.got.tgz:31631.got - 2010.04.16 16:29:54.
