data_PCOD8242416
_publ_section_title
;
Structure prediction by ZEFSAII (Michael W. Deem and Ramdas Pophale) SiO2 
 PCOD8242416
Probable space group: P M M N
;
_chemical_formula_sum "Si O2"
_cell_formula_units_Z 56
_cell_length_a 9.430762
_cell_length_b 18.428891
_cell_length_c 18.147854
_cell_angle_alpha 90.000000
_cell_angle_beta 90.000000
_cell_angle_gamma 90.000000
_cell_volume 3154.069530
_symmetry_space_group_name_H-M "P M M N"
_symmetry_group_IT_number 59
_space_group.IT_coordinate_system_code '2'
_symmetry_cell_setting 'orthorhombic'
loop_
_space_group_symop_operation_xyz
x,y,z
1/2-x,1/2-y,z
1/2+x,-y,-z
-x,1/2+y,-z
-x,-y,-z
1/2+x,1/2+y,-z
1/2-x,y,z
x,1/2-y,z
loop_
_atom_site_type_symbol
_atom_site_label
_atom_site_fract_x
_atom_site_fract_y
_atom_site_fract_z
Si Si1 0.912751 0.942031 0.453383
Si Si2 0.589868 0.588290 0.290250
Si Si3 0.915800 0.333897 0.833760
Si Si4 0.416520 0.970730 0.070270
Si Si5 0.087258 0.831640 0.708159
Si Si6 0.910286 0.831164 0.576109
Si Si7 0.407331 0.544653 0.812926
O O1 0.750000 0.968860 0.447006
O O2 0.974512 0.923454 0.372223
O O3 0.926517 0.867714 0.497457
O O4 0.000000 0.000000 0.500000
O O5 0.750000 0.619966 0.294769
O O6 0.498035 0.643775 0.240709
O O7 0.590965 0.508910 0.255856
O O8 0.750000 0.342414 0.816558
O O9 0.952891 0.250000 0.854863
O O10 0.955990 0.388199 0.902358
O O11 0.250000 0.977773 0.055439
O O12 0.464804 0.026016 0.133183
O O13 0.500000 0.000000 0.000000
O O14 0.250000 0.834038 0.684958
O O15 0.033588 0.750000 0.723242
O O16 0.061065 0.875060 0.783415
O O17 0.002900 0.868471 0.640421
O O18 0.750000 0.834041 0.604488
O O19 0.966041 0.750000 0.564404
O O20 0.250000 0.541371 0.850890
#
# Coordination Sequence:
#
# PCOD8242416 Si02
#       7
#     8   8   8   8   8   8   8
#     4  10  20  32  47  69  97 129 167 211 256 300
#     4   9  18  31  48  71  97 129 168 208 250 295
#     4   9  19  36  56  78 103 131 165 205 249 296
#     4  10  20  35  56  79 103 131 161 194 235 287
#     4   9  17  30  49  71  94 124 163 203 241 283
#     4   9  18  31  45  63  91 127 163 200 245 293
#     4   9  17  31  50  71  97 126 158 197 239 285
#
# _framework density 17.754840000000002
#
# number of rings (size 3 to 8) (size 9 to 14) (size 15 to 20)
#    0.000    2.714    0.000    1.286    0.000    4.286 
#    0.000    5.000    0.000    6.000    0.000    0.000 
#    0.000    0.000    0.000    0.000    0.000    0.000 
#
# Total GULP energy -694007.192017 kJ/mol
# GULP energy per Si atom -12392.985572 kJ/mol
# Density = 1.771443 g / cm^3
# Si number density = 17.754840 Si / 1000 Ang^3
#
#
#
# Elastic Constant Matrix: (Units=GPa)
#
#
# Indices 1 2 3 4 5 6 
#
# 1 69.3743 44.5720 56.8943 0.0000 0.0000 0.0000
# 2 44.5720 86.4883 59.4917 0.0000 0.0000 0.0000
# 3 56.8943 59.4917 117.9136 0.0000 0.0000 0.0000
# 4 0.0000 0.0000 0.0000 20.0791 0.0000 0.0000
# 5 0.0000 0.0000 0.0000 0.0000 33.2623 0.0000
# 6 0.0000 0.0000 0.0000 0.0000 0.0000 24.3826
#
#
#
# Elastic Compliance Matrix: (Units=1/GPa)
#
#
# Indices 1 2 3 4 5 6 
#
# 1 0.026692 -0.007500 -0.009095 0.000000 0.000000 0.000000
# 2 -0.007500 0.019815 -0.006379 0.000000 0.000000 0.000000
# 3 -0.009095 -0.006379 0.016088 0.000000 0.000000 0.000000
# 4 0.000000 0.000000 0.000000 0.049803 0.000000 0.000000
# 5 0.000000 0.000000 0.000000 0.000000 0.030064 0.000000
# 6 0.000000 0.000000 0.000000 0.000000 0.000000 0.041013
#
#
# Mechanical properties :
#
#
# Convention : Reuss Voigt Hill
#
# Bulk Modulus (GPa) = 60.06961 66.18801 63.12881
# Shear Modulus (GPa) = 21.27926 23.06603 22.17265
#
# Velocity S-wave (km/s) = 3.46570 3.60827 3.53770
# Velocity P-wave (km/s) = 7.06548 7.39725 7.23327
#
# Compressibility (1/GPa) = 0.01664735
#
# Stress axis : x y z
#
# Youngs Moduli (GPa) = 37.46435 50.46732 62.15939
#
# Poissons Ratio (x) = 0.37848 0.56536
# Poissons Ratio (y) = 0.28096 0.39650
# Poissons Ratio (z) = 0.34075 0.32192
#
# Static dielectric constant tensor:
#      x y z
#    x 3.304490 0.000000 0.000000 
#    y 0.000000 3.441070 0.000000 
#    z 0.000000 0.000000 3.294830 
# 
# 
# High freq. dielectric constant tensor:
#      x y z
#    x 1.684430 0.000000 0.000000 
#    y 0.000000 1.684300 0.000000 
#    z 0.000000 0.000000 1.677230 
# 
# From -- ./inp_files/29303.got.cif
#   From: 2010.03.12/outbox.cif.g09.slc.cpg/sg59_15_cif.got.tgz:29303.got - 2010.04.16 16:29:54.
