data_PCOD8242546
_publ_section_title
;
Structure prediction by ZEFSAII (Michael W. Deem and Ramdas Pophale) SiO2 
 PCOD8242546
Probable space group: P M M N
;
_chemical_formula_sum "Si O2"
_cell_formula_units_Z 56
_cell_length_a 9.793915
_cell_length_b 15.352174
_cell_length_c 18.927330
_cell_angle_alpha 90.000000
_cell_angle_beta 90.000000
_cell_angle_gamma 90.000000
_cell_volume 2845.873350
_symmetry_space_group_name_H-M "P M M N"
_symmetry_group_IT_number 59
_space_group.IT_coordinate_system_code '2'
_symmetry_cell_setting 'orthorhombic'
loop_
_space_group_symop_operation_xyz
x,y,z
1/2-x,1/2-y,z
1/2+x,-y,-z
-x,1/2+y,-z
-x,-y,-z
1/2+x,1/2+y,-z
1/2-x,y,z
x,1/2-y,z
loop_
_atom_site_type_symbol
_atom_site_label
_atom_site_fract_x
_atom_site_fract_y
_atom_site_fract_z
Si Si1 0.596718 0.350209 0.831619
Si Si2 0.904841 0.409764 0.603141
Si Si3 0.600514 0.651364 0.287974
Si Si4 0.593793 0.899424 0.663784
Si Si5 0.906787 0.507349 0.932119
Si Si6 0.588147 0.849268 0.819596
Si Si7 0.099441 0.653233 0.544476
O O1 0.750000 0.357537 0.799945
O O2 0.565248 0.250000 0.853323
O O3 0.493619 0.389473 0.773397
O O4 0.582292 0.411601 0.898828
O O5 0.750000 0.374448 0.613634
O O6 0.922991 0.501210 0.641731
O O7 0.938959 0.412863 0.519404
O O8 0.018678 0.349077 0.638518
O O9 0.750000 0.604641 0.293243
O O10 0.626093 0.750000 0.266698
O O11 0.750000 0.867914 0.657966
O O12 0.536671 0.882332 0.742751
O O13 0.505689 0.845139 0.608605
O O14 0.750000 0.527826 0.953208
O O15 0.963610 0.583784 0.880076
O O16 0.000000 0.500000 0.000000
O O17 0.750000 0.852065 0.819172
O O18 0.536132 0.750000 0.834099
O O19 0.250000 0.628581 0.573838
O O20 0.100393 0.750000 0.511362
#
# Coordination Sequence:
#
# PCOD8242546 Si02
#       7
#     8   8   8   8   8   8   8
#     4   9  18  34  55  76 103 142 181 217 264 325
#     4  10  20  34  52  74 104 144 184 222 273 334
#     4  10  20  32  49  77 108 136 173 222 270 318
#     4  10  20  35  57  80 101 134 185 235 273 318
#     4  10  21  37  57  82 110 139 174 214 260 319
#     4   9  18  34  56  81 109 142 179 219 266 321
#     4  10  21  35  50  72 105 143 181 224 279 337
#
# _framework density 19.677613999999998
#
# number of rings (size 3 to 8) (size 9 to 14) (size 15 to 20)
#    0.000    2.286    0.000    2.571    0.000    6.857 
#    0.000    0.714    0.000    0.857    0.000    0.000 
#    0.000    0.000    0.000    0.000    0.000    0.000 
#
# Total GULP energy -694014.463791 kJ/mol
# GULP energy per Si atom -12393.115425 kJ/mol
# Density = 1.963283 g / cm^3
# Si number density = 19.677614 Si / 1000 Ang^3
#
#
#
# Elastic Constant Matrix: (Units=GPa)
#
#
# Indices 1 2 3 4 5 6 
#
# 1 105.8661 29.5378 71.7121 0.0000 0.0000 0.0000
# 2 29.5378 90.9822 55.3579 0.0000 0.0000 0.0000
# 3 71.7121 55.3579 150.5311 0.0000 0.0000 0.0000
# 4 0.0000 0.0000 0.0000 29.1518 0.0000 0.0000
# 5 0.0000 0.0000 0.0000 0.0000 34.4251 0.0000
# 6 0.0000 0.0000 0.0000 0.0000 0.0000 18.6774
#
#
#
# Elastic Compliance Matrix: (Units=1/GPa)
#
#
# Indices 1 2 3 4 5 6 
#
# 1 0.013974 -0.000626 -0.006427 0.000000 0.000000 0.000000
# 2 -0.000626 0.014188 -0.004919 0.000000 0.000000 0.000000
# 3 -0.006427 -0.004919 0.011514 0.000000 0.000000 0.000000
# 4 0.000000 0.000000 0.000000 0.034303 0.000000 0.000000
# 5 0.000000 0.000000 0.000000 0.000000 0.029049 0.000000
# 6 0.000000 0.000000 0.000000 0.000000 0.000000 0.053541
#
#
# Mechanical properties :
#
#
# Convention : Reuss Voigt Hill
#
# Bulk Modulus (GPa) = 63.56908 73.39944 68.48426
# Shear Modulus (GPa) = 26.91704 29.16897 28.04300
#
# Velocity S-wave (km/s) = 3.70253 3.85430 3.77917
# Velocity P-wave (km/s) = 7.11714 7.56237 7.34313
#
# Compressibility (1/GPa) = 0.01573092
#
# Stress axis : x y z
#
# Youngs Moduli (GPa) = 71.56100 70.48449 86.85204
#
# Poissons Ratio (x) = 0.04415 0.55818
# Poissons Ratio (y) = 0.04482 0.42723
# Poissons Ratio (z) = 0.45991 0.34672
#
# Static dielectric constant tensor:
#      x y z
#    x 3.726860 0.000000 0.000000 
#    y 0.000000 3.688330 0.000000 
#    z 0.000000 0.000000 3.438150 
# 
# 
# High freq. dielectric constant tensor:
#      x y z
#    x 1.752170 0.000000 0.000000 
#    y 0.000000 1.767160 0.000000 
#    z 0.000000 0.000000 1.755690 
# 
# From -- ./inp_files/23232.got.cif
#   From: 2010.03.12/outbox.cif.g09.slc.cpg/sg59_12_cif.got.tgz:23232.got - 2010.04.16 16:29:54.
