data_PCOD8242566
_publ_section_title
;
Structure prediction by ZEFSAII (Michael W. Deem and Ramdas Pophale) SiO2 
 PCOD8242566
Probable space group: P M M N
;
_chemical_formula_sum "Si O2"
_cell_formula_units_Z 48
_cell_length_a 16.232669
_cell_length_b 9.271977
_cell_length_c 17.900104
_cell_angle_alpha 90.000000
_cell_angle_beta 90.000000
_cell_angle_gamma 90.000000
_cell_volume 2694.125565
_symmetry_space_group_name_H-M "P M M N"
_symmetry_group_IT_number 59
_space_group.IT_coordinate_system_code '2'
_symmetry_cell_setting 'orthorhombic'
loop_
_space_group_symop_operation_xyz
x,y,z
1/2-x,1/2-y,z
1/2+x,-y,-z
-x,1/2+y,-z
-x,-y,-z
1/2+x,1/2+y,-z
1/2-x,y,z
x,1/2-y,z
loop_
_atom_site_type_symbol
_atom_site_label
_atom_site_fract_x
_atom_site_fract_y
_atom_site_fract_z
Si Si1 0.079012 0.420182 0.777048
Si Si2 0.935410 0.916755 0.701928
Si Si3 0.080366 0.416958 0.471470
Si Si4 0.250000 0.421634 0.545766
Si Si5 0.750000 0.579228 0.285593
Si Si6 0.488961 0.915960 0.075653
Si Si7 0.657285 0.415092 0.820517
O O1 0.068258 0.250000 0.763468
O O2 0.170720 0.475423 0.759937
O O3 0.057331 0.460265 0.862597
O O4 0.019699 0.499916 0.719022
O O5 0.946907 0.750000 0.722809
O O6 0.910954 0.938248 0.616587
O O7 0.861387 0.982753 0.750537
O O8 0.068555 0.250000 0.493256
O O9 0.165693 0.478509 0.506861
O O10 0.000000 0.500000 0.500000
O O11 0.250000 0.250000 0.541972
O O12 0.250000 0.482075 0.630314
O O13 0.750000 0.750000 0.290000
O O14 0.497215 0.750000 0.054944
O O15 0.399678 0.954324 0.109148
O O16 0.500000 0.000000 0.000000
O O17 0.750000 0.440077 0.847226
O O18 0.640616 0.250000 0.795730
#
# Coordination Sequence:
#
# PCOD8242566 Si02
#       7
#     8   8   8   4   4   8   8
#     4   9  18  34  55  77 100 136 178 216 254 307
#     4  10  20  32  51  77 106 138 172 216 266 313
#     4  10  21  35  52  75 106 140 177 218 267 318
#     4   9  18  32  51  75 102 137 172 212 263 313
#     4   9  16  30  55  77  94 127 180 220 247 295
#     4   9  18  33  52  75 105 134 164 206 253 304
#     4   9  19  36  56  77 101 136 178 214 251 305
#
# _framework density 17.816541000000001
#
# number of rings (size 3 to 8) (size 9 to 14) (size 15 to 20)
#    0.000    2.667    0.000    2.500    1.167    5.667 
#    1.500    0.833    0.000    3.000    0.000    0.000 
#    0.000    0.000    0.000    0.000    0.000    0.000 
#
# Total GULP energy -595131.199659 kJ/mol
# GULP energy per Si atom -12398.566660 kJ/mol
# Density = 1.777599 g / cm^3
# Si number density = 17.816541 Si / 1000 Ang^3
#
#
#
# Elastic Constant Matrix: (Units=GPa)
#
#
# Indices 1 2 3 4 5 6 
#
# 1 172.5270 44.2564 85.4709 0.0000 0.0000 0.0000
# 2 44.2564 55.1071 49.9996 0.0000 0.0000 0.0000
# 3 85.4709 49.9996 134.6347 0.0000 0.0000 0.0000
# 4 0.0000 0.0000 0.0000 29.6213 0.0000 0.0000
# 5 0.0000 0.0000 0.0000 0.0000 19.4886 0.0000
# 6 0.0000 0.0000 0.0000 0.0000 0.0000 22.0018
#
#
#
# Elastic Compliance Matrix: (Units=1/GPa)
#
#
# Indices 1 2 3 4 5 6 
#
# 1 0.008773 -0.003005 -0.004454 0.000000 0.000000 0.000000
# 2 -0.003005 0.028398 -0.008638 0.000000 0.000000 0.000000
# 3 -0.004454 -0.008638 0.013463 0.000000 0.000000 0.000000
# 4 0.000000 0.000000 0.000000 0.033759 0.000000 0.000000
# 5 0.000000 0.000000 0.000000 0.000000 0.051312 0.000000
# 6 0.000000 0.000000 0.000000 0.000000 0.000000 0.045451
#
#
# Mechanical properties :
#
#
# Convention : Reuss Voigt Hill
#
# Bulk Modulus (GPa) = 54.23077 80.19140 67.21108
# Shear Modulus (GPa) = 22.77936 26.39181 24.58559
#
# Velocity S-wave (km/s) = 3.57956 3.85295 3.71877
# Velocity P-wave (km/s) = 6.89847 8.05611 7.49966
#
# Compressibility (1/GPa) = 0.01843972
#
# Stress axis : x y z
#
# Youngs Moduli (GPa) = 113.98059 35.21434 74.27798
#
# Poissons Ratio (x) = 0.10582 0.33081
# Poissons Ratio (y) = 0.34251 0.64164
# Poissons Ratio (z) = 0.50764 0.30420
#
# Static dielectric constant tensor:
#      x y z
#    x 3.736870 0.000000 0.000000 
#    y 0.000000 3.174000 0.000000 
#    z 0.000000 0.000000 3.246500 
# 
# 
# High freq. dielectric constant tensor:
#      x y z
#    x 1.698920 0.000000 0.000000 
#    y 0.000000 1.669250 0.000000 
#    z 0.000000 0.000000 1.688510 
# 
# From -- ./inp_files/27423.got.cif
#   From: 2010.03.12/outbox.cif.g09.slc.cpg/sg59_14_cif.got.tgz:27423.got - 2010.04.16 16:29:54.
