data_PCOD8242473
_publ_section_title
;
Structure prediction by ZEFSAII (Michael W. Deem and Ramdas Pophale) SiO2 
 PCOD8242473
Probable space group: P M M N
;
_chemical_formula_sum "Si O2"
_cell_formula_units_Z 48
_cell_length_a 9.027721
_cell_length_b 23.414411
_cell_length_c 13.490923
_cell_angle_alpha 90.000000
_cell_angle_beta 90.000000
_cell_angle_gamma 90.000000
_cell_volume 2851.694708
_symmetry_space_group_name_H-M "P M M N"
_symmetry_group_IT_number 59
_space_group.IT_coordinate_system_code '2'
_symmetry_cell_setting 'orthorhombic'
loop_
_space_group_symop_operation_xyz
x,y,z
1/2-x,1/2-y,z
1/2+x,-y,-z
-x,1/2+y,-z
-x,-y,-z
1/2+x,1/2+y,-z
1/2-x,y,z
x,1/2-y,z
loop_
_atom_site_type_symbol
_atom_site_label
_atom_site_fract_x
_atom_site_fract_y
_atom_site_fract_z
Si Si1 0.079546 0.184496 0.355672
Si Si2 0.422992 0.585349 0.533781
Si Si3 0.078035 0.982309 0.153356
Si Si4 0.079652 0.184950 0.126655
Si Si5 0.423453 0.029675 0.644704
Si Si6 0.421238 0.581716 0.953844
O O1 0.250000 0.167407 0.373757
O O2 0.052410 0.250000 0.386938
O O3 0.037627 0.175808 0.241152
O O4 0.974131 0.145226 0.421287
O O5 0.250000 0.587805 0.510038
O O6 0.509010 0.575009 0.431691
O O7 0.460486 0.534798 0.610847
O O8 0.250000 0.990562 0.177119
O O9 0.996175 0.958488 0.249432
O O10 0.049541 0.936693 0.066590
O O11 0.013244 0.043418 0.122656
O O12 0.250000 0.168431 0.108311
O O13 0.050372 0.250000 0.095221
O O14 0.975008 0.146534 0.057837
O O15 0.250000 0.040777 0.652237
O O16 0.250000 0.575749 0.925381
#
# Coordination Sequence:
#
# PCOD8242473 Si02
#       6
#     8   8   8   8   8   8
#     4   9  18  32  49  70  97 128 160 194 234 280
#     4  10  20  32  48  72  99 126 157 194 238 285
#     4  10  20  33  49  70  98 129 160 198 241 284
#     4   9  18  32  50  72  98 129 162 196 237 283
#     4  10  20  33  50  72  97 126 160 197 238 286
#     4  10  20  32  48  72  99 128 161 196 238 285
#
# _framework density 16.832097999999998
#
# number of rings (size 3 to 8) (size 9 to 14) (size 15 to 20)
#    0.000    2.333    0.000    4.000    0.000    8.000 
#    0.000    1.667    0.000    1.000    0.000    4.667 
#    0.000    0.000    0.000    0.000    0.000    0.000 
#
# Total GULP energy -595393.609503 kJ/mol
# GULP energy per Si atom -12404.033531 kJ/mol
# Density = 1.679379 g / cm^3
# Si number density = 16.832098 Si / 1000 Ang^3
#
#
#
# Elastic Constant Matrix: (Units=GPa)
#
#
# Indices 1 2 3 4 5 6 
#
# 1 95.1488 45.1271 56.2601 0.0000 0.0000 0.0000
# 2 45.1271 88.8725 42.1569 0.0000 0.0000 0.0000
# 3 56.2601 42.1569 90.6085 0.0000 0.0000 0.0000
# 4 0.0000 0.0000 0.0000 25.4381 0.0000 0.0000
# 5 0.0000 0.0000 0.0000 0.0000 32.8404 0.0000
# 6 0.0000 0.0000 0.0000 0.0000 0.0000 32.7701
#
#
#
# Elastic Compliance Matrix: (Units=1/GPa)
#
#
# Indices 1 2 3 4 5 6 
#
# 1 0.018172 -0.004972 -0.008970 0.000000 0.000000 0.000000
# 2 -0.004972 0.015799 -0.004263 0.000000 0.000000 0.000000
# 3 -0.008970 -0.004263 0.018589 0.000000 0.000000 0.000000
# 4 0.000000 0.000000 0.000000 0.039311 0.000000 0.000000
# 5 0.000000 0.000000 0.000000 0.000000 0.030450 0.000000
# 6 0.000000 0.000000 0.000000 0.000000 0.000000 0.030516
#
#
# Mechanical properties :
#
#
# Convention : Reuss Voigt Hill
#
# Bulk Modulus (GPa) = 61.92079 62.41310 62.16694
# Shear Modulus (GPa) = 25.68955 26.94876 26.31916
#
# Velocity S-wave (km/s) = 3.91093 4.00563 3.95856
# Velocity P-wave (km/s) = 7.56710 7.65204 7.60969
#
# Compressibility (1/GPa) = 0.01614966
#
# Stress axis : x y z
#
# Youngs Moduli (GPa) = 55.03043 63.29406 53.79382
#
# Poissons Ratio (x) = 0.31472 0.48251
# Poissons Ratio (y) = 0.27363 0.22935
# Poissons Ratio (z) = 0.49360 0.26985
#
# Static dielectric constant tensor:
#      x y z
#    x 3.185140 0.000000 0.000000 
#    y 0.000000 3.027040 0.000000 
#    z 0.000000 0.000000 3.039620 
# 
# 
# High freq. dielectric constant tensor:
#      x y z
#    x 1.661040 0.000000 0.000000 
#    y 0.000000 1.637150 0.000000 
#    z 0.000000 0.000000 1.637880 
# 
# From -- ./inp_files/14321.got.cif
#   From: 2010.03.12/outbox.cif.g09.slc.cpg/sg59_8_cif.got.tgz:14321.got - 2010.04.16 16:29:54.
