data_PCOD8242171
_publ_section_title
;
Structure prediction by ZEFSAII (Michael W. Deem and Ramdas Pophale) SiO2 
 PCOD8242171
Probable space group: P M M N
;
_chemical_formula_sum "Si O2"
_cell_formula_units_Z 56
_cell_length_a 17.208359
_cell_length_b 18.231051
_cell_length_c 9.159744
_cell_angle_alpha 90.000000
_cell_angle_beta 90.000000
_cell_angle_gamma 90.000000
_cell_volume 2873.654156
_symmetry_space_group_name_H-M "P M M N"
_symmetry_group_IT_number 59
_space_group.IT_coordinate_system_code '2'
_symmetry_cell_setting 'orthorhombic'
loop_
_space_group_symop_operation_xyz
x,y,z
1/2-x,1/2-y,z
1/2+x,-y,-z
-x,1/2+y,-z
-x,-y,-z
1/2+x,1/2+y,-z
1/2-x,y,z
x,1/2-y,z
loop_
_atom_site_type_symbol
_atom_site_label
_atom_site_fract_x
_atom_site_fract_y
_atom_site_fract_z
Si Si1 0.108693 0.076968 0.943326
Si Si2 0.750000 0.666353 0.742316
Si Si3 0.838794 0.079934 0.974527
Si Si4 0.912093 0.600865 0.735591
Si Si5 0.750000 0.668314 0.089637
Si Si6 0.662327 0.165099 0.256679
Si Si7 0.468065 0.666223 0.526236
Si Si8 0.960949 0.437502 0.744024
O O1 0.170647 0.128247 0.857553
O O2 0.038408 0.053823 0.840055
O O3 0.155997 0.006391 0.997598
O O4 0.075682 0.115042 0.090763
O O5 0.750000 0.750000 0.681119
O O6 0.824573 0.621014 0.686666
O O7 0.750000 0.668925 0.916042
O O8 0.750000 0.102046 0.938173
O O9 0.870012 0.121622 0.117203
O O10 0.893167 0.101696 0.837999
O O11 0.932804 0.517351 0.690964
O O12 0.966928 0.656510 0.649483
O O13 0.750000 0.750000 0.156042
O O14 0.750000 0.140796 0.291049
O O15 0.655535 0.250000 0.216681
O O16 0.614253 0.145682 0.401157
O O17 0.469496 0.750000 0.470856
O O18 0.482408 0.612699 0.391876
#
# Coordination Sequence:
#
# PCOD8242171 Si02
#       8
#     8   4   8   8   4   8   8   8
#     4  10  19  36  57  87 116 145 194 242 293 349
#     4   9  18  34  59  89 110 141 192 244 285 333
#     4  10  19  35  60  87 113 145 187 240 294 345
#     4  10  20  37  61  83 114 149 197 238 285 349
#     4   9  18  32  55  83 116 149 186 238 293 347
#     4   9  19  36  57  79 106 148 198 240 279 338
#     4  11  23  39  55  78 116 158 196 236 288 346
#     4  11  23  34  57  87 121 152 188 241 299 348
#
# _framework density 19.487383000000001
#
# number of rings (size 3 to 8) (size 9 to 14) (size 15 to 20)
#    0.000    2.000    0.714    4.286    3.000    2.286 
#    0.000    0.714    0.000    0.857    0.000    0.000 
#    0.000    0.000    0.000    0.000    0.000    0.000 
#
# Total GULP energy -694459.898038 kJ/mol
# GULP energy per Si atom -12401.069608 kJ/mol
# Density = 1.944303 g / cm^3
# Si number density = 19.487383 Si / 1000 Ang^3
#
#
#
# Elastic Constant Matrix: (Units=GPa)
#
#
# Indices 1 2 3 4 5 6 
#
# 1 110.4665 41.7566 30.0171 0.0000 0.0000 0.0000
# 2 41.7566 77.2878 27.5614 0.0000 0.0000 0.0000
# 3 30.0171 27.5614 60.5177 0.0000 0.0000 0.0000
# 4 0.0000 0.0000 0.0000 29.5473 0.0000 0.0000
# 5 0.0000 0.0000 0.0000 0.0000 10.6026 0.0000
# 6 0.0000 0.0000 0.0000 0.0000 0.0000 31.2592
#
#
#
# Elastic Compliance Matrix: (Units=1/GPa)
#
#
# Indices 1 2 3 4 5 6 
#
# 1 0.011991 -0.005203 -0.003578 0.000000 0.000000 0.000000
# 2 -0.005203 0.017705 -0.005483 0.000000 0.000000 0.000000
# 3 -0.003578 -0.005483 0.020796 0.000000 0.000000 0.000000
# 4 0.000000 0.000000 0.000000 0.033844 0.000000 0.000000
# 5 0.000000 0.000000 0.000000 0.000000 0.094317 0.000000
# 6 0.000000 0.000000 0.000000 0.000000 0.000000 0.031991
#
#
# Mechanical properties :
#
#
# Convention : Reuss Voigt Hill
#
# Bulk Modulus (GPa) = 45.52756 49.66023 47.59389
# Shear Modulus (GPa) = 20.28459 24.21095 22.24777
#
# Velocity S-wave (km/s) = 3.22981 3.52858 3.38250
# Velocity P-wave (km/s) = 6.10919 6.49152 6.30325
#
# Compressibility (1/GPa) = 0.02196472
#
# Stress axis : x y z
#
# Youngs Moduli (GPa) = 83.39254 56.48238 48.08623
#
# Poissons Ratio (x) = 0.29385 0.17207
# Poissons Ratio (y) = 0.43386 0.26364
# Poissons Ratio (z) = 0.29841 0.30967
#
# Static dielectric constant tensor:
#      x y z
#    x 3.777620 0.000000 0.000000 
#    y 0.000000 3.548850 0.000000 
#    z 0.000000 0.000000 3.279210 
# 
# 
# High freq. dielectric constant tensor:
#      x y z
#    x 1.773900 0.000000 0.000000 
#    y 0.000000 1.757060 0.000000 
#    z 0.000000 0.000000 1.727760 
# 
# From -- ./inp_files/9397.got.cif
#   From: 2010.03.12/outbox.cif.g09.slc.cpg/sg59_5_cif.got.tgz:9397.got - 2010.04.16 16:29:54.
