data_PCOD8242610
_publ_section_title
;
Structure prediction by ZEFSAII (Michael W. Deem and Ramdas Pophale) SiO2 
 PCOD8242610
Probable space group: P M M N
;
_chemical_formula_sum "Si O2"
_cell_formula_units_Z 64
_cell_length_a 8.938277
_cell_length_b 29.444093
_cell_length_c 14.874393
_cell_angle_alpha 90.000000
_cell_angle_beta 90.000000
_cell_angle_gamma 90.000000
_cell_volume 3914.634706
_symmetry_space_group_name_H-M "P M M N"
_symmetry_group_IT_number 59
_space_group.IT_coordinate_system_code '2'
_symmetry_cell_setting 'orthorhombic'
loop_
_space_group_symop_operation_xyz
x,y,z
1/2-x,1/2-y,z
1/2+x,-y,-z
-x,1/2+y,-z
-x,-y,-z
1/2+x,1/2+y,-z
1/2-x,y,z
x,1/2-y,z
loop_
_atom_site_type_symbol
_atom_site_label
_atom_site_fract_x
_atom_site_fract_y
_atom_site_fract_z
Si Si1 0.425775 0.617754 0.200764
Si Si2 0.077917 0.437175 0.938165
Si Si3 0.577035 0.526560 0.872183
Si Si4 0.424734 0.060511 0.642861
Si Si5 0.920530 0.801477 0.282523
Si Si6 0.076331 0.958646 0.692157
Si Si7 0.076853 0.896794 0.529067
Si Si8 0.921051 0.300161 0.531326
O O1 0.250000 0.614102 0.205805
O O2 0.482710 0.604378 0.101467
O O3 0.493928 0.584215 0.274412
O O4 0.476704 0.669123 0.217156
O O5 0.250000 0.430649 0.911924
O O6 0.023520 0.482897 0.890185
O O7 0.054972 0.438343 0.045524
O O8 0.750000 0.511715 0.864244
O O9 0.522119 0.550084 0.780892
O O10 0.250000 0.070422 0.651123
O O11 0.481457 0.080799 0.549623
O O12 0.460387 0.006983 0.646462
O O13 0.750000 0.818207 0.276516
O O14 0.937916 0.750000 0.250048
O O15 0.971380 0.807548 0.384741
O O16 0.250000 0.955290 0.718586
O O17 0.028975 0.919075 0.623145
O O18 0.250000 0.907336 0.508404
O O19 0.048256 0.842134 0.536524
O O20 0.750000 0.302403 0.565782
O O21 0.951744 0.250000 0.487203
#
# Coordination Sequence:
#
# PCOD8242610 Si02
#       8
#     8   8   8   8   8   8   8   8
#     4  12  22  32  50  74 100 133 167 201 243 296
#     4  10  20  34  51  72  98 126 161 204 246 294
#     4  10  20  33  51  73  96 126 163 203 247 293
#     4  11  21  32  46  67  97 135 170 204 243 286
#     4  10  20  33  50  72  99 130 163 202 248 295
#     4  10  21  34  48  67  98 135 170 209 247 288
#     4  10  20  33  48  69  96 132 171 205 245 294
#     4   9  17  30  48  69  95 126 161 204 248 290
#
# _framework density 16.348908000000002
#
# number of rings (size 3 to 8) (size 9 to 14) (size 15 to 20)
#    0.000    1.750    2.500    3.000    0.000    3.250 
#    0.000    0.000    0.000    0.000    0.000    0.875 
#    0.000    3.000    0.000    0.000    0.000    0.000 
#
# Total GULP energy -793608.855868 kJ/mol
# GULP energy per Si atom -12400.138373 kJ/mol
# Density = 1.631170 g / cm^3
# Si number density = 16.348908 Si / 1000 Ang^3
#
#
#
# Elastic Constant Matrix: (Units=GPa)
#
#
# Indices 1 2 3 4 5 6 
#
# 1 98.7830 46.3552 47.9081 0.0000 0.0000 0.0000
# 2 46.3552 109.3929 55.8151 0.0000 0.0000 0.0000
# 3 47.9081 55.8151 92.3068 0.0000 0.0000 0.0000
# 4 0.0000 0.0000 0.0000 21.9621 0.0000 0.0000
# 5 0.0000 0.0000 0.0000 0.0000 27.5199 0.0000
# 6 0.0000 0.0000 0.0000 0.0000 0.0000 21.3983
#
#
#
# Elastic Compliance Matrix: (Units=1/GPa)
#
#
# Indices 1 2 3 4 5 6 
#
# 1 0.014302 -0.003287 -0.005435 0.000000 0.000000 0.000000
# 2 -0.003287 0.013976 -0.006744 0.000000 0.000000 0.000000
# 3 -0.005435 -0.006744 0.017732 0.000000 0.000000 0.000000
# 4 0.000000 0.000000 0.000000 0.045533 0.000000 0.000000
# 5 0.000000 0.000000 0.000000 0.000000 0.036337 0.000000
# 6 0.000000 0.000000 0.000000 0.000000 0.000000 0.046733
#
#
# Mechanical properties :
#
#
# Convention : Reuss Voigt Hill
#
# Bulk Modulus (GPa) = 66.32971 66.73772 66.53372
# Shear Modulus (GPa) = 23.74490 24.20301 23.97395
#
# Velocity S-wave (km/s) = 3.81515 3.85178 3.83351
# Velocity P-wave (km/s) = 7.75026 7.79045 7.77038
#
# Compressibility (1/GPa) = 0.01507620
#
# Stress axis : x y z
#
# Youngs Moduli (GPa) = 69.92187 71.55361 56.39383
#
# Poissons Ratio (x) = 0.23521 0.30650
# Poissons Ratio (y) = 0.22985 0.38035
# Poissons Ratio (z) = 0.38003 0.48259
#
# Static dielectric constant tensor:
#      x y z
#    x 3.199590 0.000000 0.000000 
#    y 0.000000 3.258400 0.000000 
#    z 0.000000 0.000000 3.062130 
# 
# 
# High freq. dielectric constant tensor:
#      x y z
#    x 1.643500 0.000000 0.000000 
#    y 0.000000 1.619470 0.000000 
#    z 0.000000 0.000000 1.605090 
# 
# From -- ./inp_files/21853.got.cif
#   From: 2010.03.12/outbox.cif.g09.slc.cpg/sg59_11_cif.got.tgz:21853.got - 2010.04.16 16:29:54.
