data_PCOD8242116
_publ_section_title
;
Structure prediction by ZEFSAII (Michael W. Deem and Ramdas Pophale) SiO2 
 PCOD8242116
Probable space group: P M M N
;
_chemical_formula_sum "Si O2"
_cell_formula_units_Z 40
_cell_length_a 10.035240
_cell_length_b 8.890804
_cell_length_c 24.022950
_cell_angle_alpha 90.000000
_cell_angle_beta 90.000000
_cell_angle_gamma 90.000000
_cell_volume 2143.360076
_symmetry_space_group_name_H-M "P M M N"
_symmetry_group_IT_number 59
_space_group.IT_coordinate_system_code '2'
_symmetry_cell_setting 'orthorhombic'
loop_
_space_group_symop_operation_xyz
x,y,z
1/2-x,1/2-y,z
1/2+x,-y,-z
-x,1/2+y,-z
-x,-y,-z
1/2+x,1/2+y,-z
1/2-x,y,z
x,1/2-y,z
loop_
_atom_site_type_symbol
_atom_site_label
_atom_site_fract_x
_atom_site_fract_y
_atom_site_fract_z
Si Si1 0.097516 0.573108 0.044147
Si Si2 0.750000 0.071479 0.578738
Si Si3 0.511993 0.071179 0.376006
Si Si4 0.101459 0.928541 0.745262
Si Si5 0.750000 0.071774 0.453145
Si Si6 0.597452 0.925847 0.839651
O O1 0.250000 0.528679 0.029858
O O2 0.077057 0.750000 0.043075
O O3 0.058226 0.513322 0.104747
O O4 0.000000 0.500000 0.000000
O O5 0.750000 0.250000 0.578487
O O6 0.750000 0.007327 0.515663
O O7 0.624262 0.010984 0.611522
O O8 0.492128 0.250000 0.377913
O O9 0.559328 0.015169 0.315608
O O10 0.619058 0.014329 0.421225
O O11 0.250000 0.988622 0.759159
O O12 0.100561 0.750000 0.745600
O O13 0.997235 0.989511 0.790891
O O14 0.750000 0.250000 0.452845
O O15 0.750000 0.957503 0.822128
O O16 0.573341 0.750000 0.850444
#
# Coordination Sequence:
#
# PCOD8242116 Si02
#       6
#     8   4   8   8   4   8
#     4  10  21  37  57  82 113 149 186 222 263 313
#     4  11  23  35  49  77 113 143 174 219 276 331
#     4  10  19  35  58  80 102 137 184 227 267 321
#     4   9  17  31  54  81 105 132 175 228 273 314
#     4   9  18  35  57  79 105 137 178 227 274 321
#     4   9  18  32  52  79 110 141 175 220 270 318
#
# _framework density 18.662285000000001
#
# number of rings (size 3 to 8) (size 9 to 14) (size 15 to 20)
#    0.000    2.400    1.000    1.500    1.400    2.000 
#    0.000    4.500    0.000    1.200    0.000    0.000 
#    0.000    0.000    0.000    0.000    0.000    0.000 
#
# Total GULP energy -496041.010744 kJ/mol
# GULP energy per Si atom -12401.025269 kJ/mol
# Density = 1.861981 g / cm^3
# Si number density = 18.662285 Si / 1000 Ang^3
#
#
#
# Elastic Constant Matrix: (Units=GPa)
#
#
# Indices 1 2 3 4 5 6 
#
# 1 157.4113 33.1677 92.2296 0.0000 0.0000 0.0000
# 2 33.1677 37.4604 33.7785 0.0000 0.0000 0.0000
# 3 92.2296 33.7785 149.2611 0.0000 0.0000 0.0000
# 4 0.0000 0.0000 0.0000 24.8939 0.0000 0.0000
# 5 0.0000 0.0000 0.0000 0.0000 43.3705 0.0000
# 6 0.0000 0.0000 0.0000 0.0000 0.0000 4.2190
#
#
#
# Elastic Compliance Matrix: (Units=1/GPa)
#
#
# Indices 1 2 3 4 5 6 
#
# 1 0.010488 -0.004325 -0.005502 0.000000 0.000000 0.000000
# 2 -0.004325 0.035322 -0.005321 0.000000 0.000000 0.000000
# 3 -0.005502 -0.005321 0.011303 0.000000 0.000000 0.000000
# 4 0.000000 0.000000 0.000000 0.040170 0.000000 0.000000
# 5 0.000000 0.000000 0.000000 0.000000 0.023057 0.000000
# 6 0.000000 0.000000 0.000000 0.000000 0.000000 0.237021
#
#
# Mechanical properties :
#
#
# Convention : Reuss Voigt Hill
#
# Bulk Modulus (GPa) = 37.28857 73.60938 55.44898
# Shear Modulus (GPa) = 12.60727 26.82716 19.71722
#
# Velocity S-wave (km/s) = 2.60195 3.79556 3.25395
# Velocity P-wave (km/s) = 5.38989 7.66400 6.62525
#
# Compressibility (1/GPa) = 0.02681787
#
# Stress axis : x y z
#
# Youngs Moduli (GPa) = 95.35129 28.31064 88.46925
#
# Poissons Ratio (x) = 0.12244 0.48672
# Poissons Ratio (y) = 0.41239 0.47076
# Poissons Ratio (z) = 0.52458 0.15065
#
# Static dielectric constant tensor:
#      x y z
#    x 3.676500 0.000000 0.000000 
#    y 0.000000 3.093300 0.000000 
#    z 0.000000 0.000000 1.681630 
# 
# 
# High freq. dielectric constant tensor:
#      x y z
#    x 1.737540 0.000000 0.000000 
#    y 0.000000 1.690430 0.000000 
#    z 0.000000 0.000000 1.734220 
# 
# From -- ./inp_files/32403.got.cif
#   From: 2010.03.12/outbox.cif.g09.slc.cpg/sg59_17_cif.got.tgz:32403.got - 2010.04.16 16:29:54.
