data_PCOD8242645
_publ_section_title
;
Structure prediction by ZEFSAII (Michael W. Deem and Ramdas Pophale) SiO2 
 PCOD8242645
Probable space group: P M M N
;
_chemical_formula_sum "Si O2"
_cell_formula_units_Z 64
_cell_length_a 17.337376
_cell_length_b 9.254505
_cell_length_c 23.133942
_cell_angle_alpha 90.000000
_cell_angle_beta 90.000000
_cell_angle_gamma 90.000000
_cell_volume 3711.813994
_symmetry_space_group_name_H-M "P M M N"
_symmetry_group_IT_number 59
_space_group.IT_coordinate_system_code '2'
_symmetry_cell_setting 'orthorhombic'
loop_
_space_group_symop_operation_xyz
x,y,z
1/2-x,1/2-y,z
1/2+x,-y,-z
-x,1/2+y,-z
-x,-y,-z
1/2+x,1/2+y,-z
1/2-x,y,z
x,1/2-y,z
loop_
_atom_site_type_symbol
_atom_site_label
_atom_site_fract_x
_atom_site_fract_y
_atom_site_fract_z
Si Si1 0.598572 0.582090 0.070031
Si Si2 0.984175 0.079404 0.236860
Si Si3 0.660146 0.917192 0.948153
Si Si4 0.475332 0.583481 0.635197
Si Si5 0.334763 0.585837 0.830221
Si Si6 0.057228 0.580144 0.134326
Si Si7 0.337675 0.580958 0.554915
Si Si8 0.430012 0.081838 0.470890
O O1 0.615997 0.750000 0.074993
O O2 0.659565 0.506062 0.111653
O O3 0.512484 0.542864 0.090543
O O4 0.612806 0.530105 0.004587
O O5 0.002477 0.250000 0.233214
O O6 0.990544 0.014835 0.301855
O O7 0.897334 0.040747 0.217392
O O8 0.044162 0.994567 0.196389
O O9 0.750000 0.943774 0.959225
O O10 0.642630 0.750000 0.934362
O O11 0.633841 0.013188 0.893802
O O12 0.456416 0.750000 0.645880
O O13 0.398473 0.521035 0.602949
O O14 0.554086 0.563381 0.597834
O O15 0.250000 0.562878 0.802742
O O16 0.348603 0.750000 0.849164
O O17 0.067659 0.750000 0.143897
O O18 0.250000 0.551681 0.575429
O O19 0.351988 0.750000 0.542893
O O20 0.352306 0.495148 0.494278
O O21 0.429054 0.250000 0.488122
O O22 0.500000 0.000000 0.500000
#
# Coordination Sequence:
#
# PCOD8242645 Si02
#       8
#     8   8   8   8   8   8   8   8
#     4   9  18  32  49  68  91 121 153 183 223 279
#     4   9  17  31  49  66  89 123 161 195 226 265
#     4  10  20  33  50  71  92 117 151 189 232 282
#     4   8  15  28  47  69  90 120 161 197 226 262
#     4   9  17  27  41  65  94 121 150 186 227 269
#     4  10  20  33  49  70  95 122 153 190 233 277
#     4   9  17  29  46  71 102 130 155 187 230 277
#     4   9  16  28  46  68  94 123 157 192 228 270
#
# _framework density 17.242243999999999
#
# number of rings (size 3 to 8) (size 9 to 14) (size 15 to 20)
#    0.000    2.875    0.000    2.250    0.000    2.750 
#    0.000    5.625    0.000    0.750    0.000    7.000 
#    0.000    0.000    0.000    0.000    0.000    0.000 
#
# Total GULP energy -793240.436831 kJ/mol
# GULP energy per Si atom -12394.381825 kJ/mol
# Density = 1.720300 g / cm^3
# Si number density = 17.242244 Si / 1000 Ang^3
#
#
#
# Elastic Constant Matrix: (Units=GPa)
#
#
# Indices 1 2 3 4 5 6 
#
# 1 45.0091 23.3456 40.2505 0.0000 0.0000 0.0000
# 2 23.3456 54.2418 43.8916 0.0000 0.0000 0.0000
# 3 40.2505 43.8916 130.1190 0.0000 0.0000 0.0000
# 4 0.0000 0.0000 0.0000 22.5540 0.0000 0.0000
# 5 0.0000 0.0000 0.0000 0.0000 18.2638 0.0000
# 6 0.0000 0.0000 0.0000 0.0000 0.0000 23.5859
#
#
#
# Elastic Compliance Matrix: (Units=1/GPa)
#
#
# Indices 1 2 3 4 5 6 
#
# 1 0.033180 -0.008219 -0.007491 0.000000 0.000000 0.000000
# 2 -0.008219 0.027393 -0.006698 0.000000 0.000000 0.000000
# 3 -0.007491 -0.006698 0.012262 0.000000 0.000000 0.000000
# 4 0.000000 0.000000 0.000000 0.044338 0.000000 0.000000
# 5 0.000000 0.000000 0.000000 0.000000 0.054753 0.000000
# 6 0.000000 0.000000 0.000000 0.000000 0.000000 0.042398
#
#
# Mechanical properties :
#
#
# Convention : Reuss Voigt Hill
#
# Bulk Modulus (GPa) = 35.68996 49.37169 42.53082
# Shear Modulus (GPa) = 18.62335 21.00623 19.81479
#
# Velocity S-wave (km/s) = 3.29005 3.49420 3.39366
# Velocity P-wave (km/s) = 5.93099 6.70638 6.33057
#
# Compressibility (1/GPa) = 0.02801909
#
# Stress axis : x y z
#
# Youngs Moduli (GPa) = 30.13860 36.50555 81.55287
#
# Poissons Ratio (x) = 0.30003 0.61095
# Poissons Ratio (y) = 0.24770 0.54623
# Poissons Ratio (z) = 0.22578 0.24451
#
# Static dielectric constant tensor:
#      x y z
#    x 3.251090 0.000000 0.000000 
#    y 0.000000 3.180210 0.000000 
#    z 0.000000 0.000000 3.390510 
# 
# 
# High freq. dielectric constant tensor:
#      x y z
#    x 1.648410 0.000000 0.000000 
#    y 0.000000 1.654890 0.000000 
#    z 0.000000 0.000000 1.655270 
# 
# From -- ./inp_files/32316.got.cif
#   From: 2010.03.12/outbox.cif.g09.slc.cpg/sg59_17_cif.got.tgz:32316.got - 2010.04.16 16:29:54.
