data_PCOD8242209
_publ_section_title
;
Structure prediction by ZEFSAII (Michael W. Deem and Ramdas Pophale) SiO2 
 PCOD8242209
Probable space group: P M M N
;
_chemical_formula_sum "Si O2"
_cell_formula_units_Z 48
_cell_length_a 14.618353
_cell_length_b 8.814803
_cell_length_c 19.642063
_cell_angle_alpha 90.000000
_cell_angle_beta 90.000000
_cell_angle_gamma 90.000000
_cell_volume 2531.035027
_symmetry_space_group_name_H-M "P M M N"
_symmetry_group_IT_number 59
_space_group.IT_coordinate_system_code '2'
_symmetry_cell_setting 'orthorhombic'
loop_
_space_group_symop_operation_xyz
x,y,z
1/2-x,1/2-y,z
1/2+x,-y,-z
-x,1/2+y,-z
-x,-y,-z
1/2+x,1/2+y,-z
1/2-x,y,z
x,1/2-y,z
loop_
_atom_site_type_symbol
_atom_site_label
_atom_site_fract_x
_atom_site_fract_y
_atom_site_fract_z
Si Si1 0.144402 0.427296 0.913616
Si Si2 0.445284 0.929152 0.561569
Si Si3 0.855661 0.425867 0.945532
Si Si4 0.750000 0.429920 0.481110
Si Si5 0.486106 0.072733 0.161756
Si Si6 0.750000 0.429342 0.635153
Si Si7 0.432548 0.072985 0.313945
O O1 0.250000 0.467390 0.901123
O O2 0.124279 0.250000 0.906784
O O3 0.087783 0.518770 0.857337
O O4 0.113058 0.480088 0.988442
O O5 0.448658 0.750000 0.552811
O O6 0.340197 0.987805 0.558770
O O7 0.490627 0.981243 0.632290
O O8 0.500000 0.000000 0.500000
O O9 0.750000 0.456137 0.928803
O O10 0.875523 0.250000 0.959903
O O11 0.911978 0.480614 0.880983
O O12 0.750000 0.250000 0.484762
O O13 0.750000 0.494959 0.558198
O O14 0.474433 0.250000 0.147034
O O15 0.471683 0.032822 0.240298
O O16 0.750000 0.250000 0.634592
O O17 0.661155 0.484585 0.675095
O O18 0.411496 0.250000 0.322074
#
# Coordination Sequence:
#
# PCOD8242209 Si02
#       7
#     8   8   8   4   8   4   8
#     4  10  21  39  62  85 111 147 189 236 286 334
#     4  10  19  36  58  82 112 145 187 232 278 332
#     4  10  21  37  59  87 115 147 189 235 282 336
#     4   9  18  33  57  85 109 140 183 234 283 329
#     4  11  23  38  56  82 116 154 191 231 282 338
#     4  11  21  35  59  87 113 148 185 230 285 337
#     4  10  23  39  56  83 117 153 187 229 283 340
#
# _framework density 18.964573999999999
#
# number of rings (size 3 to 8) (size 9 to 14) (size 15 to 20)
#    0.000    1.833    1.667    2.250    1.167    3.333 
#    1.500    0.417    0.000    0.000    0.000    0.000 
#    0.000    0.000    0.000    0.000    0.000    0.000 
#
# Total GULP energy -595375.450880 kJ/mol
# GULP energy per Si atom -12403.655227 kJ/mol
# Density = 1.892141 g / cm^3
# Si number density = 18.964574 Si / 1000 Ang^3
#
#
#
# Elastic Constant Matrix: (Units=GPa)
#
#
# Indices 1 2 3 4 5 6 
#
# 1 142.6454 32.1949 73.4946 0.0000 0.0000 0.0000
# 2 32.1949 37.4188 29.0057 0.0000 0.0000 0.0000
# 3 73.4946 29.0057 129.4286 0.0000 0.0000 0.0000
# 4 0.0000 0.0000 0.0000 27.9599 0.0000 0.0000
# 5 0.0000 0.0000 0.0000 0.0000 21.7919 0.0000
# 6 0.0000 0.0000 0.0000 0.0000 0.0000 28.5203
#
#
#
# Elastic Compliance Matrix: (Units=1/GPa)
#
#
# Indices 1 2 3 4 5 6 
#
# 1 0.010762 -0.005474 -0.004885 0.000000 0.000000 0.000000
# 2 -0.005474 0.035127 -0.004764 0.000000 0.000000 0.000000
# 3 -0.004885 -0.004764 0.011568 0.000000 0.000000 0.000000
# 4 0.000000 0.000000 0.000000 0.035766 0.000000 0.000000
# 5 0.000000 0.000000 0.000000 0.000000 0.045889 0.000000
# 6 0.000000 0.000000 0.000000 0.000000 0.000000 0.035063
#
#
# Mechanical properties :
#
#
# Convention : Reuss Voigt Hill
#
# Bulk Modulus (GPa) = 36.74796 64.32035 50.53416
# Shear Modulus (GPa) = 23.42040 27.30760 25.36400
#
# Velocity S-wave (km/s) = 3.51801 3.79875 3.66107
# Velocity P-wave (km/s) = 5.99342 7.29592 6.67650
#
# Compressibility (1/GPa) = 0.02721239
#
# Stress axis : x y z
#
# Youngs Moduli (GPa) = 92.91532 28.46830 86.44793
#
# Poissons Ratio (x) = 0.15582 0.42227
# Poissons Ratio (y) = 0.50857 0.41184
# Poissons Ratio (z) = 0.45387 0.13562
#
# Static dielectric constant tensor:
#      x y z
#    x 3.718030 0.000000 0.000000 
#    y 0.000000 3.432760 0.000000 
#    z 0.000000 0.000000 3.537930 
# 
# 
# High freq. dielectric constant tensor:
#      x y z
#    x 1.751900 0.000000 0.000000 
#    y 0.000000 1.734100 0.000000 
#    z 0.000000 0.000000 1.732430 
# 
# From -- ./inp_files/27398.got.cif
#   From: 2010.03.12/outbox.cif.g09.slc.cpg/sg59_14_cif.got.tgz:27398.got - 2010.04.16 16:29:54.
