data_PCOD8242082
_publ_section_title
;
Structure prediction by ZEFSAII (Michael W. Deem and Ramdas Pophale) SiO2 
 PCOD8242082
Probable space group: P M M N
;
_chemical_formula_sum "Si O2"
_cell_formula_units_Z 48
_cell_length_a 10.335867
_cell_length_b 17.344429
_cell_length_c 14.221317
_cell_angle_alpha 90.000000
_cell_angle_beta 90.000000
_cell_angle_gamma 90.000000
_cell_volume 2549.451393
_symmetry_space_group_name_H-M "P M M N"
_symmetry_group_IT_number 59
_space_group.IT_coordinate_system_code '2'
_symmetry_cell_setting 'orthorhombic'
loop_
_space_group_symop_operation_xyz
x,y,z
1/2-x,1/2-y,z
1/2+x,-y,-z
-x,1/2+y,-z
-x,-y,-z
1/2+x,1/2+y,-z
1/2-x,y,z
x,1/2-y,z
loop_
_atom_site_type_symbol
_atom_site_label
_atom_site_fract_x
_atom_site_fract_y
_atom_site_fract_z
Si Si1 0.495054 0.658317 0.815135
Si Si2 0.750000 0.089205 0.083781
Si Si3 0.604738 0.341632 0.584498
Si Si4 0.250000 0.090270 0.879076
Si Si5 0.250000 0.341358 0.084488
Si Si6 0.895266 0.158503 0.378898
Si Si7 0.988923 0.839387 0.225741
Si Si8 0.250000 0.662419 0.111920
O O1 0.492877 0.750000 0.820188
O O2 0.375832 0.627740 0.873726
O O3 0.625123 0.624786 0.861679
O O4 0.486174 0.629234 0.706444
O O5 0.750000 0.999322 0.101746
O O6 0.750000 0.102329 0.972607
O O7 0.750000 0.374375 0.599315
O O8 0.612421 0.250000 0.589962
O O9 0.552133 0.368716 0.481484
O O10 0.508475 0.369677 0.666912
O O11 0.377341 0.110334 0.820424
O O12 0.250000 0.135987 0.976247
O O13 0.250000 0.250000 0.090193
O O14 0.750000 0.126493 0.362606
O O15 0.890071 0.250000 0.377438
O O16 0.947171 0.750000 0.222434
O O17 0.123696 0.852775 0.173516
O O18 0.250000 0.750000 0.073053
#
# Coordination Sequence:
#
# PCOD8242082 Si02
#       8
#     8   4   8   4   4   8   8   4
#     4  10  19  35  58  84 108 137 173 216 269 319
#     4  12  24  36  53  76 104 140 187 232 253 312
#     4   8  13  25  50  85 112 129 162 215 266 311
#     4  12  26  38  49  72 108 152 183 218 271 314
#     4  10  22  38  55  76 108 142 177 220 273 324
#     4   8  13  24  49  85 114 131 158 207 266 316
#     4  10  19  35  56  79 107 139 178 220 266 317
#     4  10  20  34  57  82 100 128 179 232 267 312
#
# _framework density 18.827580000000001
#
# number of rings (size 3 to 8) (size 9 to 14) (size 15 to 20)
#    0.000    2.333    1.667    3.500    0.000    5.333 
#    0.000    0.833    0.000    5.000    0.000    0.000 
#    0.000    0.000    0.000    0.000    0.000    0.000 
#
# Total GULP energy -594951.772932 kJ/mol
# GULP energy per Si atom -12394.828603 kJ/mol
# Density = 1.878473 g / cm^3
# Si number density = 18.827580 Si / 1000 Ang^3
#
#
#
# Elastic Constant Matrix: (Units=GPa)
#
#
# Indices 1 2 3 4 5 6 
#
# 1 120.0487 10.2123 54.7594 0.0000 0.0000 0.0000
# 2 10.2123 8.2194 0.5630 0.0000 0.0000 0.0000
# 3 54.7594 0.5630 142.1257 0.0000 0.0000 0.0000
# 4 0.0000 0.0000 0.0000 -0.0437 0.0000 0.0000
# 5 0.0000 0.0000 0.0000 0.0000 33.2544 0.0000
# 6 0.0000 0.0000 0.0000 0.0000 0.0000 6.4180
#
#
#
# Elastic Compliance Matrix: (Units=1/GPa)
#
#
# Indices 1 2 3 4 5 6 
#
# 1 0.011522 -0.014015 -0.004384 0.000000 0.000000 0.000000
# 2 -0.014015 0.138745 0.004850 0.000000 0.000000 0.000000
# 3 -0.004384 0.004850 0.008706 0.000000 0.000000 0.000000
# 4 0.000000 0.000000 0.000000-22.886150 0.000000 0.000000
# 5 0.000000 0.000000 0.000000 0.000000 0.030071 0.000000
# 6 0.000000 0.000000 0.000000 0.000000 0.000000 0.155813
#
#
# Mechanical properties :
#
#
# Convention : Reuss Voigt Hill
#
# Bulk Modulus (GPa) = 7.58290 44.60702 26.09496
# Shear Modulus (GPa) = -0.22252 21.58300 10.68024
#
# Velocity S-wave (km/s) = -0.34416 3.38945 2.38432
# Velocity P-wave (km/s) = 1.96936 6.24993 4.63358
#
# Compressibility (1/GPa) = 0.13187570
#
# Stress axis : x y z
#
# Youngs Moduli (GPa) = 86.79198 7.20745 114.86590
#
# Poissons Ratio (x) = 0.10101 0.50354
# Poissons Ratio (y) = 1.21641 -0.55713
# Poissons Ratio (z) = 0.38047 -0.03496
#
# Static dielectric constant tensor:
#      x y z
#    x 3.389690 0.000000 0.000000 
#    y 0.000000 2.930950 0.000000 
#    z 0.000000 0.000000 4.038260 
# 
# 
# High freq. dielectric constant tensor:
#      x y z
#    x 1.722970 0.000000 0.000000 
#    y 0.000000 1.678540 0.000000 
#    z 0.000000 0.000000 1.755990 
# 
# From -- ./inp_files/20636.got.cif
#   From: 2010.03.12/outbox.cif.g09.slc.cpg/sg59_11_cif.got.tgz:20636.got - 2010.04.16 16:29:54.
