data_PCOD8242770
_publ_section_title
;
Structure prediction by ZEFSAII (Michael W. Deem and Ramdas Pophale) SiO2 
 PCOD8242770
Probable space group: P M M N
;
_chemical_formula_sum "Si O2"
_cell_formula_units_Z 64
_cell_length_a 13.304653
_cell_length_b 9.196818
_cell_length_c 26.426138
_cell_angle_alpha 90.000000
_cell_angle_beta 90.000000
_cell_angle_gamma 90.000000
_cell_volume 3233.514724
_symmetry_space_group_name_H-M "P M M N"
_symmetry_group_IT_number 59
_space_group.IT_coordinate_system_code '2'
_symmetry_cell_setting 'orthorhombic'
loop_
_space_group_symop_operation_xyz
x,y,z
1/2-x,1/2-y,z
1/2+x,-y,-z
-x,1/2+y,-z
-x,-y,-z
1/2+x,1/2+y,-z
1/2-x,y,z
x,1/2-y,z
loop_
_atom_site_type_symbol
_atom_site_label
_atom_site_fract_x
_atom_site_fract_y
_atom_site_fract_z
Si Si1 0.365432 0.580639 0.669421
Si Si2 0.368711 0.413058 0.871290
Si Si3 0.361509 0.584558 0.486170
Si Si4 0.639144 0.078891 0.924518
Si Si5 0.955027 0.079291 0.222485
Si Si6 0.051256 0.420072 0.576350
Si Si7 0.366200 0.580569 0.186201
Si Si8 0.628952 0.085049 0.032618
O O1 0.250000 0.533754 0.662971
O O2 0.380096 0.750000 0.658276
O O3 0.400243 0.540482 0.725530
O O4 0.433731 0.491971 0.630634
O O5 0.250000 0.407475 0.877568
O O6 0.413441 0.250000 0.866232
O O7 0.391844 0.505532 0.821758
O O8 0.415369 0.484906 0.922334
O O9 0.250000 0.564628 0.463790
O O10 0.381175 0.750000 0.503892
O O11 0.438325 0.541664 0.441753
O O12 0.371724 0.483794 0.535298
O O13 0.750000 0.009205 0.919384
O O14 0.651689 0.250000 0.931044
O O15 0.585923 0.046331 0.870235
O O16 0.588788 0.023478 0.977413
O O17 0.959645 0.250000 0.212704
O O18 0.068100 0.014234 0.224936
O O19 0.070835 0.250000 0.581295
O O20 0.250000 0.533436 0.190089
O O21 0.376864 0.750000 0.199268
O O22 0.750000 0.080545 0.031508
O O23 0.592244 0.250000 0.042689
#
# Coordination Sequence:
#
# PCOD8242770 Si02
#       8
#     8   8   8   8   8   8   8   8
#     4  10  22  40  59  78 105 143 182 221 270 323
#     4  10  20  33  50  74 104 135 168 212 267 322
#     4   9  18  34  55  80 117 161 193 219 261 317
#     4   7  11  23  46  73  97 125 162 202 249 310
#     4  11  23  38  56  77 102 135 179 225 266 317
#     4  10  20  33  54  86 117 146 188 236 272 308
#     4   9  18  35  58  80 103 132 167 212 268 324
#     4   8  13  24  45  71  98 129 164 201 247 310
#
# _framework density 19.792704000000001
#
# number of rings (size 3 to 8) (size 9 to 14) (size 15 to 20)
#    0.000    2.750    0.000    3.375    0.000    5.000 
#    0.000    1.875    0.000    4.500    0.000    0.000 
#    0.000    0.000    0.000    0.000    0.000    0.000 
#
# Total GULP energy -793333.305326 kJ/mol
# GULP energy per Si atom -12395.832896 kJ/mol
# Density = 1.974766 g / cm^3
# Si number density = 19.792704 Si / 1000 Ang^3
#
#
#
# Elastic Constant Matrix: (Units=GPa)
#
#
# Indices 1 2 3 4 5 6 
#
# 1 59.0258 29.5434 38.3375 0.0000 0.0000 0.0000
# 2 29.5434 84.3704 63.8127 0.0000 0.0000 0.0000
# 3 38.3375 63.8127 120.9053 0.0000 0.0000 0.0000
# 4 0.0000 0.0000 0.0000 33.5755 0.0000 0.0000
# 5 0.0000 0.0000 0.0000 0.0000 26.6048 0.0000
# 6 0.0000 0.0000 0.0000 0.0000 0.0000 23.8603
#
#
#
# Elastic Compliance Matrix: (Units=1/GPa)
#
#
# Indices 1 2 3 4 5 6 
#
# 1 0.022144 -0.004067 -0.004875 0.000000 0.000000 0.000000
# 2 -0.004067 0.020474 -0.009517 0.000000 0.000000 0.000000
# 3 -0.004875 -0.009517 0.014840 0.000000 0.000000 0.000000
# 4 0.000000 0.000000 0.000000 0.029784 0.000000 0.000000
# 5 0.000000 0.000000 0.000000 0.000000 0.037587 0.000000
# 6 0.000000 0.000000 0.000000 0.000000 0.000000 0.041911
#
#
# Mechanical properties :
#
#
# Convention : Reuss Voigt Hill
#
# Bulk Modulus (GPa) = 48.68399 58.63207 53.65803
# Shear Modulus (GPa) = 23.75267 25.64865 24.70066
#
# Velocity S-wave (km/s) = 3.46796 3.60372 3.53649
# Velocity P-wave (km/s) = 6.37856 6.85588 6.62152
#
# Compressibility (1/GPa) = 0.02054063
#
# Stress axis : x y z
#
# Youngs Moduli (GPa) = 45.15989 48.84168 67.38731
#
# Poissons Ratio (x) = 0.19862 0.32852
# Poissons Ratio (y) = 0.18365 0.64130
# Poissons Ratio (z) = 0.22016 0.46481
#
# Static dielectric constant tensor:
#      x y z
#    x 3.570850 0.000000 0.000000 
#    y 0.000000 3.501860 0.000000 
#    z 0.000000 0.000000 3.569680 
# 
# 
# High freq. dielectric constant tensor:
#      x y z
#    x 1.778780 0.000000 0.000000 
#    y 0.000000 1.757290 0.000000 
#    z 0.000000 0.000000 1.761740 
# 
# From -- ./inp_files/32141.got.cif
#   From: 2010.03.12/outbox.cif.g09.slc.cpg/sg59_17_cif.got.tgz:32141.got - 2010.04.16 16:29:54.
