data_PCOD8242261
_publ_section_title
;
Structure prediction by ZEFSAII (Michael W. Deem and Ramdas Pophale) SiO2 
 PCOD8242261
Probable space group: P M M N
;
_chemical_formula_sum "Si O2"
_cell_formula_units_Z 48
_cell_length_a 9.469166
_cell_length_b 9.810731
_cell_length_c 27.595275
_cell_angle_alpha 90.000000
_cell_angle_beta 90.000000
_cell_angle_gamma 90.000000
_cell_volume 2563.585606
_symmetry_space_group_name_H-M "P M M N"
_symmetry_group_IT_number 59
_space_group.IT_coordinate_system_code '2'
_symmetry_cell_setting 'orthorhombic'
loop_
_space_group_symop_operation_xyz
x,y,z
1/2-x,1/2-y,z
1/2+x,-y,-z
-x,1/2+y,-z
-x,-y,-z
1/2+x,1/2+y,-z
1/2-x,y,z
x,1/2-y,z
loop_
_atom_site_type_symbol
_atom_site_label
_atom_site_fract_x
_atom_site_fract_y
_atom_site_fract_z
Si Si1 0.411332 0.594262 0.300104
Si Si2 0.587961 0.903442 0.786734
Si Si3 0.579041 0.750000 0.572766
Si Si4 0.481848 0.592563 0.892319
Si Si5 0.415694 0.250000 0.537205
Si Si6 0.250000 0.092527 0.046202
Si Si7 0.080090 0.487993 0.607742
Si Si8 0.750000 0.913583 0.062208
O O1 0.250000 0.553870 0.315733
O O2 0.414878 0.750000 0.283176
O O3 0.464247 0.504104 0.255147
O O4 0.525248 0.574606 0.342309
O O5 0.750000 0.931116 0.800300
O O6 0.567232 0.750000 0.767221
O O7 0.498409 0.926516 0.834984
O O8 0.750000 0.750000 0.577869
O O9 0.525062 0.750000 0.517229
O O10 0.509370 0.622973 0.599300
O O11 0.436065 0.750000 0.903328
O O12 0.618855 0.550141 0.921791
O O13 0.379492 0.476023 0.909493
O O14 0.250000 0.250000 0.535013
O O15 0.465782 0.114968 0.565048
O O16 0.250000 0.250000 0.035234
O O17 0.250000 0.026160 0.992693
O O18 0.250000 0.512151 0.609578
O O19 0.750000 0.750000 0.065638
#
# Coordination Sequence:
#
# PCOD8242261 Si02
#       8
#     8   8   4   8   4   4   8   4
#     4  10  21  37  58  85 115 151 192 239 294 354
#     4   9  18  35  61  87 108 142 194 246 290 337
#     4  11  23  39  61  91 121 157 201 249 286 333
#     4  10  19  37  61  82 111 153 195 241 291 348
#     4   9  20  39  63  87 121 159 199 237 290 357
#     4   9  18  35  61  85 111 149 199 239 290 347
#     4  11  22  40  61  87 122 159 195 241 297 352
#     4  11  23  35  51  85 125 155 187 239 288 349
#
# _framework density 18.723775
#
# number of rings (size 3 to 8) (size 9 to 14) (size 15 to 20)
#    0.000    2.000    1.667    2.000    1.167    0.667 
#    1.500    3.750    0.000    0.000    0.000    0.000 
#    0.000    0.000    0.000    0.000    0.000    0.000 
#
# Total GULP energy -594983.182044 kJ/mol
# GULP energy per Si atom -12395.482959 kJ/mol
# Density = 1.868116 g / cm^3
# Si number density = 18.723775 Si / 1000 Ang^3
#
#
#
# Elastic Constant Matrix: (Units=GPa)
#
#
# Indices 1 2 3 4 5 6 
#
# 1 90.3678 43.3629 35.2963 0.0000 0.0000 0.0000
# 2 43.3629 108.6935 46.3371 0.0000 0.0000 0.0000
# 3 35.2963 46.3371 103.3569 0.0000 0.0000 0.0000
# 4 0.0000 0.0000 0.0000 34.6175 0.0000 0.0000
# 5 0.0000 0.0000 0.0000 0.0000 17.7480 0.0000
# 6 0.0000 0.0000 0.0000 0.0000 0.0000 25.4024
#
#
#
# Elastic Compliance Matrix: (Units=1/GPa)
#
#
# Indices 1 2 3 4 5 6 
#
# 1 0.014350 -0.004495 -0.002885 0.000000 0.000000 0.000000
# 2 -0.004495 0.012782 -0.004195 0.000000 0.000000 0.000000
# 3 -0.002885 -0.004195 0.012541 0.000000 0.000000 0.000000
# 4 0.000000 0.000000 0.000000 0.028887 0.000000 0.000000
# 5 0.000000 0.000000 0.000000 0.000000 0.056345 0.000000
# 6 0.000000 0.000000 0.000000 0.000000 0.000000 0.039366
#
#
# Mechanical properties :
#
#
# Convention : Reuss Voigt Hill
#
# Bulk Modulus (GPa) = 60.52524 61.37897 60.95211
# Shear Modulus (GPa) = 25.91622 27.38168 26.64895
#
# Velocity S-wave (km/s) = 3.72443 3.82828 3.77672
# Velocity P-wave (km/s) = 7.13377 7.23833 7.18624
#
# Compressibility (1/GPa) = 0.01652203
#
# Stress axis : x y z
#
# Youngs Moduli (GPa) = 69.68820 78.23567 79.73547
#
# Poissons Ratio (x) = 0.35164 0.23006
# Poissons Ratio (y) = 0.31323 0.33453
# Poissons Ratio (z) = 0.20107 0.32824
#
# Static dielectric constant tensor:
#      x y z
#    x 3.258750 0.000000 0.000000 
#    y 0.000000 3.628830 0.000000 
#    z 0.000000 0.000000 3.663970 
# 
# 
# High freq. dielectric constant tensor:
#      x y z
#    x 1.717560 0.000000 0.000000 
#    y 0.000000 1.728640 0.000000 
#    z 0.000000 0.000000 1.735890 
# 
# From -- ./inp_files/33115.got.cif
#   From: 2010.03.12/outbox.cif.g09.slc.cpg/sg59_17_cif.got.tgz:33115.got - 2010.04.16 16:29:54.
