data_PCOD8242369
_publ_section_title
;
Structure prediction by ZEFSAII (Michael W. Deem and Ramdas Pophale) SiO2 
 PCOD8242369
Probable space group: P M M N
;
_chemical_formula_sum "Si O2"
_cell_formula_units_Z 64
_cell_length_a 19.424903
_cell_length_b 9.044536
_cell_length_c 20.165250
_cell_angle_alpha 90.000000
_cell_angle_beta 90.000000
_cell_angle_gamma 90.000000
_cell_volume 3542.817336
_symmetry_space_group_name_H-M "P M M N"
_symmetry_group_IT_number 59
_space_group.IT_coordinate_system_code '2'
_symmetry_cell_setting 'orthorhombic'
loop_
_space_group_symop_operation_xyz
x,y,z
1/2-x,1/2-y,z
1/2+x,-y,-z
-x,1/2+y,-z
-x,-y,-z
1/2+x,1/2+y,-z
1/2-x,y,z
x,1/2-y,z
loop_
_atom_site_type_symbol
_atom_site_label
_atom_site_fract_x
_atom_site_fract_y
_atom_site_fract_z
Si Si1 0.036478 0.423851 0.339697
Si Si2 0.933764 0.577245 0.805832
Si Si3 0.086717 0.921533 0.849532
Si Si4 0.671024 0.575966 0.036730
Si Si5 0.068552 0.078649 0.478145
Si Si6 0.327234 0.080379 0.744187
Si Si7 0.600044 0.918720 0.383757
Si Si8 0.829491 0.421679 0.899967
O O1 0.029975 0.250000 0.329896
O O2 0.063250 0.486632 0.269564
O O3 0.087814 0.468547 0.402014
O O4 0.960979 0.481049 0.356518
O O5 0.914719 0.750000 0.807281
O O6 0.873925 0.485524 0.840265
O O7 0.005407 0.548845 0.844164
O O8 0.102754 0.750000 0.861496
O O9 0.118792 0.015300 0.908855
O O10 0.120866 0.971708 0.780894
O O11 0.750000 0.536104 0.055891
O O12 0.660923 0.750000 0.030746
O O13 0.650141 0.504606 0.967216
O O14 0.051495 0.250000 0.474178
O O15 0.121975 0.044284 0.538910
O O16 0.000000 0.000000 0.500000
O O17 0.250000 0.037687 0.764220
O O18 0.342859 0.250000 0.764713
O O19 0.335072 0.058828 0.664742
O O20 0.573661 0.750000 0.380770
O O21 0.750000 0.449143 0.882102
O O22 0.845918 0.250000 0.909924
#
# Coordination Sequence:
#
# PCOD8242369 Si02
#       8
#     8   8   8   8   8   8   8   8
#     4   9  16  29  47  70 101 131 164 209 256 303
#     4  10  21  35  53  78 108 140 170 209 261 310
#     4  11  22  35  52  77 107 138 175 216 255 300
#     4  10  21  38  59  80 105 139 175 211 254 304
#     4   8  14  24  42  66  92 124 162 207 254 298
#     4  10  20  32  46  67 100 142 181 217 261 312
#     4   9  16  27  44  67  95 129 171 215 258 303
#     4  10  22  40  61  83 103 128 167 211 256 310
#
# _framework density 18.064717999999999
#
# number of rings (size 3 to 8) (size 9 to 14) (size 15 to 20)
#    0.000    2.375    1.250    1.500    0.000    5.250 
#    0.000    0.000    0.000    0.750    0.000    3.500 
#    0.000    0.000    0.000    0.000    0.000    0.000 
#
# Total GULP energy -792979.474646 kJ/mol
# GULP energy per Si atom -12390.304291 kJ/mol
# Density = 1.802360 g / cm^3
# Si number density = 18.064718 Si / 1000 Ang^3
#
#
#
# Elastic Constant Matrix: (Units=GPa)
#
#
# Indices 1 2 3 4 5 6 
#
# 1 56.6623 30.3417 47.9643 0.0000 0.0000 0.0000
# 2 30.3417 55.9800 46.9844 0.0000 0.0000 0.0000
# 3 47.9643 46.9844 153.2431 0.0000 0.0000 0.0000
# 4 0.0000 0.0000 0.0000 25.0435 0.0000 0.0000
# 5 0.0000 0.0000 0.0000 0.0000 20.8230 0.0000
# 6 0.0000 0.0000 0.0000 0.0000 0.0000 23.5415
#
#
#
# Elastic Compliance Matrix: (Units=1/GPa)
#
#
# Indices 1 2 3 4 5 6 
#
# 1 0.027957 -0.010514 -0.005527 0.000000 0.000000 0.000000
# 2 -0.010514 0.028008 -0.005296 0.000000 0.000000 0.000000
# 3 -0.005527 -0.005296 0.009879 0.000000 0.000000 0.000000
# 4 0.000000 0.000000 0.000000 0.039931 0.000000 0.000000
# 5 0.000000 0.000000 0.000000 0.000000 0.048024 0.000000
# 6 0.000000 0.000000 0.000000 0.000000 0.000000 0.042478
#
#
# Mechanical properties :
#
#
# Convention : Reuss Voigt Hill
#
# Bulk Modulus (GPa) = 43.16061 57.38514 50.27287
# Shear Modulus (GPa) = 20.26970 23.25461 21.76215
#
# Velocity S-wave (km/s) = 3.35335 3.59178 3.47461
# Velocity P-wave (km/s) = 6.23998 7.00261 6.63227
#
# Compressibility (1/GPa) = 0.02316928
#
# Stress axis : x y z
#
# Youngs Moduli (GPa) = 35.76927 35.70466 101.22259
#
# Poissons Ratio (x) = 0.37541 0.55943
# Poissons Ratio (y) = 0.37609 0.53609
# Poissons Ratio (z) = 0.19769 0.18910
#
# Static dielectric constant tensor:
#      x y z
#    x 3.054320 0.000000 0.000000 
#    y 0.000000 3.342710 0.000000 
#    z 0.000000 0.000000 3.908710 
# 
# 
# High freq. dielectric constant tensor:
#      x y z
#    x 1.658560 0.000000 0.000000 
#    y 0.000000 1.701190 0.000000 
#    z 0.000000 0.000000 1.722810 
# 
# From -- ./inp_files/30757.got.cif
#   From: 2010.03.12/outbox.cif.g09.slc.cpg/sg59_16_cif.got.tgz:30757.got - 2010.04.16 16:29:54.
