data_PCOD8242694
_publ_section_title
;
Structure prediction by ZEFSAII (Michael W. Deem and Ramdas Pophale) SiO2 
 PCOD8242694
Probable space group: P M M N
;
_chemical_formula_sum "Si O2"
_cell_formula_units_Z 48
_cell_length_a 30.728280
_cell_length_b 9.310743
_cell_length_c 9.813856
_cell_angle_alpha 90.000000
_cell_angle_beta 90.000000
_cell_angle_gamma 90.000000
_cell_volume 2807.774800
_symmetry_space_group_name_H-M "P M M N"
_symmetry_group_IT_number 59
_space_group.IT_coordinate_system_code '2'
_symmetry_cell_setting 'orthorhombic'
loop_
_space_group_symop_operation_xyz
x,y,z
1/2-x,1/2-y,z
1/2+x,-y,-z
-x,1/2+y,-z
-x,-y,-z
1/2+x,1/2+y,-z
1/2-x,y,z
x,1/2-y,z
loop_
_atom_site_type_symbol
_atom_site_label
_atom_site_fract_x
_atom_site_fract_y
_atom_site_fract_z
Si Si1 0.120573 0.084066 0.346089
Si Si2 0.609985 0.913476 0.336089
Si Si3 0.702315 0.083069 0.633225
Si Si4 0.450031 0.416722 0.129689
Si Si5 0.949944 0.082193 0.139250
Si Si6 0.296363 0.412527 0.639775
O O1 0.130777 0.250000 0.323946
O O2 0.110489 0.049398 0.503475
O O3 0.079011 0.036118 0.257945
O O4 0.163083 0.999024 0.290528
O O5 0.594418 0.750000 0.311401
O O6 0.659194 0.937529 0.274249
O O7 0.577074 0.021346 0.265399
O O8 0.750000 0.057148 0.702771
O O9 0.690780 0.250000 0.630260
O O10 0.704664 0.026648 0.479974
O O11 0.444297 0.250000 0.092807
O O12 0.499653 0.452085 0.168555
O O13 0.434541 0.506925 0.999466
O O14 0.940776 0.250000 0.125930
O O15 0.250000 0.427677 0.722371
O O16 0.299719 0.250000 0.578574
#
# Coordination Sequence:
#
# PCOD8242694 Si02
#       6
#     8   8   8   8   8   8
#     4   9  18  32  50  71  94 123 160 197 231 270
#     4   9  17  29  47  72  99 124 153 193 235 272
#     4   9  16  25  40  66  98 126 151 185 231 278
#     4   9  19  36  53  68  90 122 160 198 233 275
#     4  10  20  33  50  71  94 123 157 191 234 287
#     4   8  14  26  44  65  91 125 161 192 224 268
#
# _framework density 17.095388
#
# number of rings (size 3 to 8) (size 9 to 14) (size 15 to 20)
#    0.000    3.000    0.000    2.000    0.000    5.667 
#    0.000    0.000    0.000    1.000    0.000    2.333 
#    0.000    0.000    0.000    0.000    0.000    0.000 
#
# Total GULP energy -594725.143336 kJ/mol
# GULP energy per Si atom -12390.107153 kJ/mol
# Density = 1.705648 g / cm^3
# Si number density = 17.095388 Si / 1000 Ang^3
#
#
#
# Elastic Constant Matrix: (Units=GPa)
#
#
# Indices 1 2 3 4 5 6 
#
# 1 127.2467 60.2990 56.9269 0.0000 0.0000 0.0000
# 2 60.2990 75.3255 39.1012 0.0000 0.0000 0.0000
# 3 56.9269 39.1012 59.2892 0.0000 0.0000 0.0000
# 4 0.0000 0.0000 0.0000 22.1516 0.0000 0.0000
# 5 0.0000 0.0000 0.0000 0.0000 4.8170 0.0000
# 6 0.0000 0.0000 0.0000 0.0000 0.0000 30.7074
#
#
#
# Elastic Compliance Matrix: (Units=1/GPa)
#
#
# Indices 1 2 3 4 5 6 
#
# 1 0.016094 -0.007393 -0.010577 0.000000 0.000000 0.000000
# 2 -0.007393 0.023582 -0.008454 0.000000 0.000000 0.000000
# 3 -0.010577 -0.008454 0.032598 0.000000 0.000000 0.000000
# 4 0.000000 0.000000 0.000000 0.045144 0.000000 0.000000
# 5 0.000000 0.000000 0.000000 0.000000 0.207597 0.000000
# 6 0.000000 0.000000 0.000000 0.000000 0.000000 0.032565
#
#
# Mechanical properties :
#
#
# Convention : Reuss Voigt Hill
#
# Bulk Modulus (GPa) = 51.47851 63.83506 57.65678
# Shear Modulus (GPa) = 11.99317 18.57081 15.28199
#
# Velocity S-wave (km/s) = 2.65154 3.29949 2.99310
# Velocity P-wave (km/s) = 6.28905 7.20674 6.76348
#
# Compressibility (1/GPa) = 0.01942558
#
# Stress axis : x y z
#
# Youngs Moduli (GPa) = 62.13497 42.40450 30.67701
#
# Poissons Ratio (x) = 0.31349 0.32447
# Poissons Ratio (y) = 0.45936 0.25935
# Poissons Ratio (z) = 0.65721 0.35850
#
# Static dielectric constant tensor:
#      x y z
#    x 3.698430 0.000000 0.000000 
#    y 0.000000 3.200540 0.000000 
#    z 0.000000 0.000000 2.785930 
# 
# 
# High freq. dielectric constant tensor:
#      x y z
#    x 1.680520 0.000000 0.000000 
#    y 0.000000 1.664100 0.000000 
#    z 0.000000 0.000000 1.603760 
# 
# From -- ./inp_files/12930.got.cif
#   From: 2010.03.12/outbox.cif.g09.slc.cpg/sg59_7_cif.got.tgz:12930.got - 2010.04.16 16:29:54.
