data_PCOD8242644
_publ_section_title
;
Structure prediction by ZEFSAII (Michael W. Deem and Ramdas Pophale) SiO2 
 PCOD8242644
Probable space group: P M M N
;
_chemical_formula_sum "Si O2"
_cell_formula_units_Z 64
_cell_length_a 19.285512
_cell_length_b 8.647453
_cell_length_c 21.964049
_cell_angle_alpha 90.000000
_cell_angle_beta 90.000000
_cell_angle_gamma 90.000000
_cell_volume 3662.956721
_symmetry_space_group_name_H-M "P M M N"
_symmetry_group_IT_number 59
_space_group.IT_coordinate_system_code '2'
_symmetry_cell_setting 'orthorhombic'
loop_
_space_group_symop_operation_xyz
x,y,z
1/2-x,1/2-y,z
1/2+x,-y,-z
-x,1/2+y,-z
-x,-y,-z
1/2+x,1/2+y,-z
1/2-x,y,z
x,1/2-y,z
loop_
_atom_site_type_symbol
_atom_site_label
_atom_site_fract_x
_atom_site_fract_y
_atom_site_fract_z
Si Si1 0.328899 0.572851 0.608727
Si Si2 0.595603 0.430975 0.023542
Si Si3 0.537089 0.068495 0.558922
Si Si4 0.671889 0.931457 0.124964
Si Si5 0.971380 0.426453 0.906243
Si Si6 0.672162 0.931293 0.519820
Si Si7 0.456017 0.569313 0.802093
Si Si8 0.949327 0.567442 0.325564
O O1 0.250000 0.553423 0.629699
O O2 0.346578 0.750000 0.592997
O O3 0.345943 0.470457 0.549786
O O4 0.374513 0.510337 0.664158
O O5 0.580416 0.250000 0.037648
O O6 0.665156 0.485912 0.058222
O O7 0.537325 0.542271 0.051380
O O8 0.596268 0.457451 0.949713
O O9 0.533030 0.250000 0.552966
O O10 0.500554 0.011464 0.620756
O O11 0.500000 0.000000 0.500000
O O12 0.617154 0.015267 0.563361
O O13 0.750000 0.964411 0.148620
O O14 0.658458 0.750000 0.118203
O O15 0.616016 0.999986 0.172298
O O16 0.972167 0.250000 0.883527
O O17 0.978553 0.535180 0.846979
O O18 0.750000 0.989269 0.535855
O O19 0.665309 0.750000 0.529203
O O20 0.446200 0.750000 0.793354
O O21 0.477483 0.492289 0.738574
O O22 0.941207 0.750000 0.324170
#
# Coordination Sequence:
#
# PCOD8242644 Si02
#       8
#     8   8   8   8   8   8   8   8
#     4  10  20  33  50  72  98 130 169 211 253 303
#     4   9  16  26  45  71  95 123 158 198 241 281
#     4  11  22  35  55  79 104 134 169 216 270 320
#     4  10  20  33  49  70 100 138 174 208 246 289
#     4   9  16  28  46  68  95 123 154 196 243 288
#     4  10  20  34  53  77 104 133 164 202 254 313
#     4  11  22  34  50  70  95 131 171 211 250 296
#     4  11  23  37  52  72 100 136 174 215 265 318
#
# _framework density 17.472225000000002
#
# number of rings (size 3 to 8) (size 9 to 14) (size 15 to 20)
#    0.000    1.875    1.250    5.250    0.000    6.000 
#    0.000    0.000    0.000    0.000    0.000    0.875 
#    0.000    7.000    0.000    0.000    0.000    0.000 
#
# Total GULP energy -793292.337825 kJ/mol
# GULP energy per Si atom -12395.192779 kJ/mol
# Density = 1.743246 g / cm^3
# Si number density = 17.472225 Si / 1000 Ang^3
#
#
#
# Elastic Constant Matrix: (Units=GPa)
#
#
# Indices 1 2 3 4 5 6 
#
# 1 58.5956 26.7040 47.0434 0.0000 0.0000 0.0000
# 2 26.7040 70.3578 33.2803 0.0000 0.0000 0.0000
# 3 47.0434 33.2803 114.8952 0.0000 0.0000 0.0000
# 4 0.0000 0.0000 0.0000 28.8411 0.0000 0.0000
# 5 0.0000 0.0000 0.0000 0.0000 20.9552 0.0000
# 6 0.0000 0.0000 0.0000 0.0000 0.0000 25.6096
#
#
#
# Elastic Compliance Matrix: (Units=1/GPa)
#
#
# Indices 1 2 3 4 5 6 
#
# 1 0.027384 -0.005898 -0.009504 0.000000 0.000000 0.000000
# 2 -0.005898 0.017740 -0.002724 0.000000 0.000000 0.000000
# 3 -0.009504 -0.002724 0.013384 0.000000 0.000000 0.000000
# 4 0.000000 0.000000 0.000000 0.034673 0.000000 0.000000
# 5 0.000000 0.000000 0.000000 0.000000 0.047721 0.000000
# 6 0.000000 0.000000 0.000000 0.000000 0.000000 0.039048
#
#
# Mechanical properties :
#
#
# Convention : Reuss Voigt Hill
#
# Bulk Modulus (GPa) = 44.92994 50.87824 47.90409
# Shear Modulus (GPa) = 22.35937 24.20257 23.28097
#
# Velocity S-wave (km/s) = 3.58118 3.72587 3.65424
# Velocity P-wave (km/s) = 6.54757 6.90595 6.72915
#
# Compressibility (1/GPa) = 0.02225687
#
# Stress axis : x y z
#
# Youngs Moduli (GPa) = 36.51717 56.37000 74.71676
#
# Poissons Ratio (x) = 0.33247 0.71011
# Poissons Ratio (y) = 0.21538 0.20350
# Poissons Ratio (z) = 0.34706 0.15353
#
# Static dielectric constant tensor:
#      x y z
#    x 3.356580 0.000000 0.000000 
#    y 0.000000 3.340550 0.000000 
#    z 0.000000 0.000000 3.354970 
# 
# 
# High freq. dielectric constant tensor:
#      x y z
#    x 1.646990 0.000000 0.000000 
#    y 0.000000 1.693670 0.000000 
#    z 0.000000 0.000000 1.658640 
# 
# From -- ./inp_files/30942.got.cif
#   From: 2010.03.12/outbox.cif.g09.slc.cpg/sg59_16_cif.got.tgz:30942.got - 2010.04.16 16:29:54.
