data_PCOD8242086
_publ_section_title
;
Structure prediction by ZEFSAII (Michael W. Deem and Ramdas Pophale) SiO2 
 PCOD8242086
Probable space group: P M M N
;
_chemical_formula_sum "Si O2"
_cell_formula_units_Z 48
_cell_length_a 8.882694
_cell_length_b 9.710365
_cell_length_c 29.444368
_cell_angle_alpha 90.000000
_cell_angle_beta 90.000000
_cell_angle_gamma 90.000000
_cell_volume 2539.700434
_symmetry_space_group_name_H-M "P M M N"
_symmetry_group_IT_number 59
_space_group.IT_coordinate_system_code '2'
_symmetry_cell_setting 'orthorhombic'
loop_
_space_group_symop_operation_xyz
x,y,z
1/2-x,1/2-y,z
1/2+x,-y,-z
-x,1/2+y,-z
-x,-y,-z
1/2+x,1/2+y,-z
1/2-x,y,z
x,1/2-y,z
loop_
_atom_site_type_symbol
_atom_site_label
_atom_site_fract_x
_atom_site_fract_y
_atom_site_fract_z
Si Si1 0.573081 0.409627 0.117130
Si Si2 0.928445 0.250000 0.460751
Si Si3 0.928682 0.088570 0.959802
Si Si4 0.417052 0.587543 0.703385
Si Si5 0.416452 0.412326 0.209440
Si Si6 0.427620 0.750000 0.437531
Si Si7 0.929191 0.010275 0.396029
O O1 0.750000 0.431849 0.110361
O O2 0.529853 0.250000 0.105831
O O3 0.483106 0.516888 0.086255
O O4 0.528266 0.448626 0.168370
O O5 0.750000 0.250000 0.462633
O O6 0.997288 0.250000 0.511505
O O7 0.986393 0.118704 0.433232
O O8 0.750000 0.078760 0.963463
O O9 0.979050 0.250000 0.961764
O O10 0.000000 0.000000 0.000000
O O11 0.250000 0.524076 0.708103
O O12 0.407875 0.750000 0.708738
O O13 0.518924 0.523977 0.743667
O O14 0.484573 0.552536 0.654121
O O15 0.250000 0.474498 0.200397
O O16 0.403984 0.250000 0.214796
O O17 0.250000 0.750000 0.440758
O O18 0.485168 0.625421 0.408316
O O19 0.750000 0.992935 0.397519
#
# Coordination Sequence:
#
# PCOD8242086 Si02
#       7
#     8   4   8   8   8   4   8
#     4  10  20  35  57  85 115 148 189 232 274 326
#     4   9  18  35  57  79 101 133 179 225 268 319
#     4  11  24  40  59  85 117 153 193 236 282 331
#     4   9  16  29  52  79 103 132 176 227 271 317
#     4   9  17  29  49  79 113 145 176 219 275 329
#     4  11  23  35  49  75 111 141 171 217 272 327
#     4  10  19  35  57  77 101 138 180 221 267 324
#
# _framework density 18.899867
#
# number of rings (size 3 to 8) (size 9 to 14) (size 15 to 20)
#    0.000    2.167    0.833    2.750    0.000    7.000 
#    0.000    1.250    1.833    0.000    0.000    0.000 
#    0.000    0.000    0.000    0.000    0.000    0.000 
#
# Total GULP energy -595034.345152 kJ/mol
# GULP energy per Si atom -12396.548857 kJ/mol
# Density = 1.885685 g / cm^3
# Si number density = 18.899867 Si / 1000 Ang^3
#
#
#
# Elastic Constant Matrix: (Units=GPa)
#
#
# Indices 1 2 3 4 5 6 
#
# 1 66.2229 33.7413 36.8446 0.0000 0.0000 0.0000
# 2 33.7413 77.5838 25.9718 0.0000 0.0000 0.0000
# 3 36.8446 25.9718 113.7193 0.0000 0.0000 0.0000
# 4 0.0000 0.0000 0.0000 18.2099 0.0000 0.0000
# 5 0.0000 0.0000 0.0000 0.0000 26.2249 0.0000
# 6 0.0000 0.0000 0.0000 0.0000 0.0000 46.1492
#
#
#
# Elastic Compliance Matrix: (Units=1/GPa)
#
#
# Indices 1 2 3 4 5 6 
#
# 1 0.022059 -0.007797 -0.005366 0.000000 0.000000 0.000000
# 2 -0.007797 0.016712 -0.001291 0.000000 0.000000 0.000000
# 3 -0.005366 -0.001291 0.010827 0.000000 0.000000 0.000000
# 4 0.000000 0.000000 0.000000 0.054915 0.000000 0.000000
# 5 0.000000 0.000000 0.000000 0.000000 0.038132 0.000000
# 6 0.000000 0.000000 0.000000 0.000000 0.000000 0.021669
#
#
# Mechanical properties :
#
#
# Convention : Reuss Voigt Hill
#
# Bulk Modulus (GPa) = 48.33185 50.07125 49.20155
# Shear Modulus (GPa) = 24.98522 28.84802 26.91662
#
# Velocity S-wave (km/s) = 3.63985 3.91111 3.77791
# Velocity P-wave (km/s) = 6.57972 6.85172 6.71710
#
# Compressibility (1/GPa) = 0.02069029
#
# Stress axis : x y z
#
# Youngs Moduli (GPa) = 45.33336 59.83628 92.36181
#
# Poissons Ratio (x) = 0.46654 0.49564
# Poissons Ratio (y) = 0.35346 0.11920
# Poissons Ratio (z) = 0.24327 0.07723
#
# Static dielectric constant tensor:
#      x y z
#    x 3.505820 0.000000 0.000000 
#    y 0.000000 3.158740 0.000000 
#    z 0.000000 0.000000 3.772420 
# 
# 
# High freq. dielectric constant tensor:
#      x y z
#    x 1.728970 0.000000 0.000000 
#    y 0.000000 1.704450 0.000000 
#    z 0.000000 0.000000 1.753500 
# 
# From -- ./inp_files/32946.got.cif
#   From: 2010.03.12/outbox.cif.g09.slc.cpg/sg59_17_cif.got.tgz:32946.got - 2010.04.16 16:29:54.
