data_PCOD8242780
_publ_section_title
;
Structure prediction by ZEFSAII (Michael W. Deem and Ramdas Pophale) SiO2 
 PCOD8242780
Probable space group: P M M N
;
_chemical_formula_sum "Si O2"
_cell_formula_units_Z 64
_cell_length_a 19.549165
_cell_length_b 8.865015
_cell_length_c 18.216062
_cell_angle_alpha 90.000000
_cell_angle_beta 90.000000
_cell_angle_gamma 90.000000
_cell_volume 3156.909869
_symmetry_space_group_name_H-M "P M M N"
_symmetry_group_IT_number 59
_space_group.IT_coordinate_system_code '2'
_symmetry_cell_setting 'orthorhombic'
loop_
_space_group_symop_operation_xyz
x,y,z
1/2-x,1/2-y,z
1/2+x,-y,-z
-x,1/2+y,-z
-x,-y,-z
1/2+x,1/2+y,-z
1/2-x,y,z
x,1/2-y,z
loop_
_atom_site_type_symbol
_atom_site_label
_atom_site_fract_x
_atom_site_fract_y
_atom_site_fract_z
Si Si1 0.913994 0.428148 0.632328
Si Si2 0.827687 0.927066 0.510104
Si Si3 0.326551 0.923805 0.643933
Si Si4 0.989903 0.575403 0.125541
Si Si5 0.831036 0.580828 0.753332
Si Si6 0.909039 0.577135 0.989628
Si Si7 0.965215 0.426607 0.281033
Si Si8 0.672144 0.084806 0.893922
O O1 0.922450 0.250000 0.629434
O O2 0.887667 0.487050 0.553772
O O3 0.854168 0.475638 0.687415
O O4 0.986577 0.498016 0.657168
O O5 0.750000 0.971190 0.535478
O O6 0.839079 0.750000 0.520816
O O7 0.837372 0.969319 0.425511
O O8 0.250000 0.950694 0.677514
O O9 0.334231 0.750000 0.618899
O O10 0.385472 0.965557 0.702948
O O11 0.998302 0.750000 0.147042
O O12 0.984821 0.481862 0.199889
O O13 0.048863 0.525421 0.068913
O O14 0.922090 0.547698 0.075528
O O15 0.750000 0.587679 0.755282
O O16 0.861053 0.750000 0.744618
O O17 0.862721 0.507280 0.826874
O O18 0.921105 0.750000 0.969357
O O19 0.833738 0.514920 0.969134
O O20 0.978570 0.250000 0.284240
O O21 0.750000 0.106411 0.874036
O O22 0.637753 0.250000 0.901108
#
# Coordination Sequence:
#
# PCOD8242780 Si02
#       8
#     8   8   8   8   8   8   8   8
#     4  12  24  36  54  81 116 153 188 230 274 323
#     4  10  21  38  61  88 117 150 188 228 272 325
#     4   9  20  41  66  88 110 142 185 230 279 335
#     4  10  21  37  57  81 109 141 180 225 272 328
#     4  10  20  34  52  75 108 150 192 232 277 332
#     4  10  20  35  56  79 106 142 182 225 274 327
#     4  11  23  39  60  85 115 147 182 229 281 333
#     4  10  20  33  50  74 105 141 181 224 270 323
#
# _framework density 20.272988999999999
#
# number of rings (size 3 to 8) (size 9 to 14) (size 15 to 20)
#    0.000    1.750    0.000    4.500    0.000    6.750 
#    0.000    0.625    0.000    2.250    0.000    0.000 
#    0.000    0.000    0.000    0.000    0.000    0.000 
#
# Total GULP energy -793137.923882 kJ/mol
# GULP energy per Si atom -12392.780061 kJ/mol
# Density = 2.022685 g / cm^3
# Si number density = 20.272989 Si / 1000 Ang^3
#
#
#
# Elastic Constant Matrix: (Units=GPa)
#
#
# Indices 1 2 3 4 5 6 
#
# 1 81.6900 39.1031 38.4826 0.0000 0.0000 0.0000
# 2 39.1031 121.4728 36.5968 0.0000 0.0000 0.0000
# 3 38.4826 36.5968 67.8151 0.0000 0.0000 0.0000
# 4 0.0000 0.0000 0.0000 32.2510 0.0000 0.0000
# 5 0.0000 0.0000 0.0000 0.0000 34.2538 0.0000
# 6 0.0000 0.0000 0.0000 0.0000 0.0000 27.1340
#
#
#
# Elastic Compliance Matrix: (Units=1/GPa)
#
#
# Indices 1 2 3 4 5 6 
#
# 1 0.017684 -0.003188 -0.008315 0.000000 0.000000 0.000000
# 2 -0.003188 0.010405 -0.003806 0.000000 0.000000 0.000000
# 3 -0.008315 -0.003806 0.021519 0.000000 0.000000 0.000000
# 4 0.000000 0.000000 0.000000 0.031007 0.000000 0.000000
# 5 0.000000 0.000000 0.000000 0.000000 0.029194 0.000000
# 6 0.000000 0.000000 0.000000 0.000000 0.000000 0.036854
#
#
# Mechanical properties :
#
#
# Convention : Reuss Voigt Hill
#
# Bulk Modulus (GPa) = 52.65900 55.48255 54.07078
# Shear Modulus (GPa) = 27.23155 29.18079 28.20617
#
# Velocity S-wave (km/s) = 3.66900 3.79805 3.73408
# Velocity P-wave (km/s) = 6.63175 6.83086 6.73204
#
# Compressibility (1/GPa) = 0.01899011
#
# Stress axis : x y z
#
# Youngs Moduli (GPa) = 56.54752 96.10605 46.47160
#
# Poissons Ratio (x) = 0.30635 0.38641
# Poissons Ratio (y) = 0.18025 0.17689
# Poissons Ratio (z) = 0.47019 0.36581
#
# Static dielectric constant tensor:
#      x y z
#    x 3.991680 0.000000 0.000000 
#    y 0.000000 3.926940 0.000000 
#    z 0.000000 0.000000 3.689710 
# 
# 
# High freq. dielectric constant tensor:
#      x y z
#    x 1.791610 0.000000 0.000000 
#    y 0.000000 1.807290 0.000000 
#    z 0.000000 0.000000 1.777340 
# 
# From -- ./inp_files/28174.got.cif
#   From: 2010.03.12/outbox.cif.g09.slc.cpg/sg59_15_cif.got.tgz:28174.got - 2010.04.16 16:29:54.
