data_PCOD8242096
_publ_section_title
;
Structure prediction by ZEFSAII (Michael W. Deem and Ramdas Pophale) SiO2 
 PCOD8242096
Probable space group: P M M N
;
_chemical_formula_sum "Si O2"
_cell_formula_units_Z 64
_cell_length_a 17.344777
_cell_length_b 13.735181
_cell_length_c 14.340967
_cell_angle_alpha 90.000000
_cell_angle_beta 90.000000
_cell_angle_gamma 90.000000
_cell_volume 3416.500934
_symmetry_space_group_name_H-M "P M M N"
_symmetry_group_IT_number 59
_space_group.IT_coordinate_system_code '2'
_symmetry_cell_setting 'orthorhombic'
loop_
_space_group_symop_operation_xyz
x,y,z
1/2-x,1/2-y,z
1/2+x,-y,-z
-x,1/2+y,-z
-x,-y,-z
1/2+x,1/2+y,-z
1/2-x,y,z
x,1/2-y,z
loop_
_atom_site_type_symbol
_atom_site_label
_atom_site_fract_x
_atom_site_fract_y
_atom_site_fract_z
Si Si1 0.333828 0.638922 0.676216
Si Si2 0.991825 0.547870 0.360262
Si Si3 0.962643 0.141435 0.457984
Si Si4 0.617083 0.860061 0.093332
Si Si5 0.469145 0.537767 0.153458
Si Si6 0.337143 0.360804 0.697030
Si Si7 0.337117 0.541815 0.015365
Si Si8 0.925931 0.363190 0.146296
O O1 0.250000 0.586472 0.673488
O O2 0.321564 0.750000 0.705804
O O3 0.373600 0.631629 0.574828
O O4 0.387529 0.594377 0.758130
O O5 0.009674 0.439490 0.399328
O O6 0.898940 0.567628 0.352822
O O7 0.030046 0.624139 0.431805
O O8 0.034905 0.562825 0.262799
O O9 0.993608 0.250000 0.433540
O O10 0.623637 0.750000 0.055880
O O11 0.527242 0.888279 0.102224
O O12 0.658921 0.872377 0.192069
O O13 0.658708 0.930992 0.020751
O O14 0.385152 0.552797 0.110513
O O15 0.496832 0.426836 0.133896
O O16 0.250000 0.386759 0.664495
O O17 0.357940 0.250000 0.668969
O O18 0.250000 0.569716 0.039755
O O19 0.367476 0.617620 0.938092
O O20 0.948619 0.250000 0.152108
#
# Coordination Sequence:
#
# PCOD8242096 Si02
#       8
#     8   8   8   8   8   8   8   8
#     4   9  17  30  51  80 107 129 162 215 277 328
#     4  10  20  35  54  76 104 141 178 219 267 323
#     4  10  20  35  54  77 103 135 173 217 270 330
#     4   9  18  34  54  76 105 140 178 223 268 313
#     4  10  21  36  53  80 106 140 186 224 263 320
#     4   9  17  30  51  80 109 135 169 215 268 320
#     4  11  23  35  50  76 112 148 184 220 257 310
#     4  10  19  35  57  81 108 141 178 225 281 326
#
# _framework density 18.732616
#
# number of rings (size 3 to 8) (size 9 to 14) (size 15 to 20)
#    0.000    2.250    1.250    2.625    0.000    4.500 
#    0.000    0.625    0.000    0.750    0.000    0.000 
#    0.000    0.000    0.000    0.000    0.000    0.000 
#
# Total GULP energy -793413.852577 kJ/mol
# GULP energy per Si atom -12397.091447 kJ/mol
# Density = 1.868998 g / cm^3
# Si number density = 18.732616 Si / 1000 Ang^3
#
#
#
# Elastic Constant Matrix: (Units=GPa)
#
#
# Indices 1 2 3 4 5 6 
#
# 1 93.9824 6.0336 57.1972 0.0000 0.0000 0.0000
# 2 6.0336 84.9638 16.5438 0.0000 0.0000 0.0000
# 3 57.1972 16.5438 99.1053 0.0000 0.0000 0.0000
# 4 0.0000 0.0000 0.0000 22.8415 0.0000 0.0000
# 5 0.0000 0.0000 0.0000 0.0000 22.8281 0.0000
# 6 0.0000 0.0000 0.0000 0.0000 0.0000 10.7836
#
#
#
# Elastic Compliance Matrix: (Units=1/GPa)
#
#
# Indices 1 2 3 4 5 6 
#
# 1 0.016442 0.000703 -0.009606 0.000000 0.000000 0.000000
# 2 0.000703 0.012195 -0.002441 0.000000 0.000000 0.000000
# 3 -0.009606 -0.002441 0.016042 0.000000 0.000000 0.000000
# 4 0.000000 0.000000 0.000000 0.043780 0.000000 0.000000
# 5 0.000000 0.000000 0.000000 0.000000 0.043806 0.000000
# 6 0.000000 0.000000 0.000000 0.000000 0.000000 0.092733
#
#
# Mechanical properties :
#
#
# Convention : Reuss Voigt Hill
#
# Bulk Modulus (GPa) = 45.47728 48.62230 47.04979
# Shear Modulus (GPa) = 19.60654 24.50912 22.05783
#
# Velocity S-wave (km/s) = 3.23871 3.62106 3.43521
# Velocity P-wave (km/s) = 6.18995 6.59508 6.39572
#
# Compressibility (1/GPa) = 0.02198900
#
# Stress axis : x y z
#
# Youngs Moduli (GPa) = 60.82169 81.99955 62.33648
#
# Poissons Ratio (x) = -0.05764 0.59882
# Poissons Ratio (y) = -0.04275 0.15219
# Poissons Ratio (z) = 0.58427 0.20020
#
# Static dielectric constant tensor:
#      x y z
#    x 3.310440 0.000000 0.000000 
#    y 0.000000 3.607430 0.000000 
#    z 0.000000 0.000000 3.328610 
# 
# 
# High freq. dielectric constant tensor:
#      x y z
#    x 1.697190 0.000000 0.000000 
#    y 0.000000 1.744050 0.000000 
#    z 0.000000 0.000000 1.707520 
# 
# From -- ./inp_files/24035.got.cif
#   From: 2010.03.12/outbox.cif.g09.slc.cpg/sg59_13_cif.got.tgz:24035.got - 2010.04.16 16:29:54.
