data_PCOD8242036
_publ_section_title
;
Structure prediction by ZEFSAII (Michael W. Deem and Ramdas Pophale) SiO2 
 PCOD8242036
Probable space group: P M M N
;
_chemical_formula_sum "Si O2"
_cell_formula_units_Z 64
_cell_length_a 23.707802
_cell_length_b 8.946923
_cell_length_c 15.335647
_cell_angle_alpha 90.000000
_cell_angle_beta 90.000000
_cell_angle_gamma 90.000000
_cell_volume 3252.872901
_symmetry_space_group_name_H-M "P M M N"
_symmetry_group_IT_number 59
_space_group.IT_coordinate_system_code '2'
_symmetry_cell_setting 'orthorhombic'
loop_
_space_group_symop_operation_xyz
x,y,z
1/2-x,1/2-y,z
1/2+x,-y,-z
-x,1/2+y,-z
-x,-y,-z
1/2+x,1/2+y,-z
1/2-x,y,z
x,1/2-y,z
loop_
_atom_site_type_symbol
_atom_site_label
_atom_site_fract_x
_atom_site_fract_y
_atom_site_fract_z
Si Si1 0.503210 0.424644 0.907488
Si Si2 0.623086 0.075279 0.340837
Si Si3 0.388098 0.924267 0.351100
Si Si4 0.501000 0.925279 0.593645
Si Si5 0.123547 0.577887 0.155283
Si Si6 0.816057 0.924481 0.499430
Si Si7 0.884592 0.573773 0.162854
Si Si8 0.686478 0.573816 0.997466
O O1 0.502169 0.250000 0.924932
O O2 0.559423 0.477734 0.858343
O O3 0.449992 0.470400 0.848478
O O4 0.500000 0.500000 0.000000
O O5 0.636365 0.250000 0.346476
O O6 0.557690 0.040475 0.358862
O O7 0.662374 0.990668 0.409019
O O8 0.639477 0.013794 0.245850
O O9 0.396575 0.750000 0.372948
O O10 0.360330 0.947737 0.256136
O O11 0.449062 0.002024 0.350514
O O12 0.346623 0.995254 0.420901
O O13 0.511922 0.750000 0.582893
O O14 0.500000 0.000000 0.500000
O O15 0.128958 0.750000 0.128825
O O16 0.165880 0.487179 0.095043
O O17 0.750000 0.955352 0.507979
O O18 0.830551 0.750000 0.502552
O O19 0.875641 0.750000 0.177249
O O20 0.851451 0.515653 0.077439
O O21 0.750000 0.518713 0.013778
O O22 0.682579 0.750000 0.991551
#
# Coordination Sequence:
#
# PCOD8242036 Si02
#       8
#     8   8   8   8   8   8   8   8
#     4  10  19  34  58  87 118 155 194 238 293 351
#     4  11  24  40  62  93 124 157 197 246 301 358
#     4  11  23  40  63  91 123 160 200 247 302 361
#     4  11  22  37  61  92 125 161 197 242 302 363
#     4  10  22  38  59  88 121 155 195 243 297 356
#     4  11  25  44  65  88 117 158 205 252 302 357
#     4  10  21  38  60  87 121 159 197 243 298 357
#     4  10  22  40  61  85 115 155 203 250 295 349
#
# _framework density 19.674916
#
# number of rings (size 3 to 8) (size 9 to 14) (size 15 to 20)
#    0.000    1.500    2.500    2.250    0.000    6.750 
#    0.000    3.750    0.000    0.000    0.000    0.000 
#    0.000    0.000    0.000    0.000    0.000    0.000 
#
# Total GULP energy -793867.958754 kJ/mol
# GULP energy per Si atom -12404.186856 kJ/mol
# Density = 1.963014 g / cm^3
# Si number density = 19.674916 Si / 1000 Ang^3
#
#
#
# Elastic Constant Matrix: (Units=GPa)
#
#
# Indices 1 2 3 4 5 6 
#
# 1 67.6223 32.1438 18.3808 0.0000 0.0000 0.0000
# 2 32.1438 66.1089 31.5728 0.0000 0.0000 0.0000
# 3 18.3808 31.5728 109.4611 0.0000 0.0000 0.0000
# 4 0.0000 0.0000 0.0000 38.2967 0.0000 0.0000
# 5 0.0000 0.0000 0.0000 0.0000 10.3471 0.0000
# 6 0.0000 0.0000 0.0000 0.0000 0.0000 28.8953
#
#
#
# Elastic Compliance Matrix: (Units=1/GPa)
#
#
# Indices 1 2 3 4 5 6 
#
# 1 0.019269 -0.009074 -0.000618 0.000000 0.000000 0.000000
# 2 -0.009074 0.021816 -0.004769 0.000000 0.000000 0.000000
# 3 -0.000618 -0.004769 0.010615 0.000000 0.000000 0.000000
# 4 0.000000 0.000000 0.000000 0.026112 0.000000 0.000000
# 5 0.000000 0.000000 0.000000 0.000000 0.096645 0.000000
# 6 0.000000 0.000000 0.000000 0.000000 0.000000 0.034608
#
#
# Mechanical properties :
#
#
# Convention : Reuss Voigt Hill
#
# Bulk Modulus (GPa) = 43.90205 45.26523 44.58364
# Shear Modulus (GPa) = 20.35993 26.24747 23.30370
#
# Velocity S-wave (km/s) = 3.22035 3.65644 3.44530
# Velocity P-wave (km/s) = 6.01578 6.39395 6.20775
#
# Compressibility (1/GPa) = 0.02277798
#
# Stress axis : x y z
#
# Youngs Moduli (GPa) = 51.89588 45.83780 94.20584
#
# Poissons Ratio (x) = 0.41593 0.05826
# Poissons Ratio (y) = 0.47090 0.44926
# Poissons Ratio (z) = 0.03210 0.21860
#
# Static dielectric constant tensor:
#      x y z
#    x 3.777070 0.000000 0.000000 
#    y 0.000000 3.571600 0.000000 
#    z 0.000000 0.000000 2.222400 
# 
# 
# High freq. dielectric constant tensor:
#      x y z
#    x 1.767560 0.000000 0.000000 
#    y 0.000000 1.767560 0.000000 
#    z 0.000000 0.000000 1.778700 
# 
# From -- ./inp_files/24676.got.cif
#   From: 2010.03.12/outbox.cif.g09.slc.cpg/sg59_13_cif.got.tgz:24676.got - 2010.04.16 16:29:54.
