data_PCOD8242397
_publ_section_title
;
Structure prediction by ZEFSAII (Michael W. Deem and Ramdas Pophale) SiO2 
 PCOD8242397
Probable space group: P M M N
;
_chemical_formula_sum "Si O2"
_cell_formula_units_Z 64
_cell_length_a 9.110682
_cell_length_b 19.147696
_cell_length_c 21.734311
_cell_angle_alpha 90.000000
_cell_angle_beta 90.000000
_cell_angle_gamma 90.000000
_cell_volume 3791.519458
_symmetry_space_group_name_H-M "P M M N"
_symmetry_group_IT_number 59
_space_group.IT_coordinate_system_code '2'
_symmetry_cell_setting 'orthorhombic'
loop_
_space_group_symop_operation_xyz
x,y,z
1/2-x,1/2-y,z
1/2+x,-y,-z
-x,1/2+y,-z
-x,-y,-z
1/2+x,1/2+y,-z
1/2-x,y,z
x,1/2-y,z
loop_
_atom_site_type_symbol
_atom_site_label
_atom_site_fract_x
_atom_site_fract_y
_atom_site_fract_z
Si Si1 0.418853 0.555623 0.328891
Si Si2 0.082420 0.329128 0.607889
Si Si3 0.420068 0.536133 0.190409
Si Si4 0.922011 0.329388 0.480908
Si Si5 0.914718 0.462556 0.088212
Si Si6 0.422183 0.040069 0.444204
Si Si7 0.919804 0.172147 0.880772
Si Si8 0.085180 0.105385 0.986695
O O1 0.250000 0.580199 0.332298
O O2 0.523169 0.622346 0.337772
O O3 0.455380 0.524642 0.262065
O O4 0.454229 0.497701 0.379939
O O5 0.250000 0.348107 0.590691
O O6 0.070373 0.250000 0.631253
O O7 0.979699 0.342373 0.549455
O O8 0.250000 0.524134 0.175581
O O9 0.509356 0.477445 0.153619
O O10 0.467217 0.614814 0.170139
O O11 0.750000 0.346486 0.480126
O O12 0.953785 0.250000 0.459428
O O13 0.008615 0.382541 0.436673
O O14 0.750000 0.436374 0.100388
O O15 0.916390 0.532235 0.048279
O O16 0.000952 0.402029 0.051616
O O17 0.250000 0.045102 0.458373
O O18 0.500000 0.000000 0.500000
O O19 0.750000 0.162671 0.897436
O O20 0.952020 0.250000 0.854670
O O21 0.007529 0.162825 0.944256
O O22 0.250000 0.130199 0.000617
#
# Coordination Sequence:
#
# PCOD8242397 Si02
#       8
#     8   8   8   8   8   8   8   8
#     4  10  21  34  49  70  97 131 170 208 251 304
#     4  10  20  32  47  68  94 126 163 203 247 297
#     4   9  18  32  47  65  92 127 165 201 237 286
#     4  10  20  34  52  73  96 123 157 199 251 309
#     4   9  16  27  44  66  90 116 149 191 236 276
#     4  11  21  33  51  75 101 130 164 208 260 308
#     4   9  17  29  45  66  94 128 164 198 231 272
#     4   9  16  26  43  66  90 118 151 189 231 272
#
# _framework density 16.879776
#
# number of rings (size 3 to 8) (size 9 to 14) (size 15 to 20)
#    0.000    2.375    1.250    1.875    0.000    6.250 
#    0.000    1.250    0.000    0.000    0.000    0.875 
#    0.000    5.000    0.000    0.000    0.000    0.000 
#
# Total GULP energy -793579.932386 kJ/mol
# GULP energy per Si atom -12399.686444 kJ/mol
# Density = 1.684136 g / cm^3
# Si number density = 16.879776 Si / 1000 Ang^3
#
#
#
# Elastic Constant Matrix: (Units=GPa)
#
#
# Indices 1 2 3 4 5 6 
#
# 1 100.0880 39.9737 53.3109 0.0000 0.0000 0.0000
# 2 39.9737 58.9197 41.4663 0.0000 0.0000 0.0000
# 3 53.3109 41.4663 109.6744 0.0000 0.0000 0.0000
# 4 0.0000 0.0000 0.0000 19.1109 0.0000 0.0000
# 5 0.0000 0.0000 0.0000 0.0000 25.1407 0.0000
# 6 0.0000 0.0000 0.0000 0.0000 0.0000 26.5005
#
#
#
# Elastic Compliance Matrix: (Units=1/GPa)
#
#
# Indices 1 2 3 4 5 6 
#
# 1 0.015363 -0.007041 -0.004806 0.000000 0.000000 0.000000
# 2 -0.007041 0.026352 -0.006541 0.000000 0.000000 0.000000
# 3 -0.004806 -0.006541 0.013927 0.000000 0.000000 0.000000
# 4 0.000000 0.000000 0.000000 0.052326 0.000000 0.000000
# 5 0.000000 0.000000 0.000000 0.000000 0.039776 0.000000
# 6 0.000000 0.000000 0.000000 0.000000 0.000000 0.037735
#
#
# Mechanical properties :
#
#
# Convention : Reuss Voigt Hill
#
# Bulk Modulus (GPa) = 53.00170 59.79821 56.39996
# Shear Modulus (GPa) = 21.87765 23.07916 22.47841
#
# Velocity S-wave (km/s) = 3.60403 3.70167 3.65317
# Velocity P-wave (km/s) = 6.98472 7.33298 7.16097
#
# Compressibility (1/GPa) = 0.01886732
#
# Stress axis : x y z
#
# Youngs Moduli (GPa) = 65.09215 37.94711 71.80326
#
# Poissons Ratio (x) = 0.26717 0.34506
# Poissons Ratio (y) = 0.45830 0.46967
# Poissons Ratio (z) = 0.31281 0.24822
#
# Static dielectric constant tensor:
#      x y z
#    x 3.315660 0.000000 0.000000 
#    y 0.000000 3.110670 0.000000 
#    z 0.000000 0.000000 2.998940 
# 
# 
# High freq. dielectric constant tensor:
#      x y z
#    x 1.663900 0.000000 0.000000 
#    y 0.000000 1.627700 0.000000 
#    z 0.000000 0.000000 1.625670 
# 
# From -- ./inp_files/29678.got.cif
#   From: 2010.03.12/outbox.cif.g09.slc.cpg/sg59_15_cif.got.tgz:29678.got - 2010.04.16 16:29:54.
