data_PCOD8242327
_publ_section_title
;
Structure prediction by ZEFSAII (Michael W. Deem and Ramdas Pophale) SiO2 
 PCOD8242327
Probable space group: P M M N
;
_chemical_formula_sum "Si O2"
_cell_formula_units_Z 56
_cell_length_a 9.645006
_cell_length_b 19.195914
_cell_length_c 17.652616
_cell_angle_alpha 90.000000
_cell_angle_beta 90.000000
_cell_angle_gamma 90.000000
_cell_volume 3268.288394
_symmetry_space_group_name_H-M "P M M N"
_symmetry_group_IT_number 59
_space_group.IT_coordinate_system_code '2'
_symmetry_cell_setting 'orthorhombic'
loop_
_space_group_symop_operation_xyz
x,y,z
1/2-x,1/2-y,z
1/2+x,-y,-z
-x,1/2+y,-z
-x,-y,-z
1/2+x,1/2+y,-z
1/2-x,y,z
x,1/2-y,z
loop_
_atom_site_type_symbol
_atom_site_label
_atom_site_fract_x
_atom_site_fract_y
_atom_site_fract_z
Si Si1 0.408784 0.413466 0.298736
Si Si2 0.914437 0.067981 0.873896
Si Si3 0.084933 0.930228 0.293461
Si Si4 0.912631 0.330829 0.005833
Si Si5 0.909847 0.588970 0.877457
Si Si6 0.594975 0.167505 0.412767
Si Si7 0.084703 0.827553 0.419927
O O1 0.250000 0.405064 0.323171
O O2 0.461267 0.491767 0.314606
O O3 0.427575 0.394712 0.210922
O O4 0.496744 0.361063 0.348229
O O5 0.750000 0.067580 0.869722
O O6 0.971831 0.088929 0.790569
O O7 0.962449 0.989676 0.895856
O O8 0.968043 0.124246 0.934457
O O9 0.250000 0.925721 0.293076
O O10 0.020956 0.877967 0.355663
O O11 0.750000 0.343486 0.019866
O O12 0.943985 0.250000 0.989570
O O13 0.995416 0.355529 0.079379
O O14 0.750000 0.598286 0.902302
O O15 0.750000 0.138439 0.399526
O O16 0.595688 0.250000 0.407665
O O17 0.540489 0.145514 0.496542
O O18 0.250000 0.826176 0.415982
O O19 0.026435 0.750000 0.404723
#
# Coordination Sequence:
#
# PCOD8242327 Si02
#       7
#     8   8   8   8   8   8   8
#     4   9  18  31  47  68  90 114 150 191 224 258
#     4   8  15  29  47  66  90 119 148 180 221 266
#     4   8  14  26  45  68  92 116 145 184 224 260
#     4  10  20  31  45  70  98 117 141 183 228 265
#     4   9  18  33  50  65  86 120 156 184 215 263
#     4   9  18  31  45  64  92 122 150 182 221 265
#     4   8  14  25  42  65  92 121 150 178 215 267
#
# _framework density 17.134350999999999
#
# number of rings (size 3 to 8) (size 9 to 14) (size 15 to 20)
#    0.000    3.286    0.000    3.000    0.000    2.857 
#    0.000    5.714    0.000    0.857    0.000    0.000 
#    0.000    2.286    0.000    0.000    0.000    0.000 
#
# Total GULP energy -694115.765708 kJ/mol
# GULP energy per Si atom -12394.924388 kJ/mol
# Density = 1.709535 g / cm^3
# Si number density = 17.134351 Si / 1000 Ang^3
#
#
#
# Elastic Constant Matrix: (Units=GPa)
#
#
# Indices 1 2 3 4 5 6 
#
# 1 36.6185 28.9795 39.0606 0.0000 0.0000 0.0000
# 2 28.9795 68.5901 54.0646 0.0000 0.0000 0.0000
# 3 39.0606 54.0646 101.6923 0.0000 0.0000 0.0000
# 4 0.0000 0.0000 0.0000 35.8015 0.0000 0.0000
# 5 0.0000 0.0000 0.0000 0.0000 19.4857 0.0000
# 6 0.0000 0.0000 0.0000 0.0000 0.0000 20.0620
#
#
#
# Elastic Compliance Matrix: (Units=1/GPa)
#
#
# Indices 1 2 3 4 5 6 
#
# 1 0.050195 -0.010346 -0.013780 0.000000 0.000000 0.000000
# 2 -0.010346 0.027229 -0.010502 0.000000 0.000000 0.000000
# 3 -0.013780 -0.010502 0.020710 0.000000 0.000000 0.000000
# 4 0.000000 0.000000 0.000000 0.027932 0.000000 0.000000
# 5 0.000000 0.000000 0.000000 0.000000 0.051320 0.000000
# 6 0.000000 0.000000 0.000000 0.000000 0.000000 0.049845
#
#
# Mechanical properties :
#
#
# Convention : Reuss Voigt Hill
#
# Bulk Modulus (GPa) = 34.62862 50.12335 42.37599
# Shear Modulus (GPa) = 16.33391 20.72294 18.52842
#
# Velocity S-wave (km/s) = 3.09088 3.48147 3.29197
# Velocity P-wave (km/s) = 5.74386 6.74370 6.26376
#
# Compressibility (1/GPa) = 0.02887785
#
# Stress axis : x y z
#
# Youngs Moduli (GPa) = 19.92236 36.72616 48.28600
#
# Poissons Ratio (x) = 0.37996 0.66537
# Poissons Ratio (y) = 0.20611 0.50711
# Poissons Ratio (z) = 0.27453 0.38570
#
# Static dielectric constant tensor:
#      x y z
#    x 2.755690 0.000000 0.000000 
#    y 0.000000 3.258060 0.000000 
#    z 0.000000 0.000000 3.453270 
# 
# 
# High freq. dielectric constant tensor:
#      x y z
#    x 1.611910 0.000000 0.000000 
#    y 0.000000 1.660640 0.000000 
#    z 0.000000 0.000000 1.671180 
# 
# From -- ./inp_files/26090.got.cif
#   From: 2010.03.12/outbox.cif.g09.slc.cpg/sg59_14_cif.got.tgz:26090.got - 2010.04.16 16:29:54.
