data_PCOD8242119
_publ_section_title
;
Structure prediction by ZEFSAII (Michael W. Deem and Ramdas Pophale) SiO2 
 PCOD8242119
Probable space group: P M M N
;
_chemical_formula_sum "Si O2"
_cell_formula_units_Z 56
_cell_length_a 13.886351
_cell_length_b 31.687083
_cell_length_c 6.950931
_cell_angle_alpha 90.000000
_cell_angle_beta 90.000000
_cell_angle_gamma 90.000000
_cell_volume 3058.534456
_symmetry_space_group_name_H-M "P M M N"
_symmetry_group_IT_number 59
_space_group.IT_coordinate_system_code '2'
_symmetry_cell_setting 'orthorhombic'
loop_
_space_group_symop_operation_xyz
x,y,z
1/2-x,1/2-y,z
1/2+x,-y,-z
-x,1/2+y,-z
-x,-y,-z
1/2+x,1/2+y,-z
1/2-x,y,z
x,1/2-y,z
loop_
_atom_site_type_symbol
_atom_site_label
_atom_site_fract_x
_atom_site_fract_y
_atom_site_fract_z
Si Si1 0.017370 0.061479 0.137861
Si Si2 0.506556 0.798322 0.582766
Si Si3 0.641225 0.572296 0.488934
Si Si4 0.361877 0.492023 0.844329
Si Si5 0.860037 0.660953 0.296906
Si Si6 0.639439 0.298522 0.748616
Si Si7 0.008074 0.845737 0.977578
O O1 0.064695 0.072447 0.341243
O O2 0.095794 0.035955 0.016213
O O3 0.919242 0.035731 0.169828
O O4 0.987177 0.103786 0.027539
O O5 0.506766 0.750000 0.650247
O O6 0.603672 0.808097 0.465017
O O7 0.415523 0.809063 0.448456
O O8 0.501099 0.828154 0.764908
O O9 0.750000 0.573567 0.572526
O O10 0.625825 0.531086 0.359304
O O11 0.622752 0.612730 0.356381
O O12 0.250000 0.501198 0.889404
O O13 0.750000 0.671550 0.255481
O O14 0.916226 0.669868 0.099412
O O15 0.750000 0.308492 0.709021
O O16 0.622085 0.250000 0.809439
O O17 0.604353 0.328208 0.922112
#
# Coordination Sequence:
#
# PCOD8242119 Si02
#       7
#     8   8   8   8   8   8   8
#     4  11  21  35  59  83 113 147 185 236 284 333
#     4  10  21  38  58  83 116 150 187 233 283 335
#     4  10  19  35  58  81 107 147 193 227 271 335
#     4  10  22  38  55  81 113 146 187 234 283 336
#     4  10  21  36  56  81 114 152 191 234 275 330
#     4   9  20  39  60  83 113 149 188 229 278 340
#     4  11  21  35  59  88 113 145 189 234 284 337
#
# _framework density 18.309424
#
# number of rings (size 3 to 8) (size 9 to 14) (size 15 to 20)
#    0.000    1.857    2.857    1.286    0.000    3.143 
#    0.000    1.429    0.000    0.000    0.000    0.000 
#    0.000    0.000    0.000    0.000    0.000    0.000 
#
# Total GULP energy -694619.384274 kJ/mol
# GULP energy per Si atom -12403.917576 kJ/mol
# Density = 1.826775 g / cm^3
# Si number density = 18.309424 Si / 1000 Ang^3
#
#
#
# Elastic Constant Matrix: (Units=GPa)
#
#
# Indices 1 2 3 4 5 6 
#
# 1 124.1368 39.8876 45.2948 0.0000 0.0000 0.0000
# 2 39.8876 57.7890 22.9271 0.0000 0.0000 0.0000
# 3 45.2948 22.9271 83.8245 0.0000 0.0000 0.0000
# 4 0.0000 0.0000 0.0000 27.8773 0.0000 0.0000
# 5 0.0000 0.0000 0.0000 0.0000 21.3977 0.0000
# 6 0.0000 0.0000 0.0000 0.0000 0.0000 28.4872
#
#
#
# Elastic Compliance Matrix: (Units=1/GPa)
#
#
# Indices 1 2 3 4 5 6 
#
# 1 0.011767 -0.006281 -0.004640 0.000000 0.000000 0.000000
# 2 -0.006281 0.022763 -0.002832 0.000000 0.000000 0.000000
# 3 -0.004640 -0.002832 0.015212 0.000000 0.000000 0.000000
# 4 0.000000 0.000000 0.000000 0.035871 0.000000 0.000000
# 5 0.000000 0.000000 0.000000 0.000000 0.046734 0.000000
# 6 0.000000 0.000000 0.000000 0.000000 0.000000 0.035103
#
#
# Mechanical properties :
#
#
# Convention : Reuss Voigt Hill
#
# Bulk Modulus (GPa) = 44.97399 53.55215 49.26307
# Shear Modulus (GPa) = 24.70728 26.06183 25.38456
#
# Velocity S-wave (km/s) = 3.67744 3.77690 3.72751
# Velocity P-wave (km/s) = 6.53055 6.95212 6.74463
#
# Compressibility (1/GPa) = 0.02223508
#
# Stress axis : x y z
#
# Youngs Moduli (GPa) = 84.98346 43.93056 65.73849
#
# Poissons Ratio (x) = 0.27592 0.30505
# Poissons Ratio (y) = 0.53377 0.18618
# Poissons Ratio (z) = 0.39436 0.12442
#
# Static dielectric constant tensor:
#      x y z
#    x 3.416960 0.000000 0.000000 
#    y 0.000000 3.432520 0.000000 
#    z 0.000000 0.000000 3.291590 
# 
# 
# High freq. dielectric constant tensor:
#      x y z
#    x 1.709860 0.000000 0.000000 
#    y 0.000000 1.712430 0.000000 
#    z 0.000000 0.000000 1.713720 
# 
# From -- ./inp_files/2305.got.cif
#   From: 2010.03.12/outbox.cif.g09.slc.cpg/sg59_2_cif.got.tgz:2305.got - 2010.04.16 16:29:54.
