data_PCOD8242940
_publ_section_title
;
Structure prediction by ZEFSAII (Michael W. Deem and Ramdas Pophale) SiO2 
 PCOD8242940
Probable space group: P M M N
;
_chemical_formula_sum "Si O2"
_cell_formula_units_Z 64
_cell_length_a 18.601339
_cell_length_b 9.325995
_cell_length_c 19.666021
_cell_angle_alpha 90.000000
_cell_angle_beta 90.000000
_cell_angle_gamma 90.000000
_cell_volume 3411.582551
_symmetry_space_group_name_H-M "P M M N"
_symmetry_group_IT_number 59
_space_group.IT_coordinate_system_code '2'
_symmetry_cell_setting 'orthorhombic'
loop_
_space_group_symop_operation_xyz
x,y,z
1/2-x,1/2-y,z
1/2+x,-y,-z
-x,1/2+y,-z
-x,-y,-z
1/2+x,1/2+y,-z
1/2-x,y,z
x,1/2-y,z
loop_
_atom_site_type_symbol
_atom_site_label
_atom_site_fract_x
_atom_site_fract_y
_atom_site_fract_z
Si Si1 0.165246 0.086599 0.876981
Si Si2 0.062931 0.086434 0.644860
Si Si3 0.666741 0.086282 0.724223
Si Si4 0.589303 0.415216 0.589075
Si Si5 0.938980 0.419537 0.216645
Si Si6 0.829720 0.579973 0.972337
Si Si7 0.592162 0.918856 0.839787
Si Si8 0.331813 0.083076 0.527997
O O1 0.250000 0.077019 0.865445
O O2 0.138740 0.250000 0.866551
O O3 0.128494 0.984981 0.822206
O O4 0.145241 0.029226 0.952696
O O5 0.061917 0.250000 0.672331
O O6 0.135321 0.054696 0.602686
O O7 0.996163 0.061258 0.593852
O O8 0.058023 0.979019 0.707403
O O9 0.750000 0.070376 0.707450
O O10 0.645084 0.250000 0.740135
O O11 0.623792 0.028249 0.659129
O O12 0.647510 0.991246 0.788644
O O13 0.609779 0.250000 0.577282
O O14 0.620579 0.503144 0.527042
O O15 0.930114 0.250000 0.220517
O O16 0.010870 0.465195 0.176213
O O17 0.750000 0.518204 0.955438
O O18 0.824416 0.750000 0.974130
O O19 0.886903 0.528172 0.915781
O O20 0.602616 0.750000 0.832304
O O21 0.250000 0.025852 0.527836
O O22 0.334732 0.250000 0.510010
#
# Coordination Sequence:
#
# PCOD8242940 Si02
#       8
#     8   8   8   8   8   8   8   8
#     4   9  19  37  60  81 103 141 190 232 274 330
#     4  10  21  39  60  79 107 150 191 225 268 326
#     4  10  20  33  51  78 111 146 185 224 265 319
#     4  10  20  36  58  81 108 146 185 223 270 327
#     4  11  23  36  54  84 117 145 180 229 280 329
#     4   8  15  31  55  80 106 141 187 231 270 321
#     4  10  20  34  53  79 112 147 184 225 271 327
#     4  10  22  38  57  84 112 137 176 230 279 326
#
# _framework density 18.759622
#
# number of rings (size 3 to 8) (size 9 to 14) (size 15 to 20)
#    0.000    2.250    1.250    2.250    0.000    4.750 
#    0.000    1.875    0.000    0.750    0.000    0.000 
#    0.000    0.000    0.000    0.000    0.000    0.000 
#
# Total GULP energy -793676.532767 kJ/mol
# GULP energy per Si atom -12401.195824 kJ/mol
# Density = 1.871692 g / cm^3
# Si number density = 18.759622 Si / 1000 Ang^3
#
#
#
# Elastic Constant Matrix: (Units=GPa)
#
#
# Indices 1 2 3 4 5 6 
#
# 1 81.3969 34.6718 54.5365 0.0000 0.0000 0.0000
# 2 34.6718 54.6625 48.4353 0.0000 0.0000 0.0000
# 3 54.5365 48.4353 103.3541 0.0000 0.0000 0.0000
# 4 0.0000 0.0000 0.0000 31.2389 0.0000 0.0000
# 5 0.0000 0.0000 0.0000 0.0000 33.2205 0.0000
# 6 0.0000 0.0000 0.0000 0.0000 0.0000 27.5705
#
#
#
# Elastic Compliance Matrix: (Units=1/GPa)
#
#
# Indices 1 2 3 4 5 6 
#
# 1 0.019992 -0.005700 -0.007878 0.000000 0.000000 0.000000
# 2 -0.005700 0.032910 -0.012415 0.000000 0.000000 0.000000
# 3 -0.007878 -0.012415 0.019650 0.000000 0.000000 0.000000
# 4 0.000000 0.000000 0.000000 0.032011 0.000000 0.000000
# 5 0.000000 0.000000 0.000000 0.000000 0.030102 0.000000
# 6 0.000000 0.000000 0.000000 0.000000 0.000000 0.036271
#
#
# Mechanical properties :
#
#
# Convention : Reuss Voigt Hill
#
# Bulk Modulus (GPa) = 48.62280 57.18895 52.90587
# Shear Modulus (GPa) = 21.76017 25.19066 23.47542
#
# Velocity S-wave (km/s) = 3.40949 3.66842 3.54132
# Velocity P-wave (km/s) = 6.44008 6.96379 6.70705
#
# Compressibility (1/GPa) = 0.02056648
#
# Stress axis : x y z
#
# Youngs Moduli (GPa) = 50.02103 30.38547 50.88972
#
# Poissons Ratio (x) = 0.17321 0.40089
# Poissons Ratio (y) = 0.28514 0.63180
# Poissons Ratio (z) = 0.39404 0.37724
#
# Static dielectric constant tensor:
#      x y z
#    x 3.557150 0.000000 0.000000 
#    y 0.000000 3.255780 0.000000 
#    z 0.000000 0.000000 3.499170 
# 
# 
# High freq. dielectric constant tensor:
#      x y z
#    x 1.734950 0.000000 0.000000 
#    y 0.000000 1.708920 0.000000 
#    z 0.000000 0.000000 1.733460 
# 
# From -- ./inp_files/30820.got.cif
#   From: 2010.03.12/outbox.cif.g09.slc.cpg/sg59_16_cif.got.tgz:30820.got - 2010.04.16 16:29:54.
