data_PCOD8242345
_publ_section_title
;
Structure prediction by ZEFSAII (Michael W. Deem and Ramdas Pophale) SiO2 
 PCOD8242345
Probable space group: P M M N
;
_chemical_formula_sum "Si O2"
_cell_formula_units_Z 64
_cell_length_a 9.533111
_cell_length_b 14.554971
_cell_length_c 24.362682
_cell_angle_alpha 90.000000
_cell_angle_beta 90.000000
_cell_angle_gamma 90.000000
_cell_volume 3380.423334
_symmetry_space_group_name_H-M "P M M N"
_symmetry_group_IT_number 59
_space_group.IT_coordinate_system_code '2'
_symmetry_cell_setting 'orthorhombic'
loop_
_space_group_symop_operation_xyz
x,y,z
1/2-x,1/2-y,z
1/2+x,-y,-z
-x,1/2+y,-z
-x,-y,-z
1/2+x,1/2+y,-z
1/2-x,y,z
x,1/2-y,z
loop_
_atom_site_type_symbol
_atom_site_label
_atom_site_fract_x
_atom_site_fract_y
_atom_site_fract_z
Si Si1 0.594374 0.351065 0.235328
Si Si2 0.093912 0.142280 0.543224
Si Si3 0.415644 0.853597 0.148158
Si Si4 0.596058 0.351722 0.105956
Si Si5 0.415721 0.503026 0.056171
Si Si6 0.416158 0.149418 0.421428
Si Si7 0.912030 0.475058 0.751220
Si Si8 0.411740 0.964167 0.371249
O O1 0.750000 0.375404 0.257785
O O2 0.547827 0.250000 0.257204
O O3 0.600157 0.347429 0.170450
O O4 0.484888 0.426821 0.253644
O O5 0.250000 0.100355 0.549811
O O6 0.099229 0.250000 0.552472
O O7 0.032163 0.120645 0.482580
O O8 0.995610 0.101955 0.589603
O O9 0.250000 0.847355 0.154849
O O10 0.479257 0.750000 0.146404
O O11 0.476406 0.909033 0.201212
O O12 0.454457 0.906145 0.091678
O O13 0.750000 0.387101 0.084544
O O14 0.569433 0.250000 0.081436
O O15 0.466054 0.414776 0.089525
O O16 0.250000 0.496976 0.045420
O O17 0.500000 0.500000 0.000000
O O18 0.250000 0.159016 0.423988
O O19 0.478668 0.250000 0.404428
O O20 0.463628 0.070355 0.378808
O O21 0.750000 0.494207 0.764505
O O22 0.932531 0.429647 0.691374
O O23 0.250000 0.957856 0.388419
#
# Coordination Sequence:
#
# PCOD8242345 Si02
#       8
#     8   8   8   8   8   8   8   8
#     4   9  18  33  54  78 105 139 174 211 261 317
#     4   9  18  33  52  71  97 138 182 220 263 319
#     4   9  19  37  57  75 102 143 183 215 256 313
#     4   9  18  34  56  80 107 139 172 210 263 321
#     4  11  22  36  57  83 110 141 179 225 272 319
#     4   8  15  30  50  72 102 140 177 214 263 323
#     4  10  20  34  53  80 108 138 179 223 264 312
#     4  10  20  31  50  80 108 134 171 223 275 314
#
# _framework density 18.932538999999998
#
# number of rings (size 3 to 8) (size 9 to 14) (size 15 to 20)
#    0.000    2.625    1.250    2.250    0.000    2.750 
#    0.000    5.000    0.000    4.125    0.000    0.000 
#    0.000    0.000    0.000    0.000    0.000    0.000 
#
# Total GULP energy -793108.064279 kJ/mol
# GULP energy per Si atom -12392.313504 kJ/mol
# Density = 1.888945 g / cm^3
# Si number density = 18.932539 Si / 1000 Ang^3
#
#
#
# Elastic Constant Matrix: (Units=GPa)
#
#
# Indices 1 2 3 4 5 6 
#
# 1 56.3537 35.9062 31.7280 0.0000 0.0000 0.0000
# 2 35.9062 91.1326 40.9171 0.0000 0.0000 0.0000
# 3 31.7280 40.9171 90.2010 0.0000 0.0000 0.0000
# 4 0.0000 0.0000 0.0000 16.3224 0.0000 0.0000
# 5 0.0000 0.0000 0.0000 0.0000 24.8583 0.0000
# 6 0.0000 0.0000 0.0000 0.0000 0.0000 29.5366
#
#
#
# Elastic Compliance Matrix: (Units=1/GPa)
#
#
# Indices 1 2 3 4 5 6 
#
# 1 0.025763 -0.007637 -0.005598 0.000000 0.000000 0.000000
# 2 -0.007637 0.016044 -0.004591 0.000000 0.000000 0.000000
# 3 -0.005598 -0.004591 0.015138 0.000000 0.000000 0.000000
# 4 0.000000 0.000000 0.000000 0.061265 0.000000 0.000000
# 5 0.000000 0.000000 0.000000 0.000000 0.040228 0.000000
# 6 0.000000 0.000000 0.000000 0.000000 0.000000 0.033856
#
#
# Mechanical properties :
#
#
# Convention : Reuss Voigt Hill
#
# Bulk Modulus (GPa) = 46.96602 50.53220 48.74911
# Shear Modulus (GPa) = 21.27267 22.75254 22.01260
#
# Velocity S-wave (km/s) = 3.35566 3.47041 3.41352
# Velocity P-wave (km/s) = 6.31465 6.54270 6.42969
#
# Compressibility (1/GPa) = 0.02129199
#
# Stress axis : x y z
#
# Youngs Moduli (GPa) = 38.81579 62.33047 66.05899
#
# Poissons Ratio (x) = 0.47604 0.36977
# Poissons Ratio (y) = 0.29645 0.30330
# Poissons Ratio (z) = 0.21727 0.28618
#
# Static dielectric constant tensor:
#      x y z
#    x 2.655650 0.000000 0.000000 
#    y 0.000000 1.575120 0.000000 
#    z 0.000000 0.000000 3.612810 
# 
# 
# High freq. dielectric constant tensor:
#      x y z
#    x 1.706520 0.000000 0.000000 
#    y 0.000000 1.736370 0.000000 
#    z 0.000000 0.000000 1.734610 
# 
# From -- ./inp_files/31493.got.cif
#   From: 2010.03.12/outbox.cif.g09.slc.cpg/sg59_16_cif.got.tgz:31493.got - 2010.04.16 16:29:54.
