data_PCOD8242522
_publ_section_title
;
Structure prediction by ZEFSAII (Michael W. Deem and Ramdas Pophale) SiO2 
 PCOD8242522
Probable space group: P M M N
;
_chemical_formula_sum "Si O2"
_cell_formula_units_Z 56
_cell_length_a 9.369469
_cell_length_b 15.497612
_cell_length_c 19.820064
_cell_angle_alpha 90.000000
_cell_angle_beta 90.000000
_cell_angle_gamma 90.000000
_cell_volume 2877.960406
_symmetry_space_group_name_H-M "P M M N"
_symmetry_group_IT_number 59
_space_group.IT_coordinate_system_code '2'
_symmetry_cell_setting 'orthorhombic'
loop_
_space_group_symop_operation_xyz
x,y,z
1/2-x,1/2-y,z
1/2+x,-y,-z
-x,1/2+y,-z
-x,-y,-z
1/2+x,1/2+y,-z
1/2-x,y,z
x,1/2-y,z
loop_
_atom_site_type_symbol
_atom_site_label
_atom_site_fract_x
_atom_site_fract_y
_atom_site_fract_z
Si Si1 0.584630 0.151235 0.165482
Si Si2 0.414405 0.417260 0.429832
Si Si3 0.085539 0.409880 0.576791
Si Si4 0.581658 0.149033 0.844756
Si Si5 0.595361 0.650966 0.711095
Si Si6 0.403128 0.651402 0.303836
Si Si7 0.420013 0.493220 0.929855
O O1 0.750000 0.150722 0.181805
O O2 0.536589 0.250000 0.146402
O O3 0.512706 0.113361 0.233805
O O4 0.545901 0.084400 0.106608
O O5 0.250000 0.448731 0.426955
O O6 0.521153 0.495822 0.424246
O O7 0.438159 0.368319 0.501866
O O8 0.455537 0.357686 0.366483
O O9 0.250000 0.415641 0.595677
O O10 0.013874 0.355353 0.635573
O O11 0.750000 0.134777 0.859607
O O12 0.541786 0.250000 0.856624
O O13 0.543606 0.115872 0.768528
O O14 0.484458 0.089782 0.892172
O O15 0.750000 0.605345 0.720109
O O16 0.610691 0.750000 0.727556
O O17 0.250000 0.608092 0.323835
O O18 0.373934 0.750000 0.288998
O O19 0.250000 0.480456 0.938729
O O20 0.500000 0.500000 0.000000
#
# Coordination Sequence:
#
# PCOD8242522 Si02
#       7
#     8   8   8   8   8   8   8
#     4   9  20  39  59  82 116 152 185 228 281 334
#     4   9  19  34  49  70 104 145 183 225 279 334
#     4  10  20  32  49  74 105 141 184 232 279 327
#     4   9  20  40  63  86 116 155 194 236 290 346
#     4   9  18  33  54  78 102 135 182 229 273 325
#     4   9  19  36  56  78 106 143 185 226 278 342
#     4  11  24  40  61  91 121 152 192 232 279 341
#
# _framework density 19.458224000000001
#
# number of rings (size 3 to 8) (size 9 to 14) (size 15 to 20)
#    0.000    2.571    0.000    1.714    2.000    4.571 
#    0.000    4.286    0.000    1.714    0.000    0.000 
#    0.000    0.000    0.000    0.000    0.000    0.000 
#
# Total GULP energy -693736.967847 kJ/mol
# GULP energy per Si atom -12388.160140 kJ/mol
# Density = 1.941394 g / cm^3
# Si number density = 19.458224 Si / 1000 Ang^3
#
#
#
# Elastic Constant Matrix: (Units=GPa)
#
#
# Indices 1 2 3 4 5 6 
#
# 1 97.6399 43.2018 85.0874 0.0000 0.0000 0.0000
# 2 43.2018 72.5854 55.7439 0.0000 0.0000 0.0000
# 3 85.0874 55.7439 175.6578 0.0000 0.0000 0.0000
# 4 0.0000 0.0000 0.0000 31.0259 0.0000 0.0000
# 5 0.0000 0.0000 0.0000 0.0000 36.2290 0.0000
# 6 0.0000 0.0000 0.0000 0.0000 0.0000 26.1999
#
#
#
# Elastic Compliance Matrix: (Units=1/GPa)
#
#
# Indices 1 2 3 4 5 6 
#
# 1 0.019363 -0.005714 -0.007566 0.000000 0.000000 0.000000
# 2 -0.005714 0.019903 -0.003548 0.000000 0.000000 0.000000
# 3 -0.007566 -0.003548 0.010484 0.000000 0.000000 0.000000
# 4 0.000000 0.000000 0.000000 0.032231 0.000000 0.000000
# 5 0.000000 0.000000 0.000000 0.000000 0.027602 0.000000
# 6 0.000000 0.000000 0.000000 0.000000 0.000000 0.038168
#
#
# Mechanical properties :
#
#
# Convention : Reuss Voigt Hill
#
# Bulk Modulus (GPa) = 62.13833 79.32771 70.73302
# Shear Modulus (GPa) = 26.77050 29.48098 28.12574
#
# Velocity S-wave (km/s) = 3.71319 3.89664 3.80602
# Velocity P-wave (km/s) = 7.09840 7.81676 7.46623
#
# Compressibility (1/GPa) = 0.01609313
#
# Stress axis : x y z
#
# Youngs Moduli (GPa) = 51.64357 50.24432 95.38487
#
# Poissons Ratio (x) = 0.28711 0.72170
# Poissons Ratio (y) = 0.29510 0.33843
# Poissons Ratio (z) = 0.39074 0.17827
#
# Static dielectric constant tensor:
#      x y z
#    x 3.599850 0.000000 0.000000 
#    y 0.000000 3.435050 0.000000 
#    z 0.000000 0.000000 3.831900 
# 
# 
# High freq. dielectric constant tensor:
#      x y z
#    x 1.755990 0.000000 0.000000 
#    y 0.000000 1.742650 0.000000 
#    z 0.000000 0.000000 1.767900 
# 
# From -- ./inp_files/29111.got.cif
#   From: 2010.03.12/outbox.cif.g09.slc.cpg/sg59_15_cif.got.tgz:29111.got - 2010.04.16 16:29:54.
