data_PCOD8242054
_publ_section_title
;
Structure prediction by ZEFSAII (Michael W. Deem and Ramdas Pophale) SiO2 
 PCOD8242054
Probable space group: P M M N
;
_chemical_formula_sum "Si O2"
_cell_formula_units_Z 64
_cell_length_a 15.341662
_cell_length_b 8.810646
_cell_length_c 23.869858
_cell_angle_alpha 90.000000
_cell_angle_beta 90.000000
_cell_angle_gamma 90.000000
_cell_volume 3226.487582
_symmetry_space_group_name_H-M "P M M N"
_symmetry_group_IT_number 59
_space_group.IT_coordinate_system_code '2'
_symmetry_cell_setting 'orthorhombic'
loop_
_space_group_symop_operation_xyz
x,y,z
1/2-x,1/2-y,z
1/2+x,-y,-z
-x,1/2+y,-z
-x,-y,-z
1/2+x,1/2+y,-z
1/2-x,y,z
x,1/2-y,z
loop_
_atom_site_type_symbol
_atom_site_label
_atom_site_fract_x
_atom_site_fract_y
_atom_site_fract_z
Si Si1 0.498630 0.928039 0.939401
Si Si2 0.900131 0.428079 0.242001
Si Si3 0.151673 0.423732 0.869351
Si Si4 0.918689 0.076900 0.753309
Si Si5 0.497309 0.070607 0.439247
Si Si6 0.849614 0.425672 0.632427
Si Si7 0.152011 0.576281 0.127279
Si Si8 0.346237 0.930044 0.636336
O O1 0.495840 0.750000 0.946404
O O2 0.411843 0.978696 0.907609
O O3 0.584766 0.970798 0.905171
O O4 0.500000 0.000000 0.000000
O O5 0.883822 0.250000 0.233979
O O6 0.849258 0.517073 0.194012
O O7 0.863441 0.489175 0.300967
O O8 0.002399 0.461094 0.238946
O O9 0.250000 0.438518 0.892658
O O10 0.119639 0.250000 0.870427
O O11 0.953761 0.250000 0.750634
O O12 0.866344 0.034807 0.697295
O O13 0.855056 0.054668 0.805901
O O14 0.502463 0.250000 0.444570
O O15 0.580558 0.004141 0.405312
O O16 0.500000 0.000000 0.500000
O O17 0.409148 0.026983 0.407492
O O18 0.750000 0.465422 0.618217
O O19 0.869680 0.250000 0.620134
O O20 0.250000 0.530712 0.109553
O O21 0.132115 0.750000 0.110791
O O22 0.250000 0.983856 0.616654
O O23 0.352741 0.750000 0.636632
#
# Coordination Sequence:
#
# PCOD8242054 Si02
#       8
#     8   8   8   8   8   8   8   8
#     4  12  26  44  66  90 121 161 207 256 305 357
#     4  11  20  34  60  92 124 158 196 242 300 364
#     4  11  24  42  64  92 126 162 201 249 304 361
#     4  10  19  34  60  90 125 161 197 242 295 359
#     4  11  23  40  60  84 115 154 204 254 304 357
#     4  10  21  38  61  89 121 160 202 244 297 359
#     4  10  21  39  64  93 126 164 202 243 296 357
#     4   9  19  36  58  84 116 153 192 238 295 358
#
# _framework density 19.835811
#
# number of rings (size 3 to 8) (size 9 to 14) (size 15 to 20)
#    0.000    1.500    2.500    3.000    0.000    4.500 
#    0.000    1.250    0.000    5.625    0.000    0.000 
#    0.000    0.000    0.000    0.000    0.000    0.000 
#
# Total GULP energy -793802.769061 kJ/mol
# GULP energy per Si atom -12403.168267 kJ/mol
# Density = 1.979066 g / cm^3
# Si number density = 19.835811 Si / 1000 Ang^3
#
#
#
# Elastic Constant Matrix: (Units=GPa)
#
#
# Indices 1 2 3 4 5 6 
#
# 1 137.0580 46.5421 59.5114 0.0000 0.0000 0.0000
# 2 46.5421 96.4509 51.8100 0.0000 0.0000 0.0000
# 3 59.5114 51.8100 148.3820 0.0000 0.0000 0.0000
# 4 0.0000 0.0000 0.0000 33.4240 0.0000 0.0000
# 5 0.0000 0.0000 0.0000 0.0000 7.5785 0.0000
# 6 0.0000 0.0000 0.0000 0.0000 0.0000 23.4016
#
#
#
# Elastic Compliance Matrix: (Units=1/GPa)
#
#
# Indices 1 2 3 4 5 6 
#
# 1 0.009549 -0.003140 -0.002734 0.000000 0.000000 0.000000
# 2 -0.003140 0.013794 -0.003557 0.000000 0.000000 0.000000
# 3 -0.002734 -0.003557 0.009078 0.000000 0.000000 0.000000
# 4 0.000000 0.000000 0.000000 0.029919 0.000000 0.000000
# 5 0.000000 0.000000 0.000000 0.000000 0.131953 0.000000
# 6 0.000000 0.000000 0.000000 0.000000 0.000000 0.042732
#
#
# Mechanical properties :
#
#
# Convention : Reuss Voigt Hill
#
# Bulk Modulus (GPa) = 73.74600 77.51310 75.62955
# Shear Modulus (GPa) = 19.20084 27.81598 23.50841
#
# Velocity S-wave (km/s) = 3.11463 3.74881 3.44634
# Velocity P-wave (km/s) = 7.08473 7.60922 7.35166
#
# Compressibility (1/GPa) = 0.01356006
#
# Stress axis : x y z
#
# Youngs Moduli (GPa) = 104.71979 72.49683 110.15900
#
# Poissons Ratio (x) = 0.22761 0.30114
# Poissons Ratio (y) = 0.32877 0.39185
# Poissons Ratio (z) = 0.28627 0.25788
#
# Static dielectric constant tensor:
#      x y z
#    x 6.679080 0.000000 0.000000 
#    y 0.000000 3.515150 0.000000 
#    z 0.000000 0.000000 3.744210 
# 
# 
# High freq. dielectric constant tensor:
#      x y z
#    x 1.784880 0.000000 0.000000 
#    y 0.000000 1.761620 0.000000 
#    z 0.000000 0.000000 1.776230 
# 
# From -- ./inp_files/32190.got.cif
#   From: 2010.03.12/outbox.cif.g09.slc.cpg/sg59_17_cif.got.tgz:32190.got - 2010.04.16 16:29:54.
