data_PCOD8242103
_publ_section_title
;
Structure prediction by ZEFSAII (Michael W. Deem and Ramdas Pophale) SiO2 
 PCOD8242103
Probable space group: P M M N
;
_chemical_formula_sum "Si O2"
_cell_formula_units_Z 52
_cell_length_a 13.576167
_cell_length_b 24.595960
_cell_length_c 8.364967
_cell_angle_alpha 90.000000
_cell_angle_beta 90.000000
_cell_angle_gamma 90.000000
_cell_volume 2793.220249
_symmetry_space_group_name_H-M "P M M N"
_symmetry_group_IT_number 59
_space_group.IT_coordinate_system_code '2'
_symmetry_cell_setting 'orthorhombic'
loop_
_space_group_symop_operation_xyz
x,y,z
1/2-x,1/2-y,z
1/2+x,-y,-z
-x,1/2+y,-z
-x,-y,-z
1/2+x,1/2+y,-z
1/2-x,y,z
x,1/2-y,z
loop_
_atom_site_type_symbol
_atom_site_label
_atom_site_fract_x
_atom_site_fract_y
_atom_site_fract_z
Si Si1 0.638427 0.027196 0.931444
Si Si2 0.143237 0.159338 0.361735
Si Si3 0.135184 0.250000 0.115831
Si Si4 0.491083 0.586535 0.479594
Si Si5 0.635694 0.358837 0.776337
Si Si6 0.853229 0.750000 0.382623
Si Si7 0.974502 0.250000 0.845195
Si Si8 0.543617 0.496288 0.258888
O O1 0.750000 0.011334 0.886223
O O2 0.620317 0.091542 0.900910
O O3 0.566307 0.991535 0.818934
O O4 0.622112 0.013220 0.118219
O O5 0.250000 0.132364 0.325785
O O6 0.109651 0.195748 0.213121
O O7 0.153375 0.195904 0.516373
O O8 0.062881 0.114188 0.394158
O O9 0.250000 0.250000 0.064643
O O10 0.060791 0.250000 0.972312
O O11 0.415073 0.627763 0.394686
O O12 0.552375 0.556171 0.338606
O O13 0.433656 0.544643 0.595038
O O14 0.750000 0.348492 0.740814
O O15 0.591746 0.304105 0.854843
O O16 0.750000 0.750000 0.276462
O O17 0.961946 0.750000 0.313660
#
# Coordination Sequence:
#
# PCOD8242103 Si02
#       8
#     8   8   4   8   8   4   4   8
#     4   9  19  38  56  76 113 147 174 225 277 320
#     4   9  18  34  53  78 110 138 168 212 273 333
#     4   9  21  36  53  79 109 142 174 214 278 340
#     4  10  19  35  57  82 108 143 177 230 270 321
#     4  10  22  37  55  80 109 146 187 228 275 315
#     4   9  17  32  54  79 106 135 170 209 268 327
#     4  12  20  34  59  80 103 145 184 231 260 325
#     4   9  20  34  57  83 106 139 191 217 264 333
#
# _framework density 18.616505
#
# number of rings (size 3 to 8) (size 9 to 14) (size 15 to 20)
#    0.000    2.462    1.538    1.385    2.154    1.846 
#    0.000    3.077    0.000    0.000    0.000    0.000 
#    0.000    0.000    0.000    0.000    0.000    0.000 
#
# Total GULP energy -644284.499581 kJ/mol
# GULP energy per Si atom -12390.086530 kJ/mol
# Density = 1.857413 g / cm^3
# Si number density = 18.616505 Si / 1000 Ang^3
#
#
#
# Elastic Constant Matrix: (Units=GPa)
#
#
# Indices 1 2 3 4 5 6 
#
# 1 85.2580 38.6696 18.9231 0.0000 0.0000 0.0000
# 2 38.6696 68.4577 29.0331 0.0000 0.0000 0.0000
# 3 18.9231 29.0331 75.2091 0.0000 0.0000 0.0000
# 4 0.0000 0.0000 0.0000 26.9052 0.0000 0.0000
# 5 0.0000 0.0000 0.0000 0.0000 21.9463 0.0000
# 6 0.0000 0.0000 0.0000 0.0000 0.0000 25.3405
#
#
#
# Elastic Compliance Matrix: (Units=1/GPa)
#
#
# Indices 1 2 3 4 5 6 
#
# 1 0.015794 -0.008653 -0.000634 0.000000 0.000000 0.000000
# 2 -0.008653 0.022208 -0.006396 0.000000 0.000000 0.000000
# 3 -0.000634 -0.006396 0.015925 0.000000 0.000000 0.000000
# 4 0.000000 0.000000 0.000000 0.037167 0.000000 0.000000
# 5 0.000000 0.000000 0.000000 0.000000 0.045566 0.000000
# 6 0.000000 0.000000 0.000000 0.000000 0.000000 0.039462
#
#
# Mechanical properties :
#
#
# Convention : Reuss Voigt Hill
#
# Bulk Modulus (GPa) = 44.32221 44.68624 44.50422
# Shear Modulus (GPa) = 23.25494 24.32503 23.78999
#
# Velocity S-wave (km/s) = 3.53818 3.61867 3.57865
# Velocity P-wave (km/s) = 6.36799 6.44324 6.40572
#
# Compressibility (1/GPa) = 0.02256205
#
# Stress axis : x y z
#
# Youngs Moduli (GPa) = 63.31354 45.02917 62.79568
#
# Poissons Ratio (x) = 0.38964 0.03979
# Poissons Ratio (y) = 0.54785 0.40163
# Poissons Ratio (z) = 0.04012 0.28800
#
# Static dielectric constant tensor:
#      x y z
#    x 3.521210 0.000000 0.000000 
#    y 0.000000 3.385260 0.000000 
#    z 0.000000 0.000000 3.314840 
# 
# 
# High freq. dielectric constant tensor:
#      x y z
#    x 1.716750 0.000000 0.000000 
#    y 0.000000 1.717220 0.000000 
#    z 0.000000 0.000000 1.716660 
# 
# From -- ./inp_files/7830.got.cif
#   From: 2010.03.12/outbox.cif.g09.slc.cpg/sg59_4_cif.got.tgz:7830.got - 2010.04.16 16:29:54.
