data_PCOD8242150
_publ_section_title
;
Structure prediction by ZEFSAII (Michael W. Deem and Ramdas Pophale) SiO2 
 PCOD8242150
Probable space group: P M M N
;
_chemical_formula_sum "Si O2"
_cell_formula_units_Z 48
_cell_length_a 14.908035
_cell_length_b 18.934375
_cell_length_c 9.212233
_cell_angle_alpha 90.000000
_cell_angle_beta 90.000000
_cell_angle_gamma 90.000000
_cell_volume 2600.376854
_symmetry_space_group_name_H-M "P M M N"
_symmetry_group_IT_number 59
_space_group.IT_coordinate_system_code '2'
_symmetry_cell_setting 'orthorhombic'
loop_
_space_group_symop_operation_xyz
x,y,z
1/2-x,1/2-y,z
1/2+x,-y,-z
-x,1/2+y,-z
-x,-y,-z
1/2+x,1/2+y,-z
1/2-x,y,z
x,1/2-y,z
loop_
_atom_site_type_symbol
_atom_site_label
_atom_site_fract_x
_atom_site_fract_y
_atom_site_fract_z
Si Si1 0.996798 0.563812 0.697865
Si Si2 0.993003 0.402658 0.624568
Si Si3 0.852482 0.915586 0.925348
Si Si4 0.645921 0.062909 0.072187
Si Si5 0.147031 0.168917 0.792636
Si Si6 0.352513 0.831669 0.180510
O O1 0.972577 0.482620 0.669035
O O2 0.915807 0.598700 0.788322
O O3 0.005384 0.606476 0.548410
O O4 0.090474 0.572481 0.781087
O O5 0.914057 0.353327 0.684728
O O6 0.088967 0.378997 0.685843
O O7 0.750000 0.918119 0.870758
O O8 0.867910 0.853323 0.040711
O O9 0.880761 0.989176 0.998868
O O10 0.750000 0.064866 0.115455
O O11 0.619207 0.125218 0.962307
O O12 0.250000 0.156801 0.747495
O O13 0.117865 0.250000 0.777547
O O14 0.250000 0.848587 0.223348
O O15 0.366861 0.750000 0.143625
#
# Coordination Sequence:
#
# PCOD8242150 Si02
#       6
#     8   8   8   8   8   8
#     4  11  22  34  54  83 116 142 177 231 277 324
#     4  11  22  35  53  82 115 148 180 220 276 334
#     4  10  19  35  59  84 109 142 184 231 277 319
#     4  10  19  35  59  84 109 142 184 231 277 319
#     4  10  21  38  59  81 108 146 189 228 270 326
#     4  10  21  38  59  81 108 146 189 228 270 326
#
# _framework density 18.458863999999998
#
# number of rings (size 3 to 8) (size 9 to 14) (size 15 to 20)
#    0.000    1.667    3.333    2.000    0.000    1.333 
#    0.000    6.667    0.000    4.000    0.000    0.000 
#    0.000    0.000    0.000    0.000    0.000    0.000 
#
# Total GULP energy -595453.096985 kJ/mol
# GULP energy per Si atom -12405.272854 kJ/mol
# Density = 1.841685 g / cm^3
# Si number density = 18.458864 Si / 1000 Ang^3
#
#
#
# Elastic Constant Matrix: (Units=GPa)
#
#
# Indices 1 2 3 4 5 6 
#
# 1 84.4713 4.2386 51.2311 0.0000 0.0000 0.0000
# 2 4.2386 46.9384 11.7638 0.0000 0.0000 0.0000
# 3 51.2311 11.7638 115.9428 0.0000 0.0000 0.0000
# 4 0.0000 0.0000 0.0000 23.2796 0.0000 0.0000
# 5 0.0000 0.0000 0.0000 0.0000 17.7650 0.0000
# 6 0.0000 0.0000 0.0000 0.0000 0.0000 22.6499
#
#
#
# Elastic Compliance Matrix: (Units=1/GPa)
#
#
# Indices 1 2 3 4 5 6 
#
# 1 0.016178 0.000339 -0.007183 0.000000 0.000000 0.000000
# 2 0.000339 0.021868 -0.002369 0.000000 0.000000 0.000000
# 3 -0.007183 -0.002369 0.012039 0.000000 0.000000 0.000000
# 4 0.000000 0.000000 0.000000 0.042956 0.000000 0.000000
# 5 0.000000 0.000000 0.000000 0.000000 0.056291 0.000000
# 6 0.000000 0.000000 0.000000 0.000000 0.000000 0.044150
#
#
# Mechanical properties :
#
#
# Convention : Reuss Voigt Hill
#
# Bulk Modulus (GPa) = 31.58559 42.42436 37.00498
# Shear Modulus (GPa) = 22.47610 24.74684 23.61147
#
# Velocity S-wave (km/s) = 3.49324 3.66546 3.58039
# Velocity P-wave (km/s) = 5.78090 6.39900 6.09779
#
# Compressibility (1/GPa) = 0.03166001
#
# Stress axis : x y z
#
# Youngs Moduli (GPa) = 61.81399 45.72995 83.06292
#
# Poissons Ratio (x) = -0.01552 0.59662
# Poissons Ratio (y) = -0.02097 0.19675
# Poissons Ratio (z) = 0.44399 0.10832
#
# Static dielectric constant tensor:
#      x y z
#    x 3.510170 0.000000 0.000000 
#    y 0.000000 3.394350 0.000000 
#    z 0.000000 0.000000 3.306340 
# 
# 
# High freq. dielectric constant tensor:
#      x y z
#    x 1.731070 0.000000 0.000000 
#    y 0.000000 1.710720 0.000000 
#    z 0.000000 0.000000 1.701910 
# 
# From -- ./inp_files/8992.got.cif
#   From: 2010.03.12/outbox.cif.g09.slc.cpg/sg59_5_cif.got.tgz:8992.got - 2010.04.16 16:29:54.
