data_PCOD8242403
_publ_section_title
;
Structure prediction by ZEFSAII (Michael W. Deem and Ramdas Pophale) SiO2 
 PCOD8242403
Probable space group: P M M N
;
_chemical_formula_sum "Si O2"
_cell_formula_units_Z 64
_cell_length_a 23.769753
_cell_length_b 9.397781
_cell_length_c 16.384662
_cell_angle_alpha 90.000000
_cell_angle_beta 90.000000
_cell_angle_gamma 90.000000
_cell_volume 3660.053856
_symmetry_space_group_name_H-M "P M M N"
_symmetry_group_IT_number 59
_space_group.IT_coordinate_system_code '2'
_symmetry_cell_setting 'orthorhombic'
loop_
_space_group_symop_operation_xyz
x,y,z
1/2-x,1/2-y,z
1/2+x,-y,-z
-x,1/2+y,-z
-x,-y,-z
1/2+x,1/2+y,-z
1/2-x,y,z
x,1/2-y,z
loop_
_atom_site_type_symbol
_atom_site_label
_atom_site_fract_x
_atom_site_fract_y
_atom_site_fract_z
Si Si1 0.902602 0.583176 0.968206
Si Si2 0.185370 0.585339 0.752975
Si Si3 0.413032 0.913377 0.872507
Si Si4 0.816720 0.910367 0.403269
Si Si5 0.969594 0.587822 0.807094
Si Si6 0.315273 0.583433 0.440506
Si Si7 0.382555 0.914583 0.281744
Si Si8 0.314765 0.913594 0.120902
O O1 0.894805 0.750000 0.981005
O O2 0.946366 0.545606 0.896554
O O3 0.842708 0.513050 0.947077
O O4 0.924746 0.515382 0.051574
O O5 0.250000 0.549287 0.776266
O O6 0.179383 0.750000 0.727474
O O7 0.146393 0.549451 0.830413
O O8 0.163112 0.491037 0.677920
O O9 0.414060 0.750000 0.902912
O O10 0.463399 0.938342 0.807471
O O11 0.750000 0.908435 0.404661
O O12 0.841147 0.750000 0.403842
O O13 0.838316 0.995451 0.482319
O O14 0.954216 0.750000 0.787735
O O15 0.940997 0.495896 0.735447
O O16 0.250000 0.549392 0.421267
O O17 0.322804 0.750000 0.458978
O O18 0.353147 0.532978 0.364603
O O19 0.397823 0.750000 0.287382
O O20 0.338869 0.947454 0.209915
O O21 0.250000 0.952907 0.123141
O O22 0.325292 0.750000 0.096467
#
# Coordination Sequence:
#
# PCOD8242403 Si02
#       8
#     8   8   8   8   8   8   8   8
#     4  10  20  32  47  69  95 123 157 198 241 280
#     4   9  18  33  52  72  93 118 150 190 236 282
#     4  10  20  34  52  71  91 120 159 198 236 284
#     4   9  17  29  46  70  99 127 153 184 227 278
#     4   9  19  34  49  67  94 126 158 195 239 281
#     4   9  16  27  46  72 100 128 158 191 227 271
#     4   9  17  29  47  71  96 124 160 198 231 268
#     4   9  17  30  47  66  93 129 162 191 229 278
#
# _framework density 17.486080999999999
#
# number of rings (size 3 to 8) (size 9 to 14) (size 15 to 20)
#    0.000    2.750    0.000    1.500    0.000    5.750 
#    0.000    1.250    0.000    3.000    0.000    0.000 
#    0.000    0.000    0.000    0.000    0.000    0.000 
#
# Total GULP energy -793614.524401 kJ/mol
# GULP energy per Si atom -12400.226944 kJ/mol
# Density = 1.744628 g / cm^3
# Si number density = 17.486081 Si / 1000 Ang^3
#
#
#
# Elastic Constant Matrix: (Units=GPa)
#
#
# Indices 1 2 3 4 5 6 
#
# 1 74.9820 28.2421 22.8855 0.0000 0.0000 0.0000
# 2 28.2421 70.6338 38.8729 0.0000 0.0000 0.0000
# 3 22.8855 38.8729 67.0883 0.0000 0.0000 0.0000
# 4 0.0000 0.0000 0.0000 26.6716 0.0000 0.0000
# 5 0.0000 0.0000 0.0000 0.0000 17.9402 0.0000
# 6 0.0000 0.0000 0.0000 0.0000 0.0000 22.9029
#
#
#
# Elastic Compliance Matrix: (Units=1/GPa)
#
#
# Indices 1 2 3 4 5 6 
#
# 1 0.015997 -0.004982 -0.002571 0.000000 0.000000 0.000000
# 2 -0.004982 0.022337 -0.011243 0.000000 0.000000 0.000000
# 3 -0.002571 -0.011243 0.022297 0.000000 0.000000 0.000000
# 4 0.000000 0.000000 0.000000 0.037493 0.000000 0.000000
# 5 0.000000 0.000000 0.000000 0.000000 0.055741 0.000000
# 6 0.000000 0.000000 0.000000 0.000000 0.000000 0.043663
#
#
# Mechanical properties :
#
#
# Convention : Reuss Voigt Hill
#
# Bulk Modulus (GPa) = 43.40166 43.63391 43.51778
# Shear Modulus (GPa) = 20.59308 21.68318 21.13813
#
# Velocity S-wave (km/s) = 3.43546 3.52522 3.48063
# Velocity P-wave (km/s) = 6.37269 6.44804 6.41047
#
# Compressibility (1/GPa) = 0.02304060
#
# Stress axis : x y z
#
# Youngs Moduli (GPa) = 62.50985 44.76848 44.84835
#
# Poissons Ratio (x) = 0.22302 0.11529
# Poissons Ratio (y) = 0.31141 0.50425
# Poissons Ratio (z) = 0.16069 0.50335
#
# Static dielectric constant tensor:
#      x y z
#    x 3.165760 0.000000 0.000000 
#    y 0.000000 3.306950 0.000000 
#    z 0.000000 0.000000 3.165660 
# 
# 
# High freq. dielectric constant tensor:
#      x y z
#    x 1.658060 0.000000 0.000000 
#    y 0.000000 1.675470 0.000000 
#    z 0.000000 0.000000 1.664200 
# 
# From -- ./inp_files/28477.got.cif
#   From: 2010.03.12/outbox.cif.g09.slc.cpg/sg59_15_cif.got.tgz:28477.got - 2010.04.16 16:29:54.
