data_PCOD8242886
_publ_section_title
;
Structure prediction by ZEFSAII (Michael W. Deem and Ramdas Pophale) SiO2 
 PCOD8242886
Probable space group: P M M N
;
_chemical_formula_sum "Si O2"
_cell_formula_units_Z 64
_cell_length_a 9.171693
_cell_length_b 14.409314
_cell_length_c 26.164856
_cell_angle_alpha 90.000000
_cell_angle_beta 90.000000
_cell_angle_gamma 90.000000
_cell_volume 3457.889920
_symmetry_space_group_name_H-M "P M M N"
_symmetry_group_IT_number 59
_space_group.IT_coordinate_system_code '2'
_symmetry_cell_setting 'orthorhombic'
loop_
_space_group_symop_operation_xyz
x,y,z
1/2-x,1/2-y,z
1/2+x,-y,-z
-x,1/2+y,-z
-x,-y,-z
1/2+x,1/2+y,-z
1/2-x,y,z
x,1/2-y,z
loop_
_atom_site_type_symbol
_atom_site_label
_atom_site_fract_x
_atom_site_fract_y
_atom_site_fract_z
Si Si1 0.081724 0.855680 0.134916
Si Si2 0.417302 0.356006 0.227797
Si Si3 0.920621 0.008763 0.575719
Si Si4 0.082193 0.358762 0.764482
Si Si5 0.921562 0.509300 0.946438
Si Si6 0.416753 0.640496 0.872738
Si Si7 0.421367 0.355929 0.504719
Si Si8 0.080700 0.990204 0.307845
O O1 0.250000 0.864427 0.150336
O O2 0.038689 0.750000 0.121530
O O3 0.991508 0.893876 0.183108
O O4 0.044503 0.916407 0.085524
O O5 0.250000 0.368929 0.210431
O O6 0.451376 0.250000 0.242204
O O7 0.518032 0.391219 0.181594
O O8 0.454285 0.415179 0.277816
O O9 0.750000 0.027980 0.570653
O O10 0.965075 0.915162 0.545442
O O11 0.969044 0.994202 0.634048
O O12 0.001878 0.099030 0.553877
O O13 0.250000 0.386696 0.766973
O O14 0.057764 0.250000 0.757859
O O15 0.009661 0.405880 0.715601
O O16 0.750000 0.524443 0.954408
O O17 0.988489 0.597525 0.917963
O O18 0.000000 0.500000 0.000000
O O19 0.250000 0.606470 0.876189
O O20 0.429206 0.750000 0.879038
O O21 0.250000 0.359083 0.514524
O O22 0.475163 0.250000 0.497274
O O23 0.250000 0.963991 0.304346
#
# Coordination Sequence:
#
# PCOD8242886 Si02
#       8
#     8   8   8   8   8   8   8   8
#     4   9  19  37  58  77 101 135 172 210 254 306
#     4   9  18  33  53  77 104 134 169 208 252 305
#     4   9  19  34  51  75 104 133 170 212 254 303
#     4  10  21  35  52  76 104 135 171 209 251 300
#     4  11  23  37  55  80 107 136 172 214 262 313
#     4  10  21  37  56  77 104 139 176 214 257 306
#     4   9  18  34  55  75  98 132 172 214 259 304
#     4  10  20  33  51  76 106 138 169 206 253 303
#
# _framework density 18.508396999999999
#
# number of rings (size 3 to 8) (size 9 to 14) (size 15 to 20)
#    0.000    2.375    0.000    1.875    0.000    8.250 
#    0.000    6.250    0.000    0.000    0.000    3.500 
#    0.000    0.000    0.000    0.000    0.000    0.000 
#
# Total GULP energy -793824.250943 kJ/mol
# GULP energy per Si atom -12403.503921 kJ/mol
# Density = 1.846627 g / cm^3
# Si number density = 18.508397 Si / 1000 Ang^3
#
#
#
# Elastic Constant Matrix: (Units=GPa)
#
#
# Indices 1 2 3 4 5 6 
#
# 1 85.8752 50.3925 71.7473 0.0000 0.0000 0.0000
# 2 50.3925 93.5229 66.5288 0.0000 0.0000 0.0000
# 3 71.7473 66.5288 166.3615 0.0000 0.0000 0.0000
# 4 0.0000 0.0000 0.0000 20.5322 0.0000 0.0000
# 5 0.0000 0.0000 0.0000 0.0000 32.0194 0.0000
# 6 0.0000 0.0000 0.0000 0.0000 0.0000 28.4594
#
#
#
# Elastic Compliance Matrix: (Units=1/GPa)
#
#
# Indices 1 2 3 4 5 6 
#
# 1 0.020879 -0.006771 -0.006297 0.000000 0.000000 0.000000
# 2 -0.006771 0.017139 -0.003934 0.000000 0.000000 0.000000
# 3 -0.006297 -0.003934 0.010300 0.000000 0.000000 0.000000
# 4 0.000000 0.000000 0.000000 0.048704 0.000000 0.000000
# 5 0.000000 0.000000 0.000000 0.000000 0.031231 0.000000
# 6 0.000000 0.000000 0.000000 0.000000 0.000000 0.035138
#
#
# Mechanical properties :
#
#
# Convention : Reuss Voigt Hill
#
# Bulk Modulus (GPa) = 69.85751 80.34409 75.10080
# Shear Modulus (GPa) = 24.73218 26.67495 25.70357
#
# Velocity S-wave (km/s) = 3.65947 3.80048 3.73064
# Velocity P-wave (km/s) = 7.46198 7.92224 7.69556
#
# Compressibility (1/GPa) = 0.01431485
#
# Stress axis : x y z
#
# Youngs Moduli (GPa) = 47.89535 58.34523 97.08790
#
# Poissons Ratio (x) = 0.39504 0.61135
# Poissons Ratio (y) = 0.32428 0.38195
# Poissons Ratio (z) = 0.30159 0.22954
#
# Static dielectric constant tensor:
#      x y z
#    x 3.469090 0.000000 0.000000 
#    y 0.000000 3.602950 0.000000 
#    z 0.000000 0.000000 3.439780 
# 
# 
# High freq. dielectric constant tensor:
#      x y z
#    x 1.718320 0.000000 0.000000 
#    y 0.000000 1.724790 0.000000 
#    z 0.000000 0.000000 1.714650 
# 
# From -- ./inp_files/31414.got.cif
#   From: 2010.03.12/outbox.cif.g09.slc.cpg/sg59_16_cif.got.tgz:31414.got - 2010.04.16 16:29:54.
