data_PCOD8242943
_publ_section_title
;
Structure prediction by ZEFSAII (Michael W. Deem and Ramdas Pophale) SiO2 
 PCOD8242943
Probable space group: P M M N
;
_chemical_formula_sum "Si O2"
_cell_formula_units_Z 56
_cell_length_a 19.974987
_cell_length_b 8.838849
_cell_length_c 15.460604
_cell_angle_alpha 90.000000
_cell_angle_beta 90.000000
_cell_angle_gamma 90.000000
_cell_volume 2729.660759
_symmetry_space_group_name_H-M "P M M N"
_symmetry_group_IT_number 59
_space_group.IT_coordinate_system_code '2'
_symmetry_cell_setting 'orthorhombic'
loop_
_space_group_symop_operation_xyz
x,y,z
1/2-x,1/2-y,z
1/2+x,-y,-z
-x,1/2+y,-z
-x,-y,-z
1/2+x,1/2+y,-z
1/2-x,y,z
x,1/2-y,z
loop_
_atom_site_type_symbol
_atom_site_label
_atom_site_fract_x
_atom_site_fract_y
_atom_site_fract_z
Si Si1 0.327533 0.928854 0.964984
Si Si2 0.540578 0.570994 0.080543
Si Si3 0.646524 0.420413 0.689577
Si Si4 0.446889 0.926408 0.565057
Si Si5 0.674973 0.577886 0.516838
Si Si6 0.174302 0.415185 0.136476
Si Si7 0.005817 0.419141 0.728551
O O1 0.250000 0.976213 0.943335
O O2 0.334598 0.750000 0.958659
O O3 0.383303 0.008274 0.904752
O O4 0.353857 0.982350 0.059087
O O5 0.542946 0.750000 0.065991
O O6 0.504014 0.526703 0.171249
O O7 0.500000 0.500000 0.000000
O O8 0.674058 0.250000 0.678621
O O9 0.675866 0.527026 0.616071
O O10 0.671752 0.487458 0.778301
O O11 0.567085 0.421383 0.687158
O O12 0.457898 0.750000 0.557097
O O13 0.500000 0.000000 0.500000
O O14 0.371975 0.968597 0.537964
O O15 0.451834 0.973856 0.665511
O O16 0.750000 0.565738 0.479385
O O17 0.648590 0.750000 0.511731
O O18 0.250000 0.381249 0.112736
O O19 0.137462 0.250000 0.143657
O O20 0.036188 0.250000 0.724929
#
# Coordination Sequence:
#
# PCOD8242943 Si02
#       7
#     8   8   8   8   8   8   8
#     4  10  21  38  59  83 116 160 210 263 319 377
#     4  11  23  40  64  94 130 166 209 263 317 379
#     4  11  21  34  56  85 120 159 200 251 309 375
#     4  12  24  41  67  94 123 162 208 258 309 370
#     4  11  24  41  62  90 126 165 206 256 314 375
#     4  10  20  33  51  78 114 156 202 251 308 375
#     4  10  23  41  61  89 122 162 209 255 309 374
#
# _framework density 20.515370000000001
#
# number of rings (size 3 to 8) (size 9 to 14) (size 15 to 20)
#    0.000    1.286    1.429    4.714    0.000    7.429 
#    0.000    0.714    0.000    0.857    0.000    0.000 
#    0.000    0.000    0.000    0.000    0.000    0.000 
#
# Total GULP energy -694204.154540 kJ/mol
# GULP energy per Si atom -12396.502760 kJ/mol
# Density = 2.046868 g / cm^3
# Si number density = 20.515370 Si / 1000 Ang^3
#
#
#
# Elastic Constant Matrix: (Units=GPa)
#
#
# Indices 1 2 3 4 5 6 
#
# 1 85.7572 36.9819 23.5365 0.0000 0.0000 0.0000
# 2 36.9819 121.0581 39.3870 0.0000 0.0000 0.0000
# 3 23.5365 39.3870 88.9906 0.0000 0.0000 0.0000
# 4 0.0000 0.0000 0.0000 33.0631 0.0000 0.0000
# 5 0.0000 0.0000 0.0000 0.0000 26.8810 0.0000
# 6 0.0000 0.0000 0.0000 0.0000 0.0000 33.1706
#
#
#
# Elastic Compliance Matrix: (Units=1/GPa)
#
#
# Indices 1 2 3 4 5 6 
#
# 1 0.013751 -0.003525 -0.002077 0.000000 0.000000 0.000000
# 2 -0.003525 0.010554 -0.003739 0.000000 0.000000 0.000000
# 3 -0.002077 -0.003739 0.013441 0.000000 0.000000 0.000000
# 4 0.000000 0.000000 0.000000 0.030245 0.000000 0.000000
# 5 0.000000 0.000000 0.000000 0.000000 0.037201 0.000000
# 6 0.000000 0.000000 0.000000 0.000000 0.000000 0.030147
#
#
# Mechanical properties :
#
#
# Convention : Reuss Voigt Hill
#
# Bulk Modulus (GPa) = 52.45266 55.06853 53.76060
# Shear Modulus (GPa) = 31.17686 31.68297 31.42992
#
# Velocity S-wave (km/s) = 3.90254 3.93409 3.91835
# Velocity P-wave (km/s) = 6.77713 6.89470 6.83617
#
# Compressibility (1/GPa) = 0.01906481
#
# Stress axis : x y z
#
# Youngs Moduli (GPa) = 72.72220 94.75255 74.39831
#
# Poissons Ratio (x) = 0.33401 0.15450
# Poissons Ratio (y) = 0.25635 0.27816
# Poissons Ratio (z) = 0.15102 0.35426
#
# Static dielectric constant tensor:
#      x y z
#    x 3.568650 0.000000 0.000000 
#    y 0.000000 2.885330 0.000000 
#    z 0.000000 0.000000 3.674700 
# 
# 
# High freq. dielectric constant tensor:
#      x y z
#    x 1.801950 0.000000 0.000000 
#    y 0.000000 1.815310 0.000000 
#    z 0.000000 0.000000 1.787990 
# 
# From -- ./inp_files/20969.got.cif
#   From: 2010.03.12/outbox.cif.g09.slc.cpg/sg59_11_cif.got.tgz:20969.got - 2010.04.16 16:29:54.
