data_PCOD8242140
_publ_section_title
;
Structure prediction by ZEFSAII (Michael W. Deem and Ramdas Pophale) SiO2 
 PCOD8242140
Probable space group: P M M N
;
_chemical_formula_sum "Si O2"
_cell_formula_units_Z 64
_cell_length_a 28.224292
_cell_length_b 8.887977
_cell_length_c 12.881392
_cell_angle_alpha 90.000000
_cell_angle_beta 90.000000
_cell_angle_gamma 90.000000
_cell_volume 3231.385526
_symmetry_space_group_name_H-M "P M M N"
_symmetry_group_IT_number 59
_space_group.IT_coordinate_system_code '2'
_symmetry_cell_setting 'orthorhombic'
loop_
_space_group_symop_operation_xyz
x,y,z
1/2-x,1/2-y,z
1/2+x,-y,-z
-x,1/2+y,-z
-x,-y,-z
1/2+x,1/2+y,-z
1/2-x,y,z
x,1/2-y,z
loop_
_atom_site_type_symbol
_atom_site_label
_atom_site_fract_x
_atom_site_fract_y
_atom_site_fract_z
Si Si1 0.471156 0.924983 0.091369
Si Si2 0.864819 0.072471 0.920245
Si Si3 0.805414 0.425806 0.722574
Si Si4 0.951640 0.577818 0.250701
Si Si5 0.451249 0.927400 0.534623
Si Si6 0.197090 0.429028 0.668074
Si Si7 0.358672 0.428410 0.466129
Si Si8 0.858209 0.575862 0.132726
O O1 0.470000 0.750000 0.065409
O O2 0.417976 0.990231 0.100274
O O3 0.496926 0.954746 0.201534
O O4 0.500000 0.000000 0.000000
O O5 0.865266 0.250000 0.927818
O O6 0.830559 0.019093 0.828097
O O7 0.844608 0.009602 0.027931
O O8 0.750000 0.461090 0.732331
O O9 0.814958 0.250000 0.701712
O O10 0.826865 0.522583 0.630021
O O11 0.947358 0.750000 0.291077
O O12 0.941616 0.467360 0.345659
O O13 0.913120 0.548188 0.160947
O O14 0.453680 0.750000 0.519179
O O15 0.500000 0.000000 0.500000
O O16 0.409892 0.992903 0.461449
O O17 0.250000 0.494472 0.659279
O O18 0.197333 0.250000 0.668257
O O19 0.167105 0.486506 0.570281
O O20 0.173830 0.489503 0.774054
O O21 0.365326 0.250000 0.465042
O O22 0.847351 0.750000 0.114483
#
# Coordination Sequence:
#
# PCOD8242140 Si02
#       8
#     8   8   8   8   8   8   8   8
#     4  10  20  34  55  82 114 153 199 245 298 360
#     4  10  22  38  57  84 118 161 208 257 311 367
#     4  10  23  43  63  86 122 168 215 266 322 372
#     4  10  20  37  58  84 119 158 197 247 307 366
#     4  12  26  42  62  91 126 163 200 243 302 370
#     4   9  18  34  58  87 118 151 190 244 309 366
#     4  11  22  41  66  93 122 157 205 256 311 373
#     4  10  19  35  58  85 119 157 197 246 306 369
#
# _framework density 19.805745999999999
#
# number of rings (size 3 to 8) (size 9 to 14) (size 15 to 20)
#    0.000    1.750    2.500    1.875    1.750    2.750 
#    0.000    0.000    0.000    1.500    0.000    0.000 
#    0.000    0.000    0.000    0.000    0.000    0.000 
#
# Total GULP energy -793801.169792 kJ/mol
# GULP energy per Si atom -12403.143278 kJ/mol
# Density = 1.976067 g / cm^3
# Si number density = 19.805746 Si / 1000 Ang^3
#
#
#
# Elastic Constant Matrix: (Units=GPa)
#
#
# Indices 1 2 3 4 5 6 
#
# 1 149.4575 45.1320 66.5438 0.0000 0.0000 0.0000
# 2 45.1320 65.9124 42.6071 0.0000 0.0000 0.0000
# 3 66.5438 42.6071 134.2828 0.0000 0.0000 0.0000
# 4 0.0000 0.0000 0.0000 36.8350 0.0000 0.0000
# 5 0.0000 0.0000 0.0000 0.0000 32.6399 0.0000
# 6 0.0000 0.0000 0.0000 0.0000 0.0000 24.1949
#
#
#
# Elastic Compliance Matrix: (Units=1/GPa)
#
#
# Indices 1 2 3 4 5 6 
#
# 1 0.009481 -0.004346 -0.003319 0.000000 0.000000 0.000000
# 2 -0.004346 0.021079 -0.004534 0.000000 0.000000 0.000000
# 3 -0.003319 -0.004534 0.010531 0.000000 0.000000 0.000000
# 4 0.000000 0.000000 0.000000 0.027148 0.000000 0.000000
# 5 0.000000 0.000000 0.000000 0.000000 0.030637 0.000000
# 6 0.000000 0.000000 0.000000 0.000000 0.000000 0.041331
#
#
# Mechanical properties :
#
#
# Convention : Reuss Voigt Hill
#
# Bulk Modulus (GPa) = 59.91418 73.13539 66.52479
# Shear Modulus (GPa) = 29.38225 31.75860 30.57042
#
# Velocity S-wave (km/s) = 3.85583 4.00872 3.93302
# Velocity P-wave (km/s) = 7.08095 7.64415 7.36793
#
# Compressibility (1/GPa) = 0.01669054
#
# Stress axis : x y z
#
# Youngs Moduli (GPa) = 105.47147 47.44098 94.96143
#
# Poissons Ratio (x) = 0.20620 0.31521
# Poissons Ratio (y) = 0.45842 0.43059
# Poissons Ratio (z) = 0.35010 0.21511
#
# Static dielectric constant tensor:
#      x y z
#    x 3.903330 0.000000 0.000000 
#    y 0.000000 3.391150 0.000000 
#    z 0.000000 0.000000 3.694910 
# 
# 
# High freq. dielectric constant tensor:
#      x y z
#    x 1.784020 0.000000 0.000000 
#    y 0.000000 1.749400 0.000000 
#    z 0.000000 0.000000 1.777790 
# 
# From -- ./inp_files/19257.got.cif
#   From: 2010.03.12/outbox.cif.g09.slc.cpg/sg59_10_cif.got.tgz:19257.got - 2010.04.16 16:29:54.
