data_PCOD8242947
_publ_section_title
;
Structure prediction by ZEFSAII (Michael W. Deem and Ramdas Pophale) SiO2 
 PCOD8242947
Probable space group: P M M N
;
_chemical_formula_sum "Si O2"
_cell_formula_units_Z 56
_cell_length_a 22.869890
_cell_length_b 9.059590
_cell_length_c 13.920686
_cell_angle_alpha 90.000000
_cell_angle_beta 90.000000
_cell_angle_gamma 90.000000
_cell_volume 2884.252362
_symmetry_space_group_name_H-M "P M M N"
_symmetry_group_IT_number 59
_space_group.IT_coordinate_system_code '2'
_symmetry_cell_setting 'orthorhombic'
loop_
_space_group_symop_operation_xyz
x,y,z
1/2-x,1/2-y,z
1/2+x,-y,-z
-x,1/2+y,-z
-x,-y,-z
1/2+x,1/2+y,-z
1/2-x,y,z
x,1/2-y,z
loop_
_atom_site_type_symbol
_atom_site_label
_atom_site_fract_x
_atom_site_fract_y
_atom_site_fract_z
Si Si1 0.318128 0.074703 0.624205
Si Si2 0.122838 0.922332 0.446985
Si Si3 0.094341 0.574732 0.751602
Si Si4 0.445344 0.583763 0.958451
Si Si5 0.108260 0.585242 0.155650
Si Si6 0.317571 0.087803 0.284800
Si Si7 0.515916 0.080153 0.685030
O O1 0.250000 0.027190 0.611174
O O2 0.322937 0.250000 0.628819
O O3 0.360113 0.016122 0.539757
O O4 0.344748 0.002503 0.720756
O O5 0.129442 0.750000 0.470983
O O6 0.057883 0.958842 0.405854
O O7 0.168553 0.967106 0.365085
O O8 0.101637 0.750000 0.744033
O O9 0.081079 0.518638 0.859992
O O10 0.041380 0.522883 0.681777
O O11 0.465832 0.750000 0.938033
O O12 0.500000 0.500000 0.000000
O O13 0.396730 0.575990 0.041196
O O14 0.127778 0.750000 0.186929
O O15 0.156541 0.465746 0.183662
O O16 0.048544 0.548281 0.213709
O O17 0.250000 0.100629 0.269646
O O18 0.343011 0.250000 0.312348
O O19 0.495876 0.250000 0.679299
#
# Coordination Sequence:
#
# PCOD8242947 Si02
#       7
#     8   8   8   8   8   8   8
#     4  11  25  44  63  82 109 151 199 242 285 336
#     4  10  21  37  60  87 115 149 188 233 286 343
#     4  11  23  37  59  89 117 150 192 237 288 340
#     4  10  20  35  57  86 115 147 188 231 281 342
#     4   9  18  33  53  79 113 149 187 230 278 334
#     4  10  20  33  51  79 114 149 188 234 282 336
#     4   9  18  34  56  85 120 151 180 225 285 342
#
# _framework density 19.415778
#
# number of rings (size 3 to 8) (size 9 to 14) (size 15 to 20)
#    0.000    2.000    1.429    3.000    0.000    8.571 
#    0.000    0.714    0.000    4.286    0.000    0.000 
#    0.000    0.000    0.000    0.000    0.000    0.000 
#
# Total GULP energy -694210.519727 kJ/mol
# GULP energy per Si atom -12396.616424 kJ/mol
# Density = 1.937159 g / cm^3
# Si number density = 19.415778 Si / 1000 Ang^3
#
#
#
# Elastic Constant Matrix: (Units=GPa)
#
#
# Indices 1 2 3 4 5 6 
#
# 1 70.4863 41.5431 44.4880 0.0000 0.0000 0.0000
# 2 41.5431 80.0718 34.1506 0.0000 0.0000 0.0000
# 3 44.4880 34.1506 105.1067 0.0000 0.0000 0.0000
# 4 0.0000 0.0000 0.0000 26.2408 0.0000 0.0000
# 5 0.0000 0.0000 0.0000 0.0000 18.6943 0.0000
# 6 0.0000 0.0000 0.0000 0.0000 0.0000 32.9073
#
#
#
# Elastic Compliance Matrix: (Units=1/GPa)
#
#
# Indices 1 2 3 4 5 6 
#
# 1 0.024380 -0.009574 -0.007208 0.000000 0.000000 0.000000
# 2 -0.009574 0.018258 -0.001880 0.000000 0.000000 0.000000
# 3 -0.007208 -0.001880 0.013176 0.000000 0.000000 0.000000
# 4 0.000000 0.000000 0.000000 0.038109 0.000000 0.000000
# 5 0.000000 0.000000 0.000000 0.000000 0.053492 0.000000
# 6 0.000000 0.000000 0.000000 0.000000 0.000000 0.030388
#
#
# Mechanical properties :
#
#
# Convention : Reuss Voigt Hill
#
# Bulk Modulus (GPa) = 54.08699 55.11426 54.60062
# Shear Modulus (GPa) = 22.59479 24.60071 23.59775
#
# Velocity S-wave (km/s) = 3.41505 3.56342 3.49003
# Velocity P-wave (km/s) = 6.59301 6.73636 6.66507
#
# Compressibility (1/GPa) = 0.01848874
#
# Stress axis : x y z
#
# Youngs Moduli (GPa) = 41.01790 54.77079 75.89633
#
# Poissons Ratio (x) = 0.52440 0.54708
# Poissons Ratio (y) = 0.39272 0.14266
# Poissons Ratio (z) = 0.29566 0.10295
#
# Static dielectric constant tensor:
#      x y z
#    x 3.430100 0.000000 0.000000 
#    y 0.000000 3.737550 0.000000 
#    z 0.000000 0.000000 3.813760 
# 
# 
# High freq. dielectric constant tensor:
#      x y z
#    x 1.738370 0.000000 0.000000 
#    y 0.000000 1.763210 0.000000 
#    z 0.000000 0.000000 1.754100 
# 
# From -- ./inp_files/24195.got.cif
#   From: 2010.03.12/outbox.cif.g09.slc.cpg/sg59_13_cif.got.tgz:24195.got - 2010.04.16 16:29:54.
