data_PCOD8242112
_publ_section_title
;
Structure prediction by ZEFSAII (Michael W. Deem and Ramdas Pophale) SiO2 
 PCOD8242112
Probable space group: P M M N
;
_chemical_formula_sum "Si O2"
_cell_formula_units_Z 56
_cell_length_a 23.434003
_cell_length_b 9.030562
_cell_length_c 13.708381
_cell_angle_alpha 90.000000
_cell_angle_beta 90.000000
_cell_angle_gamma 90.000000
_cell_volume 2900.997979
_symmetry_space_group_name_H-M "P M M N"
_symmetry_group_IT_number 59
_space_group.IT_coordinate_system_code '2'
_symmetry_cell_setting 'orthorhombic'
loop_
_space_group_symop_operation_xyz
x,y,z
1/2-x,1/2-y,z
1/2+x,-y,-z
-x,1/2+y,-z
-x,-y,-z
1/2+x,1/2+y,-z
1/2-x,y,z
x,1/2-y,z
loop_
_atom_site_type_symbol
_atom_site_label
_atom_site_fract_x
_atom_site_fract_y
_atom_site_fract_z
Si Si1 0.629472 0.426495 0.569042
Si Si2 0.250000 0.924157 0.347908
Si Si3 0.596312 0.926322 0.367888
Si Si4 0.026645 0.925522 0.294152
Si Si5 0.313222 0.425389 0.791312
Si Si6 0.351675 0.081181 0.004059
Si Si7 0.540996 0.076144 0.924509
Si Si8 0.250000 0.411626 0.152235
O O1 0.628089 0.250000 0.559810
O O2 0.692137 0.484825 0.601519
O O3 0.615563 0.498336 0.466588
O O4 0.581501 0.483147 0.645500
O O5 0.250000 0.750000 0.354938
O O6 0.250000 0.964935 0.234690
O O7 0.598754 0.750000 0.378828
O O8 0.532365 0.981083 0.342489
O O9 0.639702 0.984241 0.284627
O O10 0.027545 0.750000 0.291485
O O11 0.029944 0.987458 0.184118
O O12 0.250000 0.488405 0.765288
O O13 0.311227 0.250000 0.787918
O O14 0.329885 0.476361 0.899695
O O15 0.375714 0.250000 0.995567
O O16 0.303413 0.071544 0.083489
O O17 0.396224 0.962803 0.041968
O O18 0.530640 0.250000 0.926724
O O19 0.500000 0.000000 0.000000
O O20 0.250000 0.250000 0.203092
#
# Coordination Sequence:
#
# PCOD8242112 Si02
#       8
#     8   4   8   8   8   8   8   4
#     4  10  21  38  57  77 107 147 186 227 282 341
#     4  10  22  38  55  76 108 152 189 220 279 354
#     4  10  20  34  57  83 105 136 185 235 278 327
#     4   9  19  37  57  79 108 146 186 225 275 344
#     4   9  17  32  54  79 110 150 187 221 276 346
#     4  10  19  35  57  83 114 149 188 230 277 333
#     4  11  22  37  58  84 114 150 190 232 281 339
#     4  10  20  34  57  86 112 142 187 238 277 318
#
# _framework density 19.303702000000001
#
# number of rings (size 3 to 8) (size 9 to 14) (size 15 to 20)
#    0.000    2.143    0.714    2.571    1.000    4.571 
#    0.000    5.000    0.000    0.857    0.000    0.000 
#    0.000    0.000    0.000    0.000    0.000    0.000 
#
# Total GULP energy -694315.898269 kJ/mol
# GULP energy per Si atom -12398.498183 kJ/mol
# Density = 1.925977 g / cm^3
# Si number density = 19.303702 Si / 1000 Ang^3
#
#
#
# Elastic Constant Matrix: (Units=GPa)
#
#
# Indices 1 2 3 4 5 6 
#
# 1 173.2016 27.5933 93.6654 0.0000 0.0000 0.0000
# 2 27.5933 23.9546 27.0544 0.0000 0.0000 0.0000
# 3 93.6654 27.0544 158.2224 0.0000 0.0000 0.0000
# 4 0.0000 0.0000 0.0000 32.9643 0.0000 0.0000
# 5 0.0000 0.0000 0.0000 0.0000 21.7190 0.0000
# 6 0.0000 0.0000 0.0000 0.0000 0.0000 31.7196
#
#
#
# Elastic Compliance Matrix: (Units=1/GPa)
#
#
# Indices 1 2 3 4 5 6 
#
# 1 0.009024 -0.005405 -0.004418 0.000000 0.000000 0.000000
# 2 -0.005405 0.054974 -0.006200 0.000000 0.000000 0.000000
# 3 -0.004418 -0.006200 0.009996 0.000000 0.000000 0.000000
# 4 0.000000 0.000000 0.000000 0.030336 0.000000 0.000000
# 5 0.000000 0.000000 0.000000 0.000000 0.046043 0.000000
# 6 0.000000 0.000000 0.000000 0.000000 0.000000 0.031526
#
#
# Mechanical properties :
#
#
# Convention : Reuss Voigt Hill
#
# Bulk Modulus (GPa) = 23.83930 72.44499 48.14214
# Shear Modulus (GPa) = 21.93680 31.08494 26.51087
#
# Velocity S-wave (km/s) = 3.37472 4.01722 3.70990
# Velocity P-wave (km/s) = 5.24989 7.68947 6.58367
#
# Compressibility (1/GPa) = 0.04194754
#
# Stress axis : x y z
#
# Youngs Moduli (GPa) = 110.81841 18.19028 100.04355
#
# Poissons Ratio (x) = 0.09832 0.44197
# Poissons Ratio (y) = 0.59898 0.62031
# Poissons Ratio (z) = 0.48957 0.11279
#
# Static dielectric constant tensor:
#      x y z
#    x 3.896750 0.000000 0.000000 
#    y 0.000000 3.566900 0.000000 
#    z 0.000000 0.000000 4.143950 
# 
# 
# High freq. dielectric constant tensor:
#      x y z
#    x 1.772610 0.000000 0.000000 
#    y 0.000000 1.711330 0.000000 
#    z 0.000000 0.000000 1.764790 
# 
# From -- ./inp_files/24422.got.cif
#   From: 2010.03.12/outbox.cif.g09.slc.cpg/sg59_13_cif.got.tgz:24422.got - 2010.04.16 16:29:54.
