data_PCOD8242221
_publ_section_title
;
Structure prediction by ZEFSAII (Michael W. Deem and Ramdas Pophale) SiO2 
 PCOD8242221
Probable space group: P M M N
;
_chemical_formula_sum "Si O2"
_cell_formula_units_Z 56
_cell_length_a 14.842720
_cell_length_b 8.985574
_cell_length_c 21.891078
_cell_angle_alpha 90.000000
_cell_angle_beta 90.000000
_cell_angle_gamma 90.000000
_cell_volume 2919.620930
_symmetry_space_group_name_H-M "P M M N"
_symmetry_group_IT_number 59
_space_group.IT_coordinate_system_code '2'
_symmetry_cell_setting 'orthorhombic'
loop_
_space_group_symop_operation_xyz
x,y,z
1/2-x,1/2-y,z
1/2+x,-y,-z
-x,1/2+y,-z
-x,-y,-z
1/2+x,1/2+y,-z
1/2-x,y,z
x,1/2-y,z
loop_
_atom_site_type_symbol
_atom_site_label
_atom_site_fract_x
_atom_site_fract_y
_atom_site_fract_z
Si Si1 0.570866 0.423812 0.335540
Si Si2 0.750000 0.926711 0.380879
Si Si3 0.904141 0.425018 0.994450
Si Si4 0.349429 0.081413 0.889342
Si Si5 0.647697 0.420540 0.858193
Si Si6 0.986874 0.424081 0.200168
Si Si7 0.750000 0.573861 0.519875
Si Si8 0.054816 0.074726 0.446070
O O1 0.593933 0.250000 0.340672
O O2 0.661486 0.514413 0.347278
O O3 0.534103 0.467997 0.269415
O O4 0.491797 0.469466 0.382455
O O5 0.750000 0.750000 0.377628
O O6 0.750000 0.985925 0.450411
O O7 0.911797 0.250000 0.005100
O O8 0.842167 0.494823 0.046786
O O9 0.861792 0.463995 0.929124
O O10 0.000000 0.500000 0.000000
O O11 0.250000 0.078836 0.859602
O O12 0.382399 0.250000 0.901217
O O13 0.417862 0.005684 0.843682
O O14 0.750000 0.446562 0.837673
O O15 0.618080 0.250000 0.848539
O O16 0.587680 0.525125 0.815442
O O17 0.977490 0.250000 0.188865
O O18 0.750000 0.750000 0.519238
O O19 0.841037 0.516909 0.553736
O O20 0.052434 0.250000 0.457562
O O21 0.000000 0.000000 0.500000
#
# Coordination Sequence:
#
# PCOD8242221 Si02
#       8
#     8   4   8   8   8   8   4   8
#     4  10  23  40  58  86 121 158 196 241 296 349
#     4  11  21  35  61  93 119 153 196 235 286 355
#     4  11  21  36  61  90 119 152 192 240 300 357
#     4  11  24  40  59  86 118 154 196 242 296 354
#     4  10  22  41  64  87 115 154 197 244 300 357
#     4  11  24  41  60  85 117 157 201 245 293 350
#     4   9  18  33  57  89 117 149 190 235 288 347
#     4  10  19  36  59  84 117 151 189 238 290 342
#
# _framework density 19.180572000000002
#
# number of rings (size 3 to 8) (size 9 to 14) (size 15 to 20)
#    0.000    1.571    2.857    1.929    1.000    3.714 
#    1.286    0.357    0.000    0.000    0.000    0.000 
#    0.000    0.000    0.000    0.000    0.000    0.000 
#
# Total GULP energy -694515.999320 kJ/mol
# GULP energy per Si atom -12402.071416 kJ/mol
# Density = 1.913692 g / cm^3
# Si number density = 19.180572 Si / 1000 Ang^3
#
#
#
# Elastic Constant Matrix: (Units=GPa)
#
#
# Indices 1 2 3 4 5 6 
#
# 1 152.8078 52.0508 67.7568 0.0000 0.0000 0.0000
# 2 52.0508 78.6912 55.6513 0.0000 0.0000 0.0000
# 3 67.7568 55.6513 129.6270 0.0000 0.0000 0.0000
# 4 0.0000 0.0000 0.0000 26.8046 0.0000 0.0000
# 5 0.0000 0.0000 0.0000 0.0000 3.9898 0.0000
# 6 0.0000 0.0000 0.0000 0.0000 0.0000 25.9742
#
#
#
# Elastic Compliance Matrix: (Units=1/GPa)
#
#
# Indices 1 2 3 4 5 6 
#
# 1 0.009279 -0.003888 -0.003181 0.000000 0.000000 0.000000
# 2 -0.003888 0.019878 -0.006502 0.000000 0.000000 0.000000
# 3 -0.003181 -0.006502 0.012168 0.000000 0.000000 0.000000
# 4 0.000000 0.000000 0.000000 0.037307 0.000000 0.000000
# 5 0.000000 0.000000 0.000000 0.000000 0.250642 0.000000
# 6 0.000000 0.000000 0.000000 0.000000 0.000000 0.038500
#
#
# Mechanical properties :
#
#
# Convention : Reuss Voigt Hill
#
# Bulk Modulus (GPa) = 70.50240 79.11596 74.80918
# Shear Modulus (GPa) = 12.51118 23.73153 18.12136
#
# Velocity S-wave (km/s) = 2.55676 3.52130 3.07706
# Velocity P-wave (km/s) = 6.74930 7.60725 7.19108
#
# Compressibility (1/GPa) = 0.01418391
#
# Stress axis : x y z
#
# Youngs Moduli (GPa) = 107.76974 50.30783 82.18009
#
# Poissons Ratio (x) = 0.19560 0.26141
# Poissons Ratio (y) = 0.41901 0.53430
# Poissons Ratio (z) = 0.34282 0.32708
#
# Static dielectric constant tensor:
#      x y z
#    x 3.805900 0.000000 0.000000 
#    y 0.000000 3.601320 0.000000 
#    z 0.000000 0.000000 3.948100 
# 
# 
# High freq. dielectric constant tensor:
#      x y z
#    x 1.762470 0.000000 0.000000 
#    y 0.000000 1.743240 0.000000 
#    z 0.000000 0.000000 1.739900 
# 
# From -- ./inp_files/30468.got.cif
#   From: 2010.03.12/outbox.cif.g09.slc.cpg/sg59_16_cif.got.tgz:30468.got - 2010.04.16 16:29:54.
