data_PCOD8242737
_publ_section_title
;
Structure prediction by ZEFSAII (Michael W. Deem and Ramdas Pophale) SiO2 
 PCOD8242737
Probable space group: P M M N
;
_chemical_formula_sum "Si O2"
_cell_formula_units_Z 64
_cell_length_a 15.809103
_cell_length_b 9.081885
_cell_length_c 23.232785
_cell_angle_alpha 90.000000
_cell_angle_beta 90.000000
_cell_angle_gamma 90.000000
_cell_volume 3335.680919
_symmetry_space_group_name_H-M "P M M N"
_symmetry_group_IT_number 59
_space_group.IT_coordinate_system_code '2'
_symmetry_cell_setting 'orthorhombic'
loop_
_space_group_symop_operation_xyz
x,y,z
1/2-x,1/2-y,z
1/2+x,-y,-z
-x,1/2+y,-z
-x,-y,-z
1/2+x,1/2+y,-z
1/2-x,y,z
x,1/2-y,z
loop_
_atom_site_type_symbol
_atom_site_label
_atom_site_fract_x
_atom_site_fract_y
_atom_site_fract_z
Si Si1 0.340560 0.084315 0.133592
Si Si2 0.569989 0.915979 0.078389
Si Si3 0.511538 0.075613 0.187781
Si Si4 0.346447 0.920624 0.378001
Si Si5 0.157827 0.077190 0.611237
Si Si6 0.116378 0.914684 0.026821
Si Si7 0.990608 0.923881 0.306996
Si Si8 0.911372 0.576981 0.510396
O O1 0.250000 0.077044 0.166485
O O2 0.362993 0.250000 0.113880
O O3 0.414146 0.028868 0.175645
O O4 0.328800 0.989182 0.076347
O O5 0.602134 0.750000 0.089968
O O6 0.479196 0.915047 0.048793
O O7 0.570335 0.004998 0.138414
O O8 0.630647 0.998119 0.032981
O O9 0.525985 0.250000 0.188988
O O10 0.533403 0.006933 0.248816
O O11 0.250000 0.949370 0.356024
O O12 0.359729 0.750000 0.394345
O O13 0.414914 0.965429 0.329100
O O14 0.362898 0.016411 0.434300
O O15 0.250000 0.012905 0.630560
O O16 0.157831 0.250000 0.620914
O O17 0.146683 0.040031 0.544257
O O18 0.079052 0.014471 0.647836
O O19 0.149182 0.750000 0.016470
O O20 0.983492 0.750000 0.296621
O O21 0.926767 0.750000 0.517871
O O22 0.000000 0.500000 0.500000
#
# Coordination Sequence:
#
# PCOD8242737 Si02
#       8
#     8   8   8   8   8   8   8   8
#     4   9  18  32  48  68  99 138 175 212 257 312
#     4   9  16  28  47  70  95 126 162 202 253 313
#     4  10  20  33  50  73 100 134 177 225 267 309
#     4  10  21  37  55  79 113 150 185 225 276 332
#     4   9  18  34  57  81 104 135 177 223 271 326
#     4   9  16  26  44  71  99 124 156 203 253 302
#     4  10  20  36  54  75 105 142 182 226 275 329
#     4  11  20  34  57  84 114 145 180 223 276 334
#
# _framework density 19.186485999999999
#
# number of rings (size 3 to 8) (size 9 to 14) (size 15 to 20)
#    0.000    2.375    1.250    1.875    0.000    5.500 
#    0.000    0.000    0.000    2.625    0.000    1.750 
#    0.000    0.000    0.000    0.000    0.000    0.000 
#
# Total GULP energy -793284.531536 kJ/mol
# GULP energy per Si atom -12395.070805 kJ/mol
# Density = 1.914282 g / cm^3
# Si number density = 19.186486 Si / 1000 Ang^3
#
#
#
# Elastic Constant Matrix: (Units=GPa)
#
#
# Indices 1 2 3 4 5 6 
#
# 1 78.2449 14.7879 16.2498 0.0000 0.0000 0.0000
# 2 14.7879 82.7267 43.2908 0.0000 0.0000 0.0000
# 3 16.2498 43.2908 108.5329 0.0000 0.0000 0.0000
# 4 0.0000 0.0000 0.0000 34.7697 0.0000 0.0000
# 5 0.0000 0.0000 0.0000 0.0000 13.4386 0.0000
# 6 0.0000 0.0000 0.0000 0.0000 0.0000 14.0480
#
#
#
# Elastic Compliance Matrix: (Units=1/GPa)
#
#
# Indices 1 2 3 4 5 6 
#
# 1 0.013377 -0.001697 -0.001326 0.000000 0.000000 0.000000
# 2 -0.001697 0.015492 -0.005925 0.000000 0.000000 0.000000
# 3 -0.001326 -0.005925 0.011776 0.000000 0.000000 0.000000
# 4 0.000000 0.000000 0.000000 0.028761 0.000000 0.000000
# 5 0.000000 0.000000 0.000000 0.000000 0.074413 0.000000
# 6 0.000000 0.000000 0.000000 0.000000 0.000000 0.071185
#
#
# Mechanical properties :
#
#
# Convention : Reuss Voigt Hill
#
# Bulk Modulus (GPa) = 43.96065 46.46239 45.21152
# Shear Modulus (GPa) = 20.79161 25.46298 23.12730
#
# Velocity S-wave (km/s) = 3.29547 3.64693 3.47565
# Velocity P-wave (km/s) = 6.11900 6.48092 6.30256
#
# Compressibility (1/GPa) = 0.02274762
#
# Stress axis : x y z
#
# Youngs Moduli (GPa) = 74.75797 64.54912 84.92064
#
# Poissons Ratio (x) = 0.10956 0.11258
# Poissons Ratio (y) = 0.12689 0.50317
# Poissons Ratio (z) = 0.09911 0.38247
#
# Static dielectric constant tensor:
#      x y z
#    x 3.563380 0.000000 0.000000 
#    y 0.000000 3.492440 0.000000 
#    z 0.000000 0.000000 3.436090 
# 
# 
# High freq. dielectric constant tensor:
#      x y z
#    x 1.734330 0.000000 0.000000 
#    y 0.000000 1.738920 0.000000 
#    z 0.000000 0.000000 1.734880 
# 
# From -- ./inp_files/30779.got.cif
#   From: 2010.03.12/outbox.cif.g09.slc.cpg/sg59_16_cif.got.tgz:30779.got - 2010.04.16 16:29:54.
