data_PCOD8242969
_publ_section_title
;
Structure prediction by ZEFSAII (Michael W. Deem and Ramdas Pophale) SiO2 
 PCOD8242969
Probable space group: P M M N
;
_chemical_formula_sum "Si O2"
_cell_formula_units_Z 64
_cell_length_a 27.313733
_cell_length_b 9.420186
_cell_length_c 13.052399
_cell_angle_alpha 90.000000
_cell_angle_beta 90.000000
_cell_angle_gamma 90.000000
_cell_volume 3358.388074
_symmetry_space_group_name_H-M "P M M N"
_symmetry_group_IT_number 59
_space_group.IT_coordinate_system_code '2'
_symmetry_cell_setting 'orthorhombic'
loop_
_space_group_symop_operation_xyz
x,y,z
1/2-x,1/2-y,z
1/2+x,-y,-z
-x,1/2+y,-z
-x,-y,-z
1/2+x,1/2+y,-z
1/2-x,y,z
x,1/2-y,z
loop_
_atom_site_type_symbol
_atom_site_label
_atom_site_fract_x
_atom_site_fract_y
_atom_site_fract_z
Si Si1 0.546199 0.096064 0.237671
Si Si2 0.017034 0.915789 0.097263
Si Si3 0.842344 0.416306 0.261674
Si Si4 0.871386 0.417526 0.852894
Si Si5 0.306379 0.412203 0.544761
Si Si6 0.525267 0.902549 0.580471
Si Si7 0.805120 0.081714 0.041757
Si Si8 0.369858 0.081916 0.349829
O O1 0.548036 0.250000 0.176776
O O2 0.600449 0.048963 0.267303
O O3 0.515624 0.125712 0.337183
O O4 0.520833 0.964744 0.182805
O O5 0.011552 0.750000 0.078099
O O6 0.072258 0.957100 0.126357
O O7 0.000000 0.000000 0.000000
O O8 0.830926 0.250000 0.273538
O O9 0.816432 0.495183 0.355020
O O10 0.822495 0.475364 0.152706
O O11 0.864345 0.250000 0.835319
O O12 0.852358 0.499355 0.752015
O O13 0.840190 0.473161 0.950465
O O14 0.250000 0.427382 0.514053
O O15 0.320326 0.250000 0.570378
O O16 0.336834 0.465310 0.446108
O O17 0.539257 0.750000 0.530195
O O18 0.574736 0.969389 0.626801
O O19 0.500000 0.000000 0.500000
O O20 0.750000 0.027888 0.020490
O O21 0.807735 0.250000 0.044172
O O22 0.366499 0.250000 0.328292
#
# Coordination Sequence:
#
# PCOD8242969 Si02
#       8
#     8   8   8   8   8   8   8   8
#     4  10  20  35  54  80 112 145 182 226 280 337
#     4  11  22  35  54  80 112 149 187 231 279 337
#     4  10  20  36  60  87 115 146 188 242 291 346
#     4  10  21  37  57  83 113 147 190 238 280 332
#     4  10  22  39  58  82 115 153 192 239 292 344
#     4  10  20  33  52  77 108 144 181 224 272 329
#     4   9  18  34  56  81 110 144 182 232 293 341
#     4  10  21  38  57  79 113 154 190 230 283 340
#
# _framework density 19.056761000000002
#
# number of rings (size 3 to 8) (size 9 to 14) (size 15 to 20)
#    0.000    2.000    1.250    2.250    0.000    5.750 
#    0.000    0.625    0.000    0.750    0.000    0.000 
#    0.000    0.000    0.000    0.000    0.000    0.000 
#
# Total GULP energy -793395.542389 kJ/mol
# GULP energy per Si atom -12396.805350 kJ/mol
# Density = 1.901339 g / cm^3
# Si number density = 19.056761 Si / 1000 Ang^3
#
#
#
# Elastic Constant Matrix: (Units=GPa)
#
#
# Indices 1 2 3 4 5 6 
#
# 1 103.0168 26.6439 45.0957 0.0000 0.0000 0.0000
# 2 26.6439 59.2953 51.9796 0.0000 0.0000 0.0000
# 3 45.0957 51.9796 142.1409 0.0000 0.0000 0.0000
# 4 0.0000 0.0000 0.0000 35.5992 0.0000 0.0000
# 5 0.0000 0.0000 0.0000 0.0000 35.3743 0.0000
# 6 0.0000 0.0000 0.0000 0.0000 0.0000 32.4457
#
#
#
# Elastic Compliance Matrix: (Units=1/GPa)
#
#
# Indices 1 2 3 4 5 6 
#
# 1 0.011608 -0.002925 -0.002613 0.000000 0.000000 0.000000
# 2 -0.002925 0.025559 -0.008419 0.000000 0.000000 0.000000
# 3 -0.002613 -0.008419 0.010943 0.000000 0.000000 0.000000
# 4 0.000000 0.000000 0.000000 0.028090 0.000000 0.000000
# 5 0.000000 0.000000 0.000000 0.000000 0.028269 0.000000
# 6 0.000000 0.000000 0.000000 0.000000 0.000000 0.030821
#
#
# Mechanical properties :
#
#
# Convention : Reuss Voigt Hill
#
# Bulk Modulus (GPa) = 49.51487 61.32128 55.41807
# Shear Modulus (GPa) = 29.42290 32.73275 31.07783
#
# Velocity S-wave (km/s) = 3.93359 4.14894 4.04270
# Velocity P-wave (km/s) = 6.83155 7.42965 7.13687
#
# Compressibility (1/GPa) = 0.02019596
#
# Stress axis : x y z
#
# Youngs Moduli (GPa) = 86.15109 39.12480 91.38363
#
# Poissons Ratio (x) = 0.11445 0.23877
# Poissons Ratio (y) = 0.25201 0.76933
# Poissons Ratio (z) = 0.22510 0.32938
#
# Static dielectric constant tensor:
#      x y z
#    x 3.468750 0.000000 0.000000 
#    y 0.000000 2.881320 0.000000 
#    z 0.000000 0.000000 3.456100 
# 
# 
# High freq. dielectric constant tensor:
#      x y z
#    x 1.751970 0.000000 0.000000 
#    y 0.000000 1.722990 0.000000 
#    z 0.000000 0.000000 1.744100 
# 
# From -- ./inp_files/19293.got.cif
#   From: 2010.03.12/outbox.cif.g09.slc.cpg/sg59_10_cif.got.tgz:19293.got - 2010.04.16 16:29:54.
