data_PCOD8242956
_publ_section_title
;
Structure prediction by ZEFSAII (Michael W. Deem and Ramdas Pophale) SiO2 
 PCOD8242956
Probable space group: P M M N
;
_chemical_formula_sum "Si O2"
_cell_formula_units_Z 48
_cell_length_a 14.067082
_cell_length_b 19.367632
_cell_length_c 9.553120
_cell_angle_alpha 90.000000
_cell_angle_beta 90.000000
_cell_angle_gamma 90.000000
_cell_volume 2602.709976
_symmetry_space_group_name_H-M "P M M N"
_symmetry_group_IT_number 59
_space_group.IT_coordinate_system_code '2'
_symmetry_cell_setting 'orthorhombic'
loop_
_space_group_symop_operation_xyz
x,y,z
1/2-x,1/2-y,z
1/2+x,-y,-z
-x,1/2+y,-z
-x,-y,-z
1/2+x,1/2+y,-z
1/2-x,y,z
x,1/2-y,z
loop_
_atom_site_type_symbol
_atom_site_label
_atom_site_fract_x
_atom_site_fract_y
_atom_site_fract_z
Si Si1 0.642904 0.173772 0.459995
Si Si2 0.637181 0.523091 0.872018
Si Si3 0.533585 0.671913 0.369553
Si Si4 0.858664 0.927714 0.562722
Si Si5 0.359100 0.965291 0.671338
Si Si6 0.036209 0.064607 0.866461
O O1 0.750000 0.159934 0.512663
O O2 0.632615 0.250000 0.389967
O O3 0.578726 0.169735 0.598833
O O4 0.615086 0.115525 0.346561
O O5 0.750000 0.508248 0.891356
O O6 0.615520 0.558300 0.723189
O O7 0.576478 0.451446 0.887624
O O8 0.595370 0.575145 0.990059
O O9 0.571034 0.750000 0.352404
O O10 0.583795 0.637240 0.503187
O O11 0.554611 0.632290 0.225631
O O12 0.750000 0.907000 0.545104
O O13 0.882682 0.997005 0.475721
O O14 0.250000 0.976334 0.714353
O O15 0.422869 0.995719 0.793614
#
# Coordination Sequence:
#
# PCOD8242956 Si02
#       6
#     8   8   8   8   8   8
#     4   9  17  28  45  73 104 130 159 201 254 305
#     4  10  20  34  52  75 102 129 164 211 256 300
#     4  10  20  34  52  75 103 133 167 207 248 295
#     4   9  18  32  51  74  98 127 165 206 248 293
#     4   9  16  29  51  76 100 127 163 206 246 291
#     4  10  20  33  52  76 101 134 172 208 251 298
#
# _framework density 18.442315000000001
#
# number of rings (size 3 to 8) (size 9 to 14) (size 15 to 20)
#    0.000    2.500    0.000    2.500    0.000    5.667 
#    0.000    0.833    0.000    5.000    0.000    0.000 
#    0.000    5.333    0.000    0.000    0.000    0.000 
#
# Total GULP energy -594981.831489 kJ/mol
# GULP energy per Si atom -12395.454823 kJ/mol
# Density = 1.840034 g / cm^3
# Si number density = 18.442315 Si / 1000 Ang^3
#
#
#
# Elastic Constant Matrix: (Units=GPa)
#
#
# Indices 1 2 3 4 5 6 
#
# 1 81.3711 32.9894 35.9594 0.0000 0.0000 0.0000
# 2 32.9894 116.1995 39.2630 0.0000 0.0000 0.0000
# 3 35.9594 39.2630 105.6739 0.0000 0.0000 0.0000
# 4 0.0000 0.0000 0.0000 17.6278 0.0000 0.0000
# 5 0.0000 0.0000 0.0000 0.0000 24.2478 0.0000
# 6 0.0000 0.0000 0.0000 0.0000 0.0000 21.3429
#
#
#
# Elastic Compliance Matrix: (Units=1/GPa)
#
#
# Indices 1 2 3 4 5 6 
#
# 1 0.015304 -0.002956 -0.004109 0.000000 0.000000 0.000000
# 2 -0.002956 0.010413 -0.002863 0.000000 0.000000 0.000000
# 3 -0.004109 -0.002863 0.011925 0.000000 0.000000 0.000000
# 4 0.000000 0.000000 0.000000 0.056729 0.000000 0.000000
# 5 0.000000 0.000000 0.000000 0.000000 0.041241 0.000000
# 6 0.000000 0.000000 0.000000 0.000000 0.000000 0.046854
#
#
# Mechanical properties :
#
#
# Convention : Reuss Voigt Hill
#
# Bulk Modulus (GPa) = 56.22803 57.74090 56.98447
# Shear Modulus (GPa) = 24.00962 25.64588 24.82775
#
# Velocity S-wave (km/s) = 3.61207 3.73312 3.67309
# Velocity P-wave (km/s) = 6.92465 7.06813 6.99676
#
# Compressibility (1/GPa) = 0.01778472
#
# Stress axis : x y z
#
# Youngs Moduli (GPa) = 65.34288 96.03841 83.85696
#
# Poissons Ratio (x) = 0.28392 0.34459
# Poissons Ratio (y) = 0.19317 0.24006
# Poissons Ratio (z) = 0.26851 0.27494
#
# Static dielectric constant tensor:
#      x y z
#    x 3.656600 0.000000 0.000000 
#    y 0.000000 3.292860 0.000000 
#    z 0.000000 0.000000 3.316670 
# 
# 
# High freq. dielectric constant tensor:
#      x y z
#    x 1.735350 0.000000 0.000000 
#    y 0.000000 1.692420 0.000000 
#    z 0.000000 0.000000 1.698520 
# 
# From -- ./inp_files/9054.got.cif
#   From: 2010.03.12/outbox.cif.g09.slc.cpg/sg59_5_cif.got.tgz:9054.got - 2010.04.16 16:29:54.
