data_PCOD8242471
_publ_section_title
;
Structure prediction by ZEFSAII (Michael W. Deem and Ramdas Pophale) SiO2 
 PCOD8242471
Probable space group: P M M N
;
_chemical_formula_sum "Si O2"
_cell_formula_units_Z 64
_cell_length_a 18.132917
_cell_length_b 9.531124
_cell_length_c 20.601493
_cell_angle_alpha 90.000000
_cell_angle_beta 90.000000
_cell_angle_gamma 90.000000
_cell_volume 3560.495887
_symmetry_space_group_name_H-M "P M M N"
_symmetry_group_IT_number 59
_space_group.IT_coordinate_system_code '2'
_symmetry_cell_setting 'orthorhombic'
loop_
_space_group_symop_operation_xyz
x,y,z
1/2-x,1/2-y,z
1/2+x,-y,-z
-x,1/2+y,-z
-x,-y,-z
1/2+x,1/2+y,-z
1/2-x,y,z
x,1/2-y,z
loop_
_atom_site_type_symbol
_atom_site_label
_atom_site_fract_x
_atom_site_fract_y
_atom_site_fract_z
Si Si1 0.664181 0.587088 0.431856
Si Si2 0.837640 0.590987 0.799573
Si Si3 0.337582 0.907262 0.939010
Si Si4 0.334610 0.911193 0.444749
Si Si5 0.836135 0.913390 0.180194
Si Si6 0.411121 0.914076 0.311171
Si Si7 0.837748 0.407736 0.917477
Si Si8 0.580409 0.584253 0.306217
O O1 0.750000 0.561496 0.417601
O O2 0.646670 0.750000 0.443592
O O3 0.637767 0.504984 0.495576
O O4 0.619273 0.524634 0.370838
O O5 0.750000 0.590183 0.800371
O O6 0.867923 0.750000 0.797700
O O7 0.863198 0.506320 0.737054
O O8 0.869629 0.515246 0.864136
O O9 0.250000 0.912545 0.938564
O O10 0.365121 0.750000 0.923882
O O11 0.368401 0.010578 0.883778
O O12 0.365530 0.953974 0.010698
O O13 0.250000 0.945278 0.426729
O O14 0.343982 0.750000 0.465176
O O15 0.384978 0.948680 0.383590
O O16 0.750000 0.944141 0.190921
O O17 0.851741 0.750000 0.170324
O O18 0.879194 0.975355 0.242299
O O19 0.399509 0.750000 0.294838
O O20 0.495614 0.960826 0.304880
O O21 0.750000 0.409314 0.915842
O O22 0.865739 0.250000 0.901677
O O23 0.590205 0.750000 0.307110
#
# Coordination Sequence:
#
# PCOD8242471 Si02
#       8
#     8   8   8   8   8   8   8   8
#     4   9  17  31  52  74  96 124 156 192 236 283
#     4  10  20  32  48  72  99 123 152 196 242 281
#     4   8  14  25  42  67  97 124 153 192 235 280
#     4   9  18  32  49  70  94 119 152 194 237 282
#     4   9  16  27  46  70  95 124 157 195 238 281
#     4  10  20  34  51  68  92 129 165 195 230 277
#     4   8  14  26  45  68  94 124 156 190 232 283
#     4   9  18  32  49  70  95 125 163 199 230 274
#
# _framework density 17.975024000000001
#
# number of rings (size 3 to 8) (size 9 to 14) (size 15 to 20)
#    0.000    3.000    0.000    1.875    0.000    4.250 
#    0.000    5.625    0.000    3.750    0.000    0.000 
#    0.000    0.000    0.000    0.000    0.000    0.000 
#
# Total GULP energy -793461.455357 kJ/mol
# GULP energy per Si atom -12397.835240 kJ/mol
# Density = 1.793411 g / cm^3
# Si number density = 17.975024 Si / 1000 Ang^3
#
#
#
# Elastic Constant Matrix: (Units=GPa)
#
#
# Indices 1 2 3 4 5 6 
#
# 1 28.3235 22.4086 26.2952 0.0000 0.0000 0.0000
# 2 22.4086 77.7394 70.9939 0.0000 0.0000 0.0000
# 3 26.2952 70.9939 143.4881 0.0000 0.0000 0.0000
# 4 0.0000 0.0000 0.0000 35.7653 0.0000 0.0000
# 5 0.0000 0.0000 0.0000 0.0000 3.1365 0.0000
# 6 0.0000 0.0000 0.0000 0.0000 0.0000 12.5748
#
#
#
# Elastic Compliance Matrix: (Units=1/GPa)
#
#
# Indices 1 2 3 4 5 6 
#
# 1 0.046659 -0.010291 -0.003459 0.000000 0.000000 0.000000
# 2 -0.010291 0.025736 -0.010848 0.000000 0.000000 0.000000
# 3 -0.003459 -0.010848 0.012970 0.000000 0.000000 0.000000
# 4 0.000000 0.000000 0.000000 0.027960 0.000000 0.000000
# 5 0.000000 0.000000 0.000000 0.000000 0.318829 0.000000
# 6 0.000000 0.000000 0.000000 0.000000 0.000000 0.079524
#
#
# Mechanical properties :
#
#
# Convention : Reuss Voigt Hill
#
# Bulk Modulus (GPa) = 27.64663 54.32740 40.98702
# Shear Modulus (GPa) = 8.72706 18.95219 13.83962
#
# Velocity S-wave (km/s) = 2.20582 3.25062 2.77778
# Velocity P-wave (km/s) = 4.67990 6.66169 5.75672
#
# Compressibility (1/GPa) = 0.03617077
#
# Stress axis : x y z
#
# Youngs Moduli (GPa) = 21.43191 38.85561 77.09926
#
# Poissons Ratio (x) = 0.39985 0.26669
# Poissons Ratio (y) = 0.22055 0.83635
# Poissons Ratio (z) = 0.07413 0.42150
#
# Static dielectric constant tensor:
#      x y z
#    x 3.022760 0.000000 0.000000 
#    y 0.000000 3.291410 0.000000 
#    z 0.000000 0.000000 3.618460 
# 
# 
# High freq. dielectric constant tensor:
#      x y z
#    x 1.661070 0.000000 0.000000 
#    y 0.000000 1.678940 0.000000 
#    z 0.000000 0.000000 1.711410 
# 
# From -- ./inp_files/30900.got.cif
#   From: 2010.03.12/outbox.cif.g09.slc.cpg/sg59_16_cif.got.tgz:30900.got - 2010.04.16 16:29:54.
