data_PCOD8242064
_publ_section_title
;
Structure prediction by ZEFSAII (Michael W. Deem and Ramdas Pophale) SiO2 
 PCOD8242064
Probable space group: P M M N
;
_chemical_formula_sum "Si O2"
_cell_formula_units_Z 48
_cell_length_a 14.675296
_cell_length_b 9.139488
_cell_length_c 19.772713
_cell_angle_alpha 90.000000
_cell_angle_beta 90.000000
_cell_angle_gamma 90.000000
_cell_volume 2652.009035
_symmetry_space_group_name_H-M "P M M N"
_symmetry_group_IT_number 59
_space_group.IT_coordinate_system_code '2'
_symmetry_cell_setting 'orthorhombic'
loop_
_space_group_symop_operation_xyz
x,y,z
1/2-x,1/2-y,z
1/2+x,-y,-z
-x,1/2+y,-z
-x,-y,-z
1/2+x,1/2+y,-z
1/2-x,y,z
x,1/2-y,z
loop_
_atom_site_type_symbol
_atom_site_label
_atom_site_fract_x
_atom_site_fract_y
_atom_site_fract_z
Si Si1 0.649767 0.575750 0.415313
Si Si2 0.750000 0.577158 0.020799
Si Si3 0.357044 0.414005 0.434290
Si Si4 0.946291 0.578322 0.059106
Si Si5 0.070806 0.921704 0.183743
Si Si6 0.019447 0.577313 0.333013
Si Si7 0.250000 0.424541 0.133347
O O1 0.750000 0.513265 0.396454
O O2 0.654358 0.750000 0.415702
O O3 0.620373 0.524436 0.490626
O O4 0.577153 0.516254 0.360849
O O5 0.750000 0.750000 0.019135
O O6 0.750000 0.518765 0.943877
O O7 0.841151 0.521968 0.059257
O O8 0.250000 0.413891 0.422623
O O9 0.396088 0.250000 0.425668
O O10 0.399091 0.517525 0.378039
O O11 0.950248 0.750000 0.044072
O O12 0.991858 0.538784 0.130360
O O13 0.000000 0.500000 0.000000
O O14 0.095141 0.750000 0.181837
O O15 0.031588 0.972187 0.255840
O O16 0.161127 0.013551 0.169920
O O17 0.021780 0.750000 0.339129
O O18 0.250000 0.250000 0.138715
#
# Coordination Sequence:
#
# PCOD8242064 Si02
#       7
#     8   4   8   8   8   8   4
#     4   8  15  31  53  74  99 130 169 214 254 299
#     4   9  18  33  55  79  99 126 169 216 250 291
#     4   9  18  32  51  75 100 131 171 211 251 299
#     4  10  19  35  55  76 104 134 170 213 254 299
#     4  10  22  36  51  77 111 138 164 208 262 309
#     4  10  20  33  50  75 104 135 167 205 257 307
#     4  11  21  35  57  79 101 136 175 208 250 307
#
# _framework density 18.099485999999999
#
# number of rings (size 3 to 8) (size 9 to 14) (size 15 to 20)
#    0.000    2.500    1.667    1.750    1.167    1.000 
#    1.500    0.417    0.000    1.500    0.000    0.000 
#    0.000    0.000    0.000    0.000    0.000    0.000 
#
# Total GULP energy -595091.822972 kJ/mol
# GULP energy per Si atom -12397.746312 kJ/mol
# Density = 1.805829 g / cm^3
# Si number density = 18.099486 Si / 1000 Ang^3
#
#
#
# Elastic Constant Matrix: (Units=GPa)
#
#
# Indices 1 2 3 4 5 6 
#
# 1 143.3133 36.3664 95.8353 0.0000 0.0000 0.0000
# 2 36.3664 23.1930 36.5874 0.0000 0.0000 0.0000
# 3 95.8353 36.5874 161.3375 0.0000 0.0000 0.0000
# 4 0.0000 0.0000 0.0000 22.6491 0.0000 0.0000
# 5 0.0000 0.0000 0.0000 0.0000 19.1668 0.0000
# 6 0.0000 0.0000 0.0000 0.0000 0.0000 20.3750
#
#
#
# Elastic Compliance Matrix: (Units=1/GPa)
#
#
# Indices 1 2 3 4 5 6 
#
# 1 0.013887 -0.013642 -0.005155 0.000000 0.000000 0.000000
# 2 -0.013642 0.080534 -0.010160 0.000000 0.000000 0.000000
# 3 -0.005155 -0.010160 0.011564 0.000000 0.000000 0.000000
# 4 0.000000 0.000000 0.000000 0.044152 0.000000 0.000000
# 5 0.000000 0.000000 0.000000 0.000000 0.052173 0.000000
# 6 0.000000 0.000000 0.000000 0.000000 0.000000 0.049080
#
#
# Mechanical properties :
#
#
# Convention : Reuss Voigt Hill
#
# Bulk Modulus (GPa) = 20.80235 73.93578 47.36906
# Shear Modulus (GPa) = 15.36910 23.04181 19.20546
#
# Velocity S-wave (km/s) = 2.91717 3.57187 3.26099
# Velocity P-wave (km/s) = 4.78172 7.61245 6.35666
#
# Compressibility (1/GPa) = 0.04807149
#
# Stress axis : x y z
#
# Youngs Moduli (GPa) = 72.01131 12.41710 86.47259
#
# Poissons Ratio (x) = 0.16939 0.44578
# Poissons Ratio (y) = 0.98237 0.87855
# Poissons Ratio (z) = 0.37123 0.12616
#
# Static dielectric constant tensor:
#      x y z
#    x 3.963860 0.000000 0.000000 
#    y 0.000000 3.088860 0.000000 
#    z 0.000000 0.000000 3.508970 
# 
# 
# High freq. dielectric constant tensor:
#      x y z
#    x 1.713480 0.000000 0.000000 
#    y 0.000000 1.670080 0.000000 
#    z 0.000000 0.000000 1.700840 
# 
# From -- ./inp_files/27412.got.cif
#   From: 2010.03.12/outbox.cif.g09.slc.cpg/sg59_14_cif.got.tgz:27412.got - 2010.04.16 16:29:54.
