data_PCOD8242291
_publ_section_title
;
Structure prediction by ZEFSAII (Michael W. Deem and Ramdas Pophale) SiO2 
 PCOD8242291
Probable space group: P M M N
;
_chemical_formula_sum "Si O2"
_cell_formula_units_Z 64
_cell_length_a 9.126516
_cell_length_b 22.414521
_cell_length_c 20.351524
_cell_angle_alpha 90.000000
_cell_angle_beta 90.000000
_cell_angle_gamma 90.000000
_cell_volume 4163.239720
_symmetry_space_group_name_H-M "P M M N"
_symmetry_group_IT_number 59
_space_group.IT_coordinate_system_code '2'
_symmetry_cell_setting 'orthorhombic'
loop_
_space_group_symop_operation_xyz
x,y,z
1/2-x,1/2-y,z
1/2+x,-y,-z
-x,1/2+y,-z
-x,-y,-z
1/2+x,1/2+y,-z
1/2-x,y,z
x,1/2-y,z
loop_
_atom_site_type_symbol
_atom_site_label
_atom_site_fract_x
_atom_site_fract_y
_atom_site_fract_z
Si Si1 0.583057 0.604446 0.690436
Si Si2 0.076274 0.890201 0.823479
Si Si3 0.082833 0.487549 0.410168
Si Si4 0.916859 0.092701 0.509350
Si Si5 0.578480 0.679916 0.936493
Si Si6 0.920779 0.816126 0.564662
Si Si7 0.086335 0.909887 0.022800
Si Si8 0.087571 0.000499 0.902781
O O1 0.750000 0.615371 0.713874
O O2 0.473824 0.619625 0.749133
O O3 0.562056 0.535866 0.664765
O O4 0.540600 0.648161 0.630747
O O5 0.250000 0.880807 0.830603
O O6 0.997445 0.841817 0.869462
O O7 0.031301 0.957945 0.843720
O O8 0.250000 0.470035 0.432333
O O9 0.061664 0.559386 0.419507
O O10 0.963491 0.455146 0.454764
O O11 0.750000 0.110924 0.497944
O O12 0.010991 0.152598 0.500195
O O13 0.750000 0.664532 0.933002
O O14 0.550495 0.750000 0.944826
O O15 0.509469 0.646623 0.999672
O O16 0.750000 0.813819 0.552443
O O17 0.986842 0.750000 0.571425
O O18 0.250000 0.888016 0.040650
O O19 0.091761 0.958785 0.966291
O O20 0.016024 0.941990 0.086864
O O21 0.250000 0.024980 0.887782
#
# Coordination Sequence:
#
# PCOD8242291 Si02
#       8
#     8   8   8   8   8   8   8   8
#     4   9  17  29  43  58  80 112 145 172 201 244
#     4  10  20  31  43  61  84 110 141 178 212 238
#     4   8  15  27  41  58  80 105 131 163 209 257
#     4   9  15  24  41  62  80  99 130 172 211 246
#     4  10  20  32  45  60  81 113 147 173 202 244
#     4   9  18  31  43  56  80 114 146 173 205 247
#     4   9  16  26  43  64  82 102 131 170 211 244
#     4   8  15  27  41  58  81 106 131 163 207 254
#
# _framework density 15.372643999999999
#
# number of rings (size 3 to 8) (size 9 to 14) (size 15 to 20)
#    0.000    3.000    0.000    3.000    0.000    7.750 
#    0.000    1.250    0.000    0.000    0.000    0.000 
#    0.000    1.000    0.000    6.500    0.000    5.375 
#
# Total GULP energy -792966.509895 kJ/mol
# GULP energy per Si atom -12390.101717 kJ/mol
# Density = 1.533766 g / cm^3
# Si number density = 15.372644 Si / 1000 Ang^3
#
#
#
# Elastic Constant Matrix: (Units=GPa)
#
#
# Indices 1 2 3 4 5 6 
#
# 1 76.3046 51.1514 23.2551 0.0000 0.0000 0.0000
# 2 51.1514 99.6831 44.2038 0.0000 0.0000 0.0000
# 3 23.2551 44.2038 22.3629 0.0000 0.0000 0.0000
# 4 0.0000 0.0000 0.0000 14.7229 0.0000 0.0000
# 5 0.0000 0.0000 0.0000 0.0000 18.5833 0.0000
# 6 0.0000 0.0000 0.0000 0.0000 0.0000 23.8880
#
#
#
# Elastic Compliance Matrix: (Units=1/GPa)
#
#
# Indices 1 2 3 4 5 6 
#
# 1 0.020025 -0.008435 -0.004151 0.000000 0.000000 0.000000
# 2 -0.008435 0.084805 -0.158860 0.000000 0.000000 0.000000
# 3 -0.004151 -0.158860 0.363045 0.000000 0.000000 0.000000
# 4 0.000000 0.000000 0.000000 0.067922 0.000000 0.000000
# 5 0.000000 0.000000 0.000000 0.000000 0.053812 0.000000
# 6 0.000000 0.000000 0.000000 0.000000 0.000000 0.041862
#
#
# Mechanical properties :
#
#
# Convention : Reuss Voigt Hill
#
# Bulk Modulus (GPa) = 8.00101 48.39679 28.19890
# Shear Modulus (GPa) = 4.92114 16.75485 10.83800
#
# Velocity S-wave (km/s) = 1.79114 3.30497 2.65810
# Velocity P-wave (km/s) = 3.08117 6.79076 5.27295
#
# Compressibility (1/GPa) = 0.12498421
#
# Stress axis : x y z
#
# Youngs Moduli (GPa) = 49.93813 11.79170 2.75448
#
# Poissons Ratio (x) = 0.09946 0.01143
# Poissons Ratio (y) = 0.42122 0.43758
# Poissons Ratio (z) = 0.20728 1.87323
#
# Static dielectric constant tensor:
#      x y z
#    x 3.073930 0.000000 0.000000 
#    y 0.000000 3.089810 0.000000 
#    z 0.000000 0.000000 2.759160 
# 
# 
# High freq. dielectric constant tensor:
#      x y z
#    x 1.601550 0.000000 0.000000 
#    y 0.000000 1.574350 0.000000 
#    z 0.000000 0.000000 1.544440 
# 
# From -- ./inp_files/31797.got.cif
#   From: 2010.03.12/outbox.cif.g09.slc.cpg/sg59_16_cif.got.tgz:31797.got - 2010.04.16 16:29:54.
