data_PCOD8242439
_publ_section_title
;
Structure prediction by ZEFSAII (Michael W. Deem and Ramdas Pophale) SiO2 
 PCOD8242439
Probable space group: P M M N
;
_chemical_formula_sum "Si O2"
_cell_formula_units_Z 64
_cell_length_a 8.843150
_cell_length_b 27.342154
_cell_length_c 12.552782
_cell_angle_alpha 90.000000
_cell_angle_beta 90.000000
_cell_angle_gamma 90.000000
_cell_volume 3035.146815
_symmetry_space_group_name_H-M "P M M N"
_symmetry_group_IT_number 59
_space_group.IT_coordinate_system_code '2'
_symmetry_cell_setting 'orthorhombic'
loop_
_space_group_symop_operation_xyz
x,y,z
1/2-x,1/2-y,z
1/2+x,-y,-z
-x,1/2+y,-z
-x,-y,-z
1/2+x,1/2+y,-z
1/2-x,y,z
x,1/2-y,z
loop_
_atom_site_type_symbol
_atom_site_label
_atom_site_fract_x
_atom_site_fract_y
_atom_site_fract_z
Si Si1 0.571195 0.094600 0.765951
Si Si2 0.418877 0.305468 0.478921
Si Si3 0.916423 0.443764 0.212918
Si Si4 0.428831 0.597949 0.000383
Si Si5 0.916454 0.333651 0.279467
Si Si6 0.571176 0.490894 0.616492
Si Si7 0.071827 0.803006 0.301972
Si Si8 0.926193 0.804275 0.925358
O O1 0.750000 0.096453 0.752421
O O2 0.509954 0.059571 0.670928
O O3 0.504344 0.149925 0.759353
O O4 0.527205 0.074944 0.883916
O O5 0.250000 0.323075 0.510142
O O6 0.416038 0.250000 0.438065
O O7 0.483906 0.338217 0.385062
O O8 0.531914 0.311696 0.576048
O O9 0.750000 0.469460 0.217967
O O10 0.982325 0.441029 0.090823
O O11 0.895128 0.387766 0.238997
O O12 0.029839 0.467713 0.297274
O O13 0.250000 0.605817 0.990389
O O14 0.500276 0.652283 0.994119
O O15 0.750000 0.310805 0.302228
O O16 0.002047 0.301624 0.191942
O O17 0.500000 0.500000 0.500000
O O18 0.750000 0.490416 0.600553
O O19 0.250000 0.801097 0.288946
O O20 0.003911 0.750000 0.263285
O O21 0.750000 0.815836 0.913994
O O22 0.952719 0.750000 0.977283
#
# Coordination Sequence:
#
# PCOD8242439 Si02
#       8
#     8   8   8   8   8   8   8   8
#     4   9  20  39  62  88 117 149 192 248 294 338
#     4  10  20  32  47  73 110 148 189 240 294 349
#     4   9  20  38  58  84 117 149 188 240 293 346
#     4   9  19  38  62  86 113 152 200 247 295 346
#     4  10  20  33  53  78 108 150 197 244 289 340
#     4  11  24  41  62  89 121 155 192 238 295 356
#     4   9  18  34  56  81 110 149 194 236 286 348
#     4  10  20  33  50  79 120 157 191 238 293 347
#
# _framework density 21.086295
#
# number of rings (size 3 to 8) (size 9 to 14) (size 15 to 20)
#    0.000    2.375    0.000    2.625    1.750    6.750 
#    0.000    3.750    0.000    1.500    0.000    0.000 
#    0.000    0.000    0.000    0.000    0.000    0.000 
#
# Total GULP energy -792900.083880 kJ/mol
# GULP energy per Si atom -12389.063811 kJ/mol
# Density = 2.103830 g / cm^3
# Si number density = 21.086295 Si / 1000 Ang^3
#
#
#
# Elastic Constant Matrix: (Units=GPa)
#
#
# Indices 1 2 3 4 5 6 
#
# 1 54.6899 26.2413 23.3460 0.0000 0.0000 0.0000
# 2 26.2413 78.3023 61.3440 0.0000 0.0000 0.0000
# 3 23.3460 61.3440 147.2915 0.0000 0.0000 0.0000
# 4 0.0000 0.0000 0.0000 19.7702 0.0000 0.0000
# 5 0.0000 0.0000 0.0000 0.0000 21.8025 0.0000
# 6 0.0000 0.0000 0.0000 0.0000 0.0000 23.7129
#
#
#
# Elastic Compliance Matrix: (Units=1/GPa)
#
#
# Indices 1 2 3 4 5 6 
#
# 1 0.021826 -0.006834 -0.000613 0.000000 0.000000 0.000000
# 2 -0.006834 0.021096 -0.007703 0.000000 0.000000 0.000000
# 3 -0.000613 -0.007703 0.010095 0.000000 0.000000 0.000000
# 4 0.000000 0.000000 0.000000 0.050581 0.000000 0.000000
# 5 0.000000 0.000000 0.000000 0.000000 0.045866 0.000000
# 6 0.000000 0.000000 0.000000 0.000000 0.000000 0.042171
#
#
# Mechanical properties :
#
#
# Convention : Reuss Voigt Hill
#
# Bulk Modulus (GPa) = 44.02167 55.79403 49.90785
# Shear Modulus (GPa) = 21.78583 24.34727 23.06655
#
# Velocity S-wave (km/s) = 3.21779 3.40170 3.31102
# Velocity P-wave (km/s) = 5.89303 6.47658 6.19168
#
# Compressibility (1/GPa) = 0.02271608
#
# Stress axis : x y z
#
# Youngs Moduli (GPa) = 45.81741 47.40268 99.06379
#
# Poissons Ratio (x) = 0.32395 0.06074
# Poissons Ratio (y) = 0.31312 0.76307
# Poissons Ratio (z) = 0.02809 0.36513
#
# Static dielectric constant tensor:
#      x y z
#    x 3.723520 0.000000 0.000000 
#    y 0.000000 3.946760 0.000000 
#    z 0.000000 0.000000 3.944810 
# 
# 
# High freq. dielectric constant tensor:
#      x y z
#    x 1.809060 0.000000 0.000000 
#    y 0.000000 1.819240 0.000000 
#    z 0.000000 0.000000 1.828140 
# 
# From -- ./inp_files/14988.got.cif
#   From: 2010.03.12/outbox.cif.g09.slc.cpg/sg59_8_cif.got.tgz:14988.got - 2010.04.16 16:29:54.
