data_PCOD8242894
_publ_section_title
;
Structure prediction by ZEFSAII (Michael W. Deem and Ramdas Pophale) SiO2 
 PCOD8242894
Probable space group: P M M N
;
_chemical_formula_sum "Si O2"
_cell_formula_units_Z 64
_cell_length_a 9.077887
_cell_length_b 27.342044
_cell_length_c 13.834403
_cell_angle_alpha 90.000000
_cell_angle_beta 90.000000
_cell_angle_gamma 90.000000
_cell_volume 3433.809303
_symmetry_space_group_name_H-M "P M M N"
_symmetry_group_IT_number 59
_space_group.IT_coordinate_system_code '2'
_symmetry_cell_setting 'orthorhombic'
loop_
_space_group_symop_operation_xyz
x,y,z
1/2-x,1/2-y,z
1/2+x,-y,-z
-x,1/2+y,-z
-x,-y,-z
1/2+x,1/2+y,-z
1/2-x,y,z
x,1/2-y,z
loop_
_atom_site_type_symbol
_atom_site_label
_atom_site_fract_x
_atom_site_fract_y
_atom_site_fract_z
Si Si1 0.077987 0.611057 0.198896
Si Si2 0.078311 0.306830 0.339994
Si Si3 0.925417 0.304424 0.939656
Si Si4 0.087243 0.807790 0.849072
Si Si5 0.919024 0.471523 0.278298
Si Si6 0.421923 0.608496 0.566044
Si Si7 0.077565 0.072363 0.622409
Si Si8 0.421130 0.508592 0.100619
O O1 0.250000 0.615597 0.224334
O O2 0.017480 0.658217 0.141256
O O3 0.047135 0.563860 0.133377
O O4 0.986666 0.609412 0.297784
O O5 0.250000 0.317805 0.348373
O O6 0.042013 0.250000 0.358415
O O7 0.024788 0.324156 0.234114
O O8 0.992207 0.337829 0.420771
O O9 0.750000 0.302853 0.940372
O O10 0.988479 0.250000 0.917715
O O11 0.975379 0.323890 0.045889
O O12 0.250000 0.830768 0.828418
O O13 0.103837 0.750000 0.851573
O O14 0.750000 0.475031 0.245533
O O15 0.951755 0.422245 0.336790
O O16 0.959211 0.517090 0.346930
O O17 0.016839 0.471487 0.181613
O O18 0.250000 0.613741 0.543540
O O19 0.498082 0.580836 0.478381
O O20 0.250000 0.082073 0.610465
O O21 0.250000 0.497823 0.087476
O O22 0.500000 0.500000 0.000000
#
# Coordination Sequence:
#
# PCOD8242894 Si02
#       8
#     8   8   8   8   8   8   8   8
#     4   9  18  33  52  74 101 135 173 211 254 304
#     4  10  21  36  52  74 107 141 171 208 256 309
#     4   8  14  27  50  77 101 129 170 215 251 289
#     4   8  14  27  48  72  98 131 170 209 251 298
#     4   9  20  37  56  79 105 134 172 217 261 309
#     4  11  22  36  57  81 102 130 173 220 262 310
#     4  10  20  36  56  77 104 135 167 210 266 316
#     4  10  20  33  51  76 109 144 174 209 255 311
#
# _framework density 18.638193000000001
#
# number of rings (size 3 to 8) (size 9 to 14) (size 15 to 20)
#    0.000    2.625    0.000    2.625    0.000    3.750 
#    0.000    3.750    0.000    3.375    0.000    0.000 
#    0.000    0.000    0.000    0.000    0.000    0.000 
#
# Total GULP energy -793589.631544 kJ/mol
# GULP energy per Si atom -12399.837993 kJ/mol
# Density = 1.859577 g / cm^3
# Si number density = 18.638193 Si / 1000 Ang^3
#
#
#
# Elastic Constant Matrix: (Units=GPa)
#
#
# Indices 1 2 3 4 5 6 
#
# 1 97.3875 37.5226 60.0729 0.0000 0.0000 0.0000
# 2 37.5226 64.1114 35.0180 0.0000 0.0000 0.0000
# 3 60.0729 35.0180 97.1658 0.0000 0.0000 0.0000
# 4 0.0000 0.0000 0.0000 25.6233 0.0000 0.0000
# 5 0.0000 0.0000 0.0000 0.0000 36.1630 0.0000
# 6 0.0000 0.0000 0.0000 0.0000 0.0000 22.1007
#
#
#
# Elastic Compliance Matrix: (Units=1/GPa)
#
#
# Indices 1 2 3 4 5 6 
#
# 1 0.018065 -0.005569 -0.009162 0.000000 0.000000 0.000000
# 2 -0.005569 0.021137 -0.004175 0.000000 0.000000 0.000000
# 3 -0.009162 -0.004175 0.017461 0.000000 0.000000 0.000000
# 4 0.000000 0.000000 0.000000 0.039027 0.000000 0.000000
# 5 0.000000 0.000000 0.000000 0.000000 0.027653 0.000000
# 6 0.000000 0.000000 0.000000 0.000000 0.000000 0.045247
#
#
# Mechanical properties :
#
#
# Convention : Reuss Voigt Hill
#
# Bulk Modulus (GPa) = 53.04432 58.21020 55.62726
# Shear Modulus (GPa) = 23.50883 25.18081 24.34482
#
# Velocity S-wave (km/s) = 3.55537 3.67963 3.61803
# Velocity P-wave (km/s) = 6.73617 7.02512 6.88216
#
# Compressibility (1/GPa) = 0.01885216
#
# Stress axis : x y z
#
# Youngs Moduli (GPa) = 55.35439 47.30934 57.27149
#
# Poissons Ratio (x) = 0.26346 0.52472
# Poissons Ratio (y) = 0.30826 0.23910
# Poissons Ratio (z) = 0.50716 0.19751
#
# Static dielectric constant tensor:
#      x y z
#    x 3.351850 0.000000 0.000000 
#    y 0.000000 3.425320 0.000000 
#    z 0.000000 0.000000 3.491580 
# 
# 
# High freq. dielectric constant tensor:
#      x y z
#    x 1.713970 0.000000 0.000000 
#    y 0.000000 1.713130 0.000000 
#    z 0.000000 0.000000 1.723670 
# 
# From -- ./inp_files/15017.got.cif
#   From: 2010.03.12/outbox.cif.g09.slc.cpg/sg59_8_cif.got.tgz:15017.got - 2010.04.16 16:29:54.
