data_PCOD8242430
_publ_section_title
;
Structure prediction by ZEFSAII (Michael W. Deem and Ramdas Pophale) SiO2 
 PCOD8242430
Probable space group: P M M N
;
_chemical_formula_sum "Si O2"
_cell_formula_units_Z 64
_cell_length_a 18.998985
_cell_length_b 9.048657
_cell_length_c 21.318653
_cell_angle_alpha 90.000000
_cell_angle_beta 90.000000
_cell_angle_gamma 90.000000
_cell_volume 3665.002597
_symmetry_space_group_name_H-M "P M M N"
_symmetry_group_IT_number 59
_space_group.IT_coordinate_system_code '2'
_symmetry_cell_setting 'orthorhombic'
loop_
_space_group_symop_operation_xyz
x,y,z
1/2-x,1/2-y,z
1/2+x,-y,-z
-x,1/2+y,-z
-x,-y,-z
1/2+x,1/2+y,-z
1/2-x,y,z
x,1/2-y,z
loop_
_atom_site_type_symbol
_atom_site_label
_atom_site_fract_x
_atom_site_fract_y
_atom_site_fract_z
Si Si1 0.092488 0.078895 0.357607
Si Si2 0.168651 0.078622 0.597935
Si Si3 0.524525 0.912807 0.193693
Si Si4 0.825493 0.074634 0.890059
Si Si5 0.528668 0.425180 0.938447
Si Si6 0.564460 0.421390 0.310669
Si Si7 0.169287 0.924073 0.468523
Si Si8 0.367325 0.586950 0.241395
O O1 0.108266 0.250000 0.368535
O O2 0.010575 0.048753 0.343517
O O3 0.114844 0.989659 0.418853
O O4 0.140383 0.023154 0.299849
O O5 0.250000 0.054331 0.615344
O O6 0.150955 0.250000 0.587684
O O7 0.123199 0.015731 0.654609
O O8 0.148434 0.991826 0.535177
O O9 0.560639 0.750000 0.195919
O O10 0.519626 0.969630 0.121525
O O11 0.447011 0.896585 0.220167
O O12 0.566039 0.027866 0.237687
O O13 0.750000 0.028037 0.920433
O O14 0.834048 0.250000 0.887067
O O15 0.825304 0.019052 0.817757
O O16 0.891490 0.012231 0.929222
O O17 0.528607 0.250000 0.947100
O O18 0.500000 0.500000 0.000000
O O19 0.584398 0.250000 0.312903
O O20 0.250000 0.964851 0.451043
O O21 0.158207 0.750000 0.472273
O O22 0.338930 0.750000 0.261114
#
# Coordination Sequence:
#
# PCOD8242430 Si02
#       8
#     8   8   8   8   8   8   8   8
#     4  10  20  32  47  71 102 132 161 195 240 290
#     4  10  21  37  56  75  95 123 159 201 254 307
#     4   8  15  29  47  68  95 124 155 193 237 283
#     4   8  14  26  45  68  93 123 162 203 237 275
#     4   9  17  29  48  73  99 130 165 200 240 285
#     4  10  20  33  52  77 101 127 160 200 243 287
#     4  10  21  36  52  69  92 126 167 207 245 290
#     4   8  14  26  44  65  90 121 156 193 232 276
#
# _framework density 17.46247
#
# number of rings (size 3 to 8) (size 9 to 14) (size 15 to 20)
#    0.000    2.875    0.000    3.000    0.000    4.500 
#    0.000    3.125    0.000    1.875    0.000    3.500 
#    0.000    0.000    0.000    0.000    0.000    0.000 
#
# Total GULP energy -793235.810934 kJ/mol
# GULP energy per Si atom -12394.309546 kJ/mol
# Density = 1.742272 g / cm^3
# Si number density = 17.462470 Si / 1000 Ang^3
#
#
#
# Elastic Constant Matrix: (Units=GPa)
#
#
# Indices 1 2 3 4 5 6 
#
# 1 68.3358 36.3071 55.5918 0.0000 0.0000 0.0000
# 2 36.3071 81.7788 54.5028 0.0000 0.0000 0.0000
# 3 55.5918 54.5028 130.5400 0.0000 0.0000 0.0000
# 4 0.0000 0.0000 0.0000 33.2144 0.0000 0.0000
# 5 0.0000 0.0000 0.0000 0.0000 18.0600 0.0000
# 6 0.0000 0.0000 0.0000 0.0000 0.0000 19.5490
#
#
#
# Elastic Compliance Matrix: (Units=1/GPa)
#
#
# Indices 1 2 3 4 5 6 
#
# 1 0.023949 -0.005314 -0.007980 0.000000 0.000000 0.000000
# 2 -0.005314 0.018122 -0.005303 0.000000 0.000000 0.000000
# 3 -0.007980 -0.005303 0.013273 0.000000 0.000000 0.000000
# 4 0.000000 0.000000 0.000000 0.030107 0.000000 0.000000
# 5 0.000000 0.000000 0.000000 0.000000 0.055371 0.000000
# 6 0.000000 0.000000 0.000000 0.000000 0.000000 0.051153
#
#
# Mechanical properties :
#
#
# Convention : Reuss Voigt Hill
#
# Bulk Modulus (GPa) = 55.09924 63.71755 59.40840
# Shear Modulus (GPa) = 21.25670 23.11489 22.18579
#
# Velocity S-wave (km/s) = 3.49274 3.64220 3.56825
# Velocity P-wave (km/s) = 6.92005 7.36580 7.14640
#
# Compressibility (1/GPa) = 0.01814907
#
# Stress axis : x y z
#
# Youngs Moduli (GPa) = 41.75545 55.18251 75.34050
#
# Poissons Ratio (x) = 0.29324 0.60123
# Poissons Ratio (y) = 0.22189 0.39954
# Poissons Ratio (z) = 0.33322 0.29264
#
# Static dielectric constant tensor:
#      x y z
#    x 3.193650 0.000000 0.000000 
#    y 0.000000 3.747720 0.000000 
#    z 0.000000 0.000000 3.329790 
# 
# 
# High freq. dielectric constant tensor:
#      x y z
#    x 1.654190 0.000000 0.000000 
#    y 0.000000 1.667300 0.000000 
#    z 0.000000 0.000000 1.668280 
# 
# From -- ./inp_files/30646.got.cif
#   From: 2010.03.12/outbox.cif.g09.slc.cpg/sg59_16_cif.got.tgz:30646.got - 2010.04.16 16:29:54.
