data_PCOD8242290
_publ_section_title
;
Structure prediction by ZEFSAII (Michael W. Deem and Ramdas Pophale) SiO2 
 PCOD8242290
Probable space group: P M M N
;
_chemical_formula_sum "Si O2"
_cell_formula_units_Z 64
_cell_length_a 8.984410
_cell_length_b 29.837891
_cell_length_c 15.502338
_cell_angle_alpha 90.000000
_cell_angle_beta 90.000000
_cell_angle_gamma 90.000000
_cell_volume 4155.802379
_symmetry_space_group_name_H-M "P M M N"
_symmetry_group_IT_number 59
_space_group.IT_coordinate_system_code '2'
_symmetry_cell_setting 'orthorhombic'
loop_
_space_group_symop_operation_xyz
x,y,z
1/2-x,1/2-y,z
1/2+x,-y,-z
-x,1/2+y,-z
-x,-y,-z
1/2+x,1/2+y,-z
1/2-x,y,z
x,1/2-y,z
loop_
_atom_site_type_symbol
_atom_site_label
_atom_site_fract_x
_atom_site_fract_y
_atom_site_fract_z
Si Si1 0.573698 0.865608 0.091367
Si Si2 0.580468 0.696803 0.767871
Si Si3 0.414461 0.540729 0.895732
Si Si4 0.073396 0.860800 0.908468
Si Si5 0.919240 0.196736 0.401004
Si Si6 0.425200 0.802553 0.226925
Si Si7 0.584847 0.044316 0.899418
Si Si8 0.084241 0.803092 0.413853
O O1 0.750000 0.866802 0.082705
O O2 0.524194 0.827847 0.157814
O O3 0.517771 0.913730 0.125902
O O4 0.504287 0.852711 0.999715
O O5 0.750000 0.680930 0.779123
O O6 0.566485 0.750000 0.772880
O O7 0.479817 0.677218 0.843626
O O8 0.521076 0.678008 0.676167
O O9 0.250000 0.532122 0.858039
O O10 0.471486 0.590362 0.869566
O O11 0.520547 0.501766 0.858610
O O12 0.409021 0.539078 0.998591
O O13 0.250000 0.858016 0.922804
O O14 0.750000 0.178940 0.389845
O O15 0.917781 0.250000 0.396962
O O16 0.989747 0.181422 0.494638
O O17 0.250000 0.813994 0.217103
O O18 0.451390 0.750000 0.212797
O O19 0.486699 0.818293 0.322324
O O20 0.750000 0.052049 0.861708
O O21 0.250000 0.822588 0.416716
O O22 0.091120 0.750000 0.411519
#
# Coordination Sequence:
#
# PCOD8242290 Si02
#       8
#     8   8   8   8   8   8   8   8
#     4  11  21  31  43  60  86 116 145 179 214 248
#     4  10  20  31  42  60  87 116 145 178 214 249
#     4   8  15  27  43  63  82 100 129 172 218 255
#     4  10  20  33  47  61  80 111 149 182 211 249
#     4   8  13  24  43  63  81 104 136 172 211 254
#     4   9  17  30  46  62  83 113 148 182 213 249
#     4   9  16  27  44  63  82 106 136 168 207 255
#     4   7  11  22  42  64  81 101 134 175 214 250
#
# _framework density 15.400155
#
# number of rings (size 3 to 8) (size 9 to 14) (size 15 to 20)
#    0.000    3.000    0.000    4.500    0.000    5.000 
#    0.000    0.625    0.000    2.250    0.000    0.000 
#    0.000    1.000    0.000    3.000    0.000    4.250 
#
# Total GULP energy -792865.752783 kJ/mol
# GULP energy per Si atom -12388.527387 kJ/mol
# Density = 1.536510 g / cm^3
# Si number density = 15.400155 Si / 1000 Ang^3
#
#
#
# Elastic Constant Matrix: (Units=GPa)
#
#
# Indices 1 2 3 4 5 6 
#
# 1 91.3626 35.1589 45.9484 0.0000 0.0000 0.0000
# 2 35.1589 48.4129 37.0977 0.0000 0.0000 0.0000
# 3 45.9484 37.0977 90.6048 0.0000 0.0000 0.0000
# 4 0.0000 0.0000 0.0000 -0.3134 0.0000 0.0000
# 5 0.0000 0.0000 0.0000 0.0000 9.7973 0.0000
# 6 0.0000 0.0000 0.0000 0.0000 0.0000 22.0950
#
#
#
# Elastic Compliance Matrix: (Units=1/GPa)
#
#
# Indices 1 2 3 4 5 6 
#
# 1 0.016661 -0.008197 -0.005093 0.000000 0.000000 0.000000
# 2 -0.008197 0.034132 -0.009818 0.000000 0.000000 0.000000
# 3 -0.005093 -0.009818 0.017640 0.000000 0.000000 0.000000
# 4 0.000000 0.000000 0.000000 -3.190422 0.000000 0.000000
# 5 0.000000 0.000000 0.000000 0.000000 0.102069 0.000000
# 6 0.000000 0.000000 0.000000 0.000000 0.000000 0.045259
#
#
# Mechanical properties :
#
#
# Convention : Reuss Voigt Hill
#
# Bulk Modulus (GPa) = 45.01211 51.86560 48.43885
# Shear Modulus (GPa) = -1.71172 13.79411 6.04120
#
# Velocity S-wave (km/s) = -1.05542 2.99609 1.98276
# Velocity P-wave (km/s) = 5.27320 6.76169 6.06329
#
# Compressibility (1/GPa) = 0.02221624
#
# Stress axis : x y z
#
# Youngs Moduli (GPa) = 60.01893 29.29781 56.68978
#
# Poissons Ratio (x) = 0.24016 0.28873
# Poissons Ratio (y) = 0.49199 0.55659
# Poissons Ratio (z) = 0.30569 0.28765
#
# Static dielectric constant tensor:
#      x y z
#    x 2.995230 0.000000 0.000000 
#    y 0.000000 2.847220 0.000000 
#    z 0.000000 0.000000 3.029360 
# 
# 
# High freq. dielectric constant tensor:
#      x y z
#    x 1.586640 0.000000 0.000000 
#    y 0.000000 1.560400 0.000000 
#    z 0.000000 0.000000 1.569590 
# 
# From -- ./inp_files/26674.got.cif
#   From: 2010.03.12/outbox.cif.g09.slc.cpg/sg59_14_cif.got.tgz:26674.got - 2010.04.16 16:29:54.
