data_PCOD8242801
_publ_section_title
;
Structure prediction by ZEFSAII (Michael W. Deem and Ramdas Pophale) SiO2 
 PCOD8242801
Probable space group: P M M N
;
_chemical_formula_sum "Si O2"
_cell_formula_units_Z 64
_cell_length_a 23.733002
_cell_length_b 8.866234
_cell_length_c 16.346363
_cell_angle_alpha 90.000000
_cell_angle_beta 90.000000
_cell_angle_gamma 90.000000
_cell_volume 3439.640104
_symmetry_space_group_name_H-M "P M M N"
_symmetry_group_IT_number 59
_space_group.IT_coordinate_system_code '2'
_symmetry_cell_setting 'orthorhombic'
loop_
_space_group_symop_operation_xyz
x,y,z
1/2-x,1/2-y,z
1/2+x,-y,-z
-x,1/2+y,-z
-x,-y,-z
1/2+x,1/2+y,-z
1/2-x,y,z
x,1/2-y,z
loop_
_atom_site_type_symbol
_atom_site_label
_atom_site_fract_x
_atom_site_fract_y
_atom_site_fract_z
Si Si1 0.628677 0.428005 0.128262
Si Si2 0.814616 0.573538 0.981917
Si Si3 0.394932 0.577039 0.615308
Si Si4 0.081311 0.574504 0.296734
Si Si5 0.186340 0.576901 0.187732
Si Si6 0.023751 0.923147 0.764491
Si Si7 0.314915 0.082844 0.729441
Si Si8 0.443091 0.072980 0.468161
O O1 0.637489 0.250000 0.136568
O O2 0.566452 0.472055 0.162527
O O3 0.675467 0.514069 0.181107
O O4 0.639695 0.482384 0.035985
O O5 0.750000 0.530067 0.004825
O O6 0.825148 0.750000 0.993913
O O7 0.826803 0.530115 0.888623
O O8 0.390889 0.750000 0.587745
O O9 0.447947 0.551796 0.675626
O O10 0.338981 0.530751 0.662537
O O11 0.396787 0.472422 0.535298
O O12 0.074067 0.750000 0.315401
O O13 0.142441 0.537117 0.259231
O O14 0.076336 0.483591 0.380280
O O15 0.032551 0.523869 0.232838
O O16 0.250000 0.548631 0.220489
O O17 0.178918 0.750000 0.159431
O O18 0.006338 0.750000 0.776107
O O19 0.250000 0.096936 0.711832
O O20 0.342802 0.250000 0.724094
O O21 0.451633 0.250000 0.463136
O O22 0.500000 0.000000 0.500000
#
# Coordination Sequence:
#
# PCOD8242801 Si02
#       8
#     8   8   8   8   8   8   8   8
#     4  10  20  33  52  78 110 147 188 228 272 328
#     4  10  20  34  55  83 111 141 183 233 281 327
#     4  10  20  35  54  78 108 143 184 227 272 323
#     4  11  22  36  59  86 110 142 183 226 278 336
#     4   9  20  40  62  83 109 142 182 227 275 330
#     4   9  19  34  52  77 111 146 180 223 272 325
#     4  10  20  33  50  75 110 149 186 226 274 327
#     4  12  23  36  57  83 112 143 180 227 273 325
#
# _framework density 18.606598000000002
#
# number of rings (size 3 to 8) (size 9 to 14) (size 15 to 20)
#    0.000    1.875    1.250    4.125    0.000    6.750 
#    0.000    1.250    0.000    2.250    0.000    0.000 
#    0.000    0.000    0.000    0.000    0.000    0.000 
#
# Total GULP energy -793632.117185 kJ/mol
# GULP energy per Si atom -12400.501831 kJ/mol
# Density = 1.856425 g / cm^3
# Si number density = 18.606598 Si / 1000 Ang^3
#
#
#
# Elastic Constant Matrix: (Units=GPa)
#
#
# Indices 1 2 3 4 5 6 
#
# 1 95.4849 49.9207 52.5022 0.0000 0.0000 0.0000
# 2 49.9207 107.4876 46.4016 0.0000 0.0000 0.0000
# 3 52.5022 46.4016 96.2993 0.0000 0.0000 0.0000
# 4 0.0000 0.0000 0.0000 33.2606 0.0000 0.0000
# 5 0.0000 0.0000 0.0000 0.0000 23.2990 0.0000
# 6 0.0000 0.0000 0.0000 0.0000 0.0000 26.2805
#
#
#
# Elastic Compliance Matrix: (Units=1/GPa)
#
#
# Indices 1 2 3 4 5 6 
#
# 1 0.016739 -0.004842 -0.006793 0.000000 0.000000 0.000000
# 2 -0.004842 0.013147 -0.003695 0.000000 0.000000 0.000000
# 3 -0.006793 -0.003695 0.015869 0.000000 0.000000 0.000000
# 4 0.000000 0.000000 0.000000 0.030066 0.000000 0.000000
# 5 0.000000 0.000000 0.000000 0.000000 0.042920 0.000000
# 6 0.000000 0.000000 0.000000 0.000000 0.000000 0.038051
#
#
# Mechanical properties :
#
#
# Convention : Reuss Voigt Hill
#
# Bulk Modulus (GPa) = 66.24884 66.32455 66.28669
# Shear Modulus (GPa) = 25.97610 26.59783 26.28696
#
# Velocity S-wave (km/s) = 3.74045 3.78495 3.76277
# Velocity P-wave (km/s) = 7.37136 7.40434 7.38787
#
# Compressibility (1/GPa) = 0.01509460
#
# Stress axis : x y z
#
# Youngs Moduli (GPa) = 59.73903 76.06142 63.01749
#
# Poissons Ratio (x) = 0.36827 0.42810
# Poissons Ratio (y) = 0.28924 0.23287
# Poissons Ratio (z) = 0.40583 0.28107
#
# Static dielectric constant tensor:
#      x y z
#    x 3.381040 0.000000 0.000000 
#    y 0.000000 3.625790 0.000000 
#    z 0.000000 0.000000 3.424710 
# 
# 
# High freq. dielectric constant tensor:
#      x y z
#    x 1.709180 0.000000 0.000000 
#    y 0.000000 1.735260 0.000000 
#    z 0.000000 0.000000 1.711670 
# 
# From -- ./inp_files/24775.got.cif
#   From: 2010.03.12/outbox.cif.g09.slc.cpg/sg59_13_cif.got.tgz:24775.got - 2010.04.16 16:29:54.
