data_PCOD8242323
_publ_section_title
;
Structure prediction by ZEFSAII (Michael W. Deem and Ramdas Pophale) SiO2 
 PCOD8242323
Probable space group: P M M N
;
_chemical_formula_sum "Si O2"
_cell_formula_units_Z 64
_cell_length_a 9.439360
_cell_length_b 23.296908
_cell_length_c 16.643699
_cell_angle_alpha 90.000000
_cell_angle_beta 90.000000
_cell_angle_gamma 90.000000
_cell_volume 3660.080920
_symmetry_space_group_name_H-M "P M M N"
_symmetry_group_IT_number 59
_space_group.IT_coordinate_system_code '2'
_symmetry_cell_setting 'orthorhombic'
loop_
_space_group_symop_operation_xyz
x,y,z
1/2-x,1/2-y,z
1/2+x,-y,-z
-x,1/2+y,-z
-x,-y,-z
1/2+x,1/2+y,-z
1/2-x,y,z
x,1/2-y,z
loop_
_atom_site_type_symbol
_atom_site_label
_atom_site_fract_x
_atom_site_fract_y
_atom_site_fract_z
Si Si1 0.416098 0.183444 0.263389
Si Si2 0.088397 0.316344 0.627876
Si Si3 0.593535 0.681826 0.915920
Si Si4 0.411278 0.981280 0.319554
Si Si5 0.914473 0.088167 0.349004
Si Si6 0.411455 0.598217 0.466216
Si Si7 0.914318 0.133102 0.768655
Si Si8 0.414620 0.683962 0.063952
O O1 0.250000 0.172735 0.279049
O O2 0.453654 0.250000 0.277071
O O3 0.457305 0.163322 0.172946
O O4 0.510218 0.147195 0.324707
O O5 0.250000 0.337540 0.637015
O O6 0.081749 0.250000 0.605706
O O7 0.015219 0.349436 0.554294
O O8 0.007427 0.327268 0.711024
O O9 0.750000 0.657075 0.932728
O O10 0.597444 0.750000 0.917903
O O11 0.491137 0.658123 0.985347
O O12 0.250000 0.003463 0.315201
O O13 0.444229 0.954595 0.406931
O O14 0.440234 0.933822 0.250794
O O15 0.514484 0.034618 0.303093
O O16 0.750000 0.091270 0.325667
O O17 0.937823 0.078160 0.443450
O O18 0.250000 0.619200 0.453101
O O19 0.750000 0.149572 0.754856
O O20 0.960550 0.145875 0.859811
O O21 0.250000 0.678619 0.046206
O O22 0.457937 0.750000 0.080476
#
# Coordination Sequence:
#
# PCOD8242323 Si02
#       8
#     8   8   8   8   8   8   8   8
#     4   9  19  36  55  74  99 131 162 193 237 292
#     4  10  20  31  45  69  99 130 164 201 241 284
#     4   8  15  29  48  70  97 128 160 194 234 281
#     4   9  18  34  53  70  93 128 166 200 237 285
#     4  11  22  34  52  77  99 121 156 203 249 291
#     4   9  20  36  51  69  94 127 164 201 245 292
#     4   9  18  32  49  70  98 133 168 199 236 285
#     4   9  16  26  45  74 103 130 160 194 235 283
#
# _framework density 17.485952000000001
#
# number of rings (size 3 to 8) (size 9 to 14) (size 15 to 20)
#    0.000    2.750    0.000    3.000    0.000    6.250 
#    0.000    5.000    0.000    0.750    0.000    0.000 
#    0.000    0.000    0.000    0.000    0.000    0.000 
#
# Total GULP energy -793554.089782 kJ/mol
# GULP energy per Si atom -12399.282653 kJ/mol
# Density = 1.744615 g / cm^3
# Si number density = 17.485952 Si / 1000 Ang^3
#
#
#
# Elastic Constant Matrix: (Units=GPa)
#
#
# Indices 1 2 3 4 5 6 
#
# 1 85.7221 49.0793 32.2465 0.0000 0.0000 0.0000
# 2 49.0793 77.5556 28.6700 0.0000 0.0000 0.0000
# 3 32.2465 28.6700 70.6040 0.0000 0.0000 0.0000
# 4 0.0000 0.0000 0.0000 17.2262 0.0000 0.0000
# 5 0.0000 0.0000 0.0000 0.0000 28.5324 0.0000
# 6 0.0000 0.0000 0.0000 0.0000 0.0000 28.1460
#
#
#
# Elastic Compliance Matrix: (Units=1/GPa)
#
#
# Indices 1 2 3 4 5 6 
#
# 1 0.019475 -0.010632 -0.004577 0.000000 0.000000 0.000000
# 2 -0.010632 0.020976 -0.003662 0.000000 0.000000 0.000000
# 3 -0.004577 -0.003662 0.017741 0.000000 0.000000 0.000000
# 4 0.000000 0.000000 0.000000 0.058051 0.000000 0.000000
# 5 0.000000 0.000000 0.000000 0.000000 0.035048 0.000000
# 6 0.000000 0.000000 0.000000 0.000000 0.000000 0.035529
#
#
# Mechanical properties :
#
#
# Convention : Reuss Voigt Hill
#
# Bulk Modulus (GPa) = 48.90089 50.43035 49.66562
# Shear Modulus (GPa) = 21.60965 23.03997 22.32481
#
# Velocity S-wave (km/s) = 3.51925 3.63385 3.57701
# Velocity P-wave (km/s) = 6.67383 6.81980 6.74721
#
# Compressibility (1/GPa) = 0.02044953
#
# Stress axis : x y z
#
# Youngs Moduli (GPa) = 51.34860 47.67385 56.36680
#
# Poissons Ratio (x) = 0.50687 0.25800
# Poissons Ratio (y) = 0.54594 0.20640
# Poissons Ratio (z) = 0.23503 0.17457
#
# Static dielectric constant tensor:
#      x y z
#    x 3.335570 0.000000 0.000000 
#    y 0.000000 2.976290 0.000000 
#    z 0.000000 0.000000 3.315300 
# 
# 
# High freq. dielectric constant tensor:
#      x y z
#    x 1.678680 0.000000 0.000000 
#    y 0.000000 1.651920 0.000000 
#    z 0.000000 0.000000 1.669890 
# 
# From -- ./inp_files/21531.got.cif
#   From: 2010.03.12/outbox.cif.g09.slc.cpg/sg59_11_cif.got.tgz:21531.got - 2010.04.16 16:29:54.
