data_PCOD8242758
_publ_section_title
;
Structure prediction by ZEFSAII (Michael W. Deem and Ramdas Pophale) SiO2 
 PCOD8242758
Probable space group: P M M N
;
_chemical_formula_sum "Si O2"
_cell_formula_units_Z 64
_cell_length_a 15.820022
_cell_length_b 9.282991
_cell_length_c 23.163446
_cell_angle_alpha 90.000000
_cell_angle_beta 90.000000
_cell_angle_gamma 90.000000
_cell_volume 3401.717012
_symmetry_space_group_name_H-M "P M M N"
_symmetry_group_IT_number 59
_space_group.IT_coordinate_system_code '2'
_symmetry_cell_setting 'orthorhombic'
loop_
_space_group_symop_operation_xyz
x,y,z
1/2-x,1/2-y,z
1/2+x,-y,-z
-x,1/2+y,-z
-x,-y,-z
1/2+x,1/2+y,-z
1/2-x,y,z
x,1/2-y,z
loop_
_atom_site_type_symbol
_atom_site_label
_atom_site_fract_x
_atom_site_fract_y
_atom_site_fract_z
Si Si1 0.920392 0.583854 0.638787
Si Si2 0.345556 0.416752 0.049343
Si Si3 0.402934 0.585159 0.577650
Si Si4 0.345415 0.582303 0.932524
Si Si5 0.991255 0.918897 0.860917
Si Si6 0.654323 0.410472 0.543247
Si Si7 0.991280 0.078816 0.742829
Si Si8 0.657656 0.586002 0.320148
O O1 0.900185 0.750000 0.653094
O O2 0.848610 0.514530 0.598770
O O3 0.003146 0.564010 0.600364
O O4 0.926356 0.495018 0.698233
O O5 0.250000 0.451564 0.071658
O O6 0.354424 0.250000 0.033821
O O7 0.415120 0.461291 0.096316
O O8 0.366139 0.502079 0.991495
O O9 0.373498 0.750000 0.578779
O O10 0.397447 0.527268 0.511888
O O11 0.341164 0.499871 0.620075
O O12 0.250000 0.543955 0.910183
O O13 0.352995 0.750000 0.946307
O O14 0.416662 0.537616 0.886143
O O15 0.988708 0.750000 0.845245
O O16 0.973820 0.014092 0.805134
O O17 0.750000 0.402386 0.522243
O O18 0.621082 0.250000 0.560177
O O19 0.977146 0.250000 0.743624
O O20 0.086627 0.032992 0.724786
O O21 0.750000 0.567396 0.290801
O O22 0.638570 0.750000 0.336692
#
# Coordination Sequence:
#
# PCOD8242758 Si02
#       8
#     8   8   8   8   8   8   8   8
#     4  10  20  35  54  73  96 129 168 207 248 297
#     4   9  18  33  53  77 104 134 169 209 252 296
#     4   9  18  32  51  75 100 128 162 199 245 303
#     4   9  18  32  51  78 111 141 167 200 246 300
#     4  10  20  34  52  75 104 136 171 212 254 296
#     4  10  20  33  50  74 103 130 158 199 251 304
#     4  10  21  36  53  72  97 132 173 212 251 299
#     4   9  18  32  49  71 100 131 163 204 252 300
#
# _framework density 18.814028
#
# number of rings (size 3 to 8) (size 9 to 14) (size 15 to 20)
#    0.000    2.500    0.000    1.875    0.000    4.000 
#    0.000    0.625    0.000    2.250    0.000    0.000 
#    0.000    0.000    0.000    0.000    0.000    0.000 
#
# Total GULP energy -793449.918437 kJ/mol
# GULP energy per Si atom -12397.654976 kJ/mol
# Density = 1.877121 g / cm^3
# Si number density = 18.814028 Si / 1000 Ang^3
#
#
#
# Elastic Constant Matrix: (Units=GPa)
#
#
# Indices 1 2 3 4 5 6 
#
# 1 60.9317 21.1300 35.7459 0.0000 0.0000 0.0000
# 2 21.1300 66.3152 51.8850 0.0000 0.0000 0.0000
# 3 35.7459 51.8850 122.4793 0.0000 0.0000 0.0000
# 4 0.0000 0.0000 0.0000 36.5594 0.0000 0.0000
# 5 0.0000 0.0000 0.0000 0.0000 20.0383 0.0000
# 6 0.0000 0.0000 0.0000 0.0000 0.0000 20.7889
#
#
#
# Elastic Compliance Matrix: (Units=1/GPa)
#
#
# Indices 1 2 3 4 5 6 
#
# 1 0.020125 -0.002718 -0.004722 0.000000 0.000000 0.000000
# 2 -0.002718 0.022922 -0.008917 0.000000 0.000000 0.000000
# 3 -0.004722 -0.008917 0.013320 0.000000 0.000000 0.000000
# 4 0.000000 0.000000 0.000000 0.027353 0.000000 0.000000
# 5 0.000000 0.000000 0.000000 0.000000 0.049904 0.000000
# 6 0.000000 0.000000 0.000000 0.000000 0.000000 0.048103
#
#
# Mechanical properties :
#
#
# Convention : Reuss Voigt Hill
#
# Bulk Modulus (GPa) = 42.27781 51.91645 47.09713
# Shear Modulus (GPa) = 22.48957 24.87502 23.68229
#
# Velocity S-wave (km/s) = 3.46115 3.64009 3.55175
# Velocity P-wave (km/s) = 6.20427 6.73212 6.47358
#
# Compressibility (1/GPa) = 0.02365307
#
# Stress axis : x y z
#
# Youngs Moduli (GPa) = 49.69067 43.62563 75.07306
#
# Poissons Ratio (x) = 0.11856 0.35450
# Poissons Ratio (y) = 0.13504 0.66945
# Poissons Ratio (z) = 0.23465 0.38902
#
# Static dielectric constant tensor:
#      x y z
#    x 3.525580 0.000000 0.000000 
#    y 0.000000 3.440240 0.000000 
#    z 0.000000 0.000000 3.280770 
# 
# 
# High freq. dielectric constant tensor:
#      x y z
#    x 1.729300 0.000000 0.000000 
#    y 0.000000 1.729650 0.000000 
#    z 0.000000 0.000000 1.717790 
# 
# From -- ./inp_files/30664.got.cif
#   From: 2010.03.12/outbox.cif.g09.slc.cpg/sg59_16_cif.got.tgz:30664.got - 2010.04.16 16:29:54.
