data_PCOD8242933
_publ_section_title
;
Structure prediction by ZEFSAII (Michael W. Deem and Ramdas Pophale) SiO2 
 PCOD8242933
Probable space group: P M M N
;
_chemical_formula_sum "Si O2"
_cell_formula_units_Z 64
_cell_length_a 9.029723
_cell_length_b 28.070006
_cell_length_c 13.767403
_cell_angle_alpha 90.000000
_cell_angle_beta 90.000000
_cell_angle_gamma 90.000000
_cell_volume 3489.546249
_symmetry_space_group_name_H-M "P M M N"
_symmetry_group_IT_number 59
_space_group.IT_coordinate_system_code '2'
_symmetry_cell_setting 'orthorhombic'
loop_
_space_group_symop_operation_xyz
x,y,z
1/2-x,1/2-y,z
1/2+x,-y,-z
-x,1/2+y,-z
-x,-y,-z
1/2+x,1/2+y,-z
1/2-x,y,z
x,1/2-y,z
loop_
_atom_site_type_symbol
_atom_site_label
_atom_site_fract_x
_atom_site_fract_y
_atom_site_fract_z
Si Si1 0.922370 0.554368 0.224639
Si Si2 0.923738 0.869546 0.909220
Si Si3 0.419210 0.386565 0.588535
Si Si4 0.921083 0.804496 0.268442
Si Si5 0.577660 0.120395 0.391864
Si Si6 0.076992 0.196029 0.270808
Si Si7 0.922807 0.054986 0.213348
Si Si8 0.425596 0.635043 0.110509
O O1 0.750000 0.561828 0.199697
O O2 0.955782 0.572606 0.333110
O O3 0.971070 0.499784 0.217674
O O4 0.016801 0.583908 0.147063
O O5 0.750000 0.873773 0.929910
O O6 0.961893 0.829085 0.830660
O O7 0.983301 0.920392 0.871751
O O8 0.008371 0.853918 0.005426
O O9 0.250000 0.389678 0.553959
O O10 0.453777 0.334871 0.634850
O O11 0.522342 0.395875 0.496849
O O12 0.750000 0.811238 0.237286
O O13 0.960010 0.750000 0.291788
O O14 0.022387 0.822568 0.180739
O O15 0.750000 0.130116 0.397130
O O16 0.501811 0.169620 0.359896
O O17 0.537931 0.078411 0.316774
O O18 0.250000 0.194013 0.292176
O O19 0.018655 0.250000 0.265649
O O20 0.750000 0.060922 0.189005
O O21 0.250000 0.634220 0.105288
#
# Coordination Sequence:
#
# PCOD8242933 Si02
#       8
#     8   8   8   8   8   8   8   8
#     4   9  19  37  57  75 100 137 178 216 255 304
#     4  10  20  35  55  78 104 136 174 213 256 310
#     4   9  18  33  53  77 104 137 175 211 250 302
#     4   9  19  37  58  77 101 137 178 216 254 301
#     4  10  20  33  51  78 109 137 166 208 262 310
#     4   9  19  36  56  76  99 132 175 216 250 294
#     4   9  19  36  55  76 104 136 172 216 262 306
#     4  11  22  35  53  79 109 137 168 212 263 310
#
# _framework density 18.340494
#
# number of rings (size 3 to 8) (size 9 to 14) (size 15 to 20)
#    0.000    2.500    0.000    2.625    0.000    6.000 
#    0.000    2.500    0.000    0.000    0.000    0.000 
#    0.000    0.000    0.000    0.000    0.000    0.000 
#
# Total GULP energy -793809.828145 kJ/mol
# GULP energy per Si atom -12403.278565 kJ/mol
# Density = 1.829875 g / cm^3
# Si number density = 18.340494 Si / 1000 Ang^3
#
#
#
# Elastic Constant Matrix: (Units=GPa)
#
#
# Indices 1 2 3 4 5 6 
#
# 1 60.3254 8.6133 21.2041 0.0000 0.0000 0.0000
# 2 8.6133 72.6251 -16.5507 0.0000 0.0000 0.0000
# 3 21.2041 -16.5507 54.8499 0.0000 0.0000 0.0000
# 4 0.0000 0.0000 0.0000 12.8826 0.0000 0.0000
# 5 0.0000 0.0000 0.0000 0.0000 34.7225 0.0000
# 6 0.0000 0.0000 0.0000 0.0000 0.0000 27.2886
#
#
#
# Elastic Compliance Matrix: (Units=1/GPa)
#
#
# Indices 1 2 3 4 5 6 
#
# 1 0.020493 -0.004549 -0.009295 0.000000 0.000000 0.000000
# 2 -0.004549 0.015796 0.006525 0.000000 0.000000 0.000000
# 3 -0.009295 0.006525 0.023794 0.000000 0.000000 0.000000
# 4 0.000000 0.000000 0.000000 0.077624 0.000000 0.000000
# 5 0.000000 0.000000 0.000000 0.000000 0.028800 0.000000
# 6 0.000000 0.000000 0.000000 0.000000 0.000000 0.036645
#
#
# Mechanical properties :
#
#
# Convention : Reuss Voigt Hill
#
# Bulk Modulus (GPa) = 22.00466 23.81487 22.90977
# Shear Modulus (GPa) = 21.46488 26.61430 24.03959
#
# Velocity S-wave (km/s) = 3.42476 3.81349 3.62434
# Velocity P-wave (km/s) = 5.25952 5.69239 5.48023
#
# Compressibility (1/GPa) = 0.04544492
#
# Stress axis : x y z
#
# Youngs Moduli (GPa) = 48.79621 63.30802 42.02789
#
# Poissons Ratio (x) = 0.28797 0.39065
# Poissons Ratio (y) = 0.22196 -0.27422
# Poissons Ratio (z) = 0.45356 -0.41307
#
# Static dielectric constant tensor:
#      x y z
#    x 3.323250 0.000000 0.000000 
#    y 0.000000 3.476480 0.000000 
#    z 0.000000 0.000000 3.311820 
# 
# 
# High freq. dielectric constant tensor:
#      x y z
#    x 1.708940 0.000000 0.000000 
#    y 0.000000 1.712070 0.000000 
#    z 0.000000 0.000000 1.710390 
# 
# From -- ./inp_files/15053.got.cif
#   From: 2010.03.12/outbox.cif.g09.slc.cpg/sg59_8_cif.got.tgz:15053.got - 2010.04.16 16:29:54.
