data_PCOD8242497
_publ_section_title
;
Structure prediction by ZEFSAII (Michael W. Deem and Ramdas Pophale) SiO2 
 PCOD8242497
Probable space group: P M M N
;
_chemical_formula_sum "Si O2"
_cell_formula_units_Z 56
_cell_length_a 9.263480
_cell_length_b 23.590662
_cell_length_c 13.849239
_cell_angle_alpha 90.000000
_cell_angle_beta 90.000000
_cell_angle_gamma 90.000000
_cell_volume 3026.496712
_symmetry_space_group_name_H-M "P M M N"
_symmetry_group_IT_number 59
_space_group.IT_coordinate_system_code '2'
_symmetry_cell_setting 'orthorhombic'
loop_
_space_group_symop_operation_xyz
x,y,z
1/2-x,1/2-y,z
1/2+x,-y,-z
-x,1/2+y,-z
-x,-y,-z
1/2+x,1/2+y,-z
1/2-x,y,z
x,1/2-y,z
loop_
_atom_site_type_symbol
_atom_site_label
_atom_site_fract_x
_atom_site_fract_y
_atom_site_fract_z
Si Si1 0.414812 0.684585 0.345177
Si Si2 0.082611 0.412846 0.318358
Si Si3 0.083383 0.684999 0.781820
Si Si4 0.583583 0.315260 0.995501
Si Si5 0.915987 0.901957 0.460005
Si Si6 0.081258 0.367574 0.827650
Si Si7 0.414975 0.020625 0.716427
O O1 0.250000 0.664833 0.329899
O O2 0.423392 0.750000 0.372490
O O3 0.483520 0.651302 0.435076
O O4 0.502092 0.673634 0.247233
O O5 0.250000 0.411431 0.292997
O O6 0.053006 0.421340 0.431667
O O7 0.014642 0.353923 0.285038
O O8 0.012736 0.465968 0.262729
O O9 0.250000 0.673936 0.756834
O O10 0.042347 0.750000 0.760160
O O11 0.053211 0.670554 0.893292
O O12 0.750000 0.326776 0.969381
O O13 0.544896 0.250000 0.973246
O O14 0.482541 0.356648 0.933540
O O15 0.750000 0.883353 0.444773
O O16 0.953800 0.953453 0.388217
O O17 0.250000 0.353091 0.825853
O O18 0.053798 0.432957 0.799174
O O19 0.250000 0.000419 0.719491
#
# Coordination Sequence:
#
# PCOD8242497 Si02
#       7
#     8   8   8   8   8   8   8
#     4  10  20  32  48  74 106 139 176 214 253 306
#     4  11  22  35  55  81 105 133 172 218 266 308
#     4   9  20  39  59  78 104 139 176 213 255 306
#     4   9  18  34  56  80 105 136 175 215 255 304
#     4   9  20  36  52  74 104 137 174 218 264 307
#     4  10  20  33  52  79 108 138 171 210 260 312
#     4   9  19  36  54  74 104 139 174 210 252 310
#
# _framework density 18.503242
#
# number of rings (size 3 to 8) (size 9 to 14) (size 15 to 20)
#    0.000    2.429    0.000    3.857    0.000    8.571 
#    0.000    5.000    0.000    0.000    0.000    0.000 
#    0.000    0.000    0.000    0.000    0.000    0.000 
#
# Total GULP energy -694546.948673 kJ/mol
# GULP energy per Si atom -12402.624083 kJ/mol
# Density = 1.846113 g / cm^3
# Si number density = 18.503242 Si / 1000 Ang^3
#
#
#
# Elastic Constant Matrix: (Units=GPa)
#
#
# Indices 1 2 3 4 5 6 
#
# 1 108.9224 65.1240 39.2749 0.0000 0.0000 0.0000
# 2 65.1240 103.7398 36.1543 0.0000 0.0000 0.0000
# 3 39.2749 36.1543 57.1258 0.0000 0.0000 0.0000
# 4 0.0000 0.0000 0.0000 22.5707 0.0000 0.0000
# 5 0.0000 0.0000 0.0000 0.0000 32.7802 0.0000
# 6 0.0000 0.0000 0.0000 0.0000 0.0000 35.5114
#
#
#
# Elastic Compliance Matrix: (Units=1/GPa)
#
#
# Indices 1 2 3 4 5 6 
#
# 1 0.016164 -0.008050 -0.006018 0.000000 0.000000 0.000000
# 2 -0.008050 0.016376 -0.004830 0.000000 0.000000 0.000000
# 3 -0.006018 -0.004830 0.024700 0.000000 0.000000 0.000000
# 4 0.000000 0.000000 0.000000 0.044305 0.000000 0.000000
# 5 0.000000 0.000000 0.000000 0.000000 0.030506 0.000000
# 6 0.000000 0.000000 0.000000 0.000000 0.000000 0.028160
#
#
# Mechanical properties :
#
#
# Convention : Reuss Voigt Hill
#
# Bulk Modulus (GPa) = 51.43046 61.21049 56.32048
# Shear Modulus (GPa) = 24.45133 26.78811 25.61972
#
# Velocity S-wave (km/s) = 3.63914 3.80906 3.72507
# Velocity P-wave (km/s) = 6.74637 7.24555 7.00041
#
# Compressibility (1/GPa) = 0.01944373
#
# Stress axis : x y z
#
# Youngs Moduli (GPa) = 61.86712 61.06502 40.48614
#
# Poissons Ratio (x) = 0.49154 0.24366
# Poissons Ratio (y) = 0.49800 0.19555
# Poissons Ratio (z) = 0.37234 0.29495
#
# Static dielectric constant tensor:
#      x y z
#    x 3.438090 0.000000 0.000000 
#    y 0.000000 3.245560 0.000000 
#    z 0.000000 0.000000 3.292160 
# 
# 
# High freq. dielectric constant tensor:
#      x y z
#    x 1.723770 0.000000 0.000000 
#    y 0.000000 1.712590 0.000000 
#    z 0.000000 0.000000 1.707170 
# 
# From -- ./inp_files/21046.got.cif
#   From: 2010.03.12/outbox.cif.g09.slc.cpg/sg59_11_cif.got.tgz:21046.got - 2010.04.16 16:29:54.
