data_PCOD8242379
_publ_section_title
;
Structure prediction by ZEFSAII (Michael W. Deem and Ramdas Pophale) SiO2 
 PCOD8242379
Probable space group: P M M N
;
_chemical_formula_sum "Si O2"
_cell_formula_units_Z 64
_cell_length_a 23.821626
_cell_length_b 8.869808
_cell_length_c 16.862784
_cell_angle_alpha 90.000000
_cell_angle_beta 90.000000
_cell_angle_gamma 90.000000
_cell_volume 3562.992416
_symmetry_space_group_name_H-M "P M M N"
_symmetry_group_IT_number 59
_space_group.IT_coordinate_system_code '2'
_symmetry_cell_setting 'orthorhombic'
loop_
_space_group_symop_operation_xyz
x,y,z
1/2-x,1/2-y,z
1/2+x,-y,-z
-x,1/2+y,-z
-x,-y,-z
1/2+x,1/2+y,-z
1/2-x,y,z
x,1/2-y,z
loop_
_atom_site_type_symbol
_atom_site_label
_atom_site_fract_x
_atom_site_fract_y
_atom_site_fract_z
Si Si1 0.904540 0.428233 0.973490
Si Si2 0.185575 0.572312 0.751549
Si Si3 0.405963 0.071826 0.858074
Si Si4 0.816661 0.919414 0.408312
Si Si5 0.973251 0.427346 0.823680
Si Si6 0.314327 0.573499 0.433179
Si Si7 0.368067 0.928189 0.270352
Si Si8 0.314973 0.078673 0.125517
O O1 0.907032 0.250000 0.990375
O O2 0.949573 0.485814 0.908118
O O3 0.843638 0.472300 0.939867
O O4 0.915919 0.521239 0.052413
O O5 0.250000 0.521156 0.765540
O O6 0.180466 0.750000 0.749702
O O7 0.148441 0.508484 0.822702
O O8 0.161741 0.509509 0.668399
O O9 0.396491 0.250000 0.854138
O O10 0.462437 0.020193 0.810273
O O11 0.750000 0.925650 0.410577
O O12 0.839647 0.750000 0.402078
O O13 0.839605 0.992863 0.489139
O O14 0.971984 0.250000 0.829769
O O15 0.932180 0.477959 0.751566
O O16 0.250000 0.524371 0.415870
O O17 0.317335 0.750000 0.449198
O O18 0.353719 0.524395 0.360050
O O19 0.359208 0.750000 0.258043
O O20 0.325234 0.014427 0.213399
O O21 0.250000 0.073678 0.105993
O O22 0.337836 0.250000 0.120382
#
# Coordination Sequence:
#
# PCOD8242379 Si02
#       8
#     8   8   8   8   8   8   8   8
#     4  10  20  35  53  72  96 128 168 207 244 290
#     4  10  21  37  55  75 100 128 160 199 244 296
#     4  11  21  34  54  77 100 125 158 202 250 296
#     4   9  17  30  49  73 101 131 161 197 243 290
#     4   8  17  33  52  74  99 129 164 204 246 285
#     4   9  16  26  45  74 104 134 166 198 234 280
#     4   9  17  31  50  72 100 134 171 204 237 284
#     4  10  20  32  46  68 100 134 166 203 249 294
#
# _framework density 17.962430000000001
#
# number of rings (size 3 to 8) (size 9 to 14) (size 15 to 20)
#    0.000    2.500    0.000    3.375    0.000    4.750 
#    0.000    6.875    0.000    0.750    0.000    0.000 
#    0.000    0.000    0.000    0.000    0.000    0.000 
#
# Total GULP energy -793421.387895 kJ/mol
# GULP energy per Si atom -12397.209186 kJ/mol
# Density = 1.792155 g / cm^3
# Si number density = 17.962430 Si / 1000 Ang^3
#
#
#
# Elastic Constant Matrix: (Units=GPa)
#
#
# Indices 1 2 3 4 5 6 
#
# 1 84.0662 28.7911 41.2900 0.0000 0.0000 0.0000
# 2 28.7911 54.6720 25.4413 0.0000 0.0000 0.0000
# 3 41.2900 25.4413 88.4020 0.0000 0.0000 0.0000
# 4 0.0000 0.0000 0.0000 29.2939 0.0000 0.0000
# 5 0.0000 0.0000 0.0000 0.0000 17.0915 0.0000
# 6 0.0000 0.0000 0.0000 0.0000 0.0000 15.6991
#
#
#
# Elastic Compliance Matrix: (Units=1/GPa)
#
#
# Indices 1 2 3 4 5 6 
#
# 1 0.017023 -0.006079 -0.006202 0.000000 0.000000 0.000000
# 2 -0.006079 0.023290 -0.003863 0.000000 0.000000 0.000000
# 3 -0.006202 -0.003863 0.015320 0.000000 0.000000 0.000000
# 4 0.000000 0.000000 0.000000 0.034137 0.000000 0.000000
# 5 0.000000 0.000000 0.000000 0.000000 0.058508 0.000000
# 6 0.000000 0.000000 0.000000 0.000000 0.000000 0.063698
#
#
# Mechanical properties :
#
#
# Convention : Reuss Voigt Hill
#
# Bulk Modulus (GPa) = 42.83406 46.46499 44.64952
# Shear Modulus (GPa) = 19.83762 21.19143 20.51452
#
# Velocity S-wave (km/s) = 3.32685 3.43850 3.38313
# Velocity P-wave (km/s) = 6.21735 6.45665 6.33813
#
# Compressibility (1/GPa) = 0.02334591
#
# Stress axis : x y z
#
# Youngs Moduli (GPa) = 58.74311 42.93706 65.27238
#
# Poissons Ratio (x) = 0.26101 0.40480
# Poissons Ratio (y) = 0.35709 0.25217
# Poissons Ratio (z) = 0.36430 0.16588
#
# Static dielectric constant tensor:
#      x y z
#    x 3.416530 0.000000 0.000000 
#    y 0.000000 3.323690 0.000000 
#    z 0.000000 0.000000 3.329480 
# 
# 
# High freq. dielectric constant tensor:
#      x y z
#    x 1.675340 0.000000 0.000000 
#    y 0.000000 1.694320 0.000000 
#    z 0.000000 0.000000 1.690840 
# 
# From -- ./inp_files/28474.got.cif
#   From: 2010.03.12/outbox.cif.g09.slc.cpg/sg59_15_cif.got.tgz:28474.got - 2010.04.16 16:29:54.
