data_PCOD8242298
_publ_section_title
;
Structure prediction by ZEFSAII (Michael W. Deem and Ramdas Pophale) SiO2 
 PCOD8242298
Probable space group: P M M N
;
_chemical_formula_sum "Si O2"
_cell_formula_units_Z 64
_cell_length_a 8.796295
_cell_length_b 19.725716
_cell_length_c 20.045000
_cell_angle_alpha 90.000000
_cell_angle_beta 90.000000
_cell_angle_gamma 90.000000
_cell_volume 3478.072435
_symmetry_space_group_name_H-M "P M M N"
_symmetry_group_IT_number 59
_space_group.IT_coordinate_system_code '2'
_symmetry_cell_setting 'orthorhombic'
loop_
_space_group_symop_operation_xyz
x,y,z
1/2-x,1/2-y,z
1/2+x,-y,-z
-x,1/2+y,-z
-x,-y,-z
1/2+x,1/2+y,-z
1/2-x,y,z
x,1/2-y,z
loop_
_atom_site_type_symbol
_atom_site_label
_atom_site_fract_x
_atom_site_fract_y
_atom_site_fract_z
Si Si1 0.569869 0.578644 0.120533
Si Si2 0.579717 0.065015 0.740818
Si Si3 0.569376 0.329256 0.984360
Si Si4 0.427767 0.822507 0.659016
Si Si5 0.071213 0.915448 0.546311
Si Si6 0.415990 0.408684 0.237118
Si Si7 0.928882 0.052382 0.596298
Si Si8 0.429054 0.064526 0.087842
O O1 0.750000 0.577054 0.112164
O O2 0.529256 0.587019 0.198808
O O3 0.500027 0.645276 0.085647
O O4 0.503373 0.510710 0.084997
O O5 0.750000 0.094564 0.753442
O O6 0.587461 0.984674 0.737401
O O7 0.513938 0.085615 0.666868
O O8 0.750000 0.336191 0.983202
O O9 0.522885 0.250000 0.996595
O O10 0.502376 0.380371 0.039289
O O11 0.250000 0.814181 0.653629
O O12 0.507460 0.750000 0.668905
O O13 0.488915 0.852292 0.589156
O O14 0.458840 0.868334 0.722688
O O15 0.250000 0.926907 0.552933
O O16 0.027378 0.902164 0.468553
O O17 0.995874 0.979495 0.580945
O O18 0.250000 0.375747 0.248392
O O19 0.460861 0.404768 0.160109
O O20 0.750000 0.043523 0.604161
O O21 0.250000 0.056028 0.072600
#
# Coordination Sequence:
#
# PCOD8242298 Si02
#       8
#     8   8   8   8   8   8   8   8
#     4  11  22  36  58  85 112 143 180 222 270 324
#     4   9  17  31  51  75 104 132 164 213 269 316
#     4  11  24  41  60  82 110 143 180 223 270 323
#     4  10  20  31  43  63  97 137 171 206 248 300
#     4   9  17  28  44  68  95 127 167 209 254 302
#     4   9  18  32  49  71  98 131 168 207 250 298
#     4   9  16  28  48  71  97 126 159 210 265 306
#     4  10  21  38  59  82 111 144 179 223 270 319
#
# _framework density 18.400998999999999
#
# number of rings (size 3 to 8) (size 9 to 14) (size 15 to 20)
#    0.000    2.250    1.250    3.000    0.000    4.750 
#    0.000    2.500    0.000    0.750    0.000    3.500 
#    0.000    0.000    0.000    0.000    0.000    0.000 
#
# Total GULP energy -792970.491907 kJ/mol
# GULP energy per Si atom -12390.163936 kJ/mol
# Density = 1.835912 g / cm^3
# Si number density = 18.400999 Si / 1000 Ang^3
#
#
#
# Elastic Constant Matrix: (Units=GPa)
#
#
# Indices 1 2 3 4 5 6 
#
# 1 67.0308 32.5630 34.7861 0.0000 0.0000 0.0000
# 2 32.5630 65.0758 41.1049 0.0000 0.0000 0.0000
# 3 34.7861 41.1049 113.4276 0.0000 0.0000 0.0000
# 4 0.0000 0.0000 0.0000 13.3189 0.0000 0.0000
# 5 0.0000 0.0000 0.0000 0.0000 27.1061 0.0000
# 6 0.0000 0.0000 0.0000 0.0000 0.0000 19.6686
#
#
#
# Elastic Compliance Matrix: (Units=1/GPa)
#
#
# Indices 1 2 3 4 5 6 
#
# 1 0.020650 -0.008213 -0.003357 0.000000 0.000000 0.000000
# 2 -0.008213 0.023195 -0.005887 0.000000 0.000000 0.000000
# 3 -0.003357 -0.005887 0.011979 0.000000 0.000000 0.000000
# 4 0.000000 0.000000 0.000000 0.075081 0.000000 0.000000
# 5 0.000000 0.000000 0.000000 0.000000 0.036892 0.000000
# 6 0.000000 0.000000 0.000000 0.000000 0.000000 0.050843
#
#
# Mechanical properties :
#
#
# Convention : Reuss Voigt Hill
#
# Bulk Modulus (GPa) = 47.82148 51.38246 49.60197
# Shear Modulus (GPa) = 19.19217 21.15739 20.17478
#
# Velocity S-wave (km/s) = 3.23305 3.39454 3.31478
# Velocity P-wave (km/s) = 6.32311 6.58394 6.45484
#
# Compressibility (1/GPa) = 0.02091111
#
# Stress axis : x y z
#
# Youngs Moduli (GPa) = 48.42551 43.11344 83.47968
#
# Poissons Ratio (x) = 0.35408 0.28023
# Poissons Ratio (y) = 0.39771 0.49142
# Poissons Ratio (z) = 0.16256 0.25380
#
# Static dielectric constant tensor:
#      x y z
#    x 3.430190 0.000000 0.000000 
#    y 0.000000 3.030950 0.000000 
#    z 0.000000 0.000000 3.688300 
# 
# 
# High freq. dielectric constant tensor:
#      x y z
#    x 1.709580 0.000000 0.000000 
#    y 0.000000 1.676180 0.000000 
#    z 0.000000 0.000000 1.735460 
# 
# From -- ./inp_files/29740.got.cif
#   From: 2010.03.12/outbox.cif.g09.slc.cpg/sg59_15_cif.got.tgz:29740.got - 2010.04.16 16:29:54.
