data_PCOD8242592
_publ_section_title
;
Structure prediction by ZEFSAII (Michael W. Deem and Ramdas Pophale) SiO2 
 PCOD8242592
Probable space group: P M M N
;
_chemical_formula_sum "Si O2"
_cell_formula_units_Z 64
_cell_length_a 8.996749
_cell_length_b 19.520199
_cell_length_c 20.245587
_cell_angle_alpha 90.000000
_cell_angle_beta 90.000000
_cell_angle_gamma 90.000000
_cell_volume 3555.496196
_symmetry_space_group_name_H-M "P M M N"
_symmetry_group_IT_number 59
_space_group.IT_coordinate_system_code '2'
_symmetry_cell_setting 'orthorhombic'
loop_
_space_group_symop_operation_xyz
x,y,z
1/2-x,1/2-y,z
1/2+x,-y,-z
-x,1/2+y,-z
-x,-y,-z
1/2+x,1/2+y,-z
1/2-x,y,z
x,1/2-y,z
loop_
_atom_site_type_symbol
_atom_site_label
_atom_site_fract_x
_atom_site_fract_y
_atom_site_fract_z
Si Si1 0.574855 0.170671 0.609493
Si Si2 0.425582 0.828612 0.655049
Si Si3 0.074245 0.936203 0.760631
Si Si4 0.583060 0.831270 0.522830
Si Si5 0.919486 0.085448 0.955947
Si Si6 0.579104 0.327647 0.836402
Si Si7 0.924966 0.589012 0.273432
Si Si8 0.575769 0.453550 0.095009
O O1 0.750000 0.161463 0.604761
O O2 0.532356 0.250000 0.622888
O O3 0.504460 0.142896 0.541554
O O4 0.512280 0.124442 0.667584
O O5 0.250000 0.835953 0.645836
O O6 0.470399 0.750000 0.669699
O O7 0.488103 0.874984 0.714999
O O8 0.500514 0.857262 0.588436
O O9 0.250000 0.930088 0.762891
O O10 0.007804 0.927389 0.835153
O O11 0.028373 0.009443 0.730060
O O12 0.750000 0.861008 0.521290
O O13 0.584162 0.750000 0.523084
O O14 0.750000 0.059010 0.953859
O O15 0.938447 0.155178 0.914420
O O16 0.965331 0.096593 0.033204
O O17 0.018904 0.028834 0.921142
O O18 0.750000 0.338401 0.813753
O O19 0.528895 0.250000 0.825464
O O20 0.471454 0.375914 0.794932
O O21 0.750000 0.598394 0.284308
O O22 0.750000 0.460042 0.105342
#
# Coordination Sequence:
#
# PCOD8242592 Si02
#       8
#     8   8   8   8   8   8   8   8
#     4  10  20  34  52  74 101 133 168 207 248 291
#     4   9  17  32  54  76  98 127 162 200 249 306
#     4   9  18  32  50  74 102 130 162 206 252 295
#     4   9  17  31  52  77 102 128 163 205 246 293
#     4   9  17  29  48  71  93 124 167 207 245 292
#     4  10  20  33  47  68 102 137 169 209 254 299
#     4  11  21  33  49  71 100 134 171 209 248 294
#     4   9  16  30  50  70  95 126 161 204 249 291
#
# _framework density 18.000301
#
# number of rings (size 3 to 8) (size 9 to 14) (size 15 to 20)
#    0.000    2.500    1.250    1.500    0.000    4.000 
#    0.000    3.125    0.000    3.750    0.000    0.000 
#    0.000    3.000    0.000    0.000    0.000    0.000 
#
# Total GULP energy -793324.314078 kJ/mol
# GULP energy per Si atom -12395.692407 kJ/mol
# Density = 1.795933 g / cm^3
# Si number density = 18.000301 Si / 1000 Ang^3
#
#
#
# Elastic Constant Matrix: (Units=GPa)
#
#
# Indices 1 2 3 4 5 6 
#
# 1 48.2537 25.3858 40.5009 0.0000 0.0000 0.0000
# 2 25.3858 77.1579 58.2442 0.0000 0.0000 0.0000
# 3 40.5009 58.2442 168.8348 0.0000 0.0000 0.0000
# 4 0.0000 0.0000 0.0000 30.4226 0.0000 0.0000
# 5 0.0000 0.0000 0.0000 0.0000 24.7640 0.0000
# 6 0.0000 0.0000 0.0000 0.0000 0.0000 15.6566
#
#
#
# Elastic Compliance Matrix: (Units=1/GPa)
#
#
# Indices 1 2 3 4 5 6 
#
# 1 0.027582 -0.005517 -0.004713 0.000000 0.000000 0.000000
# 2 -0.005517 0.018627 -0.005103 0.000000 0.000000 0.000000
# 3 -0.004713 -0.005103 0.008814 0.000000 0.000000 0.000000
# 4 0.000000 0.000000 0.000000 0.032870 0.000000 0.000000
# 5 0.000000 0.000000 0.000000 0.000000 0.040381 0.000000
# 6 0.000000 0.000000 0.000000 0.000000 0.000000 0.063871
#
#
# Mechanical properties :
#
#
# Convention : Reuss Voigt Hill
#
# Bulk Modulus (GPa) = 41.05459 60.27867 50.66663
# Shear Modulus (GPa) = 21.65149 25.50967 23.58058
#
# Velocity S-wave (km/s) = 3.47196 3.76863 3.62333
# Velocity P-wave (km/s) = 6.23939 7.24548 6.76118
#
# Compressibility (1/GPa) = 0.02435781
#
# Stress axis : x y z
#
# Youngs Moduli (GPa) = 36.25524 53.68448 113.45720
#
# Poissons Ratio (x) = 0.29617 0.53476
# Poissons Ratio (y) = 0.20002 0.57893
# Poissons Ratio (z) = 0.17088 0.27393
#
# Static dielectric constant tensor:
#      x y z
#    x 3.270880 0.000000 0.000000 
#    y 0.000000 3.178130 0.000000 
#    z 0.000000 0.000000 3.778380 
# 
# 
# High freq. dielectric constant tensor:
#      x y z
#    x 1.686190 0.000000 0.000000 
#    y 0.000000 1.664650 0.000000 
#    z 0.000000 0.000000 1.714950 
# 
# From -- ./inp_files/29710.got.cif
#   From: 2010.03.12/outbox.cif.g09.slc.cpg/sg59_15_cif.got.tgz:29710.got - 2010.04.16 16:29:54.
