data_PCOD8242858
_publ_section_title
;
Structure prediction by ZEFSAII (Michael W. Deem and Ramdas Pophale) SiO2 
 PCOD8242858
Probable space group: P M M N
;
_chemical_formula_sum "Si O2"
_cell_formula_units_Z 64
_cell_length_a 14.069935
_cell_length_b 8.995289
_cell_length_c 25.352564
_cell_angle_alpha 90.000000
_cell_angle_beta 90.000000
_cell_angle_gamma 90.000000
_cell_volume 3208.699892
_symmetry_space_group_name_H-M "P M M N"
_symmetry_group_IT_number 59
_space_group.IT_coordinate_system_code '2'
_symmetry_cell_setting 'orthorhombic'
loop_
_space_group_symop_operation_xyz
x,y,z
1/2-x,1/2-y,z
1/2+x,-y,-z
-x,1/2+y,-z
-x,-y,-z
1/2+x,1/2+y,-z
1/2-x,y,z
x,1/2-y,z
loop_
_atom_site_type_symbol
_atom_site_label
_atom_site_fract_x
_atom_site_fract_y
_atom_site_fract_z
Si Si1 0.140058 0.074637 0.673626
Si Si2 0.859648 0.075786 0.527998
Si Si3 0.032182 0.924379 0.578379
Si Si4 0.857253 0.921082 0.818299
Si Si5 0.402113 0.075175 0.985600
Si Si6 0.646628 0.409341 0.917901
Si Si7 0.048595 0.578166 0.771826
Si Si8 0.640207 0.918382 0.133751
O O1 0.250000 0.025567 0.668994
O O2 0.129523 0.250000 0.667183
O O3 0.077929 0.994828 0.629674
O O4 0.098956 0.027097 0.729799
O O5 0.750000 0.022197 0.533112
O O6 0.867904 0.250000 0.539505
O O7 0.897326 0.037217 0.469692
O O8 0.926475 0.990387 0.569592
O O9 0.021133 0.750000 0.587003
O O10 0.750000 0.972042 0.801257
O O11 0.854525 0.750000 0.834565
O O12 0.933484 0.946836 0.771116
O O13 0.902363 0.003299 0.869736
O O14 0.401844 0.250000 0.993296
O O15 0.334426 0.003598 0.029296
O O16 0.372111 0.030474 0.926830
O O17 0.500000 0.000000 0.000000
O O18 0.750000 0.373390 0.895555
O O19 0.592648 0.250000 0.928253
O O20 0.073430 0.750000 0.760102
O O21 0.086012 0.534362 0.829436
O O22 0.750000 0.924203 0.149038
O O23 0.601492 0.750000 0.141585
#
# Coordination Sequence:
#
# PCOD8242858 Si02
#       8
#     8   8   8   8   8   8   8   8
#     4  11  24  41  61  84 113 152 195 238 287 344
#     4   9  18  34  57  87 126 168 205 243 290 343
#     4  10  20  35  58  89 123 159 202 250 294 337
#     4   9  19  37  59  81 107 140 177 219 273 338
#     4  11  22  35  52  74 102 136 174 217 268 327
#     4  10  20  33  51  76 103 131 167 211 259 318
#     4  11  23  38  59  85 109 138 181 234 286 333
#     4  10  22  39  56  75 104 143 181 218 269 334
#
# _framework density 19.945774
#
# number of rings (size 3 to 8) (size 9 to 14) (size 15 to 20)
#    0.000    1.875    0.000    3.750    0.000    9.250 
#    0.000    0.625    0.000    2.250    0.000    0.000 
#    0.000    0.000    0.000    0.000    0.000    0.000 
#
# Total GULP energy -793200.956645 kJ/mol
# GULP energy per Si atom -12393.764948 kJ/mol
# Density = 1.990038 g / cm^3
# Si number density = 19.945774 Si / 1000 Ang^3
#
#
#
# Elastic Constant Matrix: (Units=GPa)
#
#
# Indices 1 2 3 4 5 6 
#
# 1 127.8837 42.7045 47.6619 0.0000 0.0000 0.0000
# 2 42.7045 74.3350 34.1278 0.0000 0.0000 0.0000
# 3 47.6619 34.1278 80.1072 0.0000 0.0000 0.0000
# 4 0.0000 0.0000 0.0000 35.6097 0.0000 0.0000
# 5 0.0000 0.0000 0.0000 0.0000 30.2099 0.0000
# 6 0.0000 0.0000 0.0000 0.0000 0.0000 26.9444
#
#
#
# Elastic Compliance Matrix: (Units=1/GPa)
#
#
# Indices 1 2 3 4 5 6 
#
# 1 0.010973 -0.004110 -0.004777 0.000000 0.000000 0.000000
# 2 -0.004110 0.018263 -0.005335 0.000000 0.000000 0.000000
# 3 -0.004777 -0.005335 0.017599 0.000000 0.000000 0.000000
# 4 0.000000 0.000000 0.000000 0.028082 0.000000 0.000000
# 5 0.000000 0.000000 0.000000 0.000000 0.033102 0.000000
# 6 0.000000 0.000000 0.000000 0.000000 0.000000 0.037114
#
#
# Mechanical properties :
#
#
# Convention : Reuss Voigt Hill
#
# Bulk Modulus (GPa) = 54.38043 59.03493 56.70768
# Shear Modulus (GPa) = 27.82300 29.07490 28.44895
#
# Velocity S-wave (km/s) = 3.73893 3.82212 3.78076
# Velocity P-wave (km/s) = 6.77959 7.01000 6.89576
#
# Compressibility (1/GPa) = 0.01838897
#
# Stress axis : x y z
#
# Youngs Moduli (GPa) = 91.13533 54.75447 56.82267
#
# Poissons Ratio (x) = 0.22506 0.27146
# Poissons Ratio (y) = 0.37460 0.30316
# Poissons Ratio (z) = 0.43539 0.29212
#
# Static dielectric constant tensor:
#      x y z
#    x 3.856460 0.000000 0.000000 
#    y 0.000000 3.700790 0.000000 
#    z 0.000000 0.000000 3.204670 
# 
# 
# High freq. dielectric constant tensor:
#      x y z
#    x 1.793830 0.000000 0.000000 
#    y 0.000000 1.784130 0.000000 
#    z 0.000000 0.000000 1.757730 
# 
# From -- ./inp_files/32113.got.cif
#   From: 2010.03.12/outbox.cif.g09.slc.cpg/sg59_17_cif.got.tgz:32113.got - 2010.04.16 16:29:54.
