data_PCOD8242755
_publ_section_title
;
Structure prediction by ZEFSAII (Michael W. Deem and Ramdas Pophale) SiO2 
 PCOD8242755
Probable space group: P M M N
;
_chemical_formula_sum "Si O2"
_cell_formula_units_Z 48
_cell_length_a 14.259186
_cell_length_b 9.148267
_cell_length_c 21.196636
_cell_angle_alpha 90.000000
_cell_angle_beta 90.000000
_cell_angle_gamma 90.000000
_cell_volume 2765.034200
_symmetry_space_group_name_H-M "P M M N"
_symmetry_group_IT_number 59
_space_group.IT_coordinate_system_code '2'
_symmetry_cell_setting 'orthorhombic'
loop_
_space_group_symop_operation_xyz
x,y,z
1/2-x,1/2-y,z
1/2+x,-y,-z
-x,1/2+y,-z
-x,-y,-z
1/2+x,1/2+y,-z
1/2-x,y,z
x,1/2-y,z
loop_
_atom_site_type_symbol
_atom_site_label
_atom_site_fract_x
_atom_site_fract_y
_atom_site_fract_z
Si Si1 0.854015 0.923284 0.168977
Si Si2 0.501048 0.077562 0.728645
Si Si3 0.142352 0.419935 0.506106
Si Si4 0.490359 0.921130 0.596792
Si Si5 0.500522 0.576960 0.066562
Si Si6 0.353691 0.923154 0.167705
O O1 0.750000 0.993097 0.169621
O O2 0.848942 0.750000 0.167634
O O3 0.908694 0.970370 0.232284
O O4 0.908526 0.975370 0.106223
O O5 0.500636 0.250000 0.714508
O O6 0.591792 0.029879 0.769115
O O7 0.505283 0.989478 0.664647
O O8 0.250000 0.465614 0.494269
O O9 0.133633 0.250000 0.523474
O O10 0.101729 0.510360 0.564738
O O11 0.083449 0.457505 0.443467
O O12 0.473443 0.750000 0.603356
O O13 0.501174 0.750000 0.056674
O O14 0.408707 0.525131 0.105218
O O15 0.500000 0.500000 0.000000
O O16 0.250000 0.993980 0.167983
O O17 0.347886 0.750000 0.166379
#
# Coordination Sequence:
#
# PCOD8242755 Si02
#       6
#     8   8   8   8   8   8
#     4   8  15  29  47  65  87 118 155 189 219 262
#     4   9  17  30  49  70  90 119 159 193 225 274
#     4   9  19  36  54  70  93 129 167 195 225 277
#     4  10  20  33  50  74 102 126 152 195 245 283
#     4   9  17  29  46  67  90 117 150 188 230 274
#     4   8  15  29  47  66  90 121 157 194 229 272
#
# _framework density 17.359639999999999
#
# number of rings (size 3 to 8) (size 9 to 14) (size 15 to 20)
#    0.000    3.167    0.000    2.500    0.000    3.000 
#    0.000    5.000    0.000    2.000    0.000    0.000 
#    0.000    0.000    0.000    0.000    0.000    0.000 
#
# Total GULP energy -595029.734258 kJ/mol
# GULP energy per Si atom -12396.452797 kJ/mol
# Density = 1.732013 g / cm^3
# Si number density = 17.359640 Si / 1000 Ang^3
#
#
#
# Elastic Constant Matrix: (Units=GPa)
#
#
# Indices 1 2 3 4 5 6 
#
# 1 171.6544 36.2563 80.7458 0.0000 0.0000 0.0000
# 2 36.2563 42.1754 49.4555 0.0000 0.0000 0.0000
# 3 80.7458 49.4555 164.0731 0.0000 0.0000 0.0000
# 4 0.0000 0.0000 0.0000 36.1753 0.0000 0.0000
# 5 0.0000 0.0000 0.0000 0.0000 14.2774 0.0000
# 6 0.0000 0.0000 0.0000 0.0000 0.0000 15.1092
#
#
#
# Elastic Compliance Matrix: (Units=1/GPa)
#
#
# Indices 1 2 3 4 5 6 
#
# 1 0.007892 -0.003449 -0.002844 0.000000 0.000000 0.000000
# 2 -0.003449 0.038180 -0.009811 0.000000 0.000000 0.000000
# 3 -0.002844 -0.009811 0.010452 0.000000 0.000000 0.000000
# 4 0.000000 0.000000 0.000000 0.027643 0.000000 0.000000
# 5 0.000000 0.000000 0.000000 0.000000 0.070041 0.000000
# 6 0.000000 0.000000 0.000000 0.000000 0.000000 0.066185
#
#
# Mechanical properties :
#
#
# Convention : Reuss Voigt Hill
#
# Bulk Modulus (GPa) = 41.12657 78.97978 60.05318
# Shear Modulus (GPa) = 19.17866 27.20875 23.19370
#
# Velocity S-wave (km/s) = 3.32744 3.96328 3.65920
# Velocity P-wave (km/s) = 6.20522 8.15711 7.24718
#
# Compressibility (1/GPa) = 0.02431518
#
# Stress axis : x y z
#
# Youngs Moduli (GPa) = 126.70806 26.19169 95.67686
#
# Poissons Ratio (x) = 0.09034 0.27213
# Poissons Ratio (y) = 0.43705 0.93867
# Poissons Ratio (z) = 0.36040 0.25696
#
# Static dielectric constant tensor:
#      x y z
#    x 3.885220 0.000000 0.000000 
#    y 0.000000 2.873750 0.000000 
#    z 0.000000 0.000000 3.180070 
# 
# 
# High freq. dielectric constant tensor:
#      x y z
#    x 1.678960 0.000000 0.000000 
#    y 0.000000 1.634940 0.000000 
#    z 0.000000 0.000000 1.674030 
# 
# From -- ./inp_files/28820.got.cif
#   From: 2010.03.12/outbox.cif.g09.slc.cpg/sg59_15_cif.got.tgz:28820.got - 2010.04.16 16:29:54.
