data_PCOD8242896
_publ_section_title
;
Structure prediction by ZEFSAII (Michael W. Deem and Ramdas Pophale) SiO2 
 PCOD8242896
Probable space group: P M M N
;
_chemical_formula_sum "Si O2"
_cell_formula_units_Z 64
_cell_length_a 27.525375
_cell_length_b 13.749020
_cell_length_c 9.889334
_cell_angle_alpha 90.000000
_cell_angle_beta 90.000000
_cell_angle_gamma 90.000000
_cell_volume 3742.588106
_symmetry_space_group_name_H-M "P M M N"
_symmetry_group_IT_number 59
_space_group.IT_coordinate_system_code '2'
_symmetry_cell_setting 'orthorhombic'
loop_
_space_group_symop_operation_xyz
x,y,z
1/2-x,1/2-y,z
1/2+x,-y,-z
-x,1/2+y,-z
-x,-y,-z
1/2+x,1/2+y,-z
1/2-x,y,z
x,1/2-y,z
loop_
_atom_site_type_symbol
_atom_site_label
_atom_site_fract_x
_atom_site_fract_y
_atom_site_fract_z
Si Si1 0.195558 0.638715 0.979174
Si Si2 0.553574 0.639896 0.715199
Si Si3 0.550807 0.362168 0.859571
Si Si4 0.598583 0.047186 0.611786
Si Si5 0.304651 0.863029 0.295081
Si Si6 0.556042 0.137822 0.352203
Si Si7 0.445783 0.138831 0.966885
Si Si8 0.604188 0.455464 0.098378
O O1 0.250000 0.620067 0.927831
O O2 0.180223 0.750000 0.952874
O O3 0.191185 0.614459 0.136951
O O4 0.161409 0.567791 0.890770
O O5 0.572382 0.750000 0.693121
O O6 0.591872 0.566950 0.646082
O O7 0.501835 0.624839 0.643095
O O8 0.548364 0.617431 0.874259
O O9 0.560423 0.250000 0.887235
O O10 0.563164 0.388062 0.705338
O O11 0.495677 0.389956 0.893043
O O12 0.587694 0.421773 0.950613
O O13 0.655506 0.073040 0.626394
O O14 0.582086 0.068407 0.459702
O O15 0.250000 0.889693 0.345265
O O16 0.315352 0.750000 0.323585
O O17 0.570423 0.250000 0.377081
O O18 0.574160 0.105164 0.206248
O O19 0.431090 0.250000 0.939208
O O20 0.404852 0.071570 0.896429
#
# Coordination Sequence:
#
# PCOD8242896 Si02
#       8
#     8   8   8   8   8   8   8   8
#     4   9  17  29  49  77 100 122 163 215 260 303
#     4  10  20  35  51  73 104 137 171 212 254 291
#     4  11  19  29  51  75  97 127 170 207 242 300
#     4  12  21  34  51  75 102 140 174 204 249 304
#     4   9  17  30  50  75 101 127 163 213 259 300
#     4  11  23  34  48  75 111 137 164 206 254 306
#     4  10  20  33  51  77 102 129 174 219 248 289
#     4  12  19  33  53  72  98 138 169 202 257 301
#
# _framework density 17.100465
#
# number of rings (size 3 to 8) (size 9 to 14) (size 15 to 20)
#    0.000    1.500    3.750    4.500    0.000    0.000 
#    0.000    2.500    0.000    3.000    0.000    3.500 
#    0.000    2.000    0.000    0.000    0.000    0.000 
#
# Total GULP energy -793653.059106 kJ/mol
# GULP energy per Si atom -12400.829049 kJ/mol
# Density = 1.706154 g / cm^3
# Si number density = 17.100465 Si / 1000 Ang^3
#
#
#
# Elastic Constant Matrix: (Units=GPa)
#
#
# Indices 1 2 3 4 5 6 
#
# 1 104.4822 61.6210 20.1817 0.0000 0.0000 0.0000
# 2 61.6210 90.1767 19.4041 0.0000 0.0000 0.0000
# 3 20.1817 19.4041 33.6515 0.0000 0.0000 0.0000
# 4 0.0000 0.0000 0.0000 22.3140 0.0000 0.0000
# 5 0.0000 0.0000 0.0000 0.0000 13.2260 0.0000
# 6 0.0000 0.0000 0.0000 0.0000 0.0000 29.8155
#
#
#
# Elastic Compliance Matrix: (Units=1/GPa)
#
#
# Indices 1 2 3 4 5 6 
#
# 1 0.016461 -0.010417 -0.003866 0.000000 0.000000 0.000000
# 2 -0.010417 0.019252 -0.004854 0.000000 0.000000 0.000000
# 3 -0.003866 -0.004854 0.034834 0.000000 0.000000 0.000000
# 4 0.000000 0.000000 0.000000 0.044815 0.000000 0.000000
# 5 0.000000 0.000000 0.000000 0.000000 0.075609 0.000000
# 6 0.000000 0.000000 0.000000 0.000000 0.000000 0.033540
#
#
# Mechanical properties :
#
#
# Convention : Reuss Voigt Hill
#
# Bulk Modulus (GPa) = 30.98464 47.85824 39.42144
# Shear Modulus (GPa) = 18.27883 21.54468 19.91176
#
# Velocity S-wave (km/s) = 3.27296 3.55334 3.41603
# Velocity P-wave (km/s) = 5.69575 6.69942 6.21787
#
# Compressibility (1/GPa) = 0.03227405
#
# Stress axis : x y z
#
# Youngs Moduli (GPa) = 60.74875 51.94293 28.70797
#
# Poissons Ratio (x) = 0.54108 0.11098
# Poissons Ratio (y) = 0.63280 0.13934
# Poissons Ratio (z) = 0.23484 0.25212
#
# Static dielectric constant tensor:
#      x y z
#    x 3.233770 0.000000 0.000000 
#    y 0.000000 3.272920 0.000000 
#    z 0.000000 0.000000 2.979300 
# 
# 
# High freq. dielectric constant tensor:
#      x y z
#    x 1.644790 0.000000 0.000000 
#    y 0.000000 1.655170 0.000000 
#    z 0.000000 0.000000 1.641870 
# 
# From -- ./inp_files/12220.got.cif
#   From: 2010.03.12/outbox.cif.g09.slc.cpg/sg59_7_cif.got.tgz:12220.got - 2010.04.16 16:29:54.
