data_PCOD8242199
_publ_section_title
;
Structure prediction by ZEFSAII (Michael W. Deem and Ramdas Pophale) SiO2 
 PCOD8242199
Probable space group: P M M N
;
_chemical_formula_sum "Si O2"
_cell_formula_units_Z 48
_cell_length_a 9.536128
_cell_length_b 9.221188
_cell_length_c 29.195176
_cell_angle_alpha 90.000000
_cell_angle_beta 90.000000
_cell_angle_gamma 90.000000
_cell_volume 2567.261133
_symmetry_space_group_name_H-M "P M M N"
_symmetry_group_IT_number 59
_space_group.IT_coordinate_system_code '2'
_symmetry_cell_setting 'orthorhombic'
loop_
_space_group_symop_operation_xyz
x,y,z
1/2-x,1/2-y,z
1/2+x,-y,-z
-x,1/2+y,-z
-x,-y,-z
1/2+x,1/2+y,-z
1/2-x,y,z
x,1/2-y,z
loop_
_atom_site_type_symbol
_atom_site_label
_atom_site_fract_x
_atom_site_fract_y
_atom_site_fract_z
Si Si1 0.014971 0.581625 0.104890
Si Si2 0.588178 0.412982 0.795350
Si Si3 0.086722 0.919994 0.461059
Si Si4 0.250000 0.419155 0.951639
Si Si5 0.413472 0.080852 0.629398
Si Si6 0.088918 0.421186 0.294838
Si Si7 0.750000 0.578846 0.946566
O O1 0.056273 0.750000 0.096830
O O2 0.998646 0.552209 0.159229
O O3 0.120700 0.473301 0.082244
O O4 0.877270 0.532174 0.079277
O O5 0.750000 0.428996 0.809571
O O6 0.557155 0.250000 0.777523
O O7 0.547184 0.525076 0.755704
O O8 0.250000 0.971932 0.459029
O O9 0.080200 0.750000 0.471167
O O10 0.007342 0.959571 0.414353
O O11 0.000000 0.000000 0.500000
O O12 0.250000 0.250000 0.960088
O O13 0.250000 0.491565 0.002181
O O14 0.250000 0.037938 0.621354
O O15 0.426105 0.250000 0.640978
O O16 0.478210 0.991125 0.670842
O O17 0.250000 0.467685 0.306361
O O18 0.072043 0.250000 0.296944
O O19 0.750000 0.750000 0.949331
#
# Coordination Sequence:
#
# PCOD8242199 Si02
#       7
#     8   8   8   4   8   8   4
#     4  10  19  36  57  78 105 141 182 224 268 324
#     4   9  17  32  55  80 102 135 184 228 268 321
#     4  10  21  37  59  87 118 154 195 239 285 330
#     4   9  20  35  53  79 109 139 177 225 272 323
#     4  10  21  38  59  83 112 149 193 236 277 327
#     4  10  21  36  56  82 111 143 178 224 282 336
#     4  11  21  33  53  81 109 141 179 221 272 325
#
# _framework density 18.696967999999998
#
# number of rings (size 3 to 8) (size 9 to 14) (size 15 to 20)
#    0.000    2.167    0.833    2.250    0.000    4.333 
#    1.500    1.250    0.000    0.000    0.000    0.000 
#    0.000    0.000    0.000    0.000    0.000    0.000 
#
# Total GULP energy -595037.361693 kJ/mol
# GULP energy per Si atom -12396.611702 kJ/mol
# Density = 1.865441 g / cm^3
# Si number density = 18.696968 Si / 1000 Ang^3
#
#
#
# Elastic Constant Matrix: (Units=GPa)
#
#
# Indices 1 2 3 4 5 6 
#
# 1 129.4491 47.7955 67.0877 0.0000 0.0000 0.0000
# 2 47.7955 56.3112 52.9510 0.0000 0.0000 0.0000
# 3 67.0877 52.9510 130.9606 0.0000 0.0000 0.0000
# 4 0.0000 0.0000 0.0000 31.8128 0.0000 0.0000
# 5 0.0000 0.0000 0.0000 0.0000 13.1529 0.0000
# 6 0.0000 0.0000 0.0000 0.0000 0.0000 27.5553
#
#
#
# Elastic Compliance Matrix: (Units=1/GPa)
#
#
# Indices 1 2 3 4 5 6 
#
# 1 0.012071 -0.007149 -0.003293 0.000000 0.000000 0.000000
# 2 -0.007149 0.032886 -0.009634 0.000000 0.000000 0.000000
# 3 -0.003293 -0.009634 0.013218 0.000000 0.000000 0.000000
# 4 0.000000 0.000000 0.000000 0.031434 0.000000 0.000000
# 5 0.000000 0.000000 0.000000 0.000000 0.076029 0.000000
# 6 0.000000 0.000000 0.000000 0.000000 0.000000 0.036291
#
#
# Mechanical properties :
#
#
# Convention : Reuss Voigt Hill
#
# Bulk Modulus (GPa) = 55.48727 72.48770 63.98748
# Shear Modulus (GPa) = 20.15397 24.42998 22.29197
#
# Velocity S-wave (km/s) = 3.28674 3.61865 3.45668
# Velocity P-wave (km/s) = 6.64418 7.50423 7.08726
#
# Compressibility (1/GPa) = 0.01802215
#
# Stress axis : x y z
#
# Youngs Moduli (GPa) = 82.84018 30.40812 75.65222
#
# Poissons Ratio (x) = 0.21739 0.24914
# Poissons Ratio (y) = 0.59224 0.72886
# Poissons Ratio (z) = 0.27282 0.29296
#
# Static dielectric constant tensor:
#      x y z
#    x 3.415540 0.000000 0.000000 
#    y 0.000000 3.295230 0.000000 
#    z 0.000000 0.000000 3.571870 
# 
# 
# High freq. dielectric constant tensor:
#      x y z
#    x 1.724420 0.000000 0.000000 
#    y 0.000000 1.712510 0.000000 
#    z 0.000000 0.000000 1.739130 
# 
# From -- ./inp_files/33083.got.cif
#   From: 2010.03.12/outbox.cif.g09.slc.cpg/sg59_17_cif.got.tgz:33083.got - 2010.04.16 16:29:54.
