data_PCOD8242638
_publ_section_title
;
Structure prediction by ZEFSAII (Michael W. Deem and Ramdas Pophale) SiO2 
 PCOD8242638
Probable space group: P M M N
;
_chemical_formula_sum "Si O2"
_cell_formula_units_Z 64
_cell_length_a 8.949514
_cell_length_b 18.420462
_cell_length_c 20.483358
_cell_angle_alpha 90.000000
_cell_angle_beta 90.000000
_cell_angle_gamma 90.000000
_cell_volume 3376.767239
_symmetry_space_group_name_H-M "P M M N"
_symmetry_group_IT_number 59
_space_group.IT_coordinate_system_code '2'
_symmetry_cell_setting 'orthorhombic'
loop_
_space_group_symop_operation_xyz
x,y,z
1/2-x,1/2-y,z
1/2+x,-y,-z
-x,1/2+y,-z
-x,-y,-z
1/2+x,1/2+y,-z
1/2-x,y,z
x,1/2-y,z
loop_
_atom_site_type_symbol
_atom_site_label
_atom_site_fract_x
_atom_site_fract_y
_atom_site_fract_z
Si Si1 0.424649 0.552235 0.403430
Si Si2 0.081552 0.335507 0.238295
Si Si3 0.576591 0.600524 0.529481
Si Si4 0.926328 0.334271 0.849078
Si Si5 0.420390 0.079481 0.734047
Si Si6 0.076778 0.965019 0.062503
Si Si7 0.082020 0.951369 0.830100
Si Si8 0.587009 0.167443 0.362561
O O1 0.250000 0.570266 0.403447
O O2 0.507259 0.600007 0.457720
O O3 0.455368 0.469666 0.425162
O O4 0.490268 0.573734 0.333454
O O5 0.250000 0.364475 0.229685
O O6 0.074844 0.250000 0.229508
O O7 0.970785 0.369866 0.185083
O O8 0.025115 0.364351 0.308428
O O9 0.750000 0.617504 0.522589
O O10 0.491315 0.664219 0.567135
O O11 0.750000 0.343088 0.837490
O O12 0.969315 0.250000 0.862897
O O13 0.974959 0.384051 0.912243
O O14 0.007440 0.361490 0.783222
O O15 0.250000 0.103724 0.720273
O O16 0.424021 0.999845 0.765286
O O17 0.250000 0.963650 0.046856
O O18 0.039469 0.019527 0.120104
O O19 0.000000 0.000000 0.000000
O O20 0.250000 0.950158 0.859517
O O21 0.750000 0.127576 0.361844
O O22 0.615373 0.250000 0.344425
#
# Coordination Sequence:
#
# PCOD8242638 Si02
#       8
#     8   8   8   8   8   8   8   8
#     4  10  20  33  50  72  99 131 167 211 264 318
#     4  10  20  33  50  74 104 137 175 219 264 309
#     4  10  20  33  50  71  96 128 168 216 267 316
#     4   9  19  37  60  84 110 142 180 221 266 317
#     4  10  20  33  52  79 107 135 172 218 266 316
#     4  10  20  36  59  85 114 146 181 220 261 310
#     4  10  20  34  54  79 107 140 176 214 258 309
#     4  10  20  33  49  69  95 129 167 206 252 308
#
# _framework density 18.953039
#
# number of rings (size 3 to 8) (size 9 to 14) (size 15 to 20)
#    0.000    2.125    0.000    3.375    0.000    7.250 
#    0.000    1.250    0.000    6.000    0.000    0.000 
#    0.000    0.000    0.000    0.000    0.000    0.000 
#
# Total GULP energy -793192.755749 kJ/mol
# GULP energy per Si atom -12393.636809 kJ/mol
# Density = 1.890990 g / cm^3
# Si number density = 18.953039 Si / 1000 Ang^3
#
#
#
# Elastic Constant Matrix: (Units=GPa)
#
#
# Indices 1 2 3 4 5 6 
#
# 1 106.4200 44.7867 45.3775 0.0000 0.0000 0.0000
# 2 44.7867 60.5263 51.1211 0.0000 0.0000 0.0000
# 3 45.3775 51.1211 97.8118 0.0000 0.0000 0.0000
# 4 0.0000 0.0000 0.0000 24.8798 0.0000 0.0000
# 5 0.0000 0.0000 0.0000 0.0000 39.0228 0.0000
# 6 0.0000 0.0000 0.0000 0.0000 0.0000 25.7071
#
#
#
# Elastic Compliance Matrix: (Units=1/GPa)
#
#
# Indices 1 2 3 4 5 6 
#
# 1 0.013843 -0.008628 -0.001913 0.000000 0.000000 0.000000
# 2 -0.008628 0.034956 -0.014267 0.000000 0.000000 0.000000
# 3 -0.001913 -0.014267 0.018568 0.000000 0.000000 0.000000
# 4 0.000000 0.000000 0.000000 0.040193 0.000000 0.000000
# 5 0.000000 0.000000 0.000000 0.000000 0.025626 0.000000
# 6 0.000000 0.000000 0.000000 0.000000 0.000000 0.038900
#
#
# Mechanical properties :
#
#
# Convention : Reuss Voigt Hill
#
# Bulk Modulus (GPa) = 56.33290 60.81430 58.57360
# Shear Modulus (GPa) = 21.96654 26.15347 24.06001
#
# Velocity S-wave (km/s) = 3.40810 3.71874 3.56680
# Velocity P-wave (km/s) = 6.72858 7.11303 6.92347
#
# Compressibility (1/GPa) = 0.01775162
#
# Stress axis : x y z
#
# Youngs Moduli (GPa) = 72.23653 28.60752 53.85649
#
# Poissons Ratio (x) = 0.24682 0.10303
# Poissons Ratio (y) = 0.62323 0.76837
# Poissons Ratio (z) = 0.13820 0.40814
#
# Static dielectric constant tensor:
#      x y z
#    x 3.624540 0.000000 0.000000 
#    y 0.000000 3.376260 0.000000 
#    z 0.000000 0.000000 3.544010 
# 
# 
# High freq. dielectric constant tensor:
#      x y z
#    x 1.754110 0.000000 0.000000 
#    y 0.000000 1.717070 0.000000 
#    z 0.000000 0.000000 1.727080 
# 
# From -- ./inp_files/29535.got.cif
#   From: 2010.03.12/outbox.cif.g09.slc.cpg/sg59_15_cif.got.tgz:29535.got - 2010.04.16 16:29:54.
