data_PCOD8242122
_publ_section_title
;
Structure prediction by ZEFSAII (Michael W. Deem and Ramdas Pophale) SiO2 
 PCOD8242122
Probable space group: P M M N
;
_chemical_formula_sum "Si O2"
_cell_formula_units_Z 48
_cell_length_a 8.747161
_cell_length_b 15.497812
_cell_length_c 19.493194
_cell_angle_alpha 90.000000
_cell_angle_beta 90.000000
_cell_angle_gamma 90.000000
_cell_volume 2642.533572
_symmetry_space_group_name_H-M "P M M N"
_symmetry_group_IT_number 59
_space_group.IT_coordinate_system_code '2'
_symmetry_cell_setting 'orthorhombic'
loop_
_space_group_symop_operation_xyz
x,y,z
1/2-x,1/2-y,z
1/2+x,-y,-z
-x,1/2+y,-z
-x,-y,-z
1/2+x,1/2+y,-z
1/2-x,y,z
x,1/2-y,z
loop_
_atom_site_type_symbol
_atom_site_label
_atom_site_fract_x
_atom_site_fract_y
_atom_site_fract_z
Si Si1 0.069966 0.347009 0.570201
Si Si2 0.429281 0.847097 0.574428
Si Si3 0.915289 0.750000 0.046400
Si Si4 0.581467 0.750000 0.207665
Si Si5 0.066345 0.434467 0.946079
Si Si6 0.930924 0.501957 0.329923
Si Si7 0.069626 0.927510 0.201105
O O1 0.250000 0.351277 0.563616
O O2 0.015755 0.250000 0.591029
O O3 0.012281 0.415716 0.626019
O O4 0.004634 0.374343 0.496845
O O5 0.250000 0.853729 0.563029
O O6 0.478303 0.750000 0.596234
O O7 0.481859 0.913655 0.632993
O O8 0.750000 0.750000 0.009769
O O9 0.891932 0.750000 0.127415
O O10 0.998706 0.840199 0.028574
O O11 0.750000 0.750000 0.244026
O O12 0.488932 0.664922 0.228926
O O13 0.250000 0.435002 0.944944
O O14 0.006116 0.455968 0.870526
O O15 0.000000 0.500000 0.000000
O O16 0.750000 0.505148 0.316866
O O17 0.018922 0.502416 0.257436
O O18 0.250000 0.925294 0.191197
#
# Coordination Sequence:
#
# PCOD8242122 Si02
#       7
#     8   8   4   4   8   8   8
#     4   9  18  31  48  73 101 132 170 210 261 325
#     4   9  18  33  52  72  96 131 176 225 270 313
#     4   7  14  29  51  77 103 135 168 199 250 309
#     4   9  17  33  53  73 105 143 170 203 258 317
#     4  10  19  35  58  82 110 145 180 219 266 318
#     4  10  20  33  50  72 102 139 175 214 269 323
#     4  11  22  34  51  80 110 139 179 220 263 319
#
# _framework density 18.164386
#
# number of rings (size 3 to 8) (size 9 to 14) (size 15 to 20)
#    0.000    2.500    0.000    3.750    1.167    1.333 
#    0.000    1.250    1.833    0.000    0.000    0.000 
#    0.000    0.000    0.000    0.000    0.000    0.000 
#
# Total GULP energy -594963.225363 kJ/mol
# GULP energy per Si atom -12395.067195 kJ/mol
# Density = 1.812304 g / cm^3
# Si number density = 18.164386 Si / 1000 Ang^3
#
#
#
# Elastic Constant Matrix: (Units=GPa)
#
#
# Indices 1 2 3 4 5 6 
#
# 1 66.6848 34.7900 36.6577 0.0000 0.0000 0.0000
# 2 34.7900 120.9784 75.7173 0.0000 0.0000 0.0000
# 3 36.6577 75.7173 110.1711 0.0000 0.0000 0.0000
# 4 0.0000 0.0000 0.0000 30.1141 0.0000 0.0000
# 5 0.0000 0.0000 0.0000 0.0000 29.8501 0.0000
# 6 0.0000 0.0000 0.0000 0.0000 0.0000 20.3307
#
#
#
# Elastic Compliance Matrix: (Units=1/GPa)
#
#
# Indices 1 2 3 4 5 6 
#
# 1 0.018814 -0.002619 -0.004460 0.000000 0.000000 0.000000
# 2 -0.002619 0.014870 -0.009348 0.000000 0.000000 0.000000
# 3 -0.004460 -0.009348 0.016986 0.000000 0.000000 0.000000
# 4 0.000000 0.000000 0.000000 0.033207 0.000000 0.000000
# 5 0.000000 0.000000 0.000000 0.000000 0.033501 0.000000
# 6 0.000000 0.000000 0.000000 0.000000 0.000000 0.049187
#
#
# Mechanical properties :
#
#
# Convention : Reuss Voigt Hill
#
# Bulk Modulus (GPa) = 56.13270 65.79604 60.96437
# Shear Modulus (GPa) = 24.34785 26.10360 25.22572
#
# Velocity S-wave (km/s) = 3.66514 3.79499 3.73063
# Velocity P-wave (km/s) = 6.99148 7.45009 7.22442
#
# Compressibility (1/GPa) = 0.01781493
#
# Stress axis : x y z
#
# Youngs Moduli (GPa) = 53.15170 67.25005 58.87332
#
# Poissons Ratio (x) = 0.17612 0.26259
# Poissons Ratio (y) = 0.13920 0.55036
# Poissons Ratio (z) = 0.23707 0.62867
#
# Static dielectric constant tensor:
#      x y z
#    x 3.261820 0.000000 0.000000 
#    y 0.000000 3.889470 0.000000 
#    z 0.000000 0.000000 3.203300 
# 
# 
# High freq. dielectric constant tensor:
#      x y z
#    x 1.694140 0.000000 0.000000 
#    y 0.000000 1.705320 0.000000 
#    z 0.000000 0.000000 1.686870 
# 
# From -- ./inp_files/25577.got.cif
#   From: 2010.03.12/outbox.cif.g09.slc.cpg/sg59_13_cif.got.tgz:25577.got - 2010.04.16 16:29:54.
