data_PCOD8242482
_publ_section_title
;
Structure prediction by ZEFSAII (Michael W. Deem and Ramdas Pophale) SiO2 
 PCOD8242482
Probable space group: P M M N
;
_chemical_formula_sum "Si O2"
_cell_formula_units_Z 64
_cell_length_a 8.884996
_cell_length_b 18.760416
_cell_length_c 21.241617
_cell_angle_alpha 90.000000
_cell_angle_beta 90.000000
_cell_angle_gamma 90.000000
_cell_volume 3540.684868
_symmetry_space_group_name_H-M "P M M N"
_symmetry_group_IT_number 59
_space_group.IT_coordinate_system_code '2'
_symmetry_cell_setting 'orthorhombic'
loop_
_space_group_symop_operation_xyz
x,y,z
1/2-x,1/2-y,z
1/2+x,-y,-z
-x,1/2+y,-z
-x,-y,-z
1/2+x,1/2+y,-z
1/2-x,y,z
x,1/2-y,z
loop_
_atom_site_type_symbol
_atom_site_label
_atom_site_fract_x
_atom_site_fract_y
_atom_site_fract_z
Si Si1 0.926139 0.168287 0.967841
Si Si2 0.575937 0.906938 0.146539
Si Si3 0.915161 0.134644 0.736410
Si Si4 0.417422 0.022900 0.315479
Si Si5 0.923626 0.833414 0.902073
Si Si6 0.926064 0.436081 0.194982
Si Si7 0.425103 0.671775 0.398024
Si Si8 0.571758 0.970205 0.437240
O O1 0.750000 0.158688 0.979148
O O2 0.967188 0.250000 0.950861
O O3 0.978316 0.116128 0.912840
O O4 0.010165 0.143593 0.030787
O O5 0.750000 0.894926 0.131340
O O6 0.531836 0.857360 0.206239
O O7 0.536697 0.988747 0.161639
O O8 0.750000 0.160570 0.759479
O O9 0.969347 0.179189 0.675822
O O10 0.904911 0.053962 0.714590
O O11 0.250000 0.053074 0.329929
O O12 0.499754 0.072245 0.264037
O O13 0.512379 0.018381 0.379683
O O14 0.750000 0.855774 0.900106
O O15 0.946974 0.750000 0.890714
O O16 0.011878 0.872991 0.847356
O O17 0.750000 0.427041 0.204441
O O18 0.250000 0.648592 0.403632
O O19 0.452452 0.750000 0.428713
O O20 0.526563 0.612936 0.431877
O O21 0.750000 0.976418 0.439942
O O22 0.500000 0.000000 0.500000
#
# Coordination Sequence:
#
# PCOD8242482 Si02
#       8
#     8   8   8   8   8   8   8   8
#     4  10  21  36  52  69  93 129 171 214 261 313
#     4  10  20  32  48  73 103 134 169 209 253 302
#     4   8  15  28  46  69  98 132 166 200 242 293
#     4   9  17  32  53  77 104 132 165 206 251 296
#     4  10  21  37  56  76  98 128 168 213 263 317
#     4  10  20  34  54  80 106 133 167 209 257 307
#     4   9  18  33  52  75 105 140 178 219 261 306
#     4  11  21  34  54  80 110 144 182 218 257 308
#
# _framework density 18.075600000000001
#
# number of rings (size 3 to 8) (size 9 to 14) (size 15 to 20)
#    0.000    2.375    0.000    3.750    0.000    7.250 
#    0.000    1.250    0.000    0.750    0.000    0.000 
#    0.000    0.000    0.000    0.000    0.000    0.000 
#
# Total GULP energy -793505.651240 kJ/mol
# GULP energy per Si atom -12398.525801 kJ/mol
# Density = 1.803446 g / cm^3
# Si number density = 18.075600 Si / 1000 Ang^3
#
#
#
# Elastic Constant Matrix: (Units=GPa)
#
#
# Indices 1 2 3 4 5 6 
#
# 1 107.5468 37.3293 55.7029 0.0000 0.0000 0.0000
# 2 37.3293 50.4286 45.6970 0.0000 0.0000 0.0000
# 3 55.7029 45.6970 119.6596 0.0000 0.0000 0.0000
# 4 0.0000 0.0000 0.0000 14.5603 0.0000 0.0000
# 5 0.0000 0.0000 0.0000 0.0000 36.7296 0.0000
# 6 0.0000 0.0000 0.0000 0.0000 0.0000 24.2778
#
#
#
# Elastic Compliance Matrix: (Units=1/GPa)
#
#
# Indices 1 2 3 4 5 6 
#
# 1 0.013550 -0.006598 -0.003788 0.000000 0.000000 0.000000
# 2 -0.006598 0.033536 -0.009736 0.000000 0.000000 0.000000
# 3 -0.003788 -0.009736 0.013839 0.000000 0.000000 0.000000
# 4 0.000000 0.000000 0.000000 0.068680 0.000000 0.000000
# 5 0.000000 0.000000 0.000000 0.000000 0.027226 0.000000
# 6 0.000000 0.000000 0.000000 0.000000 0.000000 0.041190
#
#
# Mechanical properties :
#
#
# Convention : Reuss Voigt Hill
#
# Bulk Modulus (GPa) = 48.35234 61.67703 55.01468
# Shear Modulus (GPa) = 20.39493 24.37393 22.38443
#
# Velocity S-wave (km/s) = 3.36268 3.67610 3.52288
# Velocity P-wave (km/s) = 6.47186 7.22593 6.85926
#
# Compressibility (1/GPa) = 0.02068152
#
# Stress axis : x y z
#
# Youngs Moduli (GPa) = 73.79836 29.81833 72.26173
#
# Poissons Ratio (x) = 0.19673 0.27375
# Poissons Ratio (y) = 0.48691 0.70354
# Poissons Ratio (z) = 0.27957 0.29031
#
# Static dielectric constant tensor:
#      x y z
#    x 3.554550 0.000000 0.000000 
#    y 0.000000 0.108870 0.000000 
#    z 0.000000 0.000000 3.433150 
# 
# 
# High freq. dielectric constant tensor:
#      x y z
#    x 1.711340 0.000000 0.000000 
#    y 0.000000 1.674780 0.000000 
#    z 0.000000 0.000000 1.694890 
# 
# From -- ./inp_files/29381.got.cif
#   From: 2010.03.12/outbox.cif.g09.slc.cpg/sg59_15_cif.got.tgz:29381.got - 2010.04.16 16:29:54.
