data_PCOD8242235
_publ_section_title
;
Structure prediction by ZEFSAII (Michael W. Deem and Ramdas Pophale) SiO2 
 PCOD8242235
Probable space group: P M M N
;
_chemical_formula_sum "Si O2"
_cell_formula_units_Z 56
_cell_length_a 11.015171
_cell_length_b 22.726209
_cell_length_c 11.426437
_cell_angle_alpha 90.000000
_cell_angle_beta 90.000000
_cell_angle_gamma 90.000000
_cell_volume 2860.415148
_symmetry_space_group_name_H-M "P M M N"
_symmetry_group_IT_number 59
_space_group.IT_coordinate_system_code '2'
_symmetry_cell_setting 'orthorhombic'
loop_
_space_group_symop_operation_xyz
x,y,z
1/2-x,1/2-y,z
1/2+x,-y,-z
-x,1/2+y,-z
-x,-y,-z
1/2+x,1/2+y,-z
1/2-x,y,z
x,1/2-y,z
loop_
_atom_site_type_symbol
_atom_site_label
_atom_site_fract_x
_atom_site_fract_y
_atom_site_fract_z
Si Si1 0.117330 0.118427 0.722166
Si Si2 0.547442 0.495421 0.369526
Si Si3 0.031945 0.094589 0.967697
Si Si4 0.385600 0.492330 0.150204
Si Si5 0.892301 0.181667 0.118556
Si Si6 0.892586 0.180389 0.602121
Si Si7 0.616685 0.366928 0.358018
O O1 0.250000 0.147223 0.687854
O O2 0.120131 0.053943 0.663705
O O3 0.120292 0.113177 0.862660
O O4 0.993270 0.153385 0.690125
O O5 0.500000 0.500000 0.500000
O O6 0.439106 0.484989 0.279100
O O7 0.629805 0.437410 0.360424
O O8 0.940853 0.045241 0.922920
O O9 0.957369 0.151253 0.009547
O O10 0.106362 0.068152 0.076892
O O11 0.250000 0.510472 0.173487
O O12 0.750000 0.167371 0.109979
O O13 0.920906 0.250000 0.110417
O O14 0.948602 0.156315 0.240391
O O15 0.750000 0.160237 0.625980
O O16 0.899883 0.250000 0.611949
O O17 0.943067 0.158533 0.476286
O O18 0.750000 0.338637 0.355929
#
# Coordination Sequence:
#
# PCOD8242235 Si02
#       7
#     8   8   8   8   8   8   8
#     4  11  24  39  60  91 126 161 202 249 303 364
#     4  11  21  37  58  90 120 154 193 244 299 365
#     4  10  21  38  56  82 118 154 200 244 296 353
#     4  10  21  36  58  82 114 156 196 242 298 354
#     4  10  20  35  60  90 116 150 200 253 300 353
#     4  10  22  41  64  88 119 161 206 252 303 364
#     4  10  19  36  60  87 119 151 193 246 304 358
#
# _framework density 19.577577999999999
#
# number of rings (size 3 to 8) (size 9 to 14) (size 15 to 20)
#    0.000    1.714    2.857    1.714    0.000    6.571 
#    0.000    1.429    0.000    1.286    0.000    0.000 
#    0.000    0.000    0.000    0.000    0.000    0.000 
#
# Total GULP energy -693948.837832 kJ/mol
# GULP energy per Si atom -12391.943533 kJ/mol
# Density = 1.953302 g / cm^3
# Si number density = 19.577578 Si / 1000 Ang^3
#
#
#
# Elastic Constant Matrix: (Units=GPa)
#
#
# Indices 1 2 3 4 5 6 
#
# 1 104.6711 26.2451 38.4439 0.0000 0.0000 0.0000
# 2 26.2451 99.0278 33.0389 0.0000 0.0000 0.0000
# 3 38.4439 33.0389 128.3236 0.0000 0.0000 0.0000
# 4 0.0000 0.0000 0.0000 27.6334 0.0000 0.0000
# 5 0.0000 0.0000 0.0000 0.0000 9.8103 0.0000
# 6 0.0000 0.0000 0.0000 0.0000 0.0000 7.1334
#
#
#
# Elastic Compliance Matrix: (Units=1/GPa)
#
#
# Indices 1 2 3 4 5 6 
#
# 1 0.011086 -0.002002 -0.002806 0.000000 0.000000 0.000000
# 2 -0.002002 0.011409 -0.002338 0.000000 0.000000 0.000000
# 3 -0.002806 -0.002338 0.009235 0.000000 0.000000 0.000000
# 4 0.000000 0.000000 0.000000 0.036188 0.000000 0.000000
# 5 0.000000 0.000000 0.000000 0.000000 0.101933 0.000000
# 6 0.000000 0.000000 0.000000 0.000000 0.000000 0.140186
#
#
# Mechanical properties :
#
#
# Convention : Reuss Voigt Hill
#
# Bulk Modulus (GPa) = 57.34180 58.60871 57.97526
# Shear Modulus (GPa) = 15.14504 24.53508 19.84006
#
# Velocity S-wave (km/s) = 2.78437 3.54393 3.18686
# Velocity P-wave (km/s) = 6.30000 6.83722 6.57410
#
# Compressibility (1/GPa) = 0.01743928
#
# Stress axis : x y z
#
# Youngs Moduli (GPa) = 90.20182 87.65275 108.28117
#
# Poissons Ratio (x) = 0.17549 0.30382
# Poissons Ratio (y) = 0.18059 0.25311
# Poissons Ratio (z) = 0.25309 0.20489
#
# Static dielectric constant tensor:
#      x y z
#    x 3.395360 0.000000 0.000000 
#    y 0.000000 3.531030 0.000000 
#    z 0.000000 0.000000 3.795100 
# 
# 
# High freq. dielectric constant tensor:
#      x y z
#    x 1.741610 0.000000 0.000000 
#    y 0.000000 1.757390 0.000000 
#    z 0.000000 0.000000 1.775750 
# 
# From -- ./inp_files/16041.got.cif
#   From: 2010.03.12/outbox.cif.g09.slc.cpg/sg59_9_cif.got.tgz:16041.got - 2010.04.16 16:29:54.
