data_PCOD8242852
_publ_section_title
;
Structure prediction by ZEFSAII (Michael W. Deem and Ramdas Pophale) SiO2 
 PCOD8242852
Probable space group: P M M N
;
_chemical_formula_sum "Si O2"
_cell_formula_units_Z 48
_cell_length_a 9.042681
_cell_length_b 9.343029
_cell_length_c 31.006171
_cell_angle_alpha 90.000000
_cell_angle_beta 90.000000
_cell_angle_gamma 90.000000
_cell_volume 2619.588319
_symmetry_space_group_name_H-M "P M M N"
_symmetry_group_IT_number 59
_space_group.IT_coordinate_system_code '2'
_symmetry_cell_setting 'orthorhombic'
loop_
_space_group_symop_operation_xyz
x,y,z
1/2-x,1/2-y,z
1/2+x,-y,-z
-x,1/2+y,-z
-x,-y,-z
1/2+x,1/2+y,-z
1/2-x,y,z
x,1/2-y,z
loop_
_atom_site_type_symbol
_atom_site_label
_atom_site_fract_x
_atom_site_fract_y
_atom_site_fract_z
Si Si1 0.422656 0.417345 0.286262
Si Si2 0.081942 0.582652 0.462946
Si Si3 0.577842 0.918353 0.038486
Si Si4 0.916696 0.419914 0.875681
Si Si5 0.576332 0.915888 0.210342
Si Si6 0.574353 0.408787 0.631871
O O1 0.250000 0.451398 0.278653
O O2 0.455359 0.250000 0.285791
O O3 0.517866 0.491848 0.249697
O O4 0.477987 0.478616 0.332179
O O5 0.250000 0.531440 0.464601
O O6 0.067127 0.750000 0.471829
O O7 0.014278 0.545790 0.415488
O O8 0.000000 0.500000 0.500000
O O9 0.750000 0.956940 0.039317
O O10 0.551458 0.750000 0.032451
O O11 0.505808 0.975288 0.082779
O O12 0.500000 0.000000 0.000000
O O13 0.750000 0.481519 0.876850
O O14 0.915159 0.250000 0.875741
O O15 0.998066 0.474904 0.832773
O O16 0.750000 0.938343 0.204794
O O17 0.536812 0.750000 0.218570
O O18 0.750000 0.403254 0.628875
O O19 0.515339 0.250000 0.644214
#
# Coordination Sequence:
#
# PCOD8242852 Si02
#       6
#     8   8   8   8   8   8
#     4  10  20  33  51  76 102 128 162 205 252 301
#     4   9  18  32  50  74 102 131 166 207 250 298
#     4  10  20  34  53  78 108 140 174 213 256 303
#     4   9  17  31  53  78 102 131 169 212 255 299
#     4  10  20  34  53  76 101 131 167 205 247 298
#     4   8  15  30  51  72  96 129 169 210 248 291
#
# _framework density 18.32349
#
# number of rings (size 3 to 8) (size 9 to 14) (size 15 to 20)
#    0.000    2.667    0.000    3.000    0.000    6.000 
#    0.000    3.333    0.000    6.000    0.000    0.000 
#    0.000    0.000    0.000    0.000    0.000    0.000 
#
# Total GULP energy -595126.344965 kJ/mol
# GULP energy per Si atom -12398.465520 kJ/mol
# Density = 1.828179 g / cm^3
# Si number density = 18.323490 Si / 1000 Ang^3
#
#
#
# Elastic Constant Matrix: (Units=GPa)
#
#
# Indices 1 2 3 4 5 6 
#
# 1 97.9300 44.5331 72.6768 0.0000 0.0000 0.0000
# 2 44.5331 61.9509 64.5133 0.0000 0.0000 0.0000
# 3 72.6768 64.5133 179.3119 0.0000 0.0000 0.0000
# 4 0.0000 0.0000 0.0000 33.3420 0.0000 0.0000
# 5 0.0000 0.0000 0.0000 0.0000 35.3929 0.0000
# 6 0.0000 0.0000 0.0000 0.0000 0.0000 24.5390
#
#
#
# Elastic Compliance Matrix: (Units=1/GPa)
#
#
# Indices 1 2 3 4 5 6 
#
# 1 0.016737 -0.007943 -0.003926 0.000000 0.000000 0.000000
# 2 -0.007943 0.029583 -0.007424 0.000000 0.000000 0.000000
# 3 -0.003926 -0.007424 0.009839 0.000000 0.000000 0.000000
# 4 0.000000 0.000000 0.000000 0.029992 0.000000 0.000000
# 5 0.000000 0.000000 0.000000 0.000000 0.028254 0.000000
# 6 0.000000 0.000000 0.000000 0.000000 0.000000 0.040751
#
#
# Mechanical properties :
#
#
# Convention : Reuss Voigt Hill
#
# Bulk Modulus (GPa) = 56.90553 78.07102 67.48827
# Shear Modulus (GPa) = 25.05012 29.15275 27.10143
#
# Velocity S-wave (km/s) = 3.70145 3.99307 3.85002
# Velocity P-wave (km/s) = 7.02788 7.99744 7.52828
#
# Compressibility (1/GPa) = 0.01757299
#
# Stress axis : x y z
#
# Youngs Moduli (GPa) = 59.74809 33.80361 101.63550
#
# Poissons Ratio (x) = 0.26850 0.39901
# Poissons Ratio (y) = 0.47458 0.75454
# Poissons Ratio (z) = 0.23456 0.25096
#
# Static dielectric constant tensor:
#      x y z
#    x 3.251830 0.000000 0.000000 
#    y 0.000000 3.070930 0.000000 
#    z 0.000000 0.000000 3.657170 
# 
# 
# High freq. dielectric constant tensor:
#      x y z
#    x 1.697850 0.000000 0.000000 
#    y 0.000000 1.685700 0.000000 
#    z 0.000000 0.000000 1.729330 
# 
# From -- ./inp_files/32844.got.cif
#   From: 2010.03.12/outbox.cif.g09.slc.cpg/sg59_17_cif.got.tgz:32844.got - 2010.04.16 16:29:54.
