data_PCOD8242762
_publ_section_title
;
Structure prediction by ZEFSAII (Michael W. Deem and Ramdas Pophale) SiO2 
 PCOD8242762
Probable space group: P M M N
;
_chemical_formula_sum "Si O2"
_cell_formula_units_Z 56
_cell_length_a 13.412130
_cell_length_b 9.263051
_cell_length_c 23.526599
_cell_angle_alpha 90.000000
_cell_angle_beta 90.000000
_cell_angle_gamma 90.000000
_cell_volume 2922.879825
_symmetry_space_group_name_H-M "P M M N"
_symmetry_group_IT_number 59
_space_group.IT_coordinate_system_code '2'
_symmetry_cell_setting 'orthorhombic'
loop_
_space_group_symop_operation_xyz
x,y,z
1/2-x,1/2-y,z
1/2+x,-y,-z
-x,1/2+y,-z
-x,-y,-z
1/2+x,1/2+y,-z
1/2-x,y,z
x,1/2-y,z
loop_
_atom_site_type_symbol
_atom_site_label
_atom_site_fract_x
_atom_site_fract_y
_atom_site_fract_z
Si Si1 0.135894 0.917663 0.035367
Si Si2 0.551982 0.915379 0.307930
Si Si3 0.861729 0.414572 0.626444
Si Si4 0.130990 0.086794 0.482981
Si Si5 0.540392 0.081279 0.084435
Si Si6 0.133750 0.416093 0.812100
Si Si7 0.633153 0.410453 0.410590
O O1 0.250000 0.963405 0.045036
O O2 0.118789 0.750000 0.048767
O O3 0.106933 0.953160 0.970644
O O4 0.068292 0.009198 0.078452
O O5 0.586355 0.750000 0.316137
O O6 0.433709 0.934139 0.319361
O O7 0.574219 0.965740 0.244032
O O8 0.614821 0.010090 0.351424
O O9 0.750000 0.459090 0.645206
O O10 0.863357 0.250000 0.604087
O O11 0.903743 0.515696 0.576294
O O12 0.250000 0.082941 0.485698
O O13 0.090868 0.250000 0.486376
O O14 0.085180 0.997491 0.536147
O O15 0.525054 0.250000 0.093953
O O16 0.598698 0.016910 0.137295
O O17 0.250000 0.440353 0.800705
O O18 0.110619 0.250000 0.827546
O O19 0.750000 0.399983 0.420459
O O20 0.586218 0.250000 0.408914
#
# Coordination Sequence:
#
# PCOD8242762 Si02
#       7
#     8   8   8   8   8   8   8
#     4   9  18  34  56  83 116 152 188 226 268 315
#     4  10  21  36  54  75 100 134 176 218 259 306
#     4   9  18  34  54  74  97 126 164 212 262 311
#     4   9  17  30  50  74  99 129 164 203 253 315
#     4  10  20  34  55  84 116 148 185 227 270 317
#     4  10  21  37  56  78 107 143 181 220 263 316
#     4  10  20  33  50  74 103 132 164 208 262 316
#
# _framework density 19.159186999999999
#
# number of rings (size 3 to 8) (size 9 to 14) (size 15 to 20)
#    0.000    2.429    0.000    2.143    0.000    6.571 
#    0.000    0.714    0.000    2.571    0.000    0.000 
#    0.000    0.000    0.000    0.000    0.000    0.000 
#
# Total GULP energy -694555.428938 kJ/mol
# GULP energy per Si atom -12402.775517 kJ/mol
# Density = 1.911558 g / cm^3
# Si number density = 19.159187 Si / 1000 Ang^3
#
#
#
# Elastic Constant Matrix: (Units=GPa)
#
#
# Indices 1 2 3 4 5 6 
#
# 1 77.9369 34.7094 32.4358 0.0000 0.0000 0.0000
# 2 34.7094 96.5869 49.5060 0.0000 0.0000 0.0000
# 3 32.4358 49.5060 91.8497 0.0000 0.0000 0.0000
# 4 0.0000 0.0000 0.0000 31.9356 0.0000 0.0000
# 5 0.0000 0.0000 0.0000 0.0000 32.8303 0.0000
# 6 0.0000 0.0000 0.0000 0.0000 0.0000 24.0485
#
#
#
# Elastic Compliance Matrix: (Units=1/GPa)
#
#
# Indices 1 2 3 4 5 6 
#
# 1 0.016068 -0.003960 -0.003540 0.000000 0.000000 0.000000
# 2 -0.003960 0.015281 -0.006838 0.000000 0.000000 0.000000
# 3 -0.003540 -0.006838 0.015823 0.000000 0.000000 0.000000
# 4 0.000000 0.000000 0.000000 0.031313 0.000000 0.000000
# 5 0.000000 0.000000 0.000000 0.000000 0.030460 0.000000
# 6 0.000000 0.000000 0.000000 0.000000 0.000000 0.041583
#
#
# Mechanical properties :
#
#
# Convention : Reuss Voigt Hill
#
# Bulk Modulus (GPa) = 54.06403 55.51955 54.79179
# Shear Modulus (GPa) = 26.97337 27.74436 27.35887
#
# Velocity S-wave (km/s) = 3.75621 3.80952 3.78296
# Velocity P-wave (km/s) = 6.86234 6.95635 6.90951
#
# Compressibility (1/GPa) = 0.01849659
#
# Stress axis : x y z
#
# Youngs Moduli (GPa) = 62.23724 65.43985 63.19869
#
# Poissons Ratio (x) = 0.25912 0.22372
# Poissons Ratio (y) = 0.24644 0.43216
# Poissons Ratio (z) = 0.22031 0.44749
#
# Static dielectric constant tensor:
#      x y z
#    x 3.578550 0.000000 0.000000 
#    y 0.000000 3.616370 0.000000 
#    z 0.000000 0.000000 3.304950 
# 
# 
# High freq. dielectric constant tensor:
#      x y z
#    x 1.755670 0.000000 0.000000 
#    y 0.000000 1.747960 0.000000 
#    z 0.000000 0.000000 1.724510 
# 
# From -- ./inp_files/30388.got.cif
#   From: 2010.03.12/outbox.cif.g09.slc.cpg/sg59_16_cif.got.tgz:30388.got - 2010.04.16 16:29:54.
