data_PCOD8242975
_publ_section_title
;
Structure prediction by ZEFSAII (Michael W. Deem and Ramdas Pophale) SiO2 
 PCOD8242975
Probable space group: P M M N
;
_chemical_formula_sum "Si O2"
_cell_formula_units_Z 40
_cell_length_a 9.036839
_cell_length_b 13.396201
_cell_length_c 18.184601
_cell_angle_alpha 90.000000
_cell_angle_beta 90.000000
_cell_angle_gamma 90.000000
_cell_volume 2201.415280
_symmetry_space_group_name_H-M "P M M N"
_symmetry_group_IT_number 59
_space_group.IT_coordinate_system_code '2'
_symmetry_cell_setting 'orthorhombic'
loop_
_space_group_symop_operation_xyz
x,y,z
1/2-x,1/2-y,z
1/2+x,-y,-z
-x,1/2+y,-z
-x,-y,-z
1/2+x,1/2+y,-z
1/2-x,y,z
x,1/2-y,z
loop_
_atom_site_type_symbol
_atom_site_label
_atom_site_fract_x
_atom_site_fract_y
_atom_site_fract_z
Si Si1 0.422107 0.049915 0.887710
Si Si2 0.081630 0.861258 0.978894
Si Si3 0.422636 0.865304 0.250781
Si Si4 0.577589 0.952792 0.390868
Si Si5 0.921872 0.863991 0.548681
O O1 0.250000 0.069076 0.872986
O O2 0.510482 0.066911 0.813211
O O3 0.456418 0.936680 0.912941
O O4 0.475667 0.124355 0.951429
O O5 0.250000 0.878722 0.005996
O O6 0.058732 0.750000 0.947771
O O7 0.250000 0.887654 0.256988
O O8 0.454671 0.750000 0.232608
O O9 0.497401 0.893062 0.327087
O O10 0.750000 0.959126 0.372914
O O11 0.515609 0.065353 0.397405
O O12 0.543799 0.891082 0.464483
O O13 0.750000 0.880503 0.566258
O O14 0.969936 0.750000 0.562932
#
# Coordination Sequence:
#
# PCOD8242975 Si02
#       5
#     8   8   8   8   8
#     4  10  20  33  52  78 104 132 170 213 254 301
#     4   9  18  34  54  75 102 135 168 205 252 305
#     4  11  23  37  53  74 103 138 172 210 260 313
#     4  10  20  34  54  80 107 135 172 216 258 304
#     4   9  18  34  55  78 106 139 173 211 256 306
#
# _framework density 18.17013
#
# number of rings (size 3 to 8) (size 9 to 14) (size 15 to 20)
#    0.000    2.200    0.000    3.000    0.000    7.200 
#    0.000    1.000    0.000    3.600    0.000    0.000 
#    0.000    0.000    0.000    0.000    0.000    0.000 
#
# Total GULP energy -496137.271570 kJ/mol
# GULP energy per Si atom -12403.431789 kJ/mol
# Density = 1.812877 g / cm^3
# Si number density = 18.170130 Si / 1000 Ang^3
#
#
#
# Elastic Constant Matrix: (Units=GPa)
#
#
# Indices 1 2 3 4 5 6 
#
# 1 92.6917 40.3866 42.6996 0.0000 0.0000 0.0000
# 2 40.3866 94.4309 19.6921 0.0000 0.0000 0.0000
# 3 42.6996 19.6921 63.8219 0.0000 0.0000 0.0000
# 4 0.0000 0.0000 0.0000 21.4060 0.0000 0.0000
# 5 0.0000 0.0000 0.0000 0.0000 36.3532 0.0000
# 6 0.0000 0.0000 0.0000 0.0000 0.0000 29.7343
#
#
#
# Elastic Compliance Matrix: (Units=1/GPa)
#
#
# Indices 1 2 3 4 5 6 
#
# 1 0.017939 -0.005525 -0.010298 0.000000 0.000000 0.000000
# 2 -0.005525 0.013020 -0.000321 0.000000 0.000000 0.000000
# 3 -0.010298 -0.000321 0.022657 0.000000 0.000000 0.000000
# 4 0.000000 0.000000 0.000000 0.046716 0.000000 0.000000
# 5 0.000000 0.000000 0.000000 0.000000 0.027508 0.000000
# 6 0.000000 0.000000 0.000000 0.000000 0.000000 0.033631
#
#
# Mechanical properties :
#
#
# Convention : Reuss Voigt Hill
#
# Bulk Modulus (GPa) = 46.88318 50.72234 48.80276
# Shear Modulus (GPa) = 24.89204 27.37644 26.13424
#
# Velocity S-wave (km/s) = 3.70529 3.88580 3.79662
# Velocity P-wave (km/s) = 6.64559 6.93602 6.79236
#
# Compressibility (1/GPa) = 0.02132961
#
# Stress axis : x y z
#
# Youngs Moduli (GPa) = 55.74310 76.80733 44.13639
#
# Poissons Ratio (x) = 0.42436 0.45450
# Poissons Ratio (y) = 0.30798 0.01415
# Poissons Ratio (z) = 0.57402 0.02463
#
# Static dielectric constant tensor:
#      x y z
#    x 3.468040 0.000000 0.000000 
#    y 0.000000 3.477550 0.000000 
#    z 0.000000 0.000000 3.167890 
# 
# 
# High freq. dielectric constant tensor:
#      x y z
#    x 1.714590 0.000000 0.000000 
#    y 0.000000 1.710610 0.000000 
#    z 0.000000 0.000000 1.687920 
# 
# From -- ./inp_files/19892.got.cif
#   From: 2010.03.12/outbox.cif.g09.slc.cpg/sg59_10_cif.got.tgz:19892.got - 2010.04.16 16:29:54.
