data_PCOD8242464
_publ_section_title
;
Structure prediction by ZEFSAII (Michael W. Deem and Ramdas Pophale) SiO2 
 PCOD8242464
Probable space group: P M M N
;
_chemical_formula_sum "Si O2"
_cell_formula_units_Z 64
_cell_length_a 9.187469
_cell_length_b 14.041496
_cell_length_c 25.306281
_cell_angle_alpha 90.000000
_cell_angle_beta 90.000000
_cell_angle_gamma 90.000000
_cell_volume 3264.657259
_symmetry_space_group_name_H-M "P M M N"
_symmetry_group_IT_number 59
_space_group.IT_coordinate_system_code '2'
_symmetry_cell_setting 'orthorhombic'
loop_
_space_group_symop_operation_xyz
x,y,z
1/2-x,1/2-y,z
1/2+x,-y,-z
-x,1/2+y,-z
-x,-y,-z
1/2+x,1/2+y,-z
1/2-x,y,z
x,1/2-y,z
loop_
_atom_site_type_symbol
_atom_site_label
_atom_site_fract_x
_atom_site_fract_y
_atom_site_fract_z
Si Si1 0.417769 0.592547 0.016576
Si Si2 0.081670 0.138490 0.192092
Si Si3 0.581544 0.360764 0.683724
Si Si4 0.418387 0.858353 0.132798
Si Si5 0.405997 0.646047 0.904599
Si Si6 0.576839 0.535840 0.223640
Si Si7 0.079806 0.356894 0.480117
Si Si8 0.919536 0.452516 0.574083
O O1 0.250000 0.568799 0.023626
O O2 0.473660 0.635548 0.071793
O O3 0.500000 0.500000 0.000000
O O4 0.447620 0.659908 0.966171
O O5 0.250000 0.113414 0.198231
O O6 0.054074 0.250000 0.204798
O O7 0.033612 0.104481 0.132516
O O8 0.988849 0.071198 0.231692
O O9 0.750000 0.377085 0.699199
O O10 0.551771 0.250000 0.671609
O O11 0.479916 0.394334 0.731097
O O12 0.537081 0.423924 0.633224
O O13 0.250000 0.890354 0.138802
O O14 0.435578 0.750000 0.151775
O O15 0.522343 0.923941 0.167604
O O16 0.250000 0.589900 0.898463
O O17 0.380810 0.750000 0.881006
O O18 0.750000 0.531114 0.225150
O O19 0.250000 0.360139 0.491722
O O20 0.033330 0.250000 0.461476
O O21 0.038046 0.436142 0.435803
O O22 0.001946 0.382299 0.534643
O O23 0.750000 0.435352 0.564129
#
# Coordination Sequence:
#
# PCOD8242464 Si02
#       8
#     8   8   8   8   8   8   8   8
#     4  10  20  32  48  72 101 134 170 209 259 318
#     4  10  21  38  60  83 106 136 176 219 266 326
#     4  10  21  38  59  81 108 145 189 235 279 324
#     4  10  21  38  58  78 105 143 184 225 270 324
#     4   9  17  31  51  74 100 128 160 202 254 312
#     4  12  25  39  57  81 109 140 178 228 282 333
#     4   9  17  30  51  82 120 156 187 225 275 326
#     4   9  18  33  54  81 113 151 195 236 273 319
#
# _framework density 19.603897
#
# number of rings (size 3 to 8) (size 9 to 14) (size 15 to 20)
#    0.000    2.125    0.000    3.375    0.000    8.500 
#    0.000    0.625    0.000    4.500    0.000    0.000 
#    0.000    0.000    0.000    0.000    0.000    0.000 
#
# Total GULP energy -793022.204312 kJ/mol
# GULP energy per Si atom -12390.971942 kJ/mol
# Density = 1.955928 g / cm^3
# Si number density = 19.603897 Si / 1000 Ang^3
#
#
#
# Elastic Constant Matrix: (Units=GPa)
#
#
# Indices 1 2 3 4 5 6 
#
# 1 83.6215 51.2770 37.8429 0.0000 0.0000 0.0000
# 2 51.2770 120.1397 45.1501 0.0000 0.0000 0.0000
# 3 37.8429 45.1501 80.7976 0.0000 0.0000 0.0000
# 4 0.0000 0.0000 0.0000 29.0551 0.0000 0.0000
# 5 0.0000 0.0000 0.0000 0.0000 28.9242 0.0000
# 6 0.0000 0.0000 0.0000 0.0000 0.0000 26.5699
#
#
#
# Elastic Compliance Matrix: (Units=1/GPa)
#
#
# Indices 1 2 3 4 5 6 
#
# 1 0.017752 -0.005636 -0.005165 0.000000 0.000000 0.000000
# 2 -0.005636 0.012325 -0.004248 0.000000 0.000000 0.000000
# 3 -0.005165 -0.004248 0.017170 0.000000 0.000000 0.000000
# 4 0.000000 0.000000 0.000000 0.034417 0.000000 0.000000
# 5 0.000000 0.000000 0.000000 0.000000 0.034573 0.000000
# 6 0.000000 0.000000 0.000000 0.000000 0.000000 0.037637
#
#
# Mechanical properties :
#
#
# Convention : Reuss Voigt Hill
#
# Bulk Modulus (GPa) = 58.31110 61.45542 59.88326
# Shear Modulus (GPa) = 26.35908 26.92911 26.64409
#
# Velocity S-wave (km/s) = 3.67083 3.71031 3.69063
# Velocity P-wave (km/s) = 6.91201 7.05492 6.98383
#
# Compressibility (1/GPa) = 0.01714939
#
# Stress axis : x y z
#
# Youngs Moduli (GPa) = 56.33198 81.13318 58.24244
#
# Poissons Ratio (x) = 0.45723 0.30084
# Poissons Ratio (y) = 0.31746 0.24741
# Poissons Ratio (z) = 0.29097 0.34465
#
# Static dielectric constant tensor:
#      x y z
#    x 3.809480 0.000000 0.000000 
#    y 0.000000 3.719170 0.000000 
#    z 0.000000 0.000000 3.301390 
# 
# 
# High freq. dielectric constant tensor:
#      x y z
#    x 1.755590 0.000000 0.000000 
#    y 0.000000 1.774150 0.000000 
#    z 0.000000 0.000000 1.744350 
# 
# From -- ./inp_files/31477.got.cif
#   From: 2010.03.12/outbox.cif.g09.slc.cpg/sg59_16_cif.got.tgz:31477.got - 2010.04.16 16:29:54.
