data_PCOD8242362
_publ_section_title
;
Structure prediction by ZEFSAII (Michael W. Deem and Ramdas Pophale) SiO2 
 PCOD8242362
Probable space group: P M M N
;
_chemical_formula_sum "Si O2"
_cell_formula_units_Z 64
_cell_length_a 24.892289
_cell_length_b 9.396793
_cell_length_c 16.028585
_cell_angle_alpha 90.000000
_cell_angle_beta 90.000000
_cell_angle_gamma 90.000000
_cell_volume 3749.209244
_symmetry_space_group_name_H-M "P M M N"
_symmetry_group_IT_number 59
_space_group.IT_coordinate_system_code '2'
_symmetry_cell_setting 'orthorhombic'
loop_
_space_group_symop_operation_xyz
x,y,z
1/2-x,1/2-y,z
1/2+x,-y,-z
-x,1/2+y,-z
-x,-y,-z
1/2+x,1/2+y,-z
1/2-x,y,z
x,1/2-y,z
loop_
_atom_site_type_symbol
_atom_site_label
_atom_site_fract_x
_atom_site_fract_y
_atom_site_fract_z
Si Si1 0.600688 0.905944 0.332248
Si Si2 0.591349 0.085449 0.856869
Si Si3 0.643503 0.414850 0.576847
Si Si4 0.690162 0.084644 0.397777
Si Si5 0.528016 0.917988 0.182277
Si Si6 0.447924 0.408726 0.486551
Si Si7 0.551687 0.083054 0.030863
Si Si8 0.190588 0.917970 0.246953
O O1 0.619987 0.750000 0.302619
O O2 0.551973 0.956246 0.272790
O O3 0.580837 0.899052 0.425689
O O4 0.651461 0.010457 0.330305
O O5 0.591912 0.250000 0.832580
O O6 0.533880 0.025921 0.822576
O O7 0.643373 0.014290 0.811706
O O8 0.596187 0.063967 0.957410
O O9 0.625691 0.250000 0.579123
O O10 0.677197 0.450095 0.494067
O O11 0.589964 0.510808 0.579668
O O12 0.679096 0.455101 0.656665
O O13 0.750000 0.029475 0.380133
O O14 0.684485 0.250000 0.380664
O O15 0.530264 0.750000 0.161052
O O16 0.566519 0.004945 0.117481
O O17 0.500000 0.500000 0.500000
O O18 0.461509 0.250000 0.453225
O O19 0.539815 0.250000 0.045478
O O20 0.500000 0.000000 0.000000
O O21 0.250000 0.980386 0.224291
O O22 0.192147 0.750000 0.233689
#
# Coordination Sequence:
#
# PCOD8242362 Si02
#       8
#     8   8   8   8   8   8   8   8
#     4   9  19  32  47  68  92 122 158 194 235 282
#     4   8  15  26  43  66  93 122 151 186 232 278
#     4   9  17  29  47  68  92 122 159 198 235 273
#     4   9  17  30  47  67  93 122 154 196 239 275
#     4   9  17  30  48  69  94 121 153 196 240 283
#     4  10  20  32  46  65  94 128 161 194 236 286
#     4   9  16  28  46  68  93 121 151 185 230 283
#     4   9  16  26  45  72  96 122 161 200 231 274
#
# _framework density 17.070266
#
# number of rings (size 3 to 8) (size 9 to 14) (size 15 to 20)
#    0.000    3.000    0.000    1.875    1.750    2.750 
#    0.000    0.000    0.000    2.625    0.000    1.750 
#    0.000    0.000    0.000    0.000    0.000    0.000 
#
# Total GULP energy -792964.737658 kJ/mol
# GULP energy per Si atom -12390.074026 kJ/mol
# Density = 1.703141 g / cm^3
# Si number density = 17.070266 Si / 1000 Ang^3
#
#
#
# Elastic Constant Matrix: (Units=GPa)
#
#
# Indices 1 2 3 4 5 6 
#
# 1 127.2603 40.8606 42.2305 0.0000 0.0000 0.0000
# 2 40.8606 58.8234 19.6221 0.0000 0.0000 0.0000
# 3 42.2305 19.6221 68.4878 0.0000 0.0000 0.0000
# 4 0.0000 0.0000 0.0000 22.3010 0.0000 0.0000
# 5 0.0000 0.0000 0.0000 0.0000 22.3403 0.0000
# 6 0.0000 0.0000 0.0000 0.0000 0.0000 22.1113
#
#
#
# Elastic Compliance Matrix: (Units=1/GPa)
#
#
# Indices 1 2 3 4 5 6 
#
# 1 0.011672 -0.006310 -0.005389 0.000000 0.000000 0.000000
# 2 -0.006310 0.022208 -0.002472 0.000000 0.000000 0.000000
# 3 -0.005389 -0.002472 0.018633 0.000000 0.000000 0.000000
# 4 0.000000 0.000000 0.000000 0.044841 0.000000 0.000000
# 5 0.000000 0.000000 0.000000 0.000000 0.044762 0.000000
# 6 0.000000 0.000000 0.000000 0.000000 0.000000 0.045226
#
#
# Mechanical properties :
#
#
# Convention : Reuss Voigt Hill
#
# Bulk Modulus (GPa) = 41.37359 51.11088 46.24223
# Shear Modulus (GPa) = 22.34724 23.47440 22.91082
#
# Velocity S-wave (km/s) = 3.62212 3.71234 3.66751
# Velocity P-wave (km/s) = 6.46396 6.95570 6.71434
#
# Compressibility (1/GPa) = 0.02417001
#
# Stress axis : x y z
#
# Youngs Moduli (GPa) = 85.67169 45.02916 53.66964
#
# Poissons Ratio (x) = 0.28415 0.28925
# Poissons Ratio (y) = 0.54061 0.13265
# Poissons Ratio (z) = 0.46173 0.11130
#
# Static dielectric constant tensor:
#      x y z
#    x 3.306960 0.000000 0.000000 
#    y 0.000000 3.209550 0.000000 
#    z 0.000000 0.000000 3.460150 
# 
# 
# High freq. dielectric constant tensor:
#      x y z
#    x 1.644530 0.000000 0.000000 
#    y 0.000000 1.636270 0.000000 
#    z 0.000000 0.000000 1.647320 
# 
# From -- ./inp_files/28427.got.cif
#   From: 2010.03.12/outbox.cif.g09.slc.cpg/sg59_15_cif.got.tgz:28427.got - 2010.04.16 16:29:54.
