data_PCOD8242270
_publ_section_title
;
Structure prediction by ZEFSAII (Michael W. Deem and Ramdas Pophale) SiO2 
 PCOD8242270
Probable space group: P M M N
;
_chemical_formula_sum "Si O2"
_cell_formula_units_Z 48
_cell_length_a 17.573020
_cell_length_b 15.092045
_cell_length_c 9.213456
_cell_angle_alpha 90.000000
_cell_angle_beta 90.000000
_cell_angle_gamma 90.000000
_cell_volume 2443.526543
_symmetry_space_group_name_H-M "P M M N"
_symmetry_group_IT_number 59
_space_group.IT_coordinate_system_code '2'
_symmetry_cell_setting 'orthorhombic'
loop_
_space_group_symop_operation_xyz
x,y,z
1/2-x,1/2-y,z
1/2+x,-y,-z
-x,1/2+y,-z
-x,-y,-z
1/2+x,1/2+y,-z
1/2-x,y,z
x,1/2-y,z
loop_
_atom_site_type_symbol
_atom_site_label
_atom_site_fract_x
_atom_site_fract_y
_atom_site_fract_z
Si Si1 0.906760 0.900210 0.065353
Si Si2 0.929440 0.103442 0.065878
Si Si3 0.925912 0.250000 0.303285
Si Si4 0.340029 0.900809 0.214868
Si Si5 0.336951 0.402533 0.231028
Si Si6 0.590078 0.750000 0.588234
Si Si7 0.338925 0.750000 0.418839
Si Si8 0.842652 0.750000 0.267478
O O1 0.879125 0.838128 0.196538
O O2 0.914149 0.002256 0.116404
O O3 0.844302 0.883676 0.940326
O O4 0.987938 0.874353 0.998753
O O5 0.918781 0.162463 0.207326
O O6 0.870035 0.130249 0.941527
O O7 0.854808 0.250000 0.411328
O O8 0.998793 0.250000 0.410322
O O9 0.250000 0.901084 0.203085
O O10 0.372626 0.836709 0.339226
O O11 0.369347 0.998620 0.257791
O O12 0.250000 0.391411 0.278413
O O13 0.386123 0.337397 0.326538
O O14 0.628380 0.750000 0.431776
O O15 0.250000 0.750000 0.393411
O O16 0.750000 0.750000 0.260593
#
# Coordination Sequence:
#
# PCOD8242270 Si02
#       8
#     8   8   4   8   8   4   4   4
#     4  10  21  39  62  91 120 156 199 255 299 358
#     4  10  21  39  63  91 121 152 204 254 304 356
#     4  12  24  39  59  90 121 165 198 247 302 368
#     4   9  20  38  65  90 112 152 202 249 300 355
#     4  10  19  38  63  86 117 157 198 244 295 356
#     4  12  25  39  55  89 126 165 204 242 298 366
#     4  10  23  41  58  85 120 157 196 242 301 365
#     4  12  26  41  60  92 129 167 204 249 309 365
#
# _framework density 19.643740999999999
#
# number of rings (size 3 to 8) (size 9 to 14) (size 15 to 20)
#    0.000    1.667    1.667    2.750    2.333    2.667 
#    0.000    3.333    0.000    0.000    0.000    0.000 
#    0.000    0.000    0.000    0.000    0.000    0.000 
#
# Total GULP energy -595124.298282 kJ/mol
# GULP energy per Si atom -12398.422881 kJ/mol
# Density = 1.959903 g / cm^3
# Si number density = 19.643741 Si / 1000 Ang^3
#
#
#
# Elastic Constant Matrix: (Units=GPa)
#
#
# Indices 1 2 3 4 5 6 
#
# 1 35.4687 38.7217 28.8527 0.0000 0.0000 0.0000
# 2 38.7217 130.9649 79.9199 0.0000 0.0000 0.0000
# 3 28.8527 79.9199 114.3228 0.0000 0.0000 0.0000
# 4 0.0000 0.0000 0.0000 0.3644 0.0000 0.0000
# 5 0.0000 0.0000 0.0000 0.0000 35.7101 0.0000
# 6 0.0000 0.0000 0.0000 0.0000 0.0000 24.6301
#
#
#
# Elastic Compliance Matrix: (Units=1/GPa)
#
#
# Indices 1 2 3 4 5 6 
#
# 1 0.042366 -0.010466 -0.003376 0.000000 0.000000 0.000000
# 2 -0.010466 0.015902 -0.008475 0.000000 0.000000 0.000000
# 3 -0.003376 -0.008475 0.015524 0.000000 0.000000 0.000000
# 4 0.000000 0.000000 0.000000 2.744006 0.000000 0.000000
# 5 0.000000 0.000000 0.000000 0.000000 0.028003 0.000000
# 6 0.000000 0.000000 0.000000 0.000000 0.000000 0.040601
#
#
# Mechanical properties :
#
#
# Convention : Reuss Voigt Hill
#
# Bulk Modulus (GPa) = 34.29623 63.97168 49.13396
# Shear Modulus (GPa) = 1.70024 21.02507 11.36266
#
# Velocity S-wave (km/s) = 0.93135 3.27512 2.40768
# Velocity P-wave (km/s) = 4.31898 6.85117 5.72678
#
# Compressibility (1/GPa) = 0.02915772
#
# Stress axis : x y z
#
# Youngs Moduli (GPa) = 23.60392 62.88512 64.41680
#
# Poissons Ratio (x) = 0.65816 0.21745
# Poissons Ratio (y) = 0.24704 0.54595
# Poissons Ratio (z) = 0.07968 0.53297
#
# Static dielectric constant tensor:
#      x y z
#    x 3.600890 0.000000 0.000000 
#    y 0.000000 3.887080 0.000000 
#    z 0.000000 0.000000 3.420170 
# 
# 
# High freq. dielectric constant tensor:
#      x y z
#    x 1.768260 0.000000 0.000000 
#    y 0.000000 1.782030 0.000000 
#    z 0.000000 0.000000 1.753510 
# 
# From -- ./inp_files/10303.got.cif
#   From: 2010.03.12/outbox.cif.g09.slc.cpg/sg59_6_cif.got.tgz:10303.got - 2010.04.16 16:29:54.
