data_PCOD8242133
_publ_section_title
;
Structure prediction by ZEFSAII (Michael W. Deem and Ramdas Pophale) SiO2 
 PCOD8242133
Probable space group: P M M N
;
_chemical_formula_sum "Si O2"
_cell_formula_units_Z 48
_cell_length_a 8.523872
_cell_length_b 15.375609
_cell_length_c 19.422126
_cell_angle_alpha 90.000000
_cell_angle_beta 90.000000
_cell_angle_gamma 90.000000
_cell_volume 2545.458454
_symmetry_space_group_name_H-M "P M M N"
_symmetry_group_IT_number 59
_space_group.IT_coordinate_system_code '2'
_symmetry_cell_setting 'orthorhombic'
loop_
_space_group_symop_operation_xyz
x,y,z
1/2-x,1/2-y,z
1/2+x,-y,-z
-x,1/2+y,-z
-x,-y,-z
1/2+x,1/2+y,-z
1/2-x,y,z
x,1/2-y,z
loop_
_atom_site_type_symbol
_atom_site_label
_atom_site_fract_x
_atom_site_fract_y
_atom_site_fract_z
Si Si1 0.077120 0.750000 0.788985
Si Si2 0.069136 0.848612 0.431755
Si Si3 0.437805 0.935006 0.943923
Si Si4 0.080190 0.750000 0.950856
Si Si5 0.067209 0.494700 0.661829
Si Si6 0.065002 0.432526 0.206298
Si Si7 0.432273 0.349488 0.421836
O O1 0.250000 0.750000 0.753421
O O2 0.103841 0.750000 0.869599
O O3 0.980930 0.835767 0.768192
O O4 0.250000 0.861994 0.452129
O O5 0.038274 0.750000 0.406129
O O6 0.964829 0.869685 0.498369
O O7 0.024147 0.914496 0.371705
O O8 0.250000 0.933057 0.940775
O O9 0.506565 0.840457 0.968927
O O10 0.501800 0.958345 0.868846
O O11 0.500000 0.000000 0.000000
O O12 0.250000 0.750000 0.987620
O O13 0.250000 0.474664 0.658848
O O14 0.010525 0.499399 0.740706
O O15 0.032524 0.585867 0.624581
O O16 0.250000 0.441504 0.206705
O O17 0.250000 0.365917 0.406819
O O18 0.480600 0.250000 0.404061
#
# Coordination Sequence:
#
# PCOD8242133 Si02
#       7
#     4   8   8   4   8   8   8
#     4   9  17  33  53  77 111 147 178 217 272 335
#     4  10  21  39  61  82 107 143 189 236 284 337
#     4  10  19  35  58  84 114 149 187 230 278 330
#     4   7  14  29  51  77 107 141 176 211 260 321
#     4  12  24  37  56  81 114 150 187 233 284 337
#     4  11  22  36  55  82 114 149 189 231 279 336
#     4  10  21  37  57  83 115 148 187 231 278 334
#
# _framework density 18.857115
#
# number of rings (size 3 to 8) (size 9 to 14) (size 15 to 20)
#    0.000    1.833    0.000    6.250    1.167    2.000 
#    0.000    1.250    1.833    0.000    0.000    0.000 
#    0.000    0.000    0.000    0.000    0.000    0.000 
#
# Total GULP energy -595107.743902 kJ/mol
# GULP energy per Si atom -12398.077998 kJ/mol
# Density = 1.881420 g / cm^3
# Si number density = 18.857115 Si / 1000 Ang^3
#
#
#
# Elastic Constant Matrix: (Units=GPa)
#
#
# Indices 1 2 3 4 5 6 
#
# 1 77.1662 20.5277 13.3123 0.0000 0.0000 0.0000
# 2 20.5277 101.8406 55.6288 0.0000 0.0000 0.0000
# 3 13.3123 55.6288 87.1137 0.0000 0.0000 0.0000
# 4 0.0000 0.0000 0.0000 25.4812 0.0000 0.0000
# 5 0.0000 0.0000 0.0000 0.0000 31.5935 0.0000
# 6 0.0000 0.0000 0.0000 0.0000 0.0000 24.9341
#
#
#
# Elastic Compliance Matrix: (Units=1/GPa)
#
#
# Indices 1 2 3 4 5 6 
#
# 1 0.013708 -0.002486 -0.000507 0.000000 0.000000 0.000000
# 2 -0.002486 0.015530 -0.009537 0.000000 0.000000 0.000000
# 3 -0.000507 -0.009537 0.017647 0.000000 0.000000 0.000000
# 4 0.000000 0.000000 0.000000 0.039245 0.000000 0.000000
# 5 0.000000 0.000000 0.000000 0.000000 0.031652 0.000000
# 6 0.000000 0.000000 0.000000 0.000000 0.000000 0.040106
#
#
# Mechanical properties :
#
#
# Convention : Reuss Voigt Hill
#
# Bulk Modulus (GPa) = 45.82122 49.45089 47.63606
# Shear Modulus (GPa) = 26.28501 28.17854 27.23177
#
# Velocity S-wave (km/s) = 3.73755 3.86984 3.80427
# Velocity P-wave (km/s) = 6.55573 6.80062 6.67930
#
# Compressibility (1/GPa) = 0.02182395
#
# Stress axis : x y z
#
# Youngs Moduli (GPa) = 72.95085 64.39214 56.66697
#
# Poissons Ratio (x) = 0.16008 0.02875
# Poissons Ratio (y) = 0.18135 0.54044
# Poissons Ratio (z) = 0.03701 0.61412
#
# Static dielectric constant tensor:
#      x y z
#    x 3.503670 0.000000 0.000000 
#    y 0.000000 3.722140 0.000000 
#    z 0.000000 0.000000 3.281680 
# 
# 
# High freq. dielectric constant tensor:
#      x y z
#    x 1.741500 0.000000 0.000000 
#    y 0.000000 1.731400 0.000000 
#    z 0.000000 0.000000 1.715510 
# 
# From -- ./inp_files/25534.got.cif
#   From: 2010.03.12/outbox.cif.g09.slc.cpg/sg59_13_cif.got.tgz:25534.got - 2010.04.16 16:29:54.
