data_PCOD8242693
_publ_section_title
;
Structure prediction by ZEFSAII (Michael W. Deem and Ramdas Pophale) SiO2 
 PCOD8242693
Probable space group: P M M N
;
_chemical_formula_sum "Si O2"
_cell_formula_units_Z 64
_cell_length_a 17.294446
_cell_length_b 9.264549
_cell_length_c 23.142592
_cell_angle_alpha 90.000000
_cell_angle_beta 90.000000
_cell_angle_gamma 90.000000
_cell_volume 3708.027413
_symmetry_space_group_name_H-M "P M M N"
_symmetry_group_IT_number 59
_space_group.IT_coordinate_system_code '2'
_symmetry_cell_setting 'orthorhombic'
loop_
_space_group_symop_operation_xyz
x,y,z
1/2-x,1/2-y,z
1/2+x,-y,-z
-x,1/2+y,-z
-x,-y,-z
1/2+x,1/2+y,-z
1/2-x,y,z
x,1/2-y,z
loop_
_atom_site_type_symbol
_atom_site_label
_atom_site_fract_x
_atom_site_fract_y
_atom_site_fract_z
Si Si1 0.598517 0.582276 0.070617
Si Si2 0.985248 0.081408 0.235466
Si Si3 0.660062 0.916748 0.948763
Si Si4 0.485630 0.920729 0.631502
Si Si5 0.334829 0.585152 0.829456
Si Si6 0.058304 0.580683 0.134241
Si Si7 0.335058 0.582367 0.564063
Si Si8 0.437867 0.918637 0.461966
O O1 0.616391 0.750000 0.076071
O O2 0.659450 0.504292 0.111809
O O3 0.512189 0.543495 0.091076
O O4 0.612210 0.531031 0.005036
O O5 0.001810 0.250000 0.225666
O O6 0.993769 0.037808 0.301836
O O7 0.897997 0.037926 0.217681
O O8 0.045200 0.990661 0.196938
O O9 0.750000 0.943050 0.960466
O O10 0.642471 0.750000 0.934763
O O11 0.634473 0.012202 0.894138
O O12 0.493619 0.750000 0.620475
O O13 0.402747 0.978319 0.606393
O O14 0.557392 0.003627 0.600497
O O15 0.250000 0.560359 0.801960
O O16 0.348018 0.750000 0.847232
O O17 0.070069 0.750000 0.143031
O O18 0.250000 0.510398 0.575133
O O19 0.328186 0.750000 0.578104
O O20 0.356795 0.560097 0.496027
O O21 0.458066 0.750000 0.455659
O O22 0.500000 0.000000 0.500000
#
# Coordination Sequence:
#
# PCOD8242693 Si02
#       8
#     8   8   8   8   8   8   8   8
#     4   9  18  32  49  69  93 123 156 187 228 287
#     4   9  18  32  48  66  91 124 160 194 230 275
#     4  10  20  33  50  71  94 121 152 189 239 294
#     4   9  17  29  47  69  91 121 159 194 226 264
#     4   9  17  28  43  66  95 124 154 191 234 278
#     4  10  20  33  50  71  94 122 157 196 235 275
#     4   8  14  25  43  69  97 121 147 181 222 266
#     4   9  16  27  45  67  92 122 153 186 223 264
#
# _framework density 17.259848999999999
#
# number of rings (size 3 to 8) (size 9 to 14) (size 15 to 20)
#    0.000    2.875    0.000    2.250    0.000    3.000 
#    0.000    2.500    0.000   10.125    0.000    8.750 
#    0.000    0.000    0.000    0.000    0.000    0.000 
#
# Total GULP energy -793226.631655 kJ/mol
# GULP energy per Si atom -12394.166120 kJ/mol
# Density = 1.722057 g / cm^3
# Si number density = 17.259849 Si / 1000 Ang^3
#
#
#
# Elastic Constant Matrix: (Units=GPa)
#
#
# Indices 1 2 3 4 5 6 
#
# 1 40.1363 20.9685 34.3406 0.0000 0.0000 0.0000
# 2 20.9685 52.9118 46.9896 0.0000 0.0000 0.0000
# 3 34.3406 46.9896 128.3976 0.0000 0.0000 0.0000
# 4 0.0000 0.0000 0.0000 29.1600 0.0000 0.0000
# 5 0.0000 0.0000 0.0000 0.0000 17.9695 0.0000
# 6 0.0000 0.0000 0.0000 0.0000 0.0000 19.8331
#
#
#
# Elastic Compliance Matrix: (Units=1/GPa)
#
#
# Indices 1 2 3 4 5 6 
#
# 1 0.034512 -0.008118 -0.006259 0.000000 0.000000 0.000000
# 2 -0.008118 0.029909 -0.008775 0.000000 0.000000 0.000000
# 3 -0.006259 -0.008775 0.012674 0.000000 0.000000 0.000000
# 4 0.000000 0.000000 0.000000 0.034293 0.000000 0.000000
# 5 0.000000 0.000000 0.000000 0.000000 0.055650 0.000000
# 6 0.000000 0.000000 0.000000 0.000000 0.000000 0.050421
#
#
# Mechanical properties :
#
#
# Convention : Reuss Voigt Hill
#
# Bulk Modulus (GPa) = 32.47753 47.33812 39.90782
# Shear Modulus (GPa) = 18.24646 21.33565 19.79105
#
# Velocity S-wave (km/s) = 3.25493 3.51970 3.38990
# Velocity P-wave (km/s) = 5.74315 6.63355 6.20434
#
# Compressibility (1/GPa) = 0.03079052
#
# Stress axis : x y z
#
# Youngs Moduli (GPa) = 28.97564 33.43485 78.90376
#
# Poissons Ratio (x) = 0.27142 0.49390
# Poissons Ratio (y) = 0.23522 0.69235
# Poissons Ratio (z) = 0.18137 0.29338
#
# Static dielectric constant tensor:
#      x y z
#    x 3.309310 0.000000 0.000000 
#    y 0.000000 3.179090 0.000000 
#    z 0.000000 0.000000 3.601540 
# 
# 
# High freq. dielectric constant tensor:
#      x y z
#    x 1.648090 0.000000 0.000000 
#    y 0.000000 1.654940 0.000000 
#    z 0.000000 0.000000 1.658210 
# 
# From -- ./inp_files/31778.got.cif
#   From: 2010.03.12/outbox.cif.g09.slc.cpg/sg59_16_cif.got.tgz:31778.got - 2010.04.16 16:29:54.
