data_PCOD8242511
_publ_section_title
;
Structure prediction by ZEFSAII (Michael W. Deem and Ramdas Pophale) SiO2 
 PCOD8242511
Probable space group: P M M N
;
_chemical_formula_sum "Si O2"
_cell_formula_units_Z 64
_cell_length_a 19.633646
_cell_length_b 9.270736
_cell_length_c 18.870352
_cell_angle_alpha 90.000000
_cell_angle_beta 90.000000
_cell_angle_gamma 90.000000
_cell_volume 3434.750312
_symmetry_space_group_name_H-M "P M M N"
_symmetry_group_IT_number 59
_space_group.IT_coordinate_system_code '2'
_symmetry_cell_setting 'orthorhombic'
loop_
_space_group_symop_operation_xyz
x,y,z
1/2-x,1/2-y,z
1/2+x,-y,-z
-x,1/2+y,-z
-x,-y,-z
1/2+x,1/2+y,-z
1/2-x,y,z
x,1/2-y,z
loop_
_atom_site_type_symbol
_atom_site_label
_atom_site_fract_x
_atom_site_fract_y
_atom_site_fract_z
Si Si1 0.545743 0.419971 0.203056
Si Si2 0.675245 0.578913 0.415795
Si Si3 0.934878 0.921777 0.527029
Si Si4 0.674513 0.411632 0.921785
Si Si5 0.671279 0.919789 0.256003
Si Si6 0.461371 0.079114 0.062220
Si Si7 0.562774 0.919270 0.686356
Si Si8 0.175069 0.906892 0.245048
O O1 0.559491 0.250000 0.203176
O O2 0.619241 0.498977 0.202896
O O3 0.499376 0.463398 0.135519
O O4 0.505529 0.473248 0.273765
O O5 0.750000 0.516902 0.433211
O O6 0.677050 0.750000 0.416933
O O7 0.626048 0.520580 0.477320
O O8 0.653790 0.530028 0.336579
O O9 0.942568 0.750000 0.522772
O O10 0.927412 0.978425 0.607166
O O11 0.000000 0.000000 0.500000
O O12 0.750000 0.457021 0.951356
O O13 0.656144 0.250000 0.949871
O O14 0.616614 0.525450 0.942921
O O15 0.679210 0.408224 0.838342
O O16 0.750000 0.959840 0.237808
O O17 0.660137 0.750000 0.246751
O O18 0.461756 0.250000 0.050828
O O19 0.500000 0.000000 0.000000
O O20 0.561267 0.750000 0.686050
O O21 0.628000 0.964875 0.730213
O O22 0.250000 0.933352 0.277196
O O23 0.147366 0.750000 0.270537
#
# Coordination Sequence:
#
# PCOD8242511 Si02
#       8
#     8   8   8   8   8   8   8   8
#     4  10  21  36  53  77 109 139 170 216 271 323
#     4   8  15  30  50  72 100 135 177 219 259 308
#     4  10  20  32  49  72 101 137 176 219 267 319
#     4   9  18  35  59  85 113 145 182 221 263 317
#     4   9  18  33  55  80 102 131 177 227 268 315
#     4  11  23  39  59  84 115 149 184 223 272 328
#     4  10  20  33  49  75 107 139 179 224 268 320
#     4   9  18  32  51  77 107 139 176 217 261 312
#
# _framework density 18.633085999999999
#
# number of rings (size 3 to 8) (size 9 to 14) (size 15 to 20)
#    0.000    2.500    1.250    2.625    0.000    3.250 
#    0.000    3.125    0.000    1.875    0.000    0.000 
#    0.000    0.000    0.000    0.000    0.000    0.000 
#
# Total GULP energy -793114.091805 kJ/mol
# GULP energy per Si atom -12392.407684 kJ/mol
# Density = 1.859068 g / cm^3
# Si number density = 18.633086 Si / 1000 Ang^3
#
#
#
# Elastic Constant Matrix: (Units=GPa)
#
#
# Indices 1 2 3 4 5 6 
#
# 1 143.8862 48.2621 53.1085 0.0000 0.0000 0.0000
# 2 48.2621 37.4158 35.0002 0.0000 0.0000 0.0000
# 3 53.1085 35.0002 64.4619 0.0000 0.0000 0.0000
# 4 0.0000 0.0000 0.0000 21.6111 0.0000 0.0000
# 5 0.0000 0.0000 0.0000 0.0000 28.4624 0.0000
# 6 0.0000 0.0000 0.0000 0.0000 0.0000 32.6247
#
#
#
# Elastic Compliance Matrix: (Units=1/GPa)
#
#
# Indices 1 2 3 4 5 6 
#
# 1 0.012557 -0.013249 -0.003152 0.000000 0.000000 0.000000
# 2 -0.013249 0.068291 -0.026164 0.000000 0.000000 0.000000
# 3 -0.003152 -0.026164 0.032316 0.000000 0.000000 0.000000
# 4 0.000000 0.000000 0.000000 0.046273 0.000000 0.000000
# 5 0.000000 0.000000 0.000000 0.000000 0.035134 0.000000
# 6 0.000000 0.000000 0.000000 0.000000 0.000000 0.030652
#
#
# Mechanical properties :
#
#
# Convention : Reuss Voigt Hill
#
# Bulk Modulus (GPa) = 35.67021 57.61170 46.64096
# Shear Modulus (GPa) = 15.63981 23.83251 19.73616
#
# Velocity S-wave (km/s) = 2.90031 3.58025 3.25807
# Velocity P-wave (km/s) = 5.51369 6.93376 6.26410
#
# Compressibility (1/GPa) = 0.02803460
#
# Stress axis : x y z
#
# Youngs Moduli (GPa) = 79.63513 14.64318 30.94462
#
# Poissons Ratio (x) = 0.19401 0.09754
# Poissons Ratio (y) = 1.05509 0.80963
# Poissons Ratio (z) = 0.25100 0.38312
#
# Static dielectric constant tensor:
#      x y z
#    x 4.860660 0.000000 0.000000 
#    y 0.000000 3.349810 0.000000 
#    z 0.000000 0.000000 3.101560 
# 
# 
# High freq. dielectric constant tensor:
#      x y z
#    x 1.734900 0.000000 0.000000 
#    y 0.000000 1.704000 0.000000 
#    z 0.000000 0.000000 1.709950 
# 
# From -- ./inp_files/28155.got.cif
#   From: 2010.03.12/outbox.cif.g09.slc.cpg/sg59_15_cif.got.tgz:28155.got - 2010.04.16 16:29:54.
