data_PCOD8242214
_publ_section_title
;
Structure prediction by ZEFSAII (Michael W. Deem and Ramdas Pophale) SiO2 
 PCOD8242214
Probable space group: P M M N
;
_chemical_formula_sum "Si O2"
_cell_formula_units_Z 64
_cell_length_a 29.032392
_cell_length_b 9.252294
_cell_length_c 12.564907
_cell_angle_alpha 90.000000
_cell_angle_beta 90.000000
_cell_angle_gamma 90.000000
_cell_volume 3375.137902
_symmetry_space_group_name_H-M "P M M N"
_symmetry_group_IT_number 59
_space_group.IT_coordinate_system_code '2'
_symmetry_cell_setting 'orthorhombic'
loop_
_space_group_symop_operation_xyz
x,y,z
1/2-x,1/2-y,z
1/2+x,-y,-z
-x,1/2+y,-z
-x,-y,-z
1/2+x,1/2+y,-z
1/2-x,y,z
x,1/2-y,z
loop_
_atom_site_type_symbol
_atom_site_label
_atom_site_fract_x
_atom_site_fract_y
_atom_site_fract_z
Si Si1 0.200492 0.917088 0.948900
Si Si2 0.897121 0.078637 0.123482
Si Si3 0.043436 0.419453 0.297924
Si Si4 0.577416 0.588351 0.923029
Si Si5 0.179847 0.413015 0.150097
Si Si6 0.441369 0.920980 0.661499
Si Si7 0.389231 0.922497 0.451426
Si Si8 0.698009 0.918499 0.611994
O O1 0.250000 0.942863 0.889290
O O2 0.192140 0.750000 0.971219
O O3 0.156450 0.975013 0.882427
O O4 0.204905 0.991067 0.062876
O O5 0.901472 0.250000 0.120090
O O6 0.917461 0.014122 0.232587
O O7 0.926055 0.019038 0.022919
O O8 0.053477 0.250000 0.319323
O O9 0.040769 0.448720 0.170156
O O10 0.083432 0.513911 0.351012
O O11 0.994487 0.470098 0.345591
O O12 0.569863 0.750000 0.967396
O O13 0.625367 0.574614 0.861430
O O14 0.197218 0.250000 0.134033
O O15 0.194561 0.469075 0.265784
O O16 0.438625 0.750000 0.668442
O O17 0.414682 0.977260 0.558083
O O18 0.387515 0.750000 0.443118
O O19 0.337476 0.985476 0.456348
O O20 0.750000 0.946549 0.570315
O O21 0.684626 0.750000 0.601306
#
# Coordination Sequence:
#
# PCOD8242214 Si02
#       8
#     8   8   8   8   8   8   8   8
#     4   9  17  28  45  71 100 132 170 210 255 307
#     4   9  18  34  52  72 104 140 175 216 265 318
#     4  10  19  36  59  79 105 141 179 219 272 329
#     4   9  17  30  51  78 106 134 168 212 263 316
#     4   9  16  29  48  72 101 133 167 203 249 308
#     4   9  20  37  56  77 103 142 184 223 268 321
#     4  11  22  36  55  81 111 138 178 229 271 311
#     4  10  20  35  55  78 106 144 182 212 260 326
#
# _framework density 18.962188999999999
#
# number of rings (size 3 to 8) (size 9 to 14) (size 15 to 20)
#    0.000    2.500    1.250    1.125    0.000    2.500 
#    0.000    3.125    0.000    2.250    0.000    0.000 
#    0.000    0.000    0.000    0.000    0.000    0.000 
#
# Total GULP energy -793365.698483 kJ/mol
# GULP energy per Si atom -12396.339039 kJ/mol
# Density = 1.891903 g / cm^3
# Si number density = 18.962189 Si / 1000 Ang^3
#
#
#
# Elastic Constant Matrix: (Units=GPa)
#
#
# Indices 1 2 3 4 5 6 
#
# 1 92.8729 31.4747 34.1384 0.0000 0.0000 0.0000
# 2 31.4747 45.4745 28.5390 0.0000 0.0000 0.0000
# 3 34.1384 28.5390 81.4397 0.0000 0.0000 0.0000
# 4 0.0000 0.0000 0.0000 20.4175 0.0000 0.0000
# 5 0.0000 0.0000 0.0000 0.0000 15.7929 0.0000
# 6 0.0000 0.0000 0.0000 0.0000 0.0000 19.8627
#
#
#
# Elastic Compliance Matrix: (Units=1/GPa)
#
#
# Indices 1 2 3 4 5 6 
#
# 1 0.014743 -0.008109 -0.003338 0.000000 0.000000 0.000000
# 2 -0.008109 0.032650 -0.008043 0.000000 0.000000 0.000000
# 3 -0.003338 -0.008043 0.016497 0.000000 0.000000 0.000000
# 4 0.000000 0.000000 0.000000 0.048978 0.000000 0.000000
# 5 0.000000 0.000000 0.000000 0.000000 0.063320 0.000000
# 6 0.000000 0.000000 0.000000 0.000000 0.000000 0.050346
#
#
# Mechanical properties :
#
#
# Convention : Reuss Voigt Hill
#
# Bulk Modulus (GPa) = 40.14426 45.34347 42.74387
# Shear Modulus (GPa) = 18.26050 19.59029 18.92539
#
# Velocity S-wave (km/s) = 3.10658 3.21771 3.16264
# Velocity P-wave (km/s) = 5.83819 6.14568 5.99391
#
# Compressibility (1/GPa) = 0.02491016
#
# Stress axis : x y z
#
# Youngs Moduli (GPa) = 67.83063 30.62770 60.61800
#
# Poissons Ratio (x) = 0.24836 0.20236
# Poissons Ratio (y) = 0.55003 0.48752
# Poissons Ratio (z) = 0.22644 0.24632
#
# Static dielectric constant tensor:
#      x y z
#    x 3.731740 0.000000 0.000000 
#    y 0.000000 3.263010 0.000000 
#    z 0.000000 0.000000 3.409630 
# 
# 
# High freq. dielectric constant tensor:
#      x y z
#    x 1.749000 0.000000 0.000000 
#    y 0.000000 1.714160 0.000000 
#    z 0.000000 0.000000 1.717030 
# 
# From -- ./inp_files/15050.got.cif
#   From: 2010.03.12/outbox.cif.g09.slc.cpg/sg59_8_cif.got.tgz:15050.got - 2010.04.16 16:29:54.
