data_PCOD8242534
_publ_section_title
;
Structure prediction by ZEFSAII (Michael W. Deem and Ramdas Pophale) SiO2 
 PCOD8242534
Probable space group: P M M N
;
_chemical_formula_sum "Si O2"
_cell_formula_units_Z 48
_cell_length_a 9.216835
_cell_length_b 9.375495
_cell_length_c 30.373511
_cell_angle_alpha 90.000000
_cell_angle_beta 90.000000
_cell_angle_gamma 90.000000
_cell_volume 2624.647692
_symmetry_space_group_name_H-M "P M M N"
_symmetry_group_IT_number 59
_space_group.IT_coordinate_system_code '2'
_symmetry_cell_setting 'orthorhombic'
loop_
_space_group_symop_operation_xyz
x,y,z
1/2-x,1/2-y,z
1/2+x,-y,-z
-x,1/2+y,-z
-x,-y,-z
1/2+x,1/2+y,-z
1/2-x,y,z
x,1/2-y,z
loop_
_atom_site_type_symbol
_atom_site_label
_atom_site_fract_x
_atom_site_fract_y
_atom_site_fract_z
Si Si1 0.422912 0.591218 0.365789
Si Si2 0.079019 0.417080 0.038850
Si Si3 0.083608 0.087223 0.787064
Si Si4 0.922082 0.911571 0.715783
Si Si5 0.584180 0.082939 0.536995
Si Si6 0.417118 0.414046 0.889259
O O1 0.250000 0.592839 0.366218
O O2 0.480901 0.750000 0.355221
O O3 0.483942 0.486376 0.328307
O O4 0.476599 0.542346 0.414295
O O5 0.250000 0.443297 0.035298
O O6 0.041413 0.250000 0.036024
O O7 0.021737 0.479513 0.084797
O O8 0.000000 0.500000 0.000000
O O9 0.250000 0.057088 0.774792
O O10 0.042724 0.250000 0.776252
O O11 0.056101 0.055062 0.838124
O O12 0.981546 0.985040 0.759352
O O13 0.750000 0.922163 0.717255
O O14 0.976901 0.750000 0.714840
O O15 0.750000 0.035823 0.533347
O O16 0.565561 0.250000 0.528967
O O17 0.500000 0.000000 0.500000
O O18 0.250000 0.444093 0.901962
O O19 0.455115 0.250000 0.900752
#
# Coordination Sequence:
#
# PCOD8242534 Si02
#       6
#     8   8   8   8   8   8
#     4   8  15  30  50  69  93 129 170 208 247 295
#     4  11  24  39  56  81 111 141 175 215 257 303
#     4   9  19  36  56  77 103 137 174 210 251 301
#     4  10  20  32  49  76 105 131 165 210 255 300
#     4   9  18  32  50  73  99 127 163 206 250 300
#     4   9  19  37  59  81 105 135 174 216 255 300
#
# _framework density 18.288169
#
# number of rings (size 3 to 8) (size 9 to 14) (size 15 to 20)
#    0.000    2.667    0.000    3.500    0.000    7.333 
#    0.000    7.500    0.000    1.000    0.000    0.000 
#    0.000    0.000    0.000    0.000    0.000    0.000 
#
# Total GULP energy -595151.746495 kJ/mol
# GULP energy per Si atom -12398.994719 kJ/mol
# Density = 1.824654 g / cm^3
# Si number density = 18.288169 Si / 1000 Ang^3
#
#
#
# Elastic Constant Matrix: (Units=GPa)
#
#
# Indices 1 2 3 4 5 6 
#
# 1 55.2420 54.1385 48.5820 0.0000 0.0000 0.0000
# 2 54.1385 126.6235 83.9294 0.0000 0.0000 0.0000
# 3 48.5820 83.9294 125.5661 0.0000 0.0000 0.0000
# 4 0.0000 0.0000 0.0000 39.3997 0.0000 0.0000
# 5 0.0000 0.0000 0.0000 0.0000 33.5398 0.0000
# 6 0.0000 0.0000 0.0000 0.0000 0.0000 30.5010
#
#
#
# Elastic Compliance Matrix: (Units=1/GPa)
#
#
# Indices 1 2 3 4 5 6 
#
# 1 0.033569 -0.010313 -0.006095 0.000000 0.000000 0.000000
# 2 -0.010313 0.017348 -0.007605 0.000000 0.000000 0.000000
# 3 -0.006095 -0.007605 0.015405 0.000000 0.000000 0.000000
# 4 0.000000 0.000000 0.000000 0.025381 0.000000 0.000000
# 5 0.000000 0.000000 0.000000 0.000000 0.029815 0.000000
# 6 0.000000 0.000000 0.000000 0.000000 0.000000 0.032786
#
#
# Mechanical properties :
#
#
# Convention : Reuss Voigt Hill
#
# Bulk Modulus (GPa) = 54.65566 75.63682 65.14624
# Shear Modulus (GPa) = 23.98904 28.74023 26.36463
#
# Velocity S-wave (km/s) = 3.62570 3.96854 3.80099
# Velocity P-wave (km/s) = 6.89045 7.90235 7.41369
#
# Compressibility (1/GPa) = 0.01829637
#
# Stress axis : x y z
#
# Youngs Moduli (GPa) = 29.78948 57.64454 64.91204
#
# Poissons Ratio (x) = 0.59448 0.39562
# Poissons Ratio (y) = 0.30721 0.49368
# Poissons Ratio (z) = 0.18156 0.43840
#
# Static dielectric constant tensor:
#      x y z
#    x 3.159430 0.000000 0.000000 
#    y 0.000000 3.926620 0.000000 
#    z 0.000000 0.000000 3.510830 
# 
# 
# High freq. dielectric constant tensor:
#      x y z
#    x 1.685600 0.000000 0.000000 
#    y 0.000000 1.709490 0.000000 
#    z 0.000000 0.000000 1.723740 
# 
# From -- ./inp_files/32909.got.cif
#   From: 2010.03.12/outbox.cif.g09.slc.cpg/sg59_17_cif.got.tgz:32909.got - 2010.04.16 16:29:54.
