data_PCOD8242200
_publ_section_title
;
Structure prediction by ZEFSAII (Michael W. Deem and Ramdas Pophale) SiO2 
 PCOD8242200
Probable space group: P M M N
;
_chemical_formula_sum "Si O2"
_cell_formula_units_Z 48
_cell_length_a 30.622179
_cell_length_b 8.768568
_cell_length_c 9.646555
_cell_angle_alpha 90.000000
_cell_angle_beta 90.000000
_cell_angle_gamma 90.000000
_cell_volume 2590.222132
_symmetry_space_group_name_H-M "P M M N"
_symmetry_group_IT_number 59
_space_group.IT_coordinate_system_code '2'
_symmetry_cell_setting 'orthorhombic'
loop_
_space_group_symop_operation_xyz
x,y,z
1/2-x,1/2-y,z
1/2+x,-y,-z
-x,1/2+y,-z
-x,-y,-z
1/2+x,1/2+y,-z
1/2-x,y,z
x,1/2-y,z
loop_
_atom_site_type_symbol
_atom_site_label
_atom_site_fract_x
_atom_site_fract_y
_atom_site_fract_z
Si Si1 0.388394 0.428240 0.708405
Si Si2 0.565368 0.931112 0.796506
Si Si3 0.988748 0.927675 0.353058
Si Si4 0.127801 0.570967 0.993810
Si Si5 0.637527 0.928536 0.585337
Si Si6 0.200221 0.429476 0.179932
O O1 0.379489 0.250000 0.736424
O O2 0.439246 0.461454 0.687146
O O3 0.362864 0.490896 0.571540
O O4 0.369322 0.526248 0.833483
O O5 0.562530 0.750000 0.802986
O O6 0.596858 0.992812 0.673906
O O7 0.517675 0.999639 0.769715
O O8 0.585205 0.989743 0.941260
O O9 0.998471 0.750000 0.363648
O O10 0.000000 0.000000 0.500000
O O11 0.122784 0.750000 0.011564
O O12 0.172606 0.517508 0.065114
O O13 0.629701 0.750000 0.574635
O O14 0.682411 0.968510 0.665415
O O15 0.250000 0.484535 0.171339
O O16 0.195310 0.250000 0.151199
#
# Coordination Sequence:
#
# PCOD8242200 Si02
#       6
#     8   8   8   8   8   8
#     4  10  20  36  54  77 112 152 187 224 272 328
#     4  10  19  36  57  78 106 146 190 235 276 322
#     4  11  21  33  53  81 112 149 192 234 277 323
#     4  11  23  37  54  81 113 148 185 229 283 333
#     4   8  15  31  55  80 106 136 177 222 266 317
#     4   9  18  36  63  88 108 138 179 222 273 338
#
# _framework density 18.531230000000001
#
# number of rings (size 3 to 8) (size 9 to 14) (size 15 to 20)
#    0.000    2.167    1.667    3.500    0.000    2.333 
#    0.000    1.667    0.000    3.000    0.000    0.000 
#    0.000    0.000    0.000    0.000    0.000    0.000 
#
# Total GULP energy -595174.227762 kJ/mol
# GULP energy per Si atom -12399.463078 kJ/mol
# Density = 1.848905 g / cm^3
# Si number density = 18.531230 Si / 1000 Ang^3
#
#
#
# Elastic Constant Matrix: (Units=GPa)
#
#
# Indices 1 2 3 4 5 6 
#
# 1 87.3417 47.5554 43.3298 0.0000 0.0000 0.0000
# 2 47.5554 82.5219 40.6283 0.0000 0.0000 0.0000
# 3 43.3298 40.6283 130.1068 0.0000 0.0000 0.0000
# 4 0.0000 0.0000 0.0000 24.5703 0.0000 0.0000
# 5 0.0000 0.0000 0.0000 0.0000 21.0118 0.0000
# 6 0.0000 0.0000 0.0000 0.0000 0.0000 25.2022
#
#
#
# Elastic Compliance Matrix: (Units=1/GPa)
#
#
# Indices 1 2 3 4 5 6 
#
# 1 0.017751 -0.008649 -0.003211 0.000000 0.000000 0.000000
# 2 -0.008649 0.018533 -0.002907 0.000000 0.000000 0.000000
# 3 -0.003211 -0.002907 0.009663 0.000000 0.000000 0.000000
# 4 0.000000 0.000000 0.000000 0.040699 0.000000 0.000000
# 5 0.000000 0.000000 0.000000 0.000000 0.047592 0.000000
# 6 0.000000 0.000000 0.000000 0.000000 0.000000 0.039679
#
#
# Mechanical properties :
#
#
# Convention : Reuss Voigt Hill
#
# Bulk Modulus (GPa) = 60.92329 62.55527 61.73928
# Shear Modulus (GPa) = 23.93219 25.38733 24.65976
#
# Velocity S-wave (km/s) = 3.59758 3.70533 3.65185
# Velocity P-wave (km/s) = 7.08549 7.22052 7.15332
#
# Compressibility (1/GPa) = 0.01641408
#
# Stress axis : x y z
#
# Youngs Moduli (GPa) = 56.33396 53.95687 103.48588
#
# Poissons Ratio (x) = 0.46666 0.33229
# Poissons Ratio (y) = 0.48722 0.30084
# Poissons Ratio (z) = 0.18089 0.15686
#
# Static dielectric constant tensor:
#      x y z
#    x 3.412760 0.000000 0.000000 
#    y 0.000000 3.241280 0.000000 
#    z 0.000000 0.000000 3.601660 
# 
# 
# High freq. dielectric constant tensor:
#      x y z
#    x 1.705750 0.000000 0.000000 
#    y 0.000000 1.705180 0.000000 
#    z 0.000000 0.000000 1.723150 
# 
# From -- ./inp_files/6261.got.cif
#   From: 2010.03.12/outbox.cif.g09.slc.cpg/sg59_4_cif.got.tgz:6261.got - 2010.04.16 16:29:54.
