data_PCOD8242094
_publ_section_title
;
Structure prediction by ZEFSAII (Michael W. Deem and Ramdas Pophale) SiO2 
 PCOD8242094
Probable space group: P M M N
;
_chemical_formula_sum "Si O2"
_cell_formula_units_Z 64
_cell_length_a 23.806008
_cell_length_b 9.330644
_cell_length_c 15.291208
_cell_angle_alpha 90.000000
_cell_angle_beta 90.000000
_cell_angle_gamma 90.000000
_cell_volume 3396.565475
_symmetry_space_group_name_H-M "P M M N"
_symmetry_group_IT_number 59
_space_group.IT_coordinate_system_code '2'
_symmetry_cell_setting 'orthorhombic'
loop_
_space_group_symop_operation_xyz
x,y,z
1/2-x,1/2-y,z
1/2+x,-y,-z
-x,1/2+y,-z
-x,-y,-z
1/2+x,1/2+y,-z
1/2-x,y,z
x,1/2-y,z
loop_
_atom_site_type_symbol
_atom_site_label
_atom_site_fract_x
_atom_site_fract_y
_atom_site_fract_z
Si Si1 0.502885 0.580443 0.835924
Si Si2 0.314663 0.417213 0.758534
Si Si3 0.606051 0.416406 0.903444
Si Si4 0.882336 0.583820 0.409395
Si Si5 0.119876 0.585627 0.898297
Si Si6 0.186977 0.920352 0.249833
Si Si7 0.496498 0.913475 0.341254
Si Si8 0.122210 0.915233 0.420407
O O1 0.511985 0.750000 0.835897
O O2 0.549484 0.507881 0.896753
O O3 0.442935 0.535677 0.875049
O O4 0.508233 0.522554 0.738153
O O5 0.250000 0.453276 0.741802
O O6 0.325513 0.250000 0.772041
O O7 0.349625 0.474648 0.675536
O O8 0.334794 0.494004 0.846208
O O9 0.591158 0.250000 0.886245
O O10 0.651496 0.474080 0.833580
O O11 0.631832 0.438310 0.999372
O O12 0.869186 0.750000 0.424073
O O13 0.859512 0.500967 0.493724
O O14 0.948246 0.553546 0.397295
O O15 0.128208 0.750000 0.871396
O O16 0.250000 0.983406 0.244221
O O17 0.188398 0.750000 0.249735
O O18 0.157369 0.976047 0.338215
O O19 0.497333 0.750000 0.305072
O O20 0.443770 0.937868 0.404121
O O21 0.136838 0.750000 0.436510
#
# Coordination Sequence:
#
# PCOD8242094 Si02
#       8
#     8   8   8   8   8   8   8   8
#     4  11  21  33  54  86 117 144 181 230 281 331
#     4  10  22  40  60  81 110 151 193 232 277 332
#     4  10  20  37  59  82 113 150 186 225 277 337
#     4  10  21  36  56  81 110 145 184 225 278 337
#     4  10  22  37  57  86 114 146 187 233 281 330
#     4   9  18  34  56  80 106 141 186 228 266 319
#     4  10  19  35  57  80 107 149 187 220 279 342
#     4  10  20  34  55  82 110 141 182 227 277 332
#
# _framework density 18.842562999999998
#
# number of rings (size 3 to 8) (size 9 to 14) (size 15 to 20)
#    0.000    2.000    2.500    1.125    0.000    3.750 
#    0.000    1.250    0.000    1.125    0.000    0.000 
#    0.000    0.000    0.000    0.000    0.000    0.000 
#
# Total GULP energy -793836.028133 kJ/mol
# GULP energy per Si atom -12403.687940 kJ/mol
# Density = 1.879968 g / cm^3
# Si number density = 18.842563 Si / 1000 Ang^3
#
#
#
# Elastic Constant Matrix: (Units=GPa)
#
#
# Indices 1 2 3 4 5 6 
#
# 1 100.2968 28.5827 39.9002 0.0000 0.0000 0.0000
# 2 28.5827 48.6179 38.6141 0.0000 0.0000 0.0000
# 3 39.9002 38.6141 122.5610 0.0000 0.0000 0.0000
# 4 0.0000 0.0000 0.0000 34.1660 0.0000 0.0000
# 5 0.0000 0.0000 0.0000 0.0000 16.2907 0.0000
# 6 0.0000 0.0000 0.0000 0.0000 0.0000 16.2367
#
#
#
# Elastic Compliance Matrix: (Units=1/GPa)
#
#
# Indices 1 2 3 4 5 6 
#
# 1 0.012457 -0.005472 -0.002332 0.000000 0.000000 0.000000
# 2 -0.005472 0.029837 -0.007619 0.000000 0.000000 0.000000
# 3 -0.002332 -0.007619 0.011319 0.000000 0.000000 0.000000
# 4 0.000000 0.000000 0.000000 0.029269 0.000000 0.000000
# 5 0.000000 0.000000 0.000000 0.000000 0.061385 0.000000
# 6 0.000000 0.000000 0.000000 0.000000 0.000000 0.061589
#
#
# Mechanical properties :
#
#
# Convention : Reuss Voigt Hill
#
# Bulk Modulus (GPa) = 43.92147 53.96330 48.94239
# Shear Modulus (GPa) = 20.46752 24.29725 22.38238
#
# Velocity S-wave (km/s) = 3.29939 3.59484 3.45028
# Velocity P-wave (km/s) = 6.15426 6.77729 6.47328
#
# Compressibility (1/GPa) = 0.02276791
#
# Stress axis : x y z
#
# Youngs Moduli (GPa) = 80.27393 33.51564 88.34946
#
# Poissons Ratio (x) = 0.18340 0.20599
# Poissons Ratio (y) = 0.43925 0.67313
# Poissons Ratio (z) = 0.18716 0.25536
#
# Static dielectric constant tensor:
#      x y z
#    x 3.544060 0.000000 0.000000 
#    y 0.000000 3.262880 0.000000 
#    z 0.000000 0.000000 3.448030 
# 
# 
# High freq. dielectric constant tensor:
#      x y z
#    x 1.732820 0.000000 0.000000 
#    y 0.000000 1.710350 0.000000 
#    z 0.000000 0.000000 1.739630 
# 
# From -- ./inp_files/21439.got.cif
#   From: 2010.03.12/outbox.cif.g09.slc.cpg/sg59_11_cif.got.tgz:21439.got - 2010.04.16 16:29:54.
