data_PCOD8242366
_publ_section_title
;
Structure prediction by ZEFSAII (Michael W. Deem and Ramdas Pophale) SiO2 
 PCOD8242366
Probable space group: P M M N
;
_chemical_formula_sum "Si O2"
_cell_formula_units_Z 64
_cell_length_a 15.592207
_cell_length_b 9.373225
_cell_length_c 23.789883
_cell_angle_alpha 90.000000
_cell_angle_beta 90.000000
_cell_angle_gamma 90.000000
_cell_volume 3476.873902
_symmetry_space_group_name_H-M "P M M N"
_symmetry_group_IT_number 59
_space_group.IT_coordinate_system_code '2'
_symmetry_cell_setting 'orthorhombic'
loop_
_space_group_symop_operation_xyz
x,y,z
1/2-x,1/2-y,z
1/2+x,-y,-z
-x,1/2+y,-z
-x,-y,-z
1/2+x,1/2+y,-z
1/2-x,y,z
x,1/2-y,z
loop_
_atom_site_type_symbol
_atom_site_label
_atom_site_fract_x
_atom_site_fract_y
_atom_site_fract_z
Si Si1 0.347490 0.081807 0.121806
Si Si2 0.508886 0.081534 0.190724
Si Si3 0.846063 0.420215 0.108782
Si Si4 0.155206 0.588745 0.370816
Si Si5 0.384305 0.091626 0.474842
Si Si6 0.009540 0.082305 0.316362
Si Si7 0.851419 0.407351 0.985097
Si Si8 0.074407 0.593293 0.571388
O O1 0.250000 0.032217 0.137372
O O2 0.349966 0.250000 0.113504
O O3 0.414497 0.030751 0.169771
O O4 0.381049 0.014665 0.063499
O O5 0.513070 0.250000 0.185027
O O6 0.586332 0.015353 0.153769
O O7 0.524134 0.035387 0.255237
O O8 0.750000 0.479706 0.121652
O O9 0.843350 0.250000 0.111280
O O10 0.878934 0.466487 0.046577
O O11 0.250000 0.591993 0.344255
O O12 0.120319 0.750000 0.379899
O O13 0.162073 0.510298 0.430636
O O14 0.096008 0.504402 0.327526
O O15 0.342949 0.250000 0.475274
O O16 0.483036 0.104331 0.458596
O O17 0.370589 0.022774 0.536994
O O18 0.032367 0.250000 0.319211
O O19 0.938051 0.044695 0.363574
O O20 0.750000 0.394273 0.985613
O O21 0.891089 0.250000 0.973831
O O22 0.118556 0.750000 0.569462
#
# Coordination Sequence:
#
# PCOD8242366 Si02
#       8
#     8   8   8   8   8   8   8   8
#     4   9  17  28  42  63  93 126 156 190 234 279
#     4   9  17  29  45  66  91 121 160 199 232 273
#     4   8  14  26  46  70  92 114 145 191 243 287
#     4  10  20  32  46  66  94 125 154 190 234 274
#     4   9  16  26  44  68  88 111 145 182 222 269
#     4   9  18  31  47  66  89 121 159 195 228 269
#     4   8  14  26  44  65  89 118 152 189 232 284
#     4   8  14  25  41  62  87 112 139 176 222 267
#
# _framework density 18.407340999999999
#
# number of rings (size 3 to 8) (size 9 to 14) (size 15 to 20)
#    0.000    3.250    0.000    2.250    0.000    5.000 
#    0.000    1.875    0.000    3.000    0.000    3.500 
#    0.000    0.000    0.000    0.000    0.000    0.000 
#
# Total GULP energy -793030.745682 kJ/mol
# GULP energy per Si atom -12391.105401 kJ/mol
# Density = 1.836545 g / cm^3
# Si number density = 18.407341 Si / 1000 Ang^3
#
#
#
# Elastic Constant Matrix: (Units=GPa)
#
#
# Indices 1 2 3 4 5 6 
#
# 1 48.6831 9.5484 30.9750 0.0000 0.0000 0.0000
# 2 9.5484 54.7534 26.7301 0.0000 0.0000 0.0000
# 3 30.9750 26.7301 138.7010 0.0000 0.0000 0.0000
# 4 0.0000 0.0000 0.0000 24.3640 0.0000 0.0000
# 5 0.0000 0.0000 0.0000 0.0000 12.0533 0.0000
# 6 0.0000 0.0000 0.0000 0.0000 0.0000 10.6589
#
#
#
# Elastic Compliance Matrix: (Units=1/GPa)
#
#
# Indices 1 2 3 4 5 6 
#
# 1 0.024092 -0.001738 -0.005045 0.000000 0.000000 0.000000
# 2 -0.001738 0.020286 -0.003521 0.000000 0.000000 0.000000
# 3 -0.005045 -0.003521 0.009015 0.000000 0.000000 0.000000
# 4 0.000000 0.000000 0.000000 0.041044 0.000000 0.000000
# 5 0.000000 0.000000 0.000000 0.000000 0.082965 0.000000
# 6 0.000000 0.000000 0.000000 0.000000 0.000000 0.093819
#
#
# Mechanical properties :
#
#
# Convention : Reuss Voigt Hill
#
# Bulk Modulus (GPa) = 30.50333 41.84939 36.17636
# Shear Modulus (GPa) = 16.51483 21.07416 18.79449
#
# Velocity S-wave (km/s) = 2.99856 3.38728 3.19883
# Velocity P-wave (km/s) = 5.34750 6.17112 5.77401
#
# Compressibility (1/GPa) = 0.03278330
#
# Stress axis : x y z
#
# Youngs Moduli (GPa) = 41.50752 49.29538 110.92527
#
# Poissons Ratio (x) = 0.08569 0.55965
# Poissons Ratio (y) = 0.07215 0.39059
# Poissons Ratio (z) = 0.20942 0.17358
#
# Static dielectric constant tensor:
#      x y z
#    x 3.223930 0.000000 0.000000 
#    y 0.000000 3.352950 0.000000 
#    z 0.000000 0.000000 3.609750 
# 
# 
# High freq. dielectric constant tensor:
#      x y z
#    x 1.684260 0.000000 0.000000 
#    y 0.000000 1.687110 0.000000 
#    z 0.000000 0.000000 1.709650 
# 
# From -- ./inp_files/32285.got.cif
#   From: 2010.03.12/outbox.cif.g09.slc.cpg/sg59_17_cif.got.tgz:32285.got - 2010.04.16 16:29:54.
