data_PCOD8242950
_publ_section_title
;
Structure prediction by ZEFSAII (Michael W. Deem and Ramdas Pophale) SiO2 
 PCOD8242950
Probable space group: P M M N
;
_chemical_formula_sum "Si O2"
_cell_formula_units_Z 56
_cell_length_a 20.201522
_cell_length_b 8.611080
_cell_length_c 15.387237
_cell_angle_alpha 90.000000
_cell_angle_beta 90.000000
_cell_angle_gamma 90.000000
_cell_volume 2676.716388
_symmetry_space_group_name_H-M "P M M N"
_symmetry_group_IT_number 59
_space_group.IT_coordinate_system_code '2'
_symmetry_cell_setting 'orthorhombic'
loop_
_space_group_symop_operation_xyz
x,y,z
1/2-x,1/2-y,z
1/2+x,-y,-z
-x,1/2+y,-z
-x,-y,-z
1/2+x,1/2+y,-z
1/2-x,y,z
x,1/2-y,z
loop_
_atom_site_type_symbol
_atom_site_label
_atom_site_fract_x
_atom_site_fract_y
_atom_site_fract_z
Si Si1 0.175991 0.573702 0.990044
Si Si2 0.003430 0.929842 0.235484
Si Si3 0.129539 0.926646 0.802395
Si Si4 0.324754 0.080822 0.636244
Si Si5 0.173833 0.566836 0.460482
Si Si6 0.539636 0.566571 0.583338
Si Si7 0.947563 0.929570 0.932256
O O1 0.250000 0.536545 0.022593
O O2 0.155582 0.750000 0.014845
O O3 0.126500 0.452695 0.033429
O O4 0.174857 0.552907 0.886428
O O5 0.017719 0.750000 0.251761
O O6 0.932424 0.958073 0.191223
O O7 0.003058 0.017907 0.327784
O O8 0.054018 0.994351 0.163560
O O9 0.104500 0.750000 0.792388
O O10 0.173046 0.975412 0.720772
O O11 0.250000 0.117930 0.614409
O O12 0.361680 0.250000 0.645409
O O13 0.352258 0.982199 0.555851
O O14 0.250000 0.510630 0.439077
O O15 0.171150 0.750000 0.450924
O O16 0.115924 0.492057 0.401839
O O17 0.500000 0.500000 0.500000
O O18 0.540105 0.750000 0.573651
O O19 0.965091 0.750000 0.923157
O O20 0.000000 0.000000 0.000000
#
# Coordination Sequence:
#
# PCOD8242950 Si02
#       7
#     8   8   8   8   8   8   8
#     4  10  22  40  63  92 128 169 212 263 322 381
#     4  12  25  42  65  93 124 164 213 265 320 383
#     4  11  21  35  57  86 122 162 205 254 315 384
#     4  10  20  33  51  79 117 160 206 254 309 376
#     4  10  21  39  62  87 119 162 211 263 323 386
#     4  12  25  43  66  95 132 170 215 271 325 385
#     4  12  24  42  67  95 127 168 214 262 315 376
#
# _framework density 20.921154000000001
#
# number of rings (size 3 to 8) (size 9 to 14) (size 15 to 20)
#    0.000    1.000    1.429    6.429    0.000    3.143 
#    0.000    0.714    0.000    4.286    0.000    0.000 
#    0.000    0.000    0.000    0.000    0.000    0.000 
#
# Total GULP energy -694201.041540 kJ/mol
# GULP energy per Si atom -12396.447170 kJ/mol
# Density = 2.087354 g / cm^3
# Si number density = 20.921154 Si / 1000 Ang^3
#
#
#
# Elastic Constant Matrix: (Units=GPa)
#
#
# Indices 1 2 3 4 5 6 
#
# 1 93.1846 35.2852 17.7299 0.0000 0.0000 0.0000
# 2 35.2852 125.7445 31.9288 0.0000 0.0000 0.0000
# 3 17.7299 31.9288 86.2394 0.0000 0.0000 0.0000
# 4 0.0000 0.0000 0.0000 32.7736 0.0000 0.0000
# 5 0.0000 0.0000 0.0000 0.0000 29.0797 0.0000
# 6 0.0000 0.0000 0.0000 0.0000 0.0000 33.5190
#
#
#
# Elastic Compliance Matrix: (Units=1/GPa)
#
#
# Indices 1 2 3 4 5 6 
#
# 1 0.012151 -0.003063 -0.001364 0.000000 0.000000 0.000000
# 2 -0.003063 0.009550 -0.002906 0.000000 0.000000 0.000000
# 3 -0.001364 -0.002906 0.012952 0.000000 0.000000 0.000000
# 4 0.000000 0.000000 0.000000 0.030512 0.000000 0.000000
# 5 0.000000 0.000000 0.000000 0.000000 0.034388 0.000000
# 6 0.000000 0.000000 0.000000 0.000000 0.000000 0.029834
#
#
# Mechanical properties :
#
#
# Convention : Reuss Voigt Hill
#
# Bulk Modulus (GPa) = 50.03403 52.78402 51.40903
# Shear Modulus (GPa) = 33.17496 33.75608 33.46552
#
# Velocity S-wave (km/s) = 3.98642 4.02119 4.00384
# Velocity P-wave (km/s) = 6.71984 6.84432 6.78236
#
# Compressibility (1/GPa) = 0.01998640
#
# Stress axis : x y z
#
# Youngs Moduli (GPa) = 82.29873 104.71070 77.20852
#
# Poissons Ratio (x) = 0.32076 0.10531
# Poissons Ratio (y) = 0.25211 0.22437
# Poissons Ratio (z) = 0.11225 0.30429
#
# Static dielectric constant tensor:
#      x y z
#    x 3.893160 0.000000 0.000000 
#    y 0.000000 3.896970 0.000000 
#    z 0.000000 0.000000 3.820550 
# 
# 
# High freq. dielectric constant tensor:
#      x y z
#    x 1.819910 0.000000 0.000000 
#    y 0.000000 1.828490 0.000000 
#    z 0.000000 0.000000 1.807350 
# 
# From -- ./inp_files/21075.got.cif
#   From: 2010.03.12/outbox.cif.g09.slc.cpg/sg59_11_cif.got.tgz:21075.got - 2010.04.16 16:29:54.
