data_PCOD8242708
_publ_section_title
;
Structure prediction by ZEFSAII (Michael W. Deem and Ramdas Pophale) SiO2 
 PCOD8242708
Probable space group: P M M N
;
_chemical_formula_sum "Si O2"
_cell_formula_units_Z 40
_cell_length_a 9.746857
_cell_length_b 20.548257
_cell_length_c 11.571473
_cell_angle_alpha 90.000000
_cell_angle_beta 90.000000
_cell_angle_gamma 90.000000
_cell_volume 2317.545288
_symmetry_space_group_name_H-M "P M M N"
_symmetry_group_IT_number 59
_space_group.IT_coordinate_system_code '2'
_symmetry_cell_setting 'orthorhombic'
loop_
_space_group_symop_operation_xyz
x,y,z
1/2-x,1/2-y,z
1/2+x,-y,-z
-x,1/2+y,-z
-x,-y,-z
1/2+x,1/2+y,-z
1/2-x,y,z
x,1/2-y,z
loop_
_atom_site_type_symbol
_atom_site_label
_atom_site_fract_x
_atom_site_fract_y
_atom_site_fract_z
Si Si1 0.090406 0.452154 0.422238
Si Si2 0.592474 0.824017 0.445691
Si Si3 0.094422 0.456143 0.158455
Si Si4 0.905540 0.091102 0.972776
Si Si5 0.596384 0.173656 0.763508
O O1 0.250000 0.470992 0.439088
O O2 0.066000 0.375879 0.452607
O O3 0.043089 0.460754 0.290091
O O4 0.000000 0.500000 0.500000
O O5 0.750000 0.825043 0.405746
O O6 0.551398 0.750000 0.484654
O O7 0.503302 0.849317 0.338091
O O8 0.250000 0.430117 0.154323
O O9 0.079190 0.525800 0.100559
O O10 0.999960 0.406376 0.086473
O O11 0.750000 0.101507 0.014848
O O12 0.955655 0.147763 0.886884
O O13 0.750000 0.146314 0.738164
O O14 0.597215 0.250000 0.772022
#
# Coordination Sequence:
#
# PCOD8242708 Si02
#       5
#     8   8   8   8   8
#     4  10  20  33  50  72  97 125 159 199 239 282
#     4   9  18  32  49  70  97 127 157 191 234 283
#     4   9  18  31  46  66  92 120 150 186 229 273
#     4   9  17  30  47  66  90 119 150 186 227 271
#     4   9  17  30  49  71  94 121 153 190 232 276
#
# _framework density 17.259640000000001
#
# number of rings (size 3 to 8) (size 9 to 14) (size 15 to 20)
#    0.000    2.800    0.000    1.200    0.000    4.000 
#    0.000    5.000    0.000    1.200    0.000    0.000 
#    0.000    0.000    0.000    0.000    0.000    0.000 
#
# Total GULP energy -495889.773763 kJ/mol
# GULP energy per Si atom -12397.244344 kJ/mol
# Density = 1.722036 g / cm^3
# Si number density = 17.259640 Si / 1000 Ang^3
#
#
#
# Elastic Constant Matrix: (Units=GPa)
#
#
# Indices 1 2 3 4 5 6 
#
# 1 58.6210 22.9373 49.0118 0.0000 0.0000 0.0000
# 2 22.9373 36.8407 25.3241 0.0000 0.0000 0.0000
# 3 49.0118 25.3241 114.7377 0.0000 0.0000 0.0000
# 4 0.0000 0.0000 0.0000 20.4074 0.0000 0.0000
# 5 0.0000 0.0000 0.0000 0.0000 33.2787 0.0000
# 6 0.0000 0.0000 0.0000 0.0000 0.0000 20.9210
#
#
#
# Elastic Compliance Matrix: (Units=1/GPa)
#
#
# Indices 1 2 3 4 5 6 
#
# 1 0.030317 -0.011757 -0.010355 0.000000 0.000000 0.000000
# 2 -0.011757 0.036558 -0.003047 0.000000 0.000000 0.000000
# 3 -0.010355 -0.003047 0.013811 0.000000 0.000000 0.000000
# 4 0.000000 0.000000 0.000000 0.049002 0.000000 0.000000
# 5 0.000000 0.000000 0.000000 0.000000 0.030049 0.000000
# 6 0.000000 0.000000 0.000000 0.000000 0.000000 0.047799
#
#
# Mechanical properties :
#
#
# Convention : Reuss Voigt Hill
#
# Bulk Modulus (GPa) = 32.92926 44.97175 38.95050
# Shear Modulus (GPa) = 18.65825 22.44984 20.55405
#
# Velocity S-wave (km/s) = 3.29147 3.61045 3.45465
# Velocity P-wave (km/s) = 5.79355 6.59493 6.20719
#
# Compressibility (1/GPa) = 0.03036813
#
# Stress axis : x y z
#
# Youngs Moduli (GPa) = 32.98478 27.35355 72.40422
#
# Poissons Ratio (x) = 0.32161 0.74977
# Poissons Ratio (y) = 0.38782 0.22058
# Poissons Ratio (z) = 0.34157 0.08333
#
# Static dielectric constant tensor:
#      x y z
#    x 3.456300 0.000000 0.000000 
#    y 0.000000 3.210460 0.000000 
#    z 0.000000 0.000000 3.301220 
# 
# 
# High freq. dielectric constant tensor:
#      x y z
#    x 1.666120 0.000000 0.000000 
#    y 0.000000 1.658630 0.000000 
#    z 0.000000 0.000000 1.659220 
# 
# From -- ./inp_files/7347.got.cif
#   From: 2010.03.12/outbox.cif.g09.slc.cpg/sg59_4_cif.got.tgz:7347.got - 2010.04.16 16:29:54.
