data_PCOD8242965
_publ_section_title
;
Structure prediction by ZEFSAII (Michael W. Deem and Ramdas Pophale) SiO2 
 PCOD8242965
Probable space group: P M M N
;
_chemical_formula_sum "Si O2"
_cell_formula_units_Z 64
_cell_length_a 14.027973
_cell_length_b 9.303172
_cell_length_c 25.668643
_cell_angle_alpha 90.000000
_cell_angle_beta 90.000000
_cell_angle_gamma 90.000000
_cell_volume 3349.877159
_symmetry_space_group_name_H-M "P M M N"
_symmetry_group_IT_number 59
_space_group.IT_coordinate_system_code '2'
_symmetry_cell_setting 'orthorhombic'
loop_
_space_group_symop_operation_xyz
x,y,z
1/2-x,1/2-y,z
1/2+x,-y,-z
-x,1/2+y,-z
-x,-y,-z
1/2+x,1/2+y,-z
1/2-x,y,z
x,1/2-y,z
loop_
_atom_site_type_symbol
_atom_site_label
_atom_site_fract_x
_atom_site_fract_y
_atom_site_fract_z
Si Si1 0.858471 0.915796 0.835645
Si Si2 0.146668 0.592183 0.868544
Si Si3 0.100702 0.589365 0.061224
Si Si4 0.639722 0.580119 0.318703
Si Si5 0.857787 0.417370 0.522763
Si Si6 0.617177 0.909403 0.033360
Si Si7 0.531205 0.083285 0.229149
Si Si8 0.446744 0.417856 0.571536
O O1 0.750000 0.953846 0.821801
O O2 0.870686 0.750000 0.853042
O O3 0.918745 0.943396 0.782283
O O4 0.894931 0.014264 0.882772
O O5 0.250000 0.606871 0.842071
O O6 0.109703 0.750000 0.887184
O O7 0.158350 0.487610 0.916674
O O8 0.077916 0.529628 0.824679
O O9 0.144893 0.750000 0.065429
O O10 0.995164 0.599311 0.039368
O O11 0.154611 0.493516 0.018048
O O12 0.750000 0.527074 0.315605
O O13 0.635557 0.750000 0.311562
O O14 0.572627 0.510800 0.275349
O O15 0.591747 0.531402 0.372719
O O16 0.750000 0.458906 0.542099
O O17 0.861880 0.250000 0.508997
O O18 0.882300 0.501985 0.470518
O O19 0.939643 0.454570 0.565819
O O20 0.660658 0.750000 0.030079
O O21 0.554078 0.250000 0.240851
O O22 0.428753 0.250000 0.563210
#
# Coordination Sequence:
#
# PCOD8242965 Si02
#       8
#     8   8   8   8   8   8   8   8
#     4  10  21  38  60  81 101 131 171 215 265 319
#     4  10  20  34  53  76 101 131 167 207 256 312
#     4  10  20  34  54  78 104 134 167 206 253 308
#     4  10  21  36  55  80 110 144 181 221 266 317
#     4   9  17  30  51  80 113 149 189 231 273 319
#     4  10  20  33  52  77 105 136 168 204 252 310
#     4  10  21  38  58  78 104 135 172 219 267 315
#     4   9  18  33  52  77 112 151 188 228 273 321
#
# _framework density 19.105177000000001
#
# number of rings (size 3 to 8) (size 9 to 14) (size 15 to 20)
#    0.000    2.250    1.250    1.500    0.000    5.000 
#    0.000    0.625    0.000    0.750    0.000    0.000 
#    0.000    0.000    0.000    0.000    0.000    0.000 
#
# Total GULP energy -793150.328567 kJ/mol
# GULP energy per Si atom -12392.973884 kJ/mol
# Density = 1.906169 g / cm^3
# Si number density = 19.105177 Si / 1000 Ang^3
#
#
#
# Elastic Constant Matrix: (Units=GPa)
#
#
# Indices 1 2 3 4 5 6 
#
# 1 106.3015 33.6689 51.5071 0.0000 0.0000 0.0000
# 2 33.6689 81.4053 53.8747 0.0000 0.0000 0.0000
# 3 51.5071 53.8747 117.4832 0.0000 0.0000 0.0000
# 4 0.0000 0.0000 0.0000 33.7824 0.0000 0.0000
# 5 0.0000 0.0000 0.0000 0.0000 5.4511 0.0000
# 6 0.0000 0.0000 0.0000 0.0000 0.0000 14.0332
#
#
#
# Elastic Compliance Matrix: (Units=1/GPa)
#
#
# Indices 1 2 3 4 5 6 
#
# 1 0.012204 -0.002163 -0.004359 0.000000 0.000000 0.000000
# 2 -0.002163 0.018020 -0.007315 0.000000 0.000000 0.000000
# 3 -0.004359 -0.007315 0.013777 0.000000 0.000000 0.000000
# 4 0.000000 0.000000 0.000000 0.029601 0.000000 0.000000
# 5 0.000000 0.000000 0.000000 0.000000 0.183449 0.000000
# 6 0.000000 0.000000 0.000000 0.000000 0.000000 0.071260
#
#
# Mechanical properties :
#
#
# Convention : Reuss Voigt Hill
#
# Bulk Modulus (GPa) = 61.24505 64.81015 63.02760
# Shear Modulus (GPa) = 13.83401 21.72930 17.78165
#
# Velocity S-wave (km/s) = 2.69383 3.37612 3.05409
# Velocity P-wave (km/s) = 6.46544 7.01385 6.74522
#
# Compressibility (1/GPa) = 0.01632785
#
# Stress axis : x y z
#
# Youngs Moduli (GPa) = 81.93867 55.49353 72.58274
#
# Poissons Ratio (x) = 0.12003 0.31637
# Poissons Ratio (y) = 0.17723 0.53096
# Poissons Ratio (z) = 0.35715 0.40595
#
# Static dielectric constant tensor:
#      x y z
#    x 3.818760 0.000000 0.000000 
#    y 0.000000 3.725080 0.000000 
#    z 0.000000 0.000000 3.290970 
# 
# 
# High freq. dielectric constant tensor:
#      x y z
#    x 1.759870 0.000000 0.000000 
#    y 0.000000 1.741240 0.000000 
#    z 0.000000 0.000000 1.714800 
# 
# From -- ./inp_files/32148.got.cif
#   From: 2010.03.12/outbox.cif.g09.slc.cpg/sg59_17_cif.got.tgz:32148.got - 2010.04.16 16:29:54.
