data_PCOD8242927
_publ_section_title
;
Structure prediction by ZEFSAII (Michael W. Deem and Ramdas Pophale) SiO2 
 PCOD8242927
Probable space group: P M M N
;
_chemical_formula_sum "Si O2"
_cell_formula_units_Z 64
_cell_length_a 8.993508
_cell_length_b 13.802853
_cell_length_c 25.697434
_cell_angle_alpha 90.000000
_cell_angle_beta 90.000000
_cell_angle_gamma 90.000000
_cell_volume 3189.978437
_symmetry_space_group_name_H-M "P M M N"
_symmetry_group_IT_number 59
_space_group.IT_coordinate_system_code '2'
_symmetry_cell_setting 'orthorhombic'
loop_
_space_group_symop_operation_xyz
x,y,z
1/2-x,1/2-y,z
1/2+x,-y,-z
-x,1/2+y,-z
-x,-y,-z
1/2+x,1/2+y,-z
1/2-x,y,z
x,1/2-y,z
loop_
_atom_site_type_symbol
_atom_site_label
_atom_site_fract_x
_atom_site_fract_y
_atom_site_fract_z
Si Si1 0.926509 0.462479 0.379611
Si Si2 0.077958 0.137246 0.285121
Si Si3 0.576388 0.140063 0.584951
Si Si4 0.420802 0.138450 0.475099
Si Si5 0.584273 0.135356 0.082288
Si Si6 0.421958 0.046194 0.178300
Si Si7 0.078194 0.858326 0.121667
Si Si8 0.917627 0.865554 0.018340
O O1 0.750000 0.469368 0.380441
O O2 0.976936 0.393134 0.333248
O O3 0.999157 0.569423 0.372763
O O4 0.986072 0.421552 0.433779
O O5 0.250000 0.115357 0.298363
O O6 0.053267 0.250000 0.273186
O O7 0.021897 0.075891 0.235407
O O8 0.750000 0.116026 0.579376
O O9 0.551707 0.250000 0.604025
O O10 0.496701 0.121437 0.530291
O O11 0.250000 0.102444 0.477203
O O12 0.427571 0.250000 0.458393
O O13 0.750000 0.092849 0.083388
O O14 0.585145 0.250000 0.077353
O O15 0.504404 0.108690 0.135408
O O16 0.503359 0.090138 0.031508
O O17 0.250000 0.073377 0.172960
O O18 0.450120 0.931100 0.169851
O O19 0.250000 0.856237 0.105522
O O20 0.024525 0.750000 0.137600
O O21 0.989888 0.901097 0.072326
O O22 0.750000 0.903554 0.015915
O O23 0.925953 0.750000 0.016867
#
# Coordination Sequence:
#
# PCOD8242927 Si02
#       8
#     8   8   8   8   8   8   8   8
#     4  12  24  37  57  84 116 153 193 237 283 335
#     4  10  22  41  62  83 110 143 182 231 282 332
#     4  10  21  38  60  86 118 155 194 235 279 331
#     4  10  20  35  57  86 121 158 195 237 284 334
#     4  10  20  33  51  77 109 142 176 219 272 329
#     4  10  21  37  58  81 105 139 182 227 276 327
#     4   9  18  34  55  79 108 139 173 217 268 322
#     4   9  17  30  50  76 106 141 179 217 260 316
#
# _framework density 20.062830999999999
#
# number of rings (size 3 to 8) (size 9 to 14) (size 15 to 20)
#    0.000    2.000    0.000    3.750    0.000    7.500 
#    0.000    0.625    0.000    2.250    0.000    0.000 
#    0.000    0.000    0.000    0.000    0.000    0.000 
#
# Total GULP energy -793748.327133 kJ/mol
# GULP energy per Si atom -12402.317611 kJ/mol
# Density = 2.001717 g / cm^3
# Si number density = 20.062831 Si / 1000 Ang^3
#
#
#
# Elastic Constant Matrix: (Units=GPa)
#
#
# Indices 1 2 3 4 5 6 
#
# 1 110.1218 40.5884 33.1166 0.0000 0.0000 0.0000
# 2 40.5884 76.9926 37.0234 0.0000 0.0000 0.0000
# 3 33.1166 37.0234 46.4607 0.0000 0.0000 0.0000
# 4 0.0000 0.0000 0.0000 35.0960 0.0000 0.0000
# 5 0.0000 0.0000 0.0000 0.0000 27.5303 0.0000
# 6 0.0000 0.0000 0.0000 0.0000 0.0000 25.6065
#
#
#
# Elastic Compliance Matrix: (Units=1/GPa)
#
#
# Indices 1 2 3 4 5 6 
#
# 1 0.012155 -0.003634 -0.005768 0.000000 0.000000 0.000000
# 2 -0.003634 0.022144 -0.015056 0.000000 0.000000 0.000000
# 3 -0.005768 -0.015056 0.037632 0.000000 0.000000 0.000000
# 4 0.000000 0.000000 0.000000 0.028493 0.000000 0.000000
# 5 0.000000 0.000000 0.000000 0.000000 0.036324 0.000000
# 6 0.000000 0.000000 0.000000 0.000000 0.000000 0.039053
#
#
# Mechanical properties :
#
#
# Convention : Reuss Voigt Hill
#
# Bulk Modulus (GPa) = 43.44829 50.55909 47.00369
# Shear Modulus (GPa) = 21.51579 25.83633 23.67606
#
# Velocity S-wave (km/s) = 3.27834 3.59245 3.43898
# Velocity P-wave (km/s) = 6.00276 6.51634 6.26481
#
# Compressibility (1/GPa) = 0.02301587
#
# Stress axis : x y z
#
# Youngs Moduli (GPa) = 82.27155 45.15938 26.57294
#
# Poissons Ratio (x) = 0.16411 0.15327
# Poissons Ratio (y) = 0.29898 0.40007
# Poissons Ratio (z) = 0.47454 0.67990
#
# Static dielectric constant tensor:
#      x y z
#    x 3.738500 0.000000 0.000000 
#    y 0.000000 3.913270 0.000000 
#    z 0.000000 0.000000 3.486800 
# 
# 
# High freq. dielectric constant tensor:
#      x y z
#    x 1.786630 0.000000 0.000000 
#    y 0.000000 1.798320 0.000000 
#    z 0.000000 0.000000 1.761000 
# 
# From -- ./inp_files/31412.got.cif
#   From: 2010.03.12/outbox.cif.g09.slc.cpg/sg59_16_cif.got.tgz:31412.got - 2010.04.16 16:29:54.
