data_PCOD8242394
_publ_section_title
;
Structure prediction by ZEFSAII (Michael W. Deem and Ramdas Pophale) SiO2 
 PCOD8242394
Probable space group: P M M N
;
_chemical_formula_sum "Si O2"
_cell_formula_units_Z 40
_cell_length_a 9.598055
_cell_length_b 9.264639
_cell_length_c 25.884916
_cell_angle_alpha 90.000000
_cell_angle_beta 90.000000
_cell_angle_gamma 90.000000
_cell_volume 2301.751823
_symmetry_space_group_name_H-M "P M M N"
_symmetry_group_IT_number 59
_space_group.IT_coordinate_system_code '2'
_symmetry_cell_setting 'orthorhombic'
loop_
_space_group_symop_operation_xyz
x,y,z
1/2-x,1/2-y,z
1/2+x,-y,-z
-x,1/2+y,-z
-x,-y,-z
1/2+x,1/2+y,-z
1/2-x,y,z
x,1/2-y,z
loop_
_atom_site_type_symbol
_atom_site_label
_atom_site_fract_x
_atom_site_fract_y
_atom_site_fract_z
Si Si1 0.088283 0.082192 0.958085
Si Si2 0.587908 0.578841 0.456336
Si Si3 0.595190 0.578022 0.156428
Si Si4 0.593874 0.421554 0.753135
Si Si5 0.093924 0.578819 0.361100
O O1 0.250000 0.046352 0.966198
O O2 0.058941 0.250000 0.965357
O O3 0.041371 0.032015 0.900485
O O4 0.000000 0.000000 0.000000
O O5 0.500000 0.500000 0.500000
O O6 0.750000 0.531781 0.457973
O O7 0.573084 0.750000 0.463676
O O8 0.520747 0.525997 0.402213
O O9 0.750000 0.517631 0.165369
O O10 0.596550 0.750000 0.159284
O O11 0.500903 0.509885 0.201820
O O12 0.750000 0.473968 0.764063
O O13 0.584345 0.250000 0.755209
O O14 0.547570 0.475572 0.695985
O O15 0.250000 0.520247 0.374726
O O16 0.100604 0.750000 0.360845
#
# Coordination Sequence:
#
# PCOD8242394 Si02
#       5
#     8   8   8   8   8
#     4   9  18  31  45  64  90 118 150 186 222 263
#     4  10  20  32  47  68  92 120 154 187 221 264
#     4   8  14  24  37  55  82 112 139 173 217 260
#     4   8  13  21  35  57  83 110 140 173 212 258
#     4   8  14  25  40  59  86 116 143 177 220 261
#
# _framework density 17.378069
#
# number of rings (size 3 to 8) (size 9 to 14) (size 15 to 20)
#    0.000    3.400    0.000    3.000    0.000    3.200 
#    0.000    6.000    0.000    0.000    0.000    1.400 
#    0.000    8.000    0.000    0.000    0.000    0.000 
#
# Total GULP energy -495625.533712 kJ/mol
# GULP energy per Si atom -12390.638343 kJ/mol
# Density = 1.733852 g / cm^3
# Si number density = 17.378069 Si / 1000 Ang^3
#
#
#
# Elastic Constant Matrix: (Units=GPa)
#
#
# Indices 1 2 3 4 5 6 
#
# 1 128.6211 25.8008 114.9520 0.0000 0.0000 0.0000
# 2 25.8008 14.5144 29.0483 0.0000 0.0000 0.0000
# 3 114.9520 29.0483 192.9324 0.0000 0.0000 0.0000
# 4 0.0000 0.0000 0.0000 19.5450 0.0000 0.0000
# 5 0.0000 0.0000 0.0000 0.0000 43.3904 0.0000
# 6 0.0000 0.0000 0.0000 0.0000 0.0000 17.7285
#
#
#
# Elastic Compliance Matrix: (Units=1/GPa)
#
#
# Indices 1 2 3 4 5 6 
#
# 1 0.018862 -0.015798 -0.008860 0.000000 0.000000 0.000000
# 2 -0.015798 0.111842 -0.007427 0.000000 0.000000 0.000000
# 3 -0.008860 -0.007427 0.011580 0.000000 0.000000 0.000000
# 4 0.000000 0.000000 0.000000 0.051164 0.000000 0.000000
# 5 0.000000 0.000000 0.000000 0.000000 0.023047 0.000000
# 6 0.000000 0.000000 0.000000 0.000000 0.000000 0.056406
#
#
# Mechanical properties :
#
#
# Convention : Reuss Voigt Hill
#
# Bulk Modulus (GPa) = 12.80145 75.07447 43.93796
# Shear Modulus (GPa) = 13.77003 27.21725 20.49364
#
# Velocity S-wave (km/s) = 2.81798 3.96180 3.43779
# Velocity P-wave (km/s) = 4.23916 8.01388 6.41064
#
# Compressibility (1/GPa) = 0.07811613
#
# Stress axis : x y z
#
# Youngs Moduli (GPa) = 53.01743 8.94117 86.35562
#
# Poissons Ratio (x) = 0.14125 0.76507
# Poissons Ratio (y) = 0.83755 0.64135
# Poissons Ratio (z) = 0.46971 0.06640
#
# Static dielectric constant tensor:
#      x y z
#    x 3.469350 0.000000 0.000000 
#    y 0.000000 2.590740 0.000000 
#    z 0.000000 0.000000 3.715680 
# 
# 
# High freq. dielectric constant tensor:
#      x y z
#    x 1.673250 0.000000 0.000000 
#    y 0.000000 1.598620 0.000000 
#    z 0.000000 0.000000 1.690650 
# 
# From -- ./inp_files/32372.got.cif
#   From: 2010.03.12/outbox.cif.g09.slc.cpg/sg59_17_cif.got.tgz:32372.got - 2010.04.16 16:29:54.
