data_PCOD8242978
_publ_section_title
;
Structure prediction by ZEFSAII (Michael W. Deem and Ramdas Pophale) SiO2 
 PCOD8242978
Probable space group: P M M N
;
_chemical_formula_sum "Si O2"
_cell_formula_units_Z 64
_cell_length_a 18.455505
_cell_length_b 9.804933
_cell_length_c 19.996007
_cell_angle_alpha 90.000000
_cell_angle_beta 90.000000
_cell_angle_gamma 90.000000
_cell_volume 3618.377247
_symmetry_space_group_name_H-M "P M M N"
_symmetry_group_IT_number 59
_space_group.IT_coordinate_system_code '2'
_symmetry_cell_setting 'orthorhombic'
loop_
_space_group_symop_operation_xyz
x,y,z
1/2-x,1/2-y,z
1/2+x,-y,-z
-x,1/2+y,-z
-x,-y,-z
1/2+x,1/2+y,-z
1/2-x,y,z
x,1/2-y,z
loop_
_atom_site_type_symbol
_atom_site_label
_atom_site_fract_x
_atom_site_fract_y
_atom_site_fract_z
Si Si1 0.562890 0.096388 0.978670
Si Si2 0.333906 0.904722 0.903005
Si Si3 0.430373 0.086933 0.521146
Si Si4 0.166426 0.088884 0.647934
Si Si5 0.328429 0.089426 0.404148
Si Si6 0.835864 0.596103 0.742044
Si Si7 0.434850 0.905610 0.176315
Si Si8 0.401927 0.411020 0.789865
O O1 0.535896 0.250000 0.989835
O O2 0.632093 0.063577 0.024508
O O3 0.578314 0.070089 0.901566
O O4 0.500000 0.000000 0.000000
O O5 0.250000 0.927289 0.913689
O O6 0.352032 0.750000 0.879899
O O7 0.360161 0.009413 0.847315
O O8 0.447176 0.250000 0.521425
O O9 0.389683 0.040550 0.589770
O O10 0.377578 0.037409 0.463179
O O11 0.500000 0.000000 0.500000
O O12 0.250000 0.031474 0.640480
O O13 0.171741 0.250000 0.644114
O O14 0.131049 0.042803 0.718407
O O15 0.250000 0.019265 0.412659
O O16 0.318392 0.250000 0.408204
O O17 0.362104 0.052201 0.332117
O O18 0.750000 0.582804 0.747484
O O19 0.860468 0.750000 0.758405
O O20 0.872593 0.495223 0.792647
O O21 0.421699 0.750000 0.196718
O O22 0.513663 0.951205 0.203397
O O23 0.390898 0.250000 0.801565
#
# Coordination Sequence:
#
# PCOD8242978 Si02
#       8
#     8   8   8   8   8   8   8   8
#     4  10  20  36  55  76 103 138 177 215 257 310
#     4  10  21  36  55  80 107 137 175 219 267 316
#     4  10  20  33  52  78 105 135 172 215 260 308
#     4   9  18  33  54  78 105 140 179 217 258 307
#     4   8  15  31  54  75  97 131 176 216 248 294
#     4   9  19  35  54  77 104 136 177 220 258 304
#     4  10  21  34  53  80 110 141 172 212 266 321
#     4  10  20  35  55  81 109 140 178 218 260 313
#
# _framework density 17.687487000000001
#
# number of rings (size 3 to 8) (size 9 to 14) (size 15 to 20)
#    0.000    2.500    1.250    1.500    1.750    4.000 
#    0.000    1.875    0.000    3.000    0.000    0.000 
#    0.000    0.000    0.000    0.000    0.000    0.000 
#
# Total GULP energy -793110.377561 kJ/mol
# GULP energy per Si atom -12392.349649 kJ/mol
# Density = 1.764723 g / cm^3
# Si number density = 17.687487 Si / 1000 Ang^3
#
#
#
# Elastic Constant Matrix: (Units=GPa)
#
#
# Indices 1 2 3 4 5 6 
#
# 1 84.2662 39.0008 77.3184 0.0000 0.0000 0.0000
# 2 39.0008 45.0846 56.9932 0.0000 0.0000 0.0000
# 3 77.3184 56.9932 141.1714 0.0000 0.0000 0.0000
# 4 0.0000 0.0000 0.0000 23.4762 0.0000 0.0000
# 5 0.0000 0.0000 0.0000 0.0000 44.6900 0.0000
# 6 0.0000 0.0000 0.0000 0.0000 0.0000 29.8102
#
#
#
# Elastic Compliance Matrix: (Units=1/GPa)
#
#
# Indices 1 2 3 4 5 6 
#
# 1 0.025528 -0.009004 -0.010346 0.000000 0.000000 0.000000
# 2 -0.009004 0.048475 -0.014639 0.000000 0.000000 0.000000
# 3 -0.010346 -0.014639 0.018660 0.000000 0.000000 0.000000
# 4 0.000000 0.000000 0.000000 0.042596 0.000000 0.000000
# 5 0.000000 0.000000 0.000000 0.000000 0.022376 0.000000
# 6 0.000000 0.000000 0.000000 0.000000 0.000000 0.033546
#
#
# Mechanical properties :
#
#
# Convention : Reuss Voigt Hill
#
# Bulk Modulus (GPa) = 40.51073 68.57188 54.54130
# Shear Modulus (GPa) = 18.69954 26.07592 22.38773
#
# Velocity S-wave (km/s) = 3.25502 3.84377 3.56158
# Velocity P-wave (km/s) = 6.08935 7.65194 6.91492
#
# Compressibility (1/GPa) = 0.02468482
#
# Stress axis : x y z
#
# Youngs Moduli (GPa) = 39.17335 20.62935 53.59034
#
# Poissons Ratio (x) = 0.18574 0.55446
# Poissons Ratio (y) = 0.35270 0.78450
# Poissons Ratio (z) = 0.40530 0.30199
#
# Static dielectric constant tensor:
#      x y z
#    x 3.151520 0.000000 0.000000 
#    y 0.000000 3.098420 0.000000 
#    z 0.000000 0.000000 3.752120 
# 
# 
# High freq. dielectric constant tensor:
#      x y z
#    x 1.690040 0.000000 0.000000 
#    y 0.000000 1.657100 0.000000 
#    z 0.000000 0.000000 1.698450 
# 
# From -- ./inp_files/27661.got.cif
#   From: 2010.03.12/outbox.cif.g09.slc.cpg/sg59_14_cif.got.tgz:27661.got - 2010.04.16 16:29:54.
