data_PCOD8242794
_publ_section_title
;
Structure prediction by ZEFSAII (Michael W. Deem and Ramdas Pophale) SiO2 
 PCOD8242794
Probable space group: P M M N
;
_chemical_formula_sum "Si O2"
_cell_formula_units_Z 64
_cell_length_a 8.972314
_cell_length_b 13.724460
_cell_length_c 26.394121
_cell_angle_alpha 90.000000
_cell_angle_beta 90.000000
_cell_angle_gamma 90.000000
_cell_volume 3250.176404
_symmetry_space_group_name_H-M "P M M N"
_symmetry_group_IT_number 59
_space_group.IT_coordinate_system_code '2'
_symmetry_cell_setting 'orthorhombic'
loop_
_space_group_symop_operation_xyz
x,y,z
1/2-x,1/2-y,z
1/2+x,-y,-z
-x,1/2+y,-z
-x,-y,-z
1/2+x,1/2+y,-z
1/2-x,y,z
x,1/2-y,z
loop_
_atom_site_type_symbol
_atom_site_label
_atom_site_fract_x
_atom_site_fract_y
_atom_site_fract_z
Si Si1 0.422738 0.359059 0.380387
Si Si2 0.084206 0.365103 0.579597
Si Si3 0.574035 0.361781 0.075925
Si Si4 0.423587 0.952003 0.325788
Si Si5 0.572854 0.139875 0.777243
Si Si6 0.080158 0.365327 0.972612
Si Si7 0.081833 0.866249 0.518521
Si Si8 0.427584 0.965573 0.121308
O O1 0.250000 0.357769 0.395462
O O2 0.475996 0.250000 0.364977
O O3 0.453632 0.432266 0.333597
O O4 0.510535 0.401728 0.428666
O O5 0.250000 0.408703 0.582853
O O6 0.088060 0.250000 0.573757
O O7 0.997141 0.389519 0.630331
O O8 0.006176 0.410894 0.529618
O O9 0.750000 0.377685 0.074510
O O10 0.531909 0.250000 0.086517
O O11 0.498338 0.426083 0.119995
O O12 0.505008 0.400362 0.023130
O O13 0.250000 0.927890 0.328187
O O14 0.489023 0.918504 0.271646
O O15 0.750000 0.142046 0.776948
O O16 0.509363 0.250000 0.776785
O O17 0.516236 0.084580 0.827129
O O18 0.250000 0.405405 0.972967
O O19 0.079196 0.250000 0.970375
O O20 0.990767 0.402744 0.924574
O O21 0.250000 0.904363 0.515622
O O22 0.073911 0.750000 0.517015
O O23 0.250000 0.971370 0.118072
#
# Coordination Sequence:
#
# PCOD8242794 Si02
#       8
#     8   8   8   8   8   8   8   8
#     4   9  18  33  52  75 104 134 166 210 261 308
#     4  10  20  33  50  75 107 138 168 209 263 316
#     4  10  21  37  56  79 111 149 185 223 269 320
#     4  10  20  35  56  78 100 134 178 218 259 309
#     4   9  19  36  57  81 108 137 172 216 263 311
#     4  10  20  34  54  82 115 149 186 227 270 320
#     4   9  17  30  50  75 102 135 173 209 249 305
#     4  11  21  34  55  81 110 145 185 227 272 322
#
# _framework density 19.691238999999999
#
# number of rings (size 3 to 8) (size 9 to 14) (size 15 to 20)
#    0.000    2.250    0.000    3.000    0.000    5.750 
#    0.000    1.875    0.000    5.250    0.000    1.750 
#    0.000    0.000    0.000    0.000    0.000    0.000 
#
# Total GULP energy -793667.311141 kJ/mol
# GULP energy per Si atom -12401.051737 kJ/mol
# Density = 1.964642 g / cm^3
# Si number density = 19.691239 Si / 1000 Ang^3
#
#
#
# Elastic Constant Matrix: (Units=GPa)
#
#
# Indices 1 2 3 4 5 6 
#
# 1 84.0828 36.0929 51.5380 0.0000 0.0000 0.0000
# 2 36.0929 80.8035 79.0159 0.0000 0.0000 0.0000
# 3 51.5380 79.0159 157.7166 0.0000 0.0000 0.0000
# 4 0.0000 0.0000 0.0000 35.0956 0.0000 0.0000
# 5 0.0000 0.0000 0.0000 0.0000 24.6636 0.0000
# 6 0.0000 0.0000 0.0000 0.0000 0.0000 24.9916
#
#
#
# Elastic Compliance Matrix: (Units=1/GPa)
#
#
# Indices 1 2 3 4 5 6 
#
# 1 0.015460 -0.003853 -0.003122 0.000000 0.000000 0.000000
# 2 -0.003853 0.025222 -0.011377 0.000000 0.000000 0.000000
# 3 -0.003122 -0.011377 0.013061 0.000000 0.000000 0.000000
# 4 0.000000 0.000000 0.000000 0.028494 0.000000 0.000000
# 5 0.000000 0.000000 0.000000 0.000000 0.040546 0.000000
# 6 0.000000 0.000000 0.000000 0.000000 0.000000 0.040013
#
#
# Mechanical properties :
#
#
# Convention : Reuss Voigt Hill
#
# Bulk Modulus (GPa) = 58.68831 72.87739 65.78285
# Shear Modulus (GPa) = 24.36884 27.34723 25.85803
#
# Velocity S-wave (km/s) = 3.52170 3.73071 3.62771
# Velocity P-wave (km/s) = 6.81215 7.45976 7.14330
#
# Compressibility (1/GPa) = 0.01703917
#
# Stress axis : x y z
#
# Youngs Moduli (GPa) = 64.68118 39.64727 76.56629
#
# Poissons Ratio (x) = 0.15277 0.23901
# Poissons Ratio (y) = 0.24923 0.87112
# Poissons Ratio (z) = 0.20191 0.45108
#
# Static dielectric constant tensor:
#      x y z
#    x 3.583990 0.000000 0.000000 
#    y 0.000000 3.786370 0.000000 
#    z 0.000000 0.000000 3.587550 
# 
# 
# High freq. dielectric constant tensor:
#      x y z
#    x 1.759830 0.000000 0.000000 
#    y 0.000000 1.783300 0.000000 
#    z 0.000000 0.000000 1.750590 
# 
# From -- ./inp_files/31502.got.cif
#   From: 2010.03.12/outbox.cif.g09.slc.cpg/sg59_16_cif.got.tgz:31502.got - 2010.04.16 16:29:54.
