data_PCOD8242833
_publ_section_title
;
Structure prediction by ZEFSAII (Michael W. Deem and Ramdas Pophale) SiO2 
 PCOD8242833
Probable space group: P M M N
;
_chemical_formula_sum "Si O2"
_cell_formula_units_Z 48
_cell_length_a 9.137116
_cell_length_b 9.079923
_cell_length_c 30.804259
_cell_angle_alpha 90.000000
_cell_angle_beta 90.000000
_cell_angle_gamma 90.000000
_cell_volume 2555.654084
_symmetry_space_group_name_H-M "P M M N"
_symmetry_group_IT_number 59
_space_group.IT_coordinate_system_code '2'
_symmetry_cell_setting 'orthorhombic'
loop_
_space_group_symop_operation_xyz
x,y,z
1/2-x,1/2-y,z
1/2+x,-y,-z
-x,1/2+y,-z
-x,-y,-z
1/2+x,1/2+y,-z
1/2-x,y,z
x,1/2-y,z
loop_
_atom_site_type_symbol
_atom_site_label
_atom_site_fract_x
_atom_site_fract_y
_atom_site_fract_z
Si Si1 0.579919 0.918426 0.205651
Si Si2 0.577595 0.581512 0.718869
Si Si3 0.077706 0.581040 0.461035
Si Si4 0.423798 0.086587 0.377584
Si Si5 0.920421 0.077548 0.117968
Si Si6 0.077845 0.577789 0.039871
O O1 0.750000 0.935876 0.215437
O O2 0.538027 0.750000 0.195162
O O3 0.496230 0.970456 0.248096
O O4 0.533530 0.019322 0.165170
O O5 0.750000 0.563845 0.723465
O O6 0.531001 0.750000 0.728570
O O7 0.524573 0.535973 0.670358
O O8 0.250000 0.554204 0.465006
O O9 0.034470 0.750000 0.463679
O O10 0.017097 0.521509 0.414921
O O11 0.000000 0.500000 0.500000
O O12 0.250000 0.089721 0.377648
O O13 0.484301 0.250000 0.387586
O O14 0.750000 0.045202 0.108371
O O15 0.955076 0.250000 0.115149
O O16 0.018877 0.991245 0.083996
O O17 0.250000 0.549558 0.036433
O O18 0.040221 0.750000 0.038875
O O19 0.000000 0.500000 0.000000
#
# Coordination Sequence:
#
# PCOD8242833 Si02
#       6
#     8   8   8   8   8   8
#     4  10  21  36  54  78 109 144 179 216 262 313
#     4   9  18  33  54  79 104 133 172 215 259 310
#     4  10  20  33  51  75 101 131 169 211 257 310
#     4   8  15  30  51  73  99 132 169 210 257 308
#     4  10  21  38  60  83 107 140 182 223 265 314
#     4  11  24  40  59  85 115 146 181 220 264 314
#
# _framework density 18.781884000000002
#
# number of rings (size 3 to 8) (size 9 to 14) (size 15 to 20)
#    0.000    2.333    0.000    3.500    0.000    8.000 
#    0.000    2.500    0.000    1.000    0.000    0.000 
#    0.000    0.000    0.000    0.000    0.000    0.000 
#
# Total GULP energy -595218.434311 kJ/mol
# GULP energy per Si atom -12400.384048 kJ/mol
# Density = 1.873914 g / cm^3
# Si number density = 18.781884 Si / 1000 Ang^3
#
#
#
# Elastic Constant Matrix: (Units=GPa)
#
#
# Indices 1 2 3 4 5 6 
#
# 1 47.9421 56.1512 53.6680 0.0000 0.0000 0.0000
# 2 56.1512 133.6092 83.6960 0.0000 0.0000 0.0000
# 3 53.6680 83.6960 152.8822 0.0000 0.0000 0.0000
# 4 0.0000 0.0000 0.0000 43.7456 0.0000 0.0000
# 5 0.0000 0.0000 0.0000 0.0000 34.7651 0.0000
# 6 0.0000 0.0000 0.0000 0.0000 0.0000 29.1771
#
#
#
# Elastic Compliance Matrix: (Units=1/GPa)
#
#
# Indices 1 2 3 4 5 6 
#
# 1 0.047758 -0.014563 -0.008792 0.000000 0.000000 0.000000
# 2 -0.014563 0.015832 -0.003555 0.000000 0.000000 0.000000
# 3 -0.008792 -0.003555 0.011574 0.000000 0.000000 0.000000
# 4 0.000000 0.000000 0.000000 0.022859 0.000000 0.000000
# 5 0.000000 0.000000 0.000000 0.000000 0.028764 0.000000
# 6 0.000000 0.000000 0.000000 0.000000 0.000000 0.034274
#
#
# Mechanical properties :
#
#
# Convention : Reuss Voigt Hill
#
# Bulk Modulus (GPa) = 46.85517 80.16264 63.50890
# Shear Modulus (GPa) = 22.52303 30.93211 26.72757
#
# Velocity S-wave (km/s) = 3.46669 4.06262 3.77643
# Velocity P-wave (km/s) = 6.40508 8.04860 7.27341
#
# Compressibility (1/GPa) = 0.02134236
#
# Stress axis : x y z
#
# Youngs Moduli (GPa) = 20.93909 63.16417 86.40375
#
# Poissons Ratio (x) = 0.91987 0.75968
# Poissons Ratio (y) = 0.30494 0.30716
# Poissons Ratio (z) = 0.18410 0.22454
#
# Static dielectric constant tensor:
#      x y z
#    x 3.228290 0.000000 0.000000 
#    y 0.000000 3.533340 0.000000 
#    z 0.000000 0.000000 3.742070 
# 
# 
# High freq. dielectric constant tensor:
#      x y z
#    x 1.704910 0.000000 0.000000 
#    y 0.000000 1.738720 0.000000 
#    z 0.000000 0.000000 1.746820 
# 
# From -- ./inp_files/32868.got.cif
#   From: 2010.03.12/outbox.cif.g09.slc.cpg/sg59_17_cif.got.tgz:32868.got - 2010.04.16 16:29:54.
