data_PCOD8243436
_publ_section_title
;
Structure prediction by ZEFSAII (Michael W. Deem and Ramdas Pophale) SiO2 
 PCOD8243436
Probable space group: P M M N
;
_chemical_formula_sum "Si O2"
_cell_formula_units_Z 64
_cell_length_a 18.649381
_cell_length_b 8.892957
_cell_length_c 20.535581
_cell_angle_alpha 90.000000
_cell_angle_beta 90.000000
_cell_angle_gamma 90.000000
_cell_volume 3405.787981
_symmetry_space_group_name_H-M "P M M N"
_symmetry_group_IT_number 59
_space_group.IT_coordinate_system_code '2'
_symmetry_cell_setting 'orthorhombic'
loop_
_space_group_symop_operation_xyz
x,y,z
1/2-x,1/2-y,z
1/2+x,-y,-z
-x,1/2+y,-z
-x,-y,-z
1/2+x,1/2+y,-z
1/2-x,y,z
x,1/2-y,z
loop_
_atom_site_type_symbol
_atom_site_label
_atom_site_fract_x
_atom_site_fract_y
_atom_site_fract_z
Si Si1 0.667185 0.075886 0.251212
Si Si2 0.833359 0.575021 0.386080
Si Si3 0.086716 0.076330 0.865901
Si Si4 0.583180 0.080900 0.863439
Si Si5 0.668622 0.427510 0.622037
Si Si6 0.423822 0.924763 0.993114
Si Si7 0.422360 0.928329 0.500788
Si Si8 0.831366 0.925395 0.753762
O O1 0.750000 0.051138 0.233428
O O2 0.650103 0.250000 0.264623
O O3 0.645673 0.980601 0.314430
O O4 0.620368 0.017220 0.192114
O O5 0.750000 0.543869 0.400422
O O6 0.852603 0.750000 0.392059
O O7 0.879541 0.480314 0.436225
O O8 0.109269 0.250000 0.860920
O O9 0.001664 0.053732 0.862761
O O10 0.117399 0.008867 0.934190
O O11 0.600429 0.250000 0.840070
O O12 0.620686 0.964961 0.815609
O O13 0.614821 0.056260 0.936615
O O14 0.750000 0.483678 0.609860
O O15 0.665503 0.250000 0.627520
O O16 0.619869 0.485798 0.562959
O O17 0.637990 0.494966 0.689136
O O18 0.432810 0.750000 0.975391
O O19 0.500000 0.000000 0.000000
O O20 0.429152 0.750000 0.501713
O O21 0.500000 0.000000 0.500000
O O22 0.750000 0.978892 0.767077
O O23 0.835651 0.750000 0.741341
#
# Coordination Sequence:
#
# PCOD8243436 Si02
#       8
#     8   8   8   8   8   8   8   8
#     4  10  21  37  57  81 109 142 181 223 267 319
#     4  10  21  38  60  83 108 142 182 222 268 324
#     4  10  20  34  54  80 108 139 178 223 271 322
#     4   9  19  34  53  77 104 138 177 216 261 316
#     4   9  19  37  59  78 100 137 179 215 257 313
#     4   9  17  31  51  76 105 138 179 222 266 319
#     4  11  23  38  57  83 114 144 178 222 270 318
#     4  10  21  35  53  79 107 135 172 218 264 311
#
# _framework density 18.791539
#
# number of rings (size 3 to 8) (size 9 to 14) (size 15 to 20)
#    0.000    2.250    0.000    3.375    0.000    7.750 
#    0.000    3.125    0.000    0.750    0.000    0.000 
#    0.000    0.000    0.000    0.000    0.000    0.000 
#
# Total GULP energy -793629.026950 kJ/mol
# GULP energy per Si atom -12400.453546 kJ/mol
# Density = 1.874877 g / cm^3
# Si number density = 18.791539 Si / 1000 Ang^3
#
#
#
# Elastic Constant Matrix: (Units=GPa)
#
#
# Indices 1 2 3 4 5 6 
#
# 1 57.1867 27.5612 51.5592 0.0000 0.0000 0.0000
# 2 27.5612 60.1993 32.5014 0.0000 0.0000 0.0000
# 3 51.5592 32.5014 130.3568 0.0000 0.0000 0.0000
# 4 0.0000 0.0000 0.0000 37.2945 0.0000 0.0000
# 5 0.0000 0.0000 0.0000 0.0000 34.4281 0.0000
# 6 0.0000 0.0000 0.0000 0.0000 0.0000 28.2431
#
#
#
# Elastic Compliance Matrix: (Units=1/GPa)
#
#
# Indices 1 2 3 4 5 6 
#
# 1 0.030635 -0.008648 -0.009961 0.000000 0.000000 0.000000
# 2 -0.008648 0.021637 -0.001974 0.000000 0.000000 0.000000
# 3 -0.009961 -0.001974 0.012103 0.000000 0.000000 0.000000
# 4 0.000000 0.000000 0.000000 0.026814 0.000000 0.000000
# 5 0.000000 0.000000 0.000000 0.000000 0.029046 0.000000
# 6 0.000000 0.000000 0.000000 0.000000 0.000000 0.035407
#
#
# Mechanical properties :
#
#
# Convention : Reuss Voigt Hill
#
# Bulk Modulus (GPa) = 43.08629 52.33179 47.70904
# Shear Modulus (GPa) = 24.44472 29.06789 26.75631
#
# Velocity S-wave (km/s) = 3.61062 3.93728 3.77749
# Velocity P-wave (km/s) = 6.35299 6.96984 6.66855
#
# Compressibility (1/GPa) = 0.02320924
#
# Stress axis : x y z
#
# Youngs Moduli (GPa) = 32.64241 46.21792 82.62315
#
# Poissons Ratio (x) = 0.39969 0.82298
# Poissons Ratio (y) = 0.28229 0.16311
# Poissons Ratio (z) = 0.32514 0.09124
#
# Static dielectric constant tensor:
#      x y z
#    x 3.226700 0.000000 0.000000 
#    y 0.000000 3.583380 0.000000 
#    z 0.000000 0.000000 3.728370 
# 
# 
# High freq. dielectric constant tensor:
#      x y z
#    x 1.704700 0.000000 0.000000 
#    y 0.000000 1.741300 0.000000 
#    z 0.000000 0.000000 1.746750 
# 
# From -- ./inp_files/28319.got.cif
#   From: 2010.03.12/outbox.cif.g09.slc.cpg/sg59_15_cif.got.tgz:28319.got - 2010.04.16 16:29:54.
