data_PCOD8243317
_publ_section_title
;
Structure prediction by ZEFSAII (Michael W. Deem and Ramdas Pophale) SiO2 
 PCOD8243317
Probable space group: P M M N
;
_chemical_formula_sum "Si O2"
_cell_formula_units_Z 32
_cell_length_a 8.900781
_cell_length_b 8.951208
_cell_length_c 20.739550
_cell_angle_alpha 90.000000
_cell_angle_beta 90.000000
_cell_angle_gamma 90.000000
_cell_volume 1652.376818
_symmetry_space_group_name_H-M "P M M N"
_symmetry_group_IT_number 59
_space_group.IT_coordinate_system_code '2'
_symmetry_cell_setting 'orthorhombic'
loop_
_space_group_symop_operation_xyz
x,y,z
1/2-x,1/2-y,z
1/2+x,-y,-z
-x,1/2+y,-z
-x,-y,-z
1/2+x,1/2+y,-z
1/2-x,y,z
x,1/2-y,z
loop_
_atom_site_type_symbol
_atom_site_label
_atom_site_fract_x
_atom_site_fract_y
_atom_site_fract_z
Si Si1 0.571497 0.918218 0.188770
Si Si2 0.075314 0.925463 0.681241
Si Si3 0.572143 0.078730 0.060700
Si Si4 0.927171 0.078558 0.560786
O O1 0.750000 0.917646 0.187011
O O2 0.507441 0.750000 0.190596
O O3 0.515869 0.006293 0.251741
O O4 0.509374 0.000556 0.125301
O O5 0.250000 0.963166 0.669683
O O6 0.047016 0.750000 0.682891
O O7 0.978494 0.997046 0.625127
O O8 0.750000 0.062887 0.055959
O O9 0.521082 0.250000 0.062303
O O10 0.500000 0.000000 0.000000
O O11 0.750000 0.065627 0.553984
O O12 0.980074 0.250000 0.563121
O O13 0.000000 0.000000 0.500000
#
# Coordination Sequence:
#
# PCOD8243317 Si02
#       4
#     8   8   8   8
#     4   9  17  31  53  79 107 141 179 219 266 320
#     4  10  20  35  57  84 111 140 177 220 266 318
#     4  10  20  34  53  78 108 142 181 225 271 320
#     4  11  24  40  58  82 111 143 180 221 265 315
#
# _framework density 19.366043000000001
#
# number of rings (size 3 to 8) (size 9 to 14) (size 15 to 20)
#    0.000    2.000    0.000    3.750    0.000   11.000 
#    0.000    1.250    0.000    7.500    0.000    0.000 
#    0.000    0.000    0.000    0.000    0.000    0.000 
#
# Total GULP energy -396907.293509 kJ/mol
# GULP energy per Si atom -12403.352922 kJ/mol
# Density = 1.932197 g / cm^3
# Si number density = 19.366043 Si / 1000 Ang^3
#
#
#
# Elastic Constant Matrix: (Units=GPa)
#
#
# Indices 1 2 3 4 5 6 
#
# 1 31.1994 37.8871 33.5013 0.0000 0.0000 0.0000
# 2 37.8871 166.6536 90.0749 0.0000 0.0000 0.0000
# 3 33.5013 90.0749 190.5804 0.0000 0.0000 0.0000
# 4 0.0000 0.0000 0.0000 48.6748 0.0000 0.0000
# 5 0.0000 0.0000 0.0000 0.0000 34.5609 0.0000
# 6 0.0000 0.0000 0.0000 0.0000 0.0000 26.9111
#
#
#
# Elastic Compliance Matrix: (Units=1/GPa)
#
#
# Indices 1 2 3 4 5 6 
#
# 1 0.046749 -0.008309 -0.004291 0.000000 0.000000 0.000000
# 2 -0.008309 0.009536 -0.003046 0.000000 0.000000 0.000000
# 3 -0.004291 -0.003046 0.007441 0.000000 0.000000 0.000000
# 4 0.000000 0.000000 0.000000 0.020545 0.000000 0.000000
# 5 0.000000 0.000000 0.000000 0.000000 0.028934 0.000000
# 6 0.000000 0.000000 0.000000 0.000000 0.000000 0.037159
#
#
# Mechanical properties :
#
#
# Convention : Reuss Voigt Hill
#
# Bulk Modulus (GPa) = 30.83166 79.04004 54.93585
# Shear Modulus (GPa) = 25.97829 37.16068 31.56949
#
# Velocity S-wave (km/s) = 3.66653 4.38523 4.04189
# Velocity P-wave (km/s) = 5.82062 8.15737 7.08598
#
# Compressibility (1/GPa) = 0.03243419
#
# Stress axis : x y z
#
# Youngs Moduli (GPa) = 21.39077 104.86576 134.38593
#
# Poissons Ratio (x) = 0.87131 0.57662
# Poissons Ratio (y) = 0.17773 0.40940
# Poissons Ratio (z) = 0.09178 0.31947
#
# Static dielectric constant tensor:
#      x y z
#    x 3.202740 0.000000 0.000000 
#    y 0.000000 3.855060 0.000000 
#    z 0.000000 0.000000 4.025280 
# 
# 
# High freq. dielectric constant tensor:
#      x y z
#    x 1.719360 0.000000 0.000000 
#    y 0.000000 1.776110 0.000000 
#    z 0.000000 0.000000 1.775190 
# 
# From -- ./inp_files/28568.got.cif
#   From: 2010.03.12/outbox.cif.g09.slc.cpg/sg59_15_cif.got.tgz:28568.got - 2010.04.16 16:29:54.
