data_PCOD8243973
_publ_section_title
;
Structure prediction by ZEFSAII (Michael W. Deem and Ramdas Pophale) SiO2 
 PCOD8243973
Probable space group: P M M N
;
_chemical_formula_sum "Si O2"
_cell_formula_units_Z 48
_cell_length_a 18.416870
_cell_length_b 16.240617
_cell_length_c 8.819115
_cell_angle_alpha 90.000000
_cell_angle_beta 90.000000
_cell_angle_gamma 90.000000
_cell_volume 2637.809044
_symmetry_space_group_name_H-M "P M M N"
_symmetry_group_IT_number 59
_space_group.IT_coordinate_system_code '2'
_symmetry_cell_setting 'orthorhombic'
loop_
_space_group_symop_operation_xyz
x,y,z
1/2-x,1/2-y,z
1/2+x,-y,-z
-x,1/2+y,-z
-x,-y,-z
1/2+x,1/2+y,-z
1/2-x,y,z
x,1/2-y,z
loop_
_atom_site_type_symbol
_atom_site_label
_atom_site_fract_x
_atom_site_fract_y
_atom_site_fract_z
Si Si1 0.946948 0.658911 0.196641
Si Si2 0.893447 0.345234 0.895558
Si Si3 0.331822 0.570776 0.814589
Si Si4 0.829981 0.593843 0.999362
Si Si5 0.664838 0.006508 0.717775
Si Si6 0.077760 0.013888 0.574722
O O1 0.952393 0.750000 0.267773
O O2 0.884936 0.660154 0.067699
O O3 0.927513 0.597645 0.331477
O O4 0.020998 0.634875 0.110728
O O5 0.876467 0.250000 0.858780
O O6 0.857646 0.400897 0.764490
O O7 0.862843 0.364921 0.062735
O O8 0.250000 0.598776 0.761298
O O9 0.323905 0.481887 0.886704
O O10 0.390609 0.561835 0.677303
O O11 0.750000 0.633818 0.978602
O O12 0.862188 0.559569 0.841826
O O13 0.750000 0.005074 0.707774
O O14 0.634554 0.975349 0.559494
O O15 0.000000 0.000000 0.500000
#
# Coordination Sequence:
#
# PCOD8243973 Si02
#       6
#     8   8   8   8   8   8
#     4  10  21  36  55  81 111 142 184 229 277 332
#     4  10  20  35  56  83 111 144 185 232 280 322
#     4   9  19  34  54  79 106 139 181 223 265 325
#     4   8  17  33  55  78 102 135 181 228 270 320
#     4  10  20  35  57  83 109 143 186 227 269 332
#     4  11  21  35  57  80 111 151 182 219 272 329
#
# _framework density 18.196919000000001
#
# number of rings (size 3 to 8) (size 9 to 14) (size 15 to 20)
#    0.000    2.333    1.667    2.000    2.333    4.333 
#    0.000    2.500    0.000    3.000    0.000    0.000 
#    0.000    0.000    0.000    0.000    0.000    0.000 
#
# Total GULP energy -594892.017462 kJ/mol
# GULP energy per Si atom -12393.583697 kJ/mol
# Density = 1.815550 g / cm^3
# Si number density = 18.196919 Si / 1000 Ang^3
#
#
#
# Elastic Constant Matrix: (Units=GPa)
#
#
# Indices 1 2 3 4 5 6 
#
# 1 87.1764 49.5145 52.9163 0.0000 0.0000 0.0000
# 2 49.5145 72.5370 45.4431 0.0000 0.0000 0.0000
# 3 52.9163 45.4431 105.1703 0.0000 0.0000 0.0000
# 4 0.0000 0.0000 0.0000 20.1228 0.0000 0.0000
# 5 0.0000 0.0000 0.0000 0.0000 39.8926 0.0000
# 6 0.0000 0.0000 0.0000 0.0000 0.0000 17.7120
#
#
#
# Elastic Compliance Matrix: (Units=1/GPa)
#
#
# Indices 1 2 3 4 5 6 
#
# 1 0.021220 -0.010690 -0.006058 0.000000 0.000000 0.000000
# 2 -0.010690 0.024288 -0.005116 0.000000 0.000000 0.000000
# 3 -0.006058 -0.005116 0.014767 0.000000 0.000000 0.000000
# 4 0.000000 0.000000 0.000000 0.049695 0.000000 0.000000
# 5 0.000000 0.000000 0.000000 0.000000 0.025067 0.000000
# 6 0.000000 0.000000 0.000000 0.000000 0.000000 0.056459
#
#
# Mechanical properties :
#
#
# Convention : Reuss Voigt Hill
#
# Bulk Modulus (GPa) = 60.43179 62.29238 61.36209
# Shear Modulus (GPa) = 20.76939 23.34611 22.05775
#
# Velocity S-wave (km/s) = 3.38208 3.58574 3.48540
# Velocity P-wave (km/s) = 6.96658 7.17287 7.07048
#
# Compressibility (1/GPa) = 0.01654758
#
# Stress axis : x y z
#
# Youngs Moduli (GPa) = 47.12633 41.17243 67.71867
#
# Poissons Ratio (x) = 0.44012 0.41022
# Poissons Ratio (y) = 0.50376 0.34646
# Poissons Ratio (z) = 0.28548 0.21065
#
# Static dielectric constant tensor:
#      x y z
#    x 3.913730 0.000000 0.000000 
#    y 0.000000 3.093820 0.000000 
#    z 0.000000 0.000000 2.784900 
# 
# 
# High freq. dielectric constant tensor:
#      x y z
#    x 1.726400 0.000000 0.000000 
#    y 0.000000 1.677290 0.000000 
#    z 0.000000 0.000000 1.698220 
# 
# From -- ./inp_files/10259.got.cif
#   From: 2010.03.12/outbox.cif.g09.slc.cpg/sg59_6_cif.got.tgz:10259.got - 2010.04.16 16:29:54.
