data_PCOD8243430
_publ_section_title
;
Structure prediction by ZEFSAII (Michael W. Deem and Ramdas Pophale) SiO2 
 PCOD8243430
Probable space group: P M M N
;
_chemical_formula_sum "Si O2"
_cell_formula_units_Z 40
_cell_length_a 9.129110
_cell_length_b 9.078179
_cell_length_c 25.929147
_cell_angle_alpha 90.000000
_cell_angle_beta 90.000000
_cell_angle_gamma 90.000000
_cell_volume 2148.896070
_symmetry_space_group_name_H-M "P M M N"
_symmetry_group_IT_number 59
_space_group.IT_coordinate_system_code '2'
_symmetry_cell_setting 'orthorhombic'
loop_
_space_group_symop_operation_xyz
x,y,z
1/2-x,1/2-y,z
1/2+x,-y,-z
-x,1/2+y,-z
-x,-y,-z
1/2+x,1/2+y,-z
1/2-x,y,z
x,1/2-y,z
loop_
_atom_site_type_symbol
_atom_site_label
_atom_site_fract_x
_atom_site_fract_y
_atom_site_fract_z
Si Si1 0.424997 0.914579 0.841411
Si Si2 0.077801 0.577441 0.452533
Si Si3 0.576214 0.585700 0.256534
Si Si4 0.921408 0.422281 0.359182
Si Si5 0.915290 0.423596 0.045386
O O1 0.250000 0.912836 0.841429
O O2 0.482724 0.750000 0.829926
O O3 0.479410 0.967647 0.898050
O O4 0.487952 0.021178 0.796971
O O5 0.250000 0.547304 0.456034
O O6 0.041965 0.750000 0.454018
O O7 0.000000 0.500000 0.500000
O O8 0.016225 0.509680 0.400305
O O9 0.750000 0.590484 0.253045
O O10 0.512892 0.750000 0.264876
O O11 0.528369 0.481109 0.303445
O O12 0.750000 0.452804 0.369308
O O13 0.956914 0.250000 0.362631
O O14 0.750000 0.479685 0.041445
O O15 0.925514 0.250000 0.038359
O O16 0.000000 0.500000 0.000000
#
# Coordination Sequence:
#
# PCOD8243430 Si02
#       5
#     8   8   8   8   8
#     4   8  14  26  43  64  93 127 162 203 250 299
#     4  11  24  40  58  81 108 138 173 212 253 297
#     4   9  16  26  44  72 102 130 163 205 251 297
#     4  10  20  34  54  80 108 138 171 206 248 299
#     4   9  18  31  47  69  97 129 166 208 254 303
#
# _framework density 18.614208000000001
#
# number of rings (size 3 to 8) (size 9 to 14) (size 15 to 20)
#    0.000    2.600    0.000    3.600    0.000    8.800 
#    0.000    2.000    0.000    1.200    0.000    5.600 
#    0.000    0.000    0.000    0.000    0.000    0.000 
#
# Total GULP energy -495880.079966 kJ/mol
# GULP energy per Si atom -12397.001999 kJ/mol
# Density = 1.857184 g / cm^3
# Si number density = 18.614208 Si / 1000 Ang^3
#
#
#
# Elastic Constant Matrix: (Units=GPa)
#
#
# Indices 1 2 3 4 5 6 
#
# 1 49.3679 49.5677 53.2285 0.0000 0.0000 0.0000
# 2 49.5677 121.7699 84.6832 0.0000 0.0000 0.0000
# 3 53.2285 84.6832 179.4684 0.0000 0.0000 0.0000
# 4 0.0000 0.0000 0.0000 43.8655 0.0000 0.0000
# 5 0.0000 0.0000 0.0000 0.0000 25.9435 0.0000
# 6 0.0000 0.0000 0.0000 0.0000 0.0000 22.8728
#
#
#
# Elastic Compliance Matrix: (Units=1/GPa)
#
#
# Indices 1 2 3 4 5 6 
#
# 1 0.038062 -0.011376 -0.005921 0.000000 0.000000 0.000000
# 2 -0.011376 0.015623 -0.003998 0.000000 0.000000 0.000000
# 3 -0.005921 -0.003998 0.009215 0.000000 0.000000 0.000000
# 4 0.000000 0.000000 0.000000 0.022797 0.000000 0.000000
# 5 0.000000 0.000000 0.000000 0.000000 0.038545 0.000000
# 6 0.000000 0.000000 0.000000 0.000000 0.000000 0.043720
#
#
# Mechanical properties :
#
#
# Convention : Reuss Voigt Hill
#
# Bulk Modulus (GPa) = 49.23643 80.61832 64.92737
# Shear Modulus (GPa) = 23.00736 29.41148 26.20942
#
# Velocity S-wave (km/s) = 3.51951 3.97930 3.75645
# Velocity P-wave (km/s) = 6.55929 8.03226 7.33286
#
# Compressibility (1/GPa) = 0.02031017
#
# Stress axis : x y z
#
# Youngs Moduli (GPa) = 26.27287 64.00752 108.52368
#
# Poissons Ratio (x) = 0.72814 0.64257
# Poissons Ratio (y) = 0.29888 0.43387
# Poissons Ratio (z) = 0.15556 0.25590
#
# Static dielectric constant tensor:
#      x y z
#    x 3.034070 0.000000 0.000000 
#    y 0.000000 3.568550 0.000000 
#    z 0.000000 0.000000 3.761740 
# 
# 
# High freq. dielectric constant tensor:
#      x y z
#    x 1.670960 0.000000 0.000000 
#    y 0.000000 1.729910 0.000000 
#    z 0.000000 0.000000 1.744680 
# 
# From -- ./inp_files/31144.got.cif
#   From: 2010.03.12/outbox.cif.g09.slc.cpg/sg59_16_cif.got.tgz:31144.got - 2010.04.16 16:29:54.
