data_PCOD8243054
_publ_section_title
;
Structure prediction by ZEFSAII (Michael W. Deem and Ramdas Pophale) SiO2 
 PCOD8243054
Probable space group: P M M N
;
_chemical_formula_sum "Si O2"
_cell_formula_units_Z 64
_cell_length_a 28.241581
_cell_length_b 9.101994
_cell_length_c 12.730611
_cell_angle_alpha 90.000000
_cell_angle_beta 90.000000
_cell_angle_gamma 90.000000
_cell_volume 3272.463402
_symmetry_space_group_name_H-M "P M M N"
_symmetry_group_IT_number 59
_space_group.IT_coordinate_system_code '2'
_symmetry_cell_setting 'orthorhombic'
loop_
_space_group_symop_operation_xyz
x,y,z
1/2-x,1/2-y,z
1/2+x,-y,-z
-x,1/2+y,-z
-x,-y,-z
1/2+x,1/2+y,-z
1/2-x,y,z
x,1/2-y,z
loop_
_atom_site_type_symbol
_atom_site_label
_atom_site_fract_x
_atom_site_fract_y
_atom_site_fract_z
Si Si1 0.302574 0.417825 0.908013
Si Si2 0.863061 0.075857 0.924975
Si Si3 0.352756 0.922867 0.488922
Si Si4 0.326663 0.089039 0.682877
Si Si5 0.957267 0.422595 0.442647
Si Si6 0.066482 0.088863 0.752175
Si Si7 0.950050 0.576482 0.011118
Si Si8 0.803958 0.075369 0.723225
O O1 0.250000 0.423337 0.955705
O O2 0.323052 0.250000 0.914507
O O3 0.299934 0.470102 0.786457
O O4 0.334692 0.530197 0.971363
O O5 0.870853 0.250000 0.923519
O O6 0.833524 0.020384 0.824024
O O7 0.913923 0.995395 0.927079
O O8 0.348411 0.750000 0.494022
O O9 0.407659 0.970939 0.502658
O O10 0.331636 0.983799 0.379575
O O11 0.319842 0.983768 0.583030
O O12 0.306927 0.250000 0.652373
O O13 0.381032 0.099975 0.711464
O O14 0.964356 0.250000 0.448531
O O15 0.960532 0.471907 0.320868
O O16 0.000000 0.500000 0.500000
O O17 0.041850 0.250000 0.743246
O O18 0.067791 0.037328 0.872265
O O19 0.953672 0.750000 0.990061
O O20 0.000000 0.500000 0.000000
O O21 0.750000 0.013495 0.726667
O O22 0.802287 0.250000 0.722462
#
# Coordination Sequence:
#
# PCOD8243054 Si02
#       8
#     8   8   8   8   8   8   8   8
#     4  10  20  35  56  82 114 151 188 232 291 350
#     4  11  22  37  59  85 115 152 198 246 292 349
#     4   9  19  35  55  80 109 145 189 239 289 345
#     4   9  17  33  54  78 108 145 182 224 285 347
#     4  10  20  33  53  82 113 147 193 241 293 352
#     4   9  18  35  56  74 105 148 185 228 285 346
#     4  11  23  40  60  86 117 153 196 240 298 358
#     4   9  19  37  59  82 114 156 197 242 300 358
#
# _framework density 19.557133
#
# number of rings (size 3 to 8) (size 9 to 14) (size 15 to 20)
#    0.000    2.250    1.250    1.500    0.000    4.250 
#    0.000    3.750    0.000    1.500    0.000    0.000 
#    0.000    0.000    0.000    0.000    0.000    0.000 
#
# Total GULP energy -793388.891185 kJ/mol
# GULP energy per Si atom -12396.701425 kJ/mol
# Density = 1.951262 g / cm^3
# Si number density = 19.557133 Si / 1000 Ang^3
#
#
#
# Elastic Constant Matrix: (Units=GPa)
#
#
# Indices 1 2 3 4 5 6 
#
# 1 93.7213 43.6232 56.2005 0.0000 0.0000 0.0000
# 2 43.6232 66.5401 42.0721 0.0000 0.0000 0.0000
# 3 56.2005 42.0721 126.4001 0.0000 0.0000 0.0000
# 4 0.0000 0.0000 0.0000 31.2622 0.0000 0.0000
# 5 0.0000 0.0000 0.0000 0.0000 28.3463 0.0000
# 6 0.0000 0.0000 0.0000 0.0000 0.0000 20.3590
#
#
#
# Elastic Compliance Matrix: (Units=1/GPa)
#
#
# Indices 1 2 3 4 5 6 
#
# 1 0.017570 -0.008333 -0.005038 0.000000 0.000000 0.000000
# 2 -0.008333 0.022987 -0.003946 0.000000 0.000000 0.000000
# 3 -0.005038 -0.003946 0.011465 0.000000 0.000000 0.000000
# 4 0.000000 0.000000 0.000000 0.031988 0.000000 0.000000
# 5 0.000000 0.000000 0.000000 0.000000 0.035278 0.000000
# 6 0.000000 0.000000 0.000000 0.000000 0.000000 0.049118
#
#
# Mechanical properties :
#
#
# Convention : Reuss Voigt Hill
#
# Bulk Modulus (GPa) = 57.51524 63.38370 60.44947
# Shear Modulus (GPa) = 23.94227 25.64454 24.79340
#
# Velocity S-wave (km/s) = 3.50268 3.62506 3.56440
# Velocity P-wave (km/s) = 6.76986 7.07116 6.92215
#
# Compressibility (1/GPa) = 0.01738670
#
# Stress axis : x y z
#
# Youngs Moduli (GPa) = 56.91566 43.50359 87.22221
#
# Poissons Ratio (x) = 0.36252 0.43945
# Poissons Ratio (y) = 0.47428 0.34418
# Poissons Ratio (z) = 0.28676 0.17167
#
# Static dielectric constant tensor:
#      x y z
#    x 3.660830 0.000000 0.000000 
#    y 0.000000 3.478120 0.000000 
#    z 0.000000 0.000000 4.745750 
# 
# 
# High freq. dielectric constant tensor:
#      x y z
#    x 1.762200 0.000000 0.000000 
#    y 0.000000 1.744750 0.000000 
#    z 0.000000 0.000000 1.763300 
# 
# From -- ./inp_files/19274.got.cif
#   From: 2010.03.12/outbox.cif.g09.slc.cpg/sg59_10_cif.got.tgz:19274.got - 2010.04.16 16:29:54.
