data_PCOD8243641
_publ_section_title
;
Structure prediction by ZEFSAII (Michael W. Deem and Ramdas Pophale) SiO2 
 PCOD8243641
Probable space group: P M M N
;
_chemical_formula_sum "Si O2"
_cell_formula_units_Z 64
_cell_length_a 8.892521
_cell_length_b 13.974823
_cell_length_c 26.435390
_cell_angle_alpha 90.000000
_cell_angle_beta 90.000000
_cell_angle_gamma 90.000000
_cell_volume 3285.163110
_symmetry_space_group_name_H-M "P M M N"
_symmetry_group_IT_number 59
_space_group.IT_coordinate_system_code '2'
_symmetry_cell_setting 'orthorhombic'
loop_
_space_group_symop_operation_xyz
x,y,z
1/2-x,1/2-y,z
1/2+x,-y,-z
-x,1/2+y,-z
-x,-y,-z
1/2+x,1/2+y,-z
1/2-x,y,z
x,1/2-y,z
loop_
_atom_site_type_symbol
_atom_site_label
_atom_site_fract_x
_atom_site_fract_y
_atom_site_fract_z
Si Si1 0.575123 0.022739 0.947109
Si Si2 0.072369 0.358614 0.476698
Si Si3 0.426557 0.027312 0.575380
Si Si4 0.424366 0.641429 0.338040
Si Si5 0.574900 0.356572 0.229639
Si Si6 0.082729 0.354971 0.127169
Si Si7 0.924635 0.454022 0.765046
Si Si8 0.073132 0.360656 0.862314
O O1 0.750000 0.047124 0.954386
O O2 0.498083 0.109143 0.916118
O O3 0.544906 0.926371 0.916976
O O4 0.500000 0.000000 0.000000
O O5 0.250000 0.362233 0.470488
O O6 0.012378 0.250000 0.472104
O O7 0.022125 0.400161 0.531081
O O8 0.999912 0.422986 0.432652
O O9 0.250000 0.013055 0.576071
O O10 0.478212 0.069917 0.628464
O O11 0.250000 0.624399 0.350645
O O12 0.472995 0.750000 0.349635
O O13 0.457320 0.621906 0.279116
O O14 0.750000 0.372514 0.239801
O O15 0.525721 0.250000 0.249181
O O16 0.541985 0.364907 0.170204
O O17 0.482468 0.442570 0.255790
O O18 0.250000 0.374804 0.150171
O O19 0.076020 0.250000 0.102701
O O20 0.750000 0.460475 0.777897
O O21 0.007225 0.423186 0.816357
O O22 0.250000 0.378334 0.864622
O O23 0.033452 0.250000 0.852719
#
# Coordination Sequence:
#
# PCOD8243641 Si02
#       8
#     8   8   8   8   8   8   8   8
#     4  11  23  38  58  84 115 151 185 226 277 332
#     4   9  18  34  56  82 115 156 199 241 289 348
#     4  10  20  34  55  85 118 151 193 245 296 345
#     4  10  22  39  58  82 114 153 196 240 287 342
#     4  10  20  34  56  85 113 141 177 223 273 327
#     4   9  18  34  56  80 105 137 177 218 265 323
#     4  11  22  38  61  87 115 150 192 236 282 338
#     4  11  24  41  61  85 115 151 190 233 282 337
#
# _framework density 19.481529999999999
#
# number of rings (size 3 to 8) (size 9 to 14) (size 15 to 20)
#    0.000    1.875    1.250    2.625    0.000    5.750 
#    0.000    1.875    0.000    0.750    0.000    0.000 
#    0.000    0.000    0.000    0.000    0.000    0.000 
#
# Total GULP energy -793568.868581 kJ/mol
# GULP energy per Si atom -12399.513572 kJ/mol
# Density = 1.943719 g / cm^3
# Si number density = 19.481530 Si / 1000 Ang^3
#
#
#
# Elastic Constant Matrix: (Units=GPa)
#
#
# Indices 1 2 3 4 5 6 
#
# 1 72.0933 42.7630 26.4476 0.0000 0.0000 0.0000
# 2 42.7630 132.3689 31.9654 0.0000 0.0000 0.0000
# 3 26.4476 31.9654 70.1974 0.0000 0.0000 0.0000
# 4 0.0000 0.0000 0.0000 28.7203 0.0000 0.0000
# 5 0.0000 0.0000 0.0000 0.0000 30.4340 0.0000
# 6 0.0000 0.0000 0.0000 0.0000 0.0000 31.6393
#
#
#
# Elastic Compliance Matrix: (Units=1/GPa)
#
#
# Indices 1 2 3 4 5 6 
#
# 1 0.018478 -0.004818 -0.004768 0.000000 0.000000 0.000000
# 2 -0.004818 0.009744 -0.002622 0.000000 0.000000 0.000000
# 3 -0.004768 -0.002622 0.017236 0.000000 0.000000 0.000000
# 4 0.000000 0.000000 0.000000 0.034819 0.000000 0.000000
# 5 0.000000 0.000000 0.000000 0.000000 0.032858 0.000000
# 6 0.000000 0.000000 0.000000 0.000000 0.000000 0.031606
#
#
# Mechanical properties :
#
#
# Convention : Reuss Voigt Hill
#
# Bulk Modulus (GPa) = 47.52306 53.00128 50.26217
# Shear Modulus (GPa) = 28.38160 29.72431 29.05296
#
# Velocity S-wave (km/s) = 3.82101 3.91035 3.86594
# Velocity P-wave (km/s) = 6.62674 6.90310 6.76633
#
# Compressibility (1/GPa) = 0.02104241
#
# Stress axis : x y z
#
# Youngs Moduli (GPa) = 54.11877 102.62357 58.01888
#
# Poissons Ratio (x) = 0.49445 0.27662
# Poissons Ratio (y) = 0.26075 0.15212
# Poissons Ratio (z) = 0.25802 0.26908
#
# Static dielectric constant tensor:
#      x y z
#    x 3.576480 0.000000 0.000000 
#    y 0.000000 3.991160 0.000000 
#    z 0.000000 0.000000 3.315470 
# 
# 
# High freq. dielectric constant tensor:
#      x y z
#    x 1.762000 0.000000 0.000000 
#    y 0.000000 1.776060 0.000000 
#    z 0.000000 0.000000 1.735840 
# 
# From -- ./inp_files/31620.got.cif
#   From: 2010.03.12/outbox.cif.g09.slc.cpg/sg59_16_cif.got.tgz:31620.got - 2010.04.16 16:29:54.
