data_PCOD8243932
_publ_section_title
;
Structure prediction by ZEFSAII (Michael W. Deem and Ramdas Pophale) SiO2 
 PCOD8243932
Probable space group: P M M N
;
_chemical_formula_sum "Si O2"
_cell_formula_units_Z 48
_cell_length_a 8.795403
_cell_length_b 20.415399
_cell_length_c 14.513304
_cell_angle_alpha 90.000000
_cell_angle_beta 90.000000
_cell_angle_gamma 90.000000
_cell_volume 2606.032982
_symmetry_space_group_name_H-M "P M M N"
_symmetry_group_IT_number 59
_space_group.IT_coordinate_system_code '2'
_symmetry_cell_setting 'orthorhombic'
loop_
_space_group_symop_operation_xyz
x,y,z
1/2-x,1/2-y,z
1/2+x,-y,-z
-x,1/2+y,-z
-x,-y,-z
1/2+x,1/2+y,-z
1/2-x,y,z
x,1/2-y,z
loop_
_atom_site_type_symbol
_atom_site_label
_atom_site_fract_x
_atom_site_fract_y
_atom_site_fract_z
Si Si1 0.075985 0.823649 0.923759
Si Si2 0.429682 0.441978 0.558699
Si Si3 0.571688 0.059763 0.944699
Si Si4 0.070590 0.477167 0.761578
Si Si5 0.930350 0.677313 0.560872
Si Si6 0.071408 0.117964 0.246693
O O1 0.250000 0.836374 0.893257
O O2 0.053539 0.750000 0.960887
O O3 0.966850 0.833183 0.836271
O O4 0.029303 0.872475 0.005522
O O5 0.500000 0.500000 0.500000
O O6 0.250000 0.448739 0.549747
O O7 0.483304 0.446986 0.664268
O O8 0.486556 0.372117 0.518970
O O9 0.750000 0.047522 0.939154
O O10 0.505038 0.065308 0.842102
O O11 0.500000 0.000000 0.000000
O O12 0.250000 0.473973 0.773021
O O13 0.018801 0.551603 0.770677
O O14 0.750000 0.681310 0.562034
O O15 0.998533 0.750000 0.542905
O O16 0.987568 0.650657 0.659137
O O17 0.250000 0.102990 0.250241
#
# Coordination Sequence:
#
# PCOD8243932 Si02
#       6
#     8   8   8   8   8   8
#     4  10  22  39  57  80 113 149 182 224 282 337
#     4  10  20  35  56  80 109 145 184 228 273 324
#     4  11  22  37  59  83 111 146 185 229 275 330
#     4  11  22  35  54  83 115 146 186 232 277 329
#     4   9  18  33  53  80 112 144 181 226 277 328
#     4  11  20  32  56  85 113 145 183 230 279 332
#
# _framework density 18.418800999999998
#
# number of rings (size 3 to 8) (size 9 to 14) (size 15 to 20)
#    0.000    1.667    3.333    2.000    0.000    2.333 
#    0.000    0.833    0.000    2.500    0.000    0.000 
#    0.000    0.000    0.000    0.000    0.000    0.000 
#
# Total GULP energy -595312.750510 kJ/mol
# GULP energy per Si atom -12402.348969 kJ/mol
# Density = 1.837688 g / cm^3
# Si number density = 18.418801 Si / 1000 Ang^3
#
#
#
# Elastic Constant Matrix: (Units=GPa)
#
#
# Indices 1 2 3 4 5 6 
#
# 1 48.4967 23.2569 40.8356 0.0000 0.0000 0.0000
# 2 23.2569 132.0892 72.4376 0.0000 0.0000 0.0000
# 3 40.8356 72.4376 158.2697 0.0000 0.0000 0.0000
# 4 0.0000 0.0000 0.0000 32.3310 0.0000 0.0000
# 5 0.0000 0.0000 0.0000 0.0000 27.3169 0.0000
# 6 0.0000 0.0000 0.0000 0.0000 0.0000 16.9440
#
#
#
# Elastic Compliance Matrix: (Units=1/GPa)
#
#
# Indices 1 2 3 4 5 6 
#
# 1 0.026490 -0.001223 -0.006275 0.000000 0.000000 0.000000
# 2 -0.001223 0.010164 -0.004336 0.000000 0.000000 0.000000
# 3 -0.006275 -0.004336 0.009922 0.000000 0.000000 0.000000
# 4 0.000000 0.000000 0.000000 0.030930 0.000000 0.000000
# 5 0.000000 0.000000 0.000000 0.000000 0.036607 0.000000
# 6 0.000000 0.000000 0.000000 0.000000 0.000000 0.059018
#
#
# Mechanical properties :
#
#
# Convention : Reuss Voigt Hill
#
# Bulk Modulus (GPa) = 43.65369 67.99065 55.82217
# Shear Modulus (GPa) = 24.45751 28.80677 26.63214
#
# Velocity S-wave (km/s) = 3.64793 3.95902 3.80665
# Velocity P-wave (km/s) = 6.44168 7.60870 7.04938
#
# Compressibility (1/GPa) = 0.02290757
#
# Stress axis : x y z
#
# Youngs Moduli (GPa) = 37.74976 98.38614 100.78512
#
# Poissons Ratio (x) = 0.12031 0.63244
# Poissons Ratio (y) = 0.04616 0.43705
# Poissons Ratio (z) = 0.23688 0.42664
#
# Static dielectric constant tensor:
#      x y z
#    x 3.298270 0.000000 0.000000 
#    y 0.000000 3.560430 0.000000 
#    z 0.000000 0.000000 3.649900 
# 
# 
# High freq. dielectric constant tensor:
#      x y z
#    x 1.703760 0.000000 0.000000 
#    y 0.000000 1.713580 0.000000 
#    z 0.000000 0.000000 1.719110 
# 
# From -- ./inp_files/20478.got.cif
#   From: 2010.03.12/outbox.cif.g09.slc.cpg/sg59_11_cif.got.tgz:20478.got - 2010.04.16 16:29:54.
