data_PCOD8243919
_publ_section_title
;
Structure prediction by ZEFSAII (Michael W. Deem and Ramdas Pophale) SiO2 
 PCOD8243919
Probable space group: P M M N
;
_chemical_formula_sum "Si O2"
_cell_formula_units_Z 64
_cell_length_a 8.956209
_cell_length_b 20.962497
_cell_length_c 17.089012
_cell_angle_alpha 90.000000
_cell_angle_beta 90.000000
_cell_angle_gamma 90.000000
_cell_volume 3208.368087
_symmetry_space_group_name_H-M "P M M N"
_symmetry_group_IT_number 59
_space_group.IT_coordinate_system_code '2'
_symmetry_cell_setting 'orthorhombic'
loop_
_space_group_symop_operation_xyz
x,y,z
1/2-x,1/2-y,z
1/2+x,-y,-z
-x,1/2+y,-z
-x,-y,-z
1/2+x,1/2+y,-z
1/2-x,y,z
x,1/2-y,z
loop_
_atom_site_type_symbol
_atom_site_label
_atom_site_fract_x
_atom_site_fract_y
_atom_site_fract_z
Si Si1 0.574834 0.435329 0.090398
Si Si2 0.926971 0.321613 0.199682
Si Si3 0.924554 0.677500 0.186395
Si Si4 0.576550 0.107575 0.354773
Si Si5 0.424965 0.508863 0.415366
Si Si6 0.580551 0.869552 0.355913
Si Si7 0.414087 0.320932 0.480071
Si Si8 0.924957 0.434215 0.909323
O O1 0.750000 0.443697 0.104998
O O2 0.513129 0.372927 0.136227
O O3 0.498269 0.500157 0.122318
O O4 0.534611 0.424853 0.000126
O O5 0.750000 0.317792 0.194192
O O6 0.992972 0.250000 0.185003
O O7 0.976476 0.345826 0.285322
O O8 0.750000 0.667046 0.171060
O O9 0.971204 0.750000 0.164477
O O10 0.965617 0.666143 0.276862
O O11 0.014598 0.627809 0.134175
O O12 0.750000 0.090945 0.347723
O O13 0.544269 0.139526 0.438663
O O14 0.482174 0.042922 0.352526
O O15 0.500000 0.500000 0.500000
O O16 0.250000 0.503543 0.428065
O O17 0.465638 0.574606 0.374305
O O18 0.750000 0.896258 0.349884
O O19 0.565234 0.819521 0.426645
O O20 0.250000 0.350247 0.459345
O O21 0.424267 0.250000 0.447697
O O22 0.750000 0.439424 0.895029
#
# Coordination Sequence:
#
# PCOD8243919 Si02
#       8
#     8   8   8   8   8   8   8   8
#     4   9  19  38  63  88 117 158 200 239 291 354
#     4   9  19  36  59  87 116 149 194 242 287 344
#     4  10  22  40  62  88 120 159 201 241 291 360
#     4  11  22  36  56  83 114 148 190 240 292 347
#     4  12  24  39  58  83 113 148 193 244 296 351
#     4  10  21  38  59  82 112 151 195 240 287 345
#     4  10  20  35  56  79 107 147 191 236 289 344
#     4  10  21  37  60  91 123 154 195 246 296 349
#
# _framework density 19.947835999999999
#
# number of rings (size 3 to 8) (size 9 to 14) (size 15 to 20)
#    0.000    1.875    1.250    2.625    1.750    4.000 
#    0.000    1.875    0.000    4.125    0.000    0.000 
#    0.000    0.000    0.000    0.000    0.000    0.000 
#
# Total GULP energy -793496.470334 kJ/mol
# GULP energy per Si atom -12398.382349 kJ/mol
# Density = 1.990243 g / cm^3
# Si number density = 19.947836 Si / 1000 Ang^3
#
#
#
# Elastic Constant Matrix: (Units=GPa)
#
#
# Indices 1 2 3 4 5 6 
#
# 1 77.5365 46.7237 32.6593 0.0000 0.0000 0.0000
# 2 46.7237 151.4758 54.3676 0.0000 0.0000 0.0000
# 3 32.6593 54.3676 88.7370 0.0000 0.0000 0.0000
# 4 0.0000 0.0000 0.0000 37.2904 0.0000 0.0000
# 5 0.0000 0.0000 0.0000 0.0000 25.1882 0.0000
# 6 0.0000 0.0000 0.0000 0.0000 0.0000 29.4423
#
#
#
# Elastic Compliance Matrix: (Units=1/GPa)
#
#
# Indices 1 2 3 4 5 6 
#
# 1 0.016813 -0.003801 -0.003859 0.000000 0.000000 0.000000
# 2 -0.003801 0.009322 -0.004312 0.000000 0.000000 0.000000
# 3 -0.003859 -0.004312 0.015332 0.000000 0.000000 0.000000
# 4 0.000000 0.000000 0.000000 0.026817 0.000000 0.000000
# 5 0.000000 0.000000 0.000000 0.000000 0.039701 0.000000
# 6 0.000000 0.000000 0.000000 0.000000 0.000000 0.033965
#
#
# Mechanical properties :
#
#
# Convention : Reuss Voigt Hill
#
# Bulk Modulus (GPa) = 57.07242 65.02782 61.05012
# Shear Modulus (GPa) = 29.11459 30.65078 29.88269
#
# Velocity S-wave (km/s) = 3.82453 3.92413 3.87465
# Velocity P-wave (km/s) = 6.94087 7.29393 7.11959
#
# Compressibility (1/GPa) = 0.01752160
#
# Stress axis : x y z
#
# Youngs Moduli (GPa) = 59.47715 107.27329 65.22386
#
# Poissons Ratio (x) = 0.40774 0.25171
# Poissons Ratio (y) = 0.22607 0.28128
# Poissons Ratio (z) = 0.22954 0.46261
#
# Static dielectric constant tensor:
#      x y z
#    x 3.459720 0.000000 0.000000 
#    y 0.000000 3.927300 0.000000 
#    z 0.000000 0.000000 3.623880 
# 
# 
# High freq. dielectric constant tensor:
#      x y z
#    x 1.758670 0.000000 0.000000 
#    y 0.000000 1.791690 0.000000 
#    z 0.000000 0.000000 1.773770 
# 
# From -- ./inp_files/26279.got.cif
#   From: 2010.03.12/outbox.cif.g09.slc.cpg/sg59_14_cif.got.tgz:26279.got - 2010.04.16 16:29:54.
