data_PCOD8243499
_publ_section_title
;
Structure prediction by ZEFSAII (Michael W. Deem and Ramdas Pophale) SiO2 
 PCOD8243499
Probable space group: P M M N
;
_chemical_formula_sum "Si O2"
_cell_formula_units_Z 64
_cell_length_a 26.466526
_cell_length_b 9.285271
_cell_length_c 13.150924
_cell_angle_alpha 90.000000
_cell_angle_beta 90.000000
_cell_angle_gamma 90.000000
_cell_volume 3231.824664
_symmetry_space_group_name_H-M "P M M N"
_symmetry_group_IT_number 59
_space_group.IT_coordinate_system_code '2'
_symmetry_cell_setting 'orthorhombic'
loop_
_space_group_symop_operation_xyz
x,y,z
1/2-x,1/2-y,z
1/2+x,-y,-z
-x,1/2+y,-z
-x,-y,-z
1/2+x,1/2+y,-z
1/2-x,y,z
x,1/2-y,z
loop_
_atom_site_type_symbol
_atom_site_label
_atom_site_fract_x
_atom_site_fract_y
_atom_site_fract_z
Si Si1 0.461650 0.406561 0.560394
Si Si2 0.022803 0.918053 0.908080
Si Si3 0.149392 0.416770 0.528192
Si Si4 0.191231 0.081053 0.097368
Si Si5 0.467834 0.910886 0.257039
Si Si6 0.360299 0.920150 0.908758
Si Si7 0.807786 0.089175 0.294237
Si Si8 0.369284 0.082426 0.301325
O O1 0.500000 0.500000 0.500000
O O2 0.457068 0.250000 0.506945
O O3 0.406148 0.475865 0.559546
O O4 0.484166 0.390306 0.671293
O O5 0.015625 0.750000 0.922187
O O6 0.081151 0.960048 0.897666
O O7 0.986942 0.969444 0.818938
O O8 0.000000 0.000000 0.000000
O O9 0.155441 0.250000 0.555387
O O10 0.187480 0.501099 0.601071
O O11 0.160445 0.443877 0.408141
O O12 0.250000 0.035692 0.101641
O O13 0.185470 0.250000 0.076224
O O14 0.166024 0.039877 0.205904
O O15 0.163374 0.997575 0.006804
O O16 0.455080 0.750000 0.212295
O O17 0.417812 0.978156 0.307591
O O18 0.351049 0.750000 0.922202
O O19 0.336066 0.978499 0.803707
O O20 0.750000 0.091904 0.262249
O O21 0.828588 0.250000 0.314275
O O22 0.385779 0.250000 0.294046
#
# Coordination Sequence:
#
# PCOD8243499 Si02
#       8
#     8   8   8   8   8   8   8   8
#     4  10  20  34  54  82 113 148 190 233 276 331
#     4  11  23  38  58  85 118 155 193 236 289 348
#     4  10  21  37  58  86 118 154 197 239 286 345
#     4  10  22  39  60  86 112 143 187 239 292 343
#     4  11  22  35  55  85 119 154 192 235 282 338
#     4  10  22  41  63  86 113 150 194 240 292 350
#     4  10  22  40  61  85 114 149 192 244 300 352
#     4  10  21  38  59  83 117 157 195 235 284 344
#
# _framework density 19.803055000000001
#
# number of rings (size 3 to 8) (size 9 to 14) (size 15 to 20)
#    0.000    1.750    1.250    2.625    0.000    7.000 
#    0.000    1.250    0.000    0.000    0.000    0.000 
#    0.000    0.000    0.000    0.000    0.000    0.000 
#
# Total GULP energy -793283.176424 kJ/mol
# GULP energy per Si atom -12395.049632 kJ/mol
# Density = 1.975798 g / cm^3
# Si number density = 19.803055 Si / 1000 Ang^3
#
#
#
# Elastic Constant Matrix: (Units=GPa)
#
#
# Indices 1 2 3 4 5 6 
#
# 1 63.0594 33.7147 37.9473 0.0000 0.0000 0.0000
# 2 33.7147 70.6470 47.8139 0.0000 0.0000 0.0000
# 3 37.9473 47.8139 137.9570 0.0000 0.0000 0.0000
# 4 0.0000 0.0000 0.0000 35.4695 0.0000 0.0000
# 5 0.0000 0.0000 0.0000 0.0000 37.0431 0.0000
# 6 0.0000 0.0000 0.0000 0.0000 0.0000 29.4846
#
#
#
# Elastic Compliance Matrix: (Units=1/GPa)
#
#
# Indices 1 2 3 4 5 6 
#
# 1 0.022320 -0.008488 -0.003198 0.000000 0.000000 0.000000
# 2 -0.008488 0.021720 -0.005193 0.000000 0.000000 0.000000
# 3 -0.003198 -0.005193 0.009928 0.000000 0.000000 0.000000
# 4 0.000000 0.000000 0.000000 0.028193 0.000000 0.000000
# 5 0.000000 0.000000 0.000000 0.000000 0.026996 0.000000
# 6 0.000000 0.000000 0.000000 0.000000 0.000000 0.033916
#
#
# Mechanical properties :
#
#
# Convention : Reuss Voigt Hill
#
# Bulk Modulus (GPa) = 49.47735 56.73502 53.10619
# Shear Modulus (GPa) = 27.23785 30.54526 28.89156
#
# Velocity S-wave (km/s) = 3.71271 3.93167 3.82376
# Velocity P-wave (km/s) = 6.58923 7.02300 6.80957
#
# Compressibility (1/GPa) = 0.02021127
#
# Stress axis : x y z
#
# Youngs Moduli (GPa) = 44.80214 46.04019 100.72335
#
# Poissons Ratio (x) = 0.39077 0.32211
# Poissons Ratio (y) = 0.38026 0.52308
# Poissons Ratio (z) = 0.14327 0.23910
#
# Static dielectric constant tensor:
#      x y z
#    x 3.338610 0.000000 0.000000 
#    y 0.000000 3.578630 0.000000 
#    z 0.000000 0.000000 3.764970 
# 
# 
# High freq. dielectric constant tensor:
#      x y z
#    x 1.774120 0.000000 0.000000 
#    y 0.000000 1.768980 0.000000 
#    z 0.000000 0.000000 1.780970 
# 
# From -- ./inp_files/19358.got.cif
#   From: 2010.03.12/outbox.cif.g09.slc.cpg/sg59_10_cif.got.tgz:19358.got - 2010.04.16 16:29:54.
