data_PCOD8243797
_publ_section_title
;
Structure prediction by ZEFSAII (Michael W. Deem and Ramdas Pophale) SiO2 
 PCOD8243797
Probable space group: P M M N
;
_chemical_formula_sum "Si O2"
_cell_formula_units_Z 48
_cell_length_a 9.040550
_cell_length_b 30.162614
_cell_length_c 9.544357
_cell_angle_alpha 90.000000
_cell_angle_beta 90.000000
_cell_angle_gamma 90.000000
_cell_volume 2602.618450
_symmetry_space_group_name_H-M "P M M N"
_symmetry_group_IT_number 59
_space_group.IT_coordinate_system_code '2'
_symmetry_cell_setting 'orthorhombic'
loop_
_space_group_symop_operation_xyz
x,y,z
1/2-x,1/2-y,z
1/2+x,-y,-z
-x,1/2+y,-z
-x,-y,-z
1/2+x,1/2+y,-z
1/2-x,y,z
x,1/2-y,z
loop_
_atom_site_type_symbol
_atom_site_label
_atom_site_fract_x
_atom_site_fract_y
_atom_site_fract_z
Si Si1 0.424147 0.000304 0.851487
Si Si2 0.073081 0.750000 0.167276
Si Si3 0.923944 0.677524 0.352448
Si Si4 0.423608 0.675294 0.641292
Si Si5 0.575575 0.250000 0.149005
Si Si6 0.077572 0.574371 0.641748
Si Si7 0.578270 0.923982 0.356714
O O1 0.250000 0.998557 0.874626
O O2 0.472726 0.044926 0.770753
O O3 0.480289 0.957538 0.764731
O O4 0.500000 0.000000 0.000000
O O5 0.250000 0.750000 0.177363
O O6 0.009346 0.706073 0.238095
O O7 0.012575 0.750000 0.007949
O O8 0.750000 0.687906 0.347579
O O9 0.960260 0.626501 0.316901
O O10 0.985020 0.689998 0.505266
O O11 0.250000 0.681711 0.608415
O O12 0.477622 0.706046 0.769018
O O13 0.460831 0.624849 0.683625
O O14 0.750000 0.250000 0.139826
O O15 0.250000 0.567341 0.618571
O O16 0.003036 0.560535 0.496723
O O17 0.750000 0.929916 0.388197
#
# Coordination Sequence:
#
# PCOD8243797 Si02
#       7
#     8   4   8   8   4   8   8
#     4  10  21  35  50  74 106 139 173 213 259 308
#     4  11  22  35  52  76 104 137 172 207 250 302
#     4  10  20  35  54  77 103 133 169 211 255 305
#     4   9  17  33  55  77 100 130 169 215 259 301
#     4   9  19  33  50  72 100 131 164 203 250 300
#     4   9  18  32  53  78 101 128 170 217 258 301
#     4   9  19  35  54  75 102 134 170 211 258 307
#
# _framework density 18.442965999999998
#
# number of rings (size 3 to 8) (size 9 to 14) (size 15 to 20)
#    0.000    2.500    0.000    1.750    0.000    4.000 
#    0.000    3.333    0.000    0.000    0.000    0.000 
#    0.000    0.000    0.000    0.000    0.000    0.000 
#
# Total GULP energy -595270.170544 kJ/mol
# GULP energy per Si atom -12401.461886 kJ/mol
# Density = 1.840099 g / cm^3
# Si number density = 18.442966 Si / 1000 Ang^3
#
#
#
# Elastic Constant Matrix: (Units=GPa)
#
#
# Indices 1 2 3 4 5 6 
#
# 1 53.5415 42.8935 57.9737 0.0000 0.0000 0.0000
# 2 42.8935 132.0373 105.1486 0.0000 0.0000 0.0000
# 3 57.9737 105.1486 185.9035 0.0000 0.0000 0.0000
# 4 0.0000 0.0000 0.0000 20.7798 0.0000 0.0000
# 5 0.0000 0.0000 0.0000 0.0000 28.4225 0.0000
# 6 0.0000 0.0000 0.0000 0.0000 0.0000 20.9407
#
#
#
# Elastic Compliance Matrix: (Units=1/GPa)
#
#
# Indices 1 2 3 4 5 6 
#
# 1 0.029364 -0.004088 -0.006845 0.000000 0.000000 0.000000
# 2 -0.004088 0.014350 -0.006842 0.000000 0.000000 0.000000
# 3 -0.006845 -0.006842 0.011383 0.000000 0.000000 0.000000
# 4 0.000000 0.000000 0.000000 0.048124 0.000000 0.000000
# 5 0.000000 0.000000 0.000000 0.000000 0.035183 0.000000
# 6 0.000000 0.000000 0.000000 0.000000 0.000000 0.047754
#
#
# Mechanical properties :
#
#
# Convention : Reuss Voigt Hill
#
# Bulk Modulus (GPa) = 51.15631 87.05710 69.10671
# Shear Modulus (GPa) = 21.90841 25.05969 23.48405
#
# Velocity S-wave (km/s) = 3.45033 3.69014 3.57225
# Velocity P-wave (km/s) = 6.60839 8.09087 7.38691
#
# Compressibility (1/GPa) = 0.01954793
#
# Stress axis : x y z
#
# Youngs Moduli (GPa) = 34.05584 69.68596 87.84814
#
# Poissons Ratio (x) = 0.28490 0.60128
# Poissons Ratio (y) = 0.13923 0.60102
# Poissons Ratio (z) = 0.23310 0.47676
#
# Static dielectric constant tensor:
#      x y z
#    x 3.299700 0.000000 0.000000 
#    y 0.000000 3.704550 0.000000 
#    z 0.000000 0.000000 3.447260 
# 
# 
# High freq. dielectric constant tensor:
#      x y z
#    x 1.703920 0.000000 0.000000 
#    y 0.000000 1.731920 0.000000 
#    z 0.000000 0.000000 1.710150 
# 
# From -- ./inp_files/6422.got.cif
#   From: 2010.03.12/outbox.cif.g09.slc.cpg/sg59_4_cif.got.tgz:6422.got - 2010.04.16 16:29:54.
