data_PCOD8243591
_publ_section_title
;
Structure prediction by ZEFSAII (Michael W. Deem and Ramdas Pophale) SiO2 
 PCOD8243591
Probable space group: P M M N
;
_chemical_formula_sum "Si O2"
_cell_formula_units_Z 48
_cell_length_a 13.792445
_cell_length_b 8.950700
_cell_length_c 20.536039
_cell_angle_alpha 90.000000
_cell_angle_beta 90.000000
_cell_angle_gamma 90.000000
_cell_volume 2535.215856
_symmetry_space_group_name_H-M "P M M N"
_symmetry_group_IT_number 59
_space_group.IT_coordinate_system_code '2'
_symmetry_cell_setting 'orthorhombic'
loop_
_space_group_symop_operation_xyz
x,y,z
1/2-x,1/2-y,z
1/2+x,-y,-z
-x,1/2+y,-z
-x,-y,-z
1/2+x,1/2+y,-z
1/2-x,y,z
x,1/2-y,z
loop_
_atom_site_type_symbol
_atom_site_label
_atom_site_fract_x
_atom_site_fract_y
_atom_site_fract_z
Si Si1 0.537228 0.073439 0.339717
Si Si2 0.361904 0.074863 0.780223
Si Si3 0.643271 0.427276 0.467282
Si Si4 0.452600 0.923332 0.902054
Si Si5 0.138413 0.575378 0.387791
Si Si6 0.859581 0.578566 0.978778
O O1 0.540002 0.250000 0.331687
O O2 0.573687 0.015603 0.410210
O O3 0.606181 0.004324 0.285692
O O4 0.426905 0.013866 0.335395
O O5 0.250000 0.035246 0.794730
O O6 0.377638 0.250000 0.772460
O O7 0.429176 0.017163 0.838276
O O8 0.750000 0.491012 0.451996
O O9 0.647276 0.250000 0.468254
O O10 0.611197 0.481834 0.539141
O O11 0.433855 0.750000 0.887599
O O12 0.565157 0.954516 0.920399
O O13 0.382409 0.972910 0.960414
O O14 0.250000 0.539217 0.372184
O O15 0.117368 0.750000 0.380199
O O16 0.750000 0.546611 0.954235
O O17 0.870910 0.750000 0.002133
#
# Coordination Sequence:
#
# PCOD8243591 Si02
#       6
#     8   8   8   8   8   8
#     4  11  21  33  53  79 106 136 173 220 268 314
#     4  11  24  40  56  75 104 142 179 215 261 319
#     4   8  15  29  50  76 104 134 169 212 264 318
#     4  10  20  34  55  83 111 141 179 220 260 303
#     4   9  18  34  54  74 101 138 176 215 263 319
#     4   9  18  34  56  82 113 145 174 209 257 310
#
# _framework density 18.933299999999999
#
# number of rings (size 3 to 8) (size 9 to 14) (size 15 to 20)
#    0.000    2.333    0.000    4.000    0.000    5.333 
#    0.000    1.667    0.000    5.000    0.000    0.000 
#    0.000    0.000    0.000    0.000    0.000    0.000 
#
# Total GULP energy -595133.423015 kJ/mol
# GULP energy per Si atom -12398.612979 kJ/mol
# Density = 1.889021 g / cm^3
# Si number density = 18.933300 Si / 1000 Ang^3
#
#
#
# Elastic Constant Matrix: (Units=GPa)
#
#
# Indices 1 2 3 4 5 6 
#
# 1 121.3875 48.8809 45.7752 0.0000 0.0000 0.0000
# 2 48.8809 75.3502 35.8012 0.0000 0.0000 0.0000
# 3 45.7752 35.8012 57.6900 0.0000 0.0000 0.0000
# 4 0.0000 0.0000 0.0000 31.7264 0.0000 0.0000
# 5 0.0000 0.0000 0.0000 0.0000 26.9645 0.0000
# 6 0.0000 0.0000 0.0000 0.0000 0.0000 28.2587
#
#
#
# Elastic Compliance Matrix: (Units=1/GPa)
#
#
# Indices 1 2 3 4 5 6 
#
# 1 0.012957 -0.004993 -0.007183 0.000000 0.000000 0.000000
# 2 -0.004993 0.020745 -0.008912 0.000000 0.000000 0.000000
# 3 -0.007183 -0.008912 0.028564 0.000000 0.000000 0.000000
# 4 0.000000 0.000000 0.000000 0.031520 0.000000 0.000000
# 5 0.000000 0.000000 0.000000 0.000000 0.037086 0.000000
# 6 0.000000 0.000000 0.000000 0.000000 0.000000 0.035387
#
#
# Mechanical properties :
#
#
# Convention : Reuss Voigt Hill
#
# Bulk Modulus (GPa) = 49.77447 57.26026 53.51737
# Shear Modulus (GPa) = 23.24171 25.65461 24.44816
#
# Velocity S-wave (km/s) = 3.50745 3.68502 3.59733
# Velocity P-wave (km/s) = 6.53830 6.95807 6.75145
#
# Compressibility (1/GPa) = 0.02009062
#
# Stress axis : x y z
#
# Youngs Moduli (GPa) = 77.17721 48.20508 35.00925
#
# Poissons Ratio (x) = 0.24068 0.25146
# Poissons Ratio (y) = 0.38533 0.31201
# Poissons Ratio (z) = 0.55434 0.42961
#
# Static dielectric constant tensor:
#      x y z
#    x 3.627240 0.000000 0.000000 
#    y 0.000000 3.319000 0.000000 
#    z 0.000000 0.000000 3.388120 
# 
# 
# High freq. dielectric constant tensor:
#      x y z
#    x 1.747500 0.000000 0.000000 
#    y 0.000000 1.727060 0.000000 
#    z 0.000000 0.000000 1.717590 
# 
# From -- ./inp_files/27362.got.cif
#   From: 2010.03.12/outbox.cif.g09.slc.cpg/sg59_14_cif.got.tgz:27362.got - 2010.04.16 16:29:54.
