data_PCOD8243832
_publ_section_title
;
Structure prediction by ZEFSAII (Michael W. Deem and Ramdas Pophale) SiO2 
 PCOD8243832
Probable space group: P M M N
;
_chemical_formula_sum "Si O2"
_cell_formula_units_Z 64
_cell_length_a 9.569777
_cell_length_b 14.944167
_cell_length_c 23.821891
_cell_angle_alpha 90.000000
_cell_angle_beta 90.000000
_cell_angle_gamma 90.000000
_cell_volume 3406.824510
_symmetry_space_group_name_H-M "P M M N"
_symmetry_group_IT_number 59
_space_group.IT_coordinate_system_code '2'
_symmetry_cell_setting 'orthorhombic'
loop_
_space_group_symop_operation_xyz
x,y,z
1/2-x,1/2-y,z
1/2+x,-y,-z
-x,1/2+y,-z
-x,-y,-z
1/2+x,1/2+y,-z
1/2-x,y,z
x,1/2-y,z
loop_
_atom_site_type_symbol
_atom_site_label
_atom_site_fract_x
_atom_site_fract_y
_atom_site_fract_z
Si Si1 0.595144 0.909436 0.609162
Si Si2 0.086507 0.355369 0.007792
Si Si3 0.586200 0.492080 0.207246
Si Si4 0.405934 0.885953 0.385809
Si Si5 0.909851 0.648898 0.727932
Si Si6 0.592534 0.352952 0.490119
Si Si7 0.088048 0.509581 0.921810
Si Si8 0.592275 0.847594 0.284141
O O1 0.750000 0.874605 0.592601
O O2 0.537122 0.855698 0.663137
O O3 0.497926 0.905008 0.555156
O O4 0.599846 0.010693 0.629300
O O5 0.250000 0.359421 0.023019
O O6 0.041539 0.250000 0.000251
O O7 0.000620 0.404849 0.056986
O O8 0.054129 0.414751 0.952235
O O9 0.750000 0.475455 0.215613
O O10 0.505795 0.406828 0.230590
O O11 0.548137 0.506245 0.142564
O O12 0.533774 0.580151 0.240225
O O13 0.250000 0.843921 0.383282
O O14 0.469402 0.868415 0.447757
O O15 0.502649 0.839323 0.340429
O O16 0.750000 0.613881 0.730522
O O17 0.920742 0.750000 0.749183
O O18 0.750000 0.391540 0.487919
O O19 0.588679 0.250000 0.473319
O O20 0.250000 0.534815 0.930017
O O21 0.750000 0.873185 0.301541
O O22 0.587607 0.750000 0.254741
#
# Coordination Sequence:
#
# PCOD8243832 Si02
#       8
#     8   8   8   8   8   8   8   8
#     4  10  20  35  55  76  99 133 176 220 269 323
#     4   9  18  34  57  84 113 147 185 222 264 314
#     4  10  21  37  56  80 111 145 183 224 266 316
#     4  10  20  36  56  76 101 135 174 217 268 326
#     4  10  21  37  56  78 106 141 182 227 273 321
#     4  10  21  34  49  74 104 132 167 214 269 328
#     4   9  19  35  55  81 113 148 183 223 268 312
#     4  10  21  36  55  80 108 139 177 222 270 319
#
# _framework density 18.785822
#
# number of rings (size 3 to 8) (size 9 to 14) (size 15 to 20)
#    0.000    2.250    1.250    1.125    0.000    5.000 
#    0.000    5.000    0.000    0.000    0.000    3.500 
#    0.000    0.000    0.000    0.000    0.000    0.000 
#
# Total GULP energy -793455.798199 kJ/mol
# GULP energy per Si atom -12397.746847 kJ/mol
# Density = 1.874306 g / cm^3
# Si number density = 18.785822 Si / 1000 Ang^3
#
#
#
# Elastic Constant Matrix: (Units=GPa)
#
#
# Indices 1 2 3 4 5 6 
#
# 1 59.5845 37.7902 55.1567 0.0000 0.0000 0.0000
# 2 37.7902 113.9705 46.5807 0.0000 0.0000 0.0000
# 3 55.1567 46.5807 130.8036 0.0000 0.0000 0.0000
# 4 0.0000 0.0000 0.0000 12.2755 0.0000 0.0000
# 5 0.0000 0.0000 0.0000 0.0000 31.5927 0.0000
# 6 0.0000 0.0000 0.0000 0.0000 0.0000 23.9623
#
#
#
# Elastic Compliance Matrix: (Units=1/GPa)
#
#
# Indices 1 2 3 4 5 6 
#
# 1 0.030354 -0.005657 -0.010785 0.000000 0.000000 0.000000
# 2 -0.005657 0.011323 -0.001647 0.000000 0.000000 0.000000
# 3 -0.010785 -0.001647 0.012779 0.000000 0.000000 0.000000
# 4 0.000000 0.000000 0.000000 0.081463 0.000000 0.000000
# 5 0.000000 0.000000 0.000000 0.000000 0.031653 0.000000
# 6 0.000000 0.000000 0.000000 0.000000 0.000000 0.041732
#
#
# Mechanical properties :
#
#
# Convention : Reuss Voigt Hill
#
# Bulk Modulus (GPa) = 54.70812 64.82375 59.76594
# Shear Modulus (GPa) = 19.87474 24.55486 22.21480
#
# Velocity S-wave (km/s) = 3.25617 3.61930 3.44252
# Velocity P-wave (km/s) = 6.58195 7.21439 6.90541
#
# Compressibility (1/GPa) = 0.01827882
#
# Stress axis : x y z
#
# Youngs Moduli (GPa) = 32.94411 88.31589 78.25091
#
# Poissons Ratio (x) = 0.49959 0.84396
# Poissons Ratio (y) = 0.18636 0.12887
# Poissons Ratio (z) = 0.35531 0.14545
#
# Static dielectric constant tensor:
#      x y z
#    x 3.435380 0.000000 0.000000 
#    y 0.000000 3.517530 0.000000 
#    z 0.000000 0.000000 3.336760 
# 
# 
# High freq. dielectric constant tensor:
#      x y z
#    x 1.719840 0.000000 0.000000 
#    y 0.000000 1.738890 0.000000 
#    z 0.000000 0.000000 1.721680 
# 
# From -- ./inp_files/31643.got.cif
#   From: 2010.03.12/outbox.cif.g09.slc.cpg/sg59_16_cif.got.tgz:31643.got - 2010.04.16 16:29:54.
