data_PCOD8243418
_publ_section_title
;
Structure prediction by ZEFSAII (Michael W. Deem and Ramdas Pophale) SiO2 
 PCOD8243418
Probable space group: P M M N
;
_chemical_formula_sum "Si O2"
_cell_formula_units_Z 56
_cell_length_a 21.868804
_cell_length_b 8.746293
_cell_length_c 14.915715
_cell_angle_alpha 90.000000
_cell_angle_beta 90.000000
_cell_angle_gamma 90.000000
_cell_volume 2852.943237
_symmetry_space_group_name_H-M "P M M N"
_symmetry_group_IT_number 59
_space_group.IT_coordinate_system_code '2'
_symmetry_cell_setting 'orthorhombic'
loop_
_space_group_symop_operation_xyz
x,y,z
1/2-x,1/2-y,z
1/2+x,-y,-z
-x,1/2+y,-z
-x,-y,-z
1/2+x,1/2+y,-z
1/2-x,y,z
x,1/2-y,z
loop_
_atom_site_type_symbol
_atom_site_label
_atom_site_fract_x
_atom_site_fract_y
_atom_site_fract_z
Si Si1 0.876056 0.930860 0.460242
Si Si2 0.180386 0.069961 0.215945
Si Si3 0.319755 0.569799 0.027154
Si Si4 0.945921 0.431255 0.294360
Si Si5 0.250000 0.570924 0.564212
Si Si6 0.127468 0.073080 0.858090
Si Si7 0.750000 0.923991 0.249272
Si Si8 0.422019 0.069132 0.350960
O O1 0.874262 0.750000 0.447511
O O2 0.916697 0.982279 0.545360
O O3 0.900892 0.003348 0.369374
O O4 0.808534 0.992225 0.480456
O O5 0.250000 0.029019 0.243657
O O6 0.172954 0.250000 0.200084
O O7 0.135178 0.007136 0.293139
O O8 0.160951 0.984996 0.125391
O O9 0.250000 0.517158 0.007111
O O10 0.326239 0.750000 0.020357
O O11 0.366933 0.493919 0.957746
O O12 0.943035 0.250000 0.298825
O O13 0.925913 0.487562 0.196278
O O14 0.014212 0.494400 0.312269
O O15 0.250000 0.750000 0.544237
O O16 0.250000 0.543390 0.670457
O O17 0.110318 0.250000 0.863770
O O18 0.191368 0.042926 0.810063
O O19 0.750000 0.750000 0.286536
O O20 0.421128 0.250000 0.345808
#
# Coordination Sequence:
#
# PCOD8243418 Si02
#       8
#     8   8   8   8   4   8   4   8
#     4  11  22  38  60  84 115 154 197 236 282 340
#     4   9  18  36  62  86 109 142 190 239 284 337
#     4  10  20  34  55  85 119 148 179 228 294 347
#     4  11  22  38  57  83 119 153 191 236 286 338
#     4  12  24  36  54  85 120 151 186 237 296 336
#     4  11  21  35  57  84 113 150 194 230 278 339
#     4  10  20  34  54  79 114 149 186 235 280 334
#     4   9  21  39  61  85 110 150 197 240 282 336
#
# _framework density 19.628852999999999
#
# number of rings (size 3 to 8) (size 9 to 14) (size 15 to 20)
#    0.000    1.714    2.143    2.786    1.000    1.143 
#    0.000    5.714    0.000    0.000    0.000    0.000 
#    0.000    0.000    0.000    0.000    0.000    0.000 
#
# Total GULP energy -694557.033198 kJ/mol
# GULP energy per Si atom -12402.804164 kJ/mol
# Density = 1.958418 g / cm^3
# Si number density = 19.628853 Si / 1000 Ang^3
#
#
#
# Elastic Constant Matrix: (Units=GPa)
#
#
# Indices 1 2 3 4 5 6 
#
# 1 93.7968 20.2391 25.6409 0.0000 0.0000 0.0000
# 2 20.2391 71.7397 21.7644 0.0000 0.0000 0.0000
# 3 25.6409 21.7644 83.4869 0.0000 0.0000 0.0000
# 4 0.0000 0.0000 0.0000 24.8554 0.0000 0.0000
# 5 0.0000 0.0000 0.0000 0.0000 26.7411 0.0000
# 6 0.0000 0.0000 0.0000 0.0000 0.0000 18.0732
#
#
#
# Elastic Compliance Matrix: (Units=1/GPa)
#
#
# Indices 1 2 3 4 5 6 
#
# 1 0.012028 -0.002468 -0.003051 0.000000 0.000000 0.000000
# 2 -0.002468 0.015643 -0.003320 0.000000 0.000000 0.000000
# 3 -0.003051 -0.003320 0.013780 0.000000 0.000000 0.000000
# 4 0.000000 0.000000 0.000000 0.040233 0.000000 0.000000
# 5 0.000000 0.000000 0.000000 0.000000 0.037396 0.000000
# 6 0.000000 0.000000 0.000000 0.000000 0.000000 0.055330
#
#
# Mechanical properties :
#
#
# Convention : Reuss Voigt Hill
#
# Bulk Modulus (GPa) = 42.06291 42.70137 42.38214
# Shear Modulus (GPa) = 24.99859 26.02588 25.51224
#
# Velocity S-wave (km/s) = 3.57257 3.64524 3.60909
# Velocity P-wave (km/s) = 6.20430 6.28639 6.24548
#
# Compressibility (1/GPa) = 0.02377391
#
# Stress axis : x y z
#
# Youngs Moduli (GPa) = 83.14084 63.92754 72.56697
#
# Poissons Ratio (x) = 0.15776 0.22138
# Poissons Ratio (y) = 0.20517 0.24092
# Poissons Ratio (z) = 0.25364 0.21224
#
# Static dielectric constant tensor:
#      x y z
#    x 3.736410 0.000000 0.000000 
#    y 0.000000 3.427260 0.000000 
#    z 0.000000 0.000000 3.612130 
# 
# 
# High freq. dielectric constant tensor:
#      x y z
#    x 1.759100 0.000000 0.000000 
#    y 0.000000 1.756310 0.000000 
#    z 0.000000 0.000000 1.767740 
# 
# From -- ./inp_files/24373.got.cif
#   From: 2010.03.12/outbox.cif.g09.slc.cpg/sg59_13_cif.got.tgz:24373.got - 2010.04.16 16:29:54.
