data_PCOD8243888
_publ_section_title
;
Structure prediction by ZEFSAII (Michael W. Deem and Ramdas Pophale) SiO2 
 PCOD8243888
Probable space group: P M M N
;
_chemical_formula_sum "Si O2"
_cell_formula_units_Z 56
_cell_length_a 9.354711
_cell_length_b 20.847004
_cell_length_c 14.753135
_cell_angle_alpha 90.000000
_cell_angle_beta 90.000000
_cell_angle_gamma 90.000000
_cell_volume 2877.122421
_symmetry_space_group_name_H-M "P M M N"
_symmetry_group_IT_number 59
_space_group.IT_coordinate_system_code '2'
_symmetry_cell_setting 'orthorhombic'
loop_
_space_group_symop_operation_xyz
x,y,z
1/2-x,1/2-y,z
1/2+x,-y,-z
-x,1/2+y,-z
-x,-y,-z
1/2+x,1/2+y,-z
1/2-x,y,z
x,1/2-y,z
loop_
_atom_site_type_symbol
_atom_site_label
_atom_site_fract_x
_atom_site_fract_y
_atom_site_fract_z
Si Si1 0.406504 0.750000 0.566429
Si Si2 0.081184 0.676478 0.885067
Si Si3 0.081382 0.375619 0.642576
Si Si4 0.915186 0.064923 0.980256
Si Si5 0.912348 0.046076 0.780065
Si Si6 0.411200 0.368204 0.438680
Si Si7 0.589855 0.250000 0.647290
Si Si8 0.589183 0.595853 0.753087
O O1 0.250000 0.750000 0.611632
O O2 0.490667 0.811710 0.598482
O O3 0.394667 0.750000 0.459217
O O4 0.250000 0.674698 0.874090
O O5 0.031125 0.750000 0.905267
O O6 0.013988 0.651247 0.790988
O O7 0.029834 0.627462 0.964357
O O8 0.250000 0.365980 0.655826
O O9 0.042131 0.393963 0.537869
O O10 0.025714 0.432679 0.704895
O O11 0.999195 0.312267 0.677014
O O12 0.750000 0.050873 0.003170
O O13 0.934366 0.083554 0.874399
O O14 0.000000 0.000000 0.000000
O O15 0.750000 0.055307 0.743519
O O16 0.943820 0.971444 0.801464
O O17 0.250000 0.342165 0.448586
O O18 0.426764 0.418308 0.355937
O O19 0.750000 0.250000 0.691312
O O20 0.750000 0.618828 0.774119
#
# Coordination Sequence:
#
# PCOD8243888 Si02
#       8
#     4   8   8   8   8   8   4   8
#     4   9  17  29  49  75 102 139 188 233 275 330
#     4  10  22  39  59  87 120 147 181 235 292 345
#     4  10  20  35  55  80 113 150 191 235 282 336
#     4  10  20  38  63  86 112 149 190 233 288 349
#     4  10  21  37  57  83 111 146 193 237 281 340
#     4   9  19  34  51  75 110 152 188 228 279 332
#     4   9  17  33  55  77 104 143 188 235 285 328
#     4  10  21  37  57  82 113 150 193 232 277 338
#
# _framework density 19.463892999999999
#
# number of rings (size 3 to 8) (size 9 to 14) (size 15 to 20)
#    0.000    2.286    1.429    0.857    1.000    4.857 
#    1.286    0.000    0.000    0.000    0.000    0.000 
#    0.000    0.000    0.000    0.000    0.000    0.000 
#
# Total GULP energy -694052.867369 kJ/mol
# GULP energy per Si atom -12393.801203 kJ/mol
# Density = 1.941959 g / cm^3
# Si number density = 19.463893 Si / 1000 Ang^3
#
#
#
# Elastic Constant Matrix: (Units=GPa)
#
#
# Indices 1 2 3 4 5 6 
#
# 1 75.0639 40.3136 38.4847 0.0000 0.0000 0.0000
# 2 40.3136 101.3198 51.4248 0.0000 0.0000 0.0000
# 3 38.4847 51.4248 101.0268 0.0000 0.0000 0.0000
# 4 0.0000 0.0000 0.0000 28.8508 0.0000 0.0000
# 5 0.0000 0.0000 0.0000 0.0000 27.0434 0.0000
# 6 0.0000 0.0000 0.0000 0.0000 0.0000 33.1484
#
#
#
# Elastic Compliance Matrix: (Units=1/GPa)
#
#
# Indices 1 2 3 4 5 6 
#
# 1 0.018286 -0.005043 -0.004399 0.000000 0.000000 0.000000
# 2 -0.005043 0.014699 -0.005561 0.000000 0.000000 0.000000
# 3 -0.004399 -0.005561 0.014405 0.000000 0.000000 0.000000
# 4 0.000000 0.000000 0.000000 0.034661 0.000000 0.000000
# 5 0.000000 0.000000 0.000000 0.000000 0.036978 0.000000
# 6 0.000000 0.000000 0.000000 0.000000 0.000000 0.030167
#
#
# Mechanical properties :
#
#
# Convention : Reuss Voigt Hill
#
# Bulk Modulus (GPa) = 57.52497 59.76186 58.64342
# Shear Modulus (GPa) = 27.02783 27.62099 27.32441
#
# Velocity S-wave (km/s) = 3.73045 3.77117 3.75087
# Velocity P-wave (km/s) = 6.94074 7.05215 6.99667
#
# Compressibility (1/GPa) = 0.01738375
#
# Stress axis : x y z
#
# Youngs Moduli (GPa) = 54.68813 68.03318 69.42247
#
# Poissons Ratio (x) = 0.34309 0.30536
# Poissons Ratio (y) = 0.27579 0.38605
# Poissons Ratio (z) = 0.24055 0.37832
#
# Static dielectric constant tensor:
#      x y z
#    x 3.619210 0.000000 0.000000 
#    y 0.000000 3.488460 0.000000 
#    z 0.000000 0.000000 3.489890 
# 
# 
# High freq. dielectric constant tensor:
#      x y z
#    x 1.757440 0.000000 0.000000 
#    y 0.000000 1.742180 0.000000 
#    z 0.000000 0.000000 1.754660 
# 
# From -- ./inp_files/21098.got.cif
#   From: 2010.03.12/outbox.cif.g09.slc.cpg/sg59_11_cif.got.tgz:21098.got - 2010.04.16 16:29:54.
