data_PCOD8243495
_publ_section_title
;
Structure prediction by ZEFSAII (Michael W. Deem and Ramdas Pophale) SiO2 
 PCOD8243495
Probable space group: P M M N
;
_chemical_formula_sum "Si O2"
_cell_formula_units_Z 56
_cell_length_a 21.155168
_cell_length_b 8.736323
_cell_length_c 15.829265
_cell_angle_alpha 90.000000
_cell_angle_beta 90.000000
_cell_angle_gamma 90.000000
_cell_volume 2925.539126
_symmetry_space_group_name_H-M "P M M N"
_symmetry_group_IT_number 59
_space_group.IT_coordinate_system_code '2'
_symmetry_cell_setting 'orthorhombic'
loop_
_space_group_symop_operation_xyz
x,y,z
1/2-x,1/2-y,z
1/2+x,-y,-z
-x,1/2+y,-z
-x,-y,-z
1/2+x,1/2+y,-z
1/2-x,y,z
x,1/2-y,z
loop_
_atom_site_type_symbol
_atom_site_label
_atom_site_fract_x
_atom_site_fract_y
_atom_site_fract_z
Si Si1 0.986021 0.070035 0.910007
Si Si2 0.630022 0.430384 0.518307
Si Si3 0.373937 0.072791 0.187335
Si Si4 0.250000 0.071330 0.395616
Si Si5 0.677807 0.430764 0.336656
Si Si6 0.250000 0.927571 0.220156
Si Si7 0.454643 0.072635 0.350532
Si Si8 0.933307 0.928185 0.250149
O O1 0.972386 0.250000 0.915937
O O2 0.043256 0.036149 0.844865
O O3 0.924779 0.980914 0.879735
O O4 0.000000 0.000000 0.000000
O O5 0.624784 0.250000 0.527287
O O6 0.689361 0.488862 0.569178
O O7 0.640813 0.480562 0.421642
O O8 0.566970 0.503674 0.559195
O O9 0.358036 0.250000 0.172379
O O10 0.399159 0.044341 0.282387
O O11 0.312949 0.967813 0.167981
O O12 0.250000 0.250000 0.418240
O O13 0.250000 0.048523 0.296093
O O14 0.750000 0.495102 0.335934
O O15 0.680265 0.250000 0.327602
O O16 0.636833 0.500352 0.259928
O O17 0.250000 0.750000 0.247611
O O18 0.469217 0.250000 0.363413
O O19 0.519279 0.996799 0.319692
O O20 0.929436 0.750000 0.267561
#
# Coordination Sequence:
#
# PCOD8243495 Si02
#       8
#     8   8   8   4   8   4   8   8
#     4  10  21  39  64  91 116 143 183 229 283 348
#     4  11  21  35  54  78 111 152 198 246 285 327
#     4  10  20  34  54  83 117 151 189 230 278 337
#     4  12  22  32  48  76 111 152 199 240 280 332
#     4  10  22  40  59  81 110 150 197 242 288 337
#     4  12  22  32  52  80 117 158 191 232 282 336
#     4  10  20  34  54  81 114 151 192 236 284 339
#     4  10  22  39  60  87 115 146 185 233 289 345
#
# _framework density 19.141770000000001
#
# number of rings (size 3 to 8) (size 9 to 14) (size 15 to 20)
#    0.000    1.571    2.143    3.429    0.000    4.857 
#    0.000    0.000    1.571    0.000    0.000    0.000 
#    0.000    0.000    0.000    0.000    0.000    0.000 
#
# Total GULP energy -694432.655027 kJ/mol
# GULP energy per Si atom -12400.583125 kJ/mol
# Density = 1.909820 g / cm^3
# Si number density = 19.141770 Si / 1000 Ang^3
#
#
#
# Elastic Constant Matrix: (Units=GPa)
#
#
# Indices 1 2 3 4 5 6 
#
# 1 112.4821 52.6032 55.4417 0.0000 0.0000 0.0000
# 2 52.6032 51.5767 37.0196 0.0000 0.0000 0.0000
# 3 55.4417 37.0196 85.6306 0.0000 0.0000 0.0000
# 4 0.0000 0.0000 0.0000 29.0574 0.0000 0.0000
# 5 0.0000 0.0000 0.0000 0.0000 23.7345 0.0000
# 6 0.0000 0.0000 0.0000 0.0000 0.0000 38.3453
#
#
#
# Elastic Compliance Matrix: (Units=1/GPa)
#
#
# Indices 1 2 3 4 5 6 
#
# 1 0.018679 -0.015036 -0.005593 0.000000 0.000000 0.000000
# 2 -0.015036 0.040215 -0.007651 0.000000 0.000000 0.000000
# 3 -0.005593 -0.007651 0.018607 0.000000 0.000000 0.000000
# 4 0.000000 0.000000 0.000000 0.034415 0.000000 0.000000
# 5 0.000000 0.000000 0.000000 0.000000 0.042133 0.000000
# 6 0.000000 0.000000 0.000000 0.000000 0.000000 0.026079
#
#
# Mechanical properties :
#
#
# Convention : Reuss Voigt Hill
#
# Bulk Modulus (GPa) = 47.75306 59.97984 53.86645
# Shear Modulus (GPa) = 20.51975 25.20243 22.86109
#
# Velocity S-wave (km/s) = 3.27767 3.63246 3.45962
# Velocity P-wave (km/s) = 6.27100 6.99969 6.64534
#
# Compressibility (1/GPa) = 0.02094107
#
# Stress axis : x y z
#
# Youngs Moduli (GPa) = 53.53617 24.86627 53.74313
#
# Poissons Ratio (x) = 0.37389 0.30061
# Poissons Ratio (y) = 0.80497 0.41117
# Poissons Ratio (z) = 0.29945 0.19024
#
# Static dielectric constant tensor:
#      x y z
#    x 3.617280 0.000000 0.000000 
#    y 0.000000 3.528130 0.000000 
#    z 0.000000 0.000000 3.360180 
# 
# 
# High freq. dielectric constant tensor:
#      x y z
#    x 1.751660 0.000000 0.000000 
#    y 0.000000 1.756040 0.000000 
#    z 0.000000 0.000000 1.716920 
# 
# From -- ./inp_files/24365.got.cif
#   From: 2010.03.12/outbox.cif.g09.slc.cpg/sg59_13_cif.got.tgz:24365.got - 2010.04.16 16:29:54.
