data_PCOD8243053
_publ_section_title
;
Structure prediction by ZEFSAII (Michael W. Deem and Ramdas Pophale) SiO2 
 PCOD8243053
Probable space group: P M M N
;
_chemical_formula_sum "Si O2"
_cell_formula_units_Z 64
_cell_length_a 20.064645
_cell_length_b 8.965206
_cell_length_c 19.599294
_cell_angle_alpha 90.000000
_cell_angle_beta 90.000000
_cell_angle_gamma 90.000000
_cell_volume 3525.593047
_symmetry_space_group_name_H-M "P M M N"
_symmetry_group_IT_number 59
_space_group.IT_coordinate_system_code '2'
_symmetry_cell_setting 'orthorhombic'
loop_
_space_group_symop_operation_xyz
x,y,z
1/2-x,1/2-y,z
1/2+x,-y,-z
-x,1/2+y,-z
-x,-y,-z
1/2+x,1/2+y,-z
1/2-x,y,z
x,1/2-y,z
loop_
_atom_site_type_symbol
_atom_site_label
_atom_site_fract_x
_atom_site_fract_y
_atom_site_fract_z
Si Si1 0.574035 0.076817 0.341134
Si Si2 0.673320 0.921331 0.599390
Si Si3 0.432971 0.073744 0.028220
Si Si4 0.825927 0.078937 0.062751
Si Si5 0.174137 0.077312 0.558074
Si Si6 0.589606 0.419372 0.188327
Si Si7 0.062235 0.575558 0.316154
Si Si8 0.042412 0.924152 0.162358
O O1 0.563284 0.250000 0.353550
O O2 0.605696 0.041600 0.266869
O O3 0.624509 0.018934 0.397336
O O4 0.501943 0.002053 0.349346
O O5 0.750000 0.958251 0.615517
O O6 0.657479 0.750000 0.616872
O O7 0.657430 0.953959 0.520626
O O8 0.628811 0.027258 0.645747
O O9 0.442334 0.250000 0.027902
O O10 0.418005 0.016233 0.104887
O O11 0.500000 0.000000 0.000000
O O12 0.370153 0.029342 0.982818
O O13 0.750000 0.028945 0.053882
O O14 0.836876 0.250000 0.039473
O O15 0.844418 0.061451 0.142787
O O16 0.250000 0.029329 0.574001
O O17 0.163904 0.250000 0.575668
O O18 0.561642 0.250000 0.183201
O O19 0.535137 0.532007 0.158301
O O20 0.051214 0.750000 0.324502
O O21 0.070745 0.531991 0.236641
O O22 0.049821 0.750000 0.146809
#
# Coordination Sequence:
#
# PCOD8243053 Si02
#       8
#     8   8   8   8   8   8   8   8
#     4  10  20  33  53  82 113 145 184 226 269 321
#     4   9  19  37  59  80 105 141 185 230 279 334
#     4  12  23  36  58  84 109 142 186 229 270 323
#     4  10  21  37  56  80 112 147 183 226 276 326
#     4   9  19  36  55  76 106 145 186 228 276 330
#     4   9  18  33  53  77 107 143 180 219 267 322
#     4  10  21  36  56  83 113 142 178 225 276 330
#     4  10  20  35  56  82 109 139 178 223 271 325
#
# _framework density 18.152974
#
# number of rings (size 3 to 8) (size 9 to 14) (size 15 to 20)
#    0.000    2.125    1.250    3.000    0.000    4.250 
#    0.000    3.125    0.000    0.750    0.000    0.000 
#    0.000    0.000    0.000    0.000    0.000    0.000 
#
# Total GULP energy -793702.068360 kJ/mol
# GULP energy per Si atom -12401.594818 kJ/mol
# Density = 1.811166 g / cm^3
# Si number density = 18.152974 Si / 1000 Ang^3
#
#
#
# Elastic Constant Matrix: (Units=GPa)
#
#
# Indices 1 2 3 4 5 6 
#
# 1 107.3660 52.9344 65.6893 0.0000 0.0000 0.0000
# 2 52.9344 93.7445 52.6863 0.0000 0.0000 0.0000
# 3 65.6893 52.6863 99.1477 0.0000 0.0000 0.0000
# 4 0.0000 0.0000 0.0000 30.1083 0.0000 0.0000
# 5 0.0000 0.0000 0.0000 0.0000 29.9415 0.0000
# 6 0.0000 0.0000 0.0000 0.0000 0.0000 32.7994
#
#
#
# Elastic Compliance Matrix: (Units=1/GPa)
#
#
# Indices 1 2 3 4 5 6 
#
# 1 0.016978 -0.004655 -0.008775 0.000000 0.000000 0.000000
# 2 -0.004655 0.016486 -0.005676 0.000000 0.000000 0.000000
# 3 -0.008775 -0.005676 0.018916 0.000000 0.000000 0.000000
# 4 0.000000 0.000000 0.000000 0.033213 0.000000 0.000000
# 5 0.000000 0.000000 0.000000 0.000000 0.033398 0.000000
# 6 0.000000 0.000000 0.000000 0.000000 0.000000 0.030488
#
#
# Mechanical properties :
#
#
# Convention : Reuss Voigt Hill
#
# Bulk Modulus (GPa) = 70.58505 71.43090 71.00797
# Shear Modulus (GPa) = 25.98557 27.16641 26.57599
#
# Velocity S-wave (km/s) = 3.78759 3.87269 3.83038
# Velocity P-wave (km/s) = 7.62205 7.70921 7.66575
#
# Compressibility (1/GPa) = 0.01416731
#
# Stress axis : x y z
#
# Youngs Moduli (GPa) = 58.90117 60.65701 52.86568
#
# Poissons Ratio (x) = 0.28237 0.46388
# Poissons Ratio (y) = 0.27419 0.30008
# Poissons Ratio (z) = 0.51683 0.34431
#
# Static dielectric constant tensor:
#      x y z
#    x 3.181400 0.000000 0.000000 
#    y 0.000000 3.355320 0.000000 
#    z 0.000000 0.000000 3.550150 
# 
# 
# High freq. dielectric constant tensor:
#      x y z
#    x 1.687030 0.000000 0.000000 
#    y 0.000000 1.707850 0.000000 
#    z 0.000000 0.000000 1.711130 
# 
# From -- ./inp_files/28251.got.cif
#   From: 2010.03.12/outbox.cif.g09.slc.cpg/sg59_15_cif.got.tgz:28251.got - 2010.04.16 16:29:54.
