data_PCOD8243705
_publ_section_title
;
Structure prediction by ZEFSAII (Michael W. Deem and Ramdas Pophale) SiO2 
 PCOD8243705
Probable space group: P M M N
;
_chemical_formula_sum "Si O2"
_cell_formula_units_Z 40
_cell_length_a 8.888878
_cell_length_b 15.395100
_cell_length_c 14.475725
_cell_angle_alpha 90.000000
_cell_angle_beta 90.000000
_cell_angle_gamma 90.000000
_cell_volume 1980.932986
_symmetry_space_group_name_H-M "P M M N"
_symmetry_group_IT_number 59
_space_group.IT_coordinate_system_code '2'
_symmetry_cell_setting 'orthorhombic'
loop_
_space_group_symop_operation_xyz
x,y,z
1/2-x,1/2-y,z
1/2+x,-y,-z
-x,1/2+y,-z
-x,-y,-z
1/2+x,1/2+y,-z
1/2-x,y,z
x,1/2-y,z
loop_
_atom_site_type_symbol
_atom_site_label
_atom_site_fract_x
_atom_site_fract_y
_atom_site_fract_z
Si Si1 0.924873 0.350568 0.590625
Si Si2 0.076964 0.406842 0.770978
Si Si3 0.571737 0.750000 0.103716
Si Si4 0.578038 0.852703 0.597125
Si Si5 0.571643 0.750000 0.896327
Si Si6 0.077799 0.601236 0.780869
O O1 0.750000 0.367262 0.573482
O O2 0.960829 0.250000 0.609729
O O3 0.979475 0.404875 0.678195
O O4 0.013797 0.383902 0.500945
O O5 0.250000 0.386034 0.745504
O O6 0.013971 0.336110 0.843569
O O7 0.061768 0.502128 0.816538
O O8 0.750000 0.750000 0.097823
O O9 0.505735 0.750000 0.000175
O O10 0.750000 0.883493 0.605311
O O11 0.563133 0.750000 0.608432
O O12 0.480523 0.896935 0.676399
O O13 0.750000 0.750000 0.894198
O O14 0.518057 0.836866 0.846142
O O15 0.250000 0.632499 0.782781
#
# Coordination Sequence:
#
# PCOD8243705 Si02
#       6
#     8   8   4   8   4   8
#     4  10  20  34  56  88 123 157 195 243 293 341
#     4  10  21  39  63  88 117 157 199 240 292 351
#     4   9  20  41  66  87 114 151 197 242 290 357
#     4  10  20  35  58  85 116 160 204 238 284 349
#     4  11  23  41  64  87 114 155 195 240 300 357
#     4  11  23  38  60  90 121 153 194 247 297 345
#
# _framework density 20.192504
#
# number of rings (size 3 to 8) (size 9 to 14) (size 15 to 20)
#    0.000    1.800    2.000    2.100    0.000    4.800 
#    0.000    2.000    0.000    0.000    0.000    0.000 
#    0.000    0.000    0.000    0.000    0.000    0.000 
#
# Total GULP energy -496167.507946 kJ/mol
# GULP energy per Si atom -12404.187699 kJ/mol
# Density = 2.014654 g / cm^3
# Si number density = 20.192504 Si / 1000 Ang^3
#
#
#
# Elastic Constant Matrix: (Units=GPa)
#
#
# Indices 1 2 3 4 5 6 
#
# 1 87.8426 34.0662 37.1515 0.0000 0.0000 0.0000
# 2 34.0662 106.4516 54.2297 0.0000 0.0000 0.0000
# 3 37.1515 54.2297 136.6690 0.0000 0.0000 0.0000
# 4 0.0000 0.0000 0.0000 7.4402 0.0000 0.0000
# 5 0.0000 0.0000 0.0000 0.0000 19.9638 0.0000
# 6 0.0000 0.0000 0.0000 0.0000 0.0000 20.3461
#
#
#
# Elastic Compliance Matrix: (Units=1/GPa)
#
#
# Indices 1 2 3 4 5 6 
#
# 1 0.013634 -0.003102 -0.002475 0.000000 0.000000 0.000000
# 2 -0.003102 0.012480 -0.004109 0.000000 0.000000 0.000000
# 3 -0.002475 -0.004109 0.009620 0.000000 0.000000 0.000000
# 4 0.000000 0.000000 0.000000 0.134405 0.000000 0.000000
# 5 0.000000 0.000000 0.000000 0.000000 0.050091 0.000000
# 6 0.000000 0.000000 0.000000 0.000000 0.000000 0.049149
#
#
# Mechanical properties :
#
#
# Convention : Reuss Voigt Hill
#
# Bulk Modulus (GPa) = 61.11828 64.65087 62.88458
# Shear Modulus (GPa) = 16.99496 23.25107 20.12302
#
# Velocity S-wave (km/s) = 2.90426 3.39701 3.16026
# Velocity P-wave (km/s) = 6.44824 6.89007 6.67281
#
# Compressibility (1/GPa) = 0.01636172
#
# Stress axis : x y z
#
# Youngs Moduli (GPa) = 73.34663 80.12994 103.94889
#
# Poissons Ratio (x) = 0.24857 0.25730
# Poissons Ratio (y) = 0.22753 0.42709
# Poissons Ratio (z) = 0.18155 0.32923
#
# Static dielectric constant tensor:
#      x y z
#    x 3.605320 0.000000 0.000000 
#    y 0.000000 3.707330 0.000000 
#    z 0.000000 0.000000 3.687150 
# 
# 
# High freq. dielectric constant tensor:
#      x y z
#    x 1.785270 0.000000 0.000000 
#    y 0.000000 1.792780 0.000000 
#    z 0.000000 0.000000 1.782220 
# 
# From -- ./inp_files/19929.got.cif
#   From: 2010.03.12/outbox.cif.g09.slc.cpg/sg59_10_cif.got.tgz:19929.got - 2010.04.16 16:29:54.
