data_PCOD8243251
_publ_section_title
;
Structure prediction by ZEFSAII (Michael W. Deem and Ramdas Pophale) SiO2 
 PCOD8243251
Probable space group: P M M N
;
_chemical_formula_sum "Si O2"
_cell_formula_units_Z 64
_cell_length_a 9.234814
_cell_length_b 18.546548
_cell_length_c 18.513509
_cell_angle_alpha 90.000000
_cell_angle_beta 90.000000
_cell_angle_gamma 90.000000
_cell_volume 3170.881280
_symmetry_space_group_name_H-M "P M M N"
_symmetry_group_IT_number 59
_space_group.IT_coordinate_system_code '2'
_symmetry_cell_setting 'orthorhombic'
loop_
_space_group_symop_operation_xyz
x,y,z
1/2-x,1/2-y,z
1/2+x,-y,-z
-x,1/2+y,-z
-x,-y,-z
1/2+x,1/2+y,-z
1/2-x,y,z
x,1/2-y,z
loop_
_atom_site_type_symbol
_atom_site_label
_atom_site_fract_x
_atom_site_fract_y
_atom_site_fract_z
Si Si1 0.919578 0.974468 0.383345
Si Si2 0.579449 0.049211 0.764601
Si Si3 0.589867 0.907229 0.848571
Si Si4 0.091590 0.665300 0.737859
Si Si5 0.417485 0.601880 0.501449
Si Si6 0.087787 0.072313 0.989699
Si Si7 0.421647 0.165566 0.854105
Si Si8 0.907020 0.831301 0.610112
O O1 0.750000 0.956845 0.372593
O O2 0.998355 0.981554 0.306265
O O3 0.001924 0.910899 0.426017
O O4 0.942512 0.042432 0.435930
O O5 0.750000 0.061488 0.749160
O O6 0.506718 0.124501 0.789850
O O7 0.554101 0.990542 0.828433
O O8 0.750000 0.889189 0.818320
O O9 0.474356 0.852999 0.815038
O O10 0.583369 0.889290 0.932905
O O11 0.250000 0.629384 0.730331
O O12 0.105765 0.750000 0.728412
O O13 0.992836 0.629635 0.675482
O O14 0.250000 0.616998 0.485923
O O15 0.498023 0.670067 0.536984
O O16 0.250000 0.049457 0.968338
O O17 0.029072 0.128536 0.929864
O O18 0.000000 0.000000 0.000000
O O19 0.250000 0.157936 0.841467
O O20 0.466553 0.250000 0.854977
O O21 0.750000 0.869830 0.599065
O O22 0.879720 0.750000 0.633945
#
# Coordination Sequence:
#
# PCOD8243251 Si02
#       8
#     8   8   8   8   8   8   8   8
#     4  10  21  36  56  82 113 148 184 229 284 337
#     4  11  22  37  58  86 116 148 191 238 287 341
#     4  10  21  35  56  85 115 149 188 230 280 341
#     4  10  21  35  51  77 113 151 192 236 283 335
#     4  10  20  35  56  83 112 144 185 232 283 334
#     4  10  20  37  60  87 115 148 189 234 283 340
#     4  10  22  40  62  87 116 153 195 239 290 348
#     4  10  20  34  53  76 106 146 186 225 274 332
#
# _framework density 20.183662000000002
#
# number of rings (size 3 to 8) (size 9 to 14) (size 15 to 20)
#    0.000    1.875    1.250    2.625    0.000    7.250 
#    0.000    1.875    0.000    3.750    0.000    0.000 
#    0.000    0.000    0.000    0.000    0.000    0.000 
#
# Total GULP energy -793240.592337 kJ/mol
# GULP energy per Si atom -12394.384255 kJ/mol
# Density = 2.013772 g / cm^3
# Si number density = 20.183662 Si / 1000 Ang^3
#
#
#
# Elastic Constant Matrix: (Units=GPa)
#
#
# Indices 1 2 3 4 5 6 
#
# 1 129.2783 28.0320 41.9081 0.0000 0.0000 0.0000
# 2 28.0320 43.2945 18.1997 0.0000 0.0000 0.0000
# 3 41.9081 18.1997 81.8159 0.0000 0.0000 0.0000
# 4 0.0000 0.0000 0.0000 32.6782 0.0000 0.0000
# 5 0.0000 0.0000 0.0000 0.0000 35.0092 0.0000
# 6 0.0000 0.0000 0.0000 0.0000 0.0000 27.9163
#
#
#
# Elastic Compliance Matrix: (Units=1/GPa)
#
#
# Indices 1 2 3 4 5 6 
#
# 1 0.010112 -0.004821 -0.004107 0.000000 0.000000 0.000000
# 2 -0.004821 0.027778 -0.003710 0.000000 0.000000 0.000000
# 3 -0.004107 -0.003710 0.015152 0.000000 0.000000 0.000000
# 4 0.000000 0.000000 0.000000 0.030601 0.000000 0.000000
# 5 0.000000 0.000000 0.000000 0.000000 0.028564 0.000000
# 6 0.000000 0.000000 0.000000 0.000000 0.000000 0.035821
#
#
# Mechanical properties :
#
#
# Convention : Reuss Voigt Hill
#
# Bulk Modulus (GPa) = 36.01488 47.85203 41.93345
# Shear Modulus (GPa) = 27.38827 30.20402 28.79615
#
# Velocity S-wave (km/s) = 3.68768 3.87261 3.78127
# Velocity P-wave (km/s) = 6.00119 6.61482 6.31546
#
# Compressibility (1/GPa) = 0.02776630
#
# Stress axis : x y z
#
# Youngs Moduli (GPa) = 98.89259 35.99916 65.99935
#
# Poissons Ratio (x) = 0.17354 0.27108
# Poissons Ratio (y) = 0.47673 0.24486
# Poissons Ratio (z) = 0.40618 0.13356
#
# Static dielectric constant tensor:
#      x y z
#    x 3.969270 0.000000 0.000000 
#    y 0.000000 3.397490 0.000000 
#    z 0.000000 0.000000 3.754970 
# 
# 
# High freq. dielectric constant tensor:
#      x y z
#    x 1.801140 0.000000 0.000000 
#    y 0.000000 1.762080 0.000000 
#    z 0.000000 0.000000 1.787910 
# 
# From -- ./inp_files/26195.got.cif
#   From: 2010.03.12/outbox.cif.g09.slc.cpg/sg59_14_cif.got.tgz:26195.got - 2010.04.16 16:29:54.
