data_PCOD8243152
_publ_section_title
;
Structure prediction by ZEFSAII (Michael W. Deem and Ramdas Pophale) SiO2 
 PCOD8243152
Probable space group: P M M N
;
_chemical_formula_sum "Si O2"
_cell_formula_units_Z 48
_cell_length_a 14.037554
_cell_length_b 9.304031
_cell_length_c 21.038585
_cell_angle_alpha 90.000000
_cell_angle_beta 90.000000
_cell_angle_gamma 90.000000
_cell_volume 2747.762015
_symmetry_space_group_name_H-M "P M M N"
_symmetry_group_IT_number 59
_space_group.IT_coordinate_system_code '2'
_symmetry_cell_setting 'orthorhombic'
loop_
_space_group_symop_operation_xyz
x,y,z
1/2-x,1/2-y,z
1/2+x,-y,-z
-x,1/2+y,-z
-x,-y,-z
1/2+x,1/2+y,-z
1/2-x,y,z
x,1/2-y,z
loop_
_atom_site_type_symbol
_atom_site_label
_atom_site_fract_x
_atom_site_fract_y
_atom_site_fract_z
Si Si1 0.858372 0.583755 0.669934
Si Si2 0.013060 0.916953 0.238996
Si Si3 0.141671 0.916909 0.995262
Si Si4 0.012119 0.918815 0.565541
Si Si5 0.514523 0.918316 0.096514
Si Si6 0.859517 0.584569 0.342675
O O1 0.750000 0.537745 0.656383
O O2 0.866984 0.750000 0.687746
O O3 0.897394 0.496562 0.729961
O O4 0.918081 0.548391 0.606756
O O5 0.039075 0.750000 0.237904
O O6 0.998307 0.976062 0.167964
O O7 0.916803 0.948216 0.278157
O O8 0.250000 0.960968 0.009613
O O9 0.131762 0.750000 0.978760
O O10 0.080987 0.957012 0.057673
O O11 0.105016 0.003615 0.934268
O O12 0.027240 0.750000 0.553857
O O13 0.104396 0.982205 0.600993
O O14 0.000000 0.000000 0.500000
O O15 0.536492 0.750000 0.096000
O O16 0.750000 0.548910 0.328728
O O17 0.873693 0.750000 0.363831
#
# Coordination Sequence:
#
# PCOD8243152 Si02
#       6
#     8   8   8   8   8   8
#     4   9  19  35  52  71  98 131 163 196 238 288
#     4   9  18  32  51  75  99 125 160 202 245 288
#     4   9  18  32  48  68  97 131 165 201 242 288
#     4  10  20  34  52  74 100 129 163 202 242 286
#     4   9  18  32  50  72  98 127 161 202 245 288
#     4   9  18  33  51  71  98 130 162 199 244 291
#
# _framework density 17.468762999999999
#
# number of rings (size 3 to 8) (size 9 to 14) (size 15 to 20)
#    0.000    2.833    0.000    0.500    0.000    4.333 
#    0.000    5.000    0.000    0.000    0.000    0.000 
#    0.000    0.000    0.000    0.000    0.000    0.000 
#
# Total GULP energy -595306.920375 kJ/mol
# GULP energy per Si atom -12402.227508 kJ/mol
# Density = 1.742900 g / cm^3
# Si number density = 17.468763 Si / 1000 Ang^3
#
#
#
# Elastic Constant Matrix: (Units=GPa)
#
#
# Indices 1 2 3 4 5 6 
#
# 1 125.7214 44.1610 53.6210 0.0000 0.0000 0.0000
# 2 44.1610 59.3401 55.9041 0.0000 0.0000 0.0000
# 3 53.6210 55.9041 143.7840 0.0000 0.0000 0.0000
# 4 0.0000 0.0000 0.0000 30.6696 0.0000 0.0000
# 5 0.0000 0.0000 0.0000 0.0000 14.9908 0.0000
# 6 0.0000 0.0000 0.0000 0.0000 0.0000 29.0542
#
#
#
# Elastic Compliance Matrix: (Units=1/GPa)
#
#
# Indices 1 2 3 4 5 6 
#
# 1 0.010956 -0.006792 -0.001445 0.000000 0.000000 0.000000
# 2 -0.006792 0.030804 -0.009444 0.000000 0.000000 0.000000
# 3 -0.001445 -0.009444 0.011165 0.000000 0.000000 0.000000
# 4 0.000000 0.000000 0.000000 0.032606 0.000000 0.000000
# 5 0.000000 0.000000 0.000000 0.000000 0.066708 0.000000
# 6 0.000000 0.000000 0.000000 0.000000 0.000000 0.034418
#
#
# Mechanical properties :
#
#
# Convention : Reuss Voigt Hill
#
# Bulk Modulus (GPa) = 56.93610 70.69082 63.81346
# Shear Modulus (GPa) = 21.94200 26.62020 24.28110
#
# Velocity S-wave (km/s) = 3.54795 3.90792 3.73228
# Velocity P-wave (km/s) = 7.03191 7.80495 7.42850
#
# Compressibility (1/GPa) = 0.01756355
#
# Stress axis : x y z
#
# Youngs Moduli (GPa) = 91.27182 32.46366 89.56176
#
# Poissons Ratio (x) = 0.22050 0.12942
# Poissons Ratio (y) = 0.61995 0.84578
# Poissons Ratio (z) = 0.13189 0.30657
#
# Static dielectric constant tensor:
#      x y z
#    x 3.337900 0.000000 0.000000 
#    y 0.000000 3.245480 0.000000 
#    z 0.000000 0.000000 3.283850 
# 
# 
# High freq. dielectric constant tensor:
#      x y z
#    x 1.675460 0.000000 0.000000 
#    y 0.000000 1.673180 0.000000 
#    z 0.000000 0.000000 1.674590 
# 
# From -- ./inp_files/28819.got.cif
#   From: 2010.03.12/outbox.cif.g09.slc.cpg/sg59_15_cif.got.tgz:28819.got - 2010.04.16 16:29:54.
