data_PCOD8243584
_publ_section_title
;
Structure prediction by ZEFSAII (Michael W. Deem and Ramdas Pophale) SiO2 
 PCOD8243584
Probable space group: P M M N
;
_chemical_formula_sum "Si O2"
_cell_formula_units_Z 56
_cell_length_a 8.643736
_cell_length_b 24.078202
_cell_length_c 14.786949
_cell_angle_alpha 90.000000
_cell_angle_beta 90.000000
_cell_angle_gamma 90.000000
_cell_volume 3077.542950
_symmetry_space_group_name_H-M "P M M N"
_symmetry_group_IT_number 59
_space_group.IT_coordinate_system_code '2'
_symmetry_cell_setting 'orthorhombic'
loop_
_space_group_symop_operation_xyz
x,y,z
1/2-x,1/2-y,z
1/2+x,-y,-z
-x,1/2+y,-z
-x,-y,-z
1/2+x,1/2+y,-z
1/2-x,y,z
x,1/2-y,z
loop_
_atom_site_type_symbol
_atom_site_label
_atom_site_fract_x
_atom_site_fract_y
_atom_site_fract_z
Si Si1 0.568909 0.954764 0.179321
Si Si2 0.070173 0.080578 0.448601
Si Si3 0.569010 0.250000 0.008939
Si Si4 0.432201 0.069111 0.141355
Si Si5 0.069776 0.135980 0.964343
Si Si6 0.570104 0.458569 0.626542
Si Si7 0.569963 0.750000 0.793389
Si Si8 0.569262 0.357030 0.291611
O O1 0.750000 0.968544 0.173472
O O2 0.528094 0.898981 0.124639
O O3 0.519252 0.944736 0.281931
O O4 0.474872 0.004558 0.132024
O O5 0.250000 0.095719 0.453086
O O6 0.000604 0.080474 0.549063
O O7 0.978360 0.127439 0.393426
O O8 0.041892 0.022238 0.399220
O O9 0.750000 0.250000 0.007434
O O10 0.516330 0.250000 0.112001
O O11 0.512490 0.304788 0.957016
O O12 0.250000 0.075347 0.159508
O O13 0.525994 0.092173 0.226523
O O14 0.486169 0.101952 0.052387
O O15 0.250000 0.147615 0.972645
O O16 0.750000 0.445258 0.638899
O O17 0.750000 0.750000 0.815320
O O18 0.527216 0.803504 0.735962
O O19 0.750000 0.343919 0.286267
#
# Coordination Sequence:
#
# PCOD8243584 Si02
#       8
#     8   8   4   8   8   8   4   8
#     4  11  22  36  56  84 116 154 194 236 285 344
#     4  10  20  35  56  82 114 150 185 226 282 340
#     4  12  24  38  60  85 108 145 196 244 286 332
#     4  11  21  35  55  81 116 157 190 230 285 340
#     4  10  23  40  58  79 113 155 193 236 289 342
#     4  10  20  34  55  82 114 149 186 232 281 336
#     4  12  24  40  60  81 114 153 192 236 286 340
#     4  12  23  36  57  86 117 150 191 235 281 340
#
# _framework density 18.196335999999999
#
# number of rings (size 3 to 8) (size 9 to 14) (size 15 to 20)
#    0.000    1.143    2.857    4.714    0.000    2.857 
#    0.000    0.000    0.000    0.857    0.000    3.000 
#    0.000    0.000    0.000    0.000    0.000    0.000 
#
# Total GULP energy -694724.633046 kJ/mol
# GULP energy per Si atom -12405.797019 kJ/mol
# Density = 1.815492 g / cm^3
# Si number density = 18.196336 Si / 1000 Ang^3
#
#
#
# Elastic Constant Matrix: (Units=GPa)
#
#
# Indices 1 2 3 4 5 6 
#
# 1 45.2336 35.7107 26.4611 0.0000 0.0000 0.0000
# 2 35.7107 106.9504 51.1269 0.0000 0.0000 0.0000
# 3 26.4611 51.1269 95.9847 0.0000 0.0000 0.0000
# 4 0.0000 0.0000 0.0000 -1.2375 0.0000 0.0000
# 5 0.0000 0.0000 0.0000 0.0000 29.7300 0.0000
# 6 0.0000 0.0000 0.0000 0.0000 0.0000 29.5196
#
#
#
# Elastic Compliance Matrix: (Units=1/GPa)
#
#
# Indices 1 2 3 4 5 6 
#
# 1 0.031175 -0.008453 -0.004092 0.000000 0.000000 0.000000
# 2 -0.008453 0.014837 -0.005572 0.000000 0.000000 0.000000
# 3 -0.004092 -0.005572 0.014514 0.000000 0.000000 0.000000
# 4 0.000000 0.000000 0.000000 -0.808096 0.000000 0.000000
# 5 0.000000 0.000000 0.000000 0.000000 0.033636 0.000000
# 6 0.000000 0.000000 0.000000 0.000000 0.000000 0.033876
#
#
# Mechanical properties :
#
#
# Convention : Reuss Voigt Hill
#
# Bulk Modulus (GPa) = 41.16715 52.75178 46.95947
# Shear Modulus (GPa) = -7.86501 20.59376 6.36437
#
# Velocity S-wave (km/s) = -2.08127 3.36780 1.87222
# Velocity P-wave (km/s) = 4.11064 6.64651 5.52601
#
# Compressibility (1/GPa) = 0.02429121
#
# Stress axis : x y z
#
# Youngs Moduli (GPa) = 32.07743 67.40132 68.89689
#
# Poissons Ratio (x) = 0.56976 0.28189
# Poissons Ratio (y) = 0.27116 0.38392
# Poissons Ratio (z) = 0.13125 0.37559
#
# Static dielectric constant tensor:
#      x y z
#    x 3.438360 0.000000 0.000000 
#    y 0.000000 3.352290 0.000000 
#    z 0.000000 0.000000 3.391920 
# 
# 
# High freq. dielectric constant tensor:
#      x y z
#    x 1.719680 0.000000 0.000000 
#    y 0.000000 1.689880 0.000000 
#    z 0.000000 0.000000 1.703610 
# 
# From -- ./inp_files/21209.got.cif
#   From: 2010.03.12/outbox.cif.g09.slc.cpg/sg59_11_cif.got.tgz:21209.got - 2010.04.16 16:29:54.
