data_PCOD8243057
_publ_section_title
;
Structure prediction by ZEFSAII (Michael W. Deem and Ramdas Pophale) SiO2 
 PCOD8243057
Probable space group: P M M N
;
_chemical_formula_sum "Si O2"
_cell_formula_units_Z 48
_cell_length_a 9.399599
_cell_length_b 17.871261
_cell_length_c 14.853828
_cell_angle_alpha 90.000000
_cell_angle_beta 90.000000
_cell_angle_gamma 90.000000
_cell_volume 2495.185940
_symmetry_space_group_name_H-M "P M M N"
_symmetry_group_IT_number 59
_space_group.IT_coordinate_system_code '2'
_symmetry_cell_setting 'orthorhombic'
loop_
_space_group_symop_operation_xyz
x,y,z
1/2-x,1/2-y,z
1/2+x,-y,-z
-x,1/2+y,-z
-x,-y,-z
1/2+x,1/2+y,-z
1/2-x,y,z
x,1/2-y,z
loop_
_atom_site_type_symbol
_atom_site_label
_atom_site_fract_x
_atom_site_fract_y
_atom_site_fract_z
Si Si1 0.096052 0.336927 0.208039
Si Si2 0.413739 0.923094 0.914533
Si Si3 0.918097 0.073325 0.535666
Si Si4 0.415268 0.931961 0.119950
Si Si5 0.418292 0.835486 0.288518
Si Si6 0.092750 0.162053 0.405451
O O1 0.250000 0.365456 0.170505
O O2 0.104209 0.250000 0.223871
O O3 0.068492 0.373400 0.306163
O O4 0.967723 0.351681 0.139790
O O5 0.250000 0.939295 0.897250
O O6 0.499365 0.991406 0.870306
O O7 0.444652 0.903932 0.018549
O O8 0.750000 0.058046 0.533707
O O9 0.967175 0.106055 0.633423
O O10 0.961834 0.137622 0.466789
O O11 0.000000 0.000000 0.500000
O O12 0.250000 0.949529 0.135989
O O13 0.468461 0.870221 0.192291
O O14 0.250000 0.828697 0.291245
O O15 0.480874 0.750000 0.299195
O O16 0.250000 0.135783 0.440489
O O17 0.087794 0.250000 0.402173
#
# Coordination Sequence:
#
# PCOD8243057 Si02
#       6
#     8   8   8   8   8   8
#     4   9  19  35  55  78 107 146 185 220 269 336
#     4  10  20  33  53  83 115 143 181 233 279 323
#     4  11  23  37  56  84 114 145 185 234 282 334
#     4   9  19  36  57  79 107 148 187 224 274 332
#     4   9  19  37  60  83 107 143 191 233 274 332
#     4   9  19  37  58  79 107 145 185 225 275 334
#
# _framework density 19.237044000000001
#
# number of rings (size 3 to 8) (size 9 to 14) (size 15 to 20)
#    0.000    2.500    0.000    2.500    2.333    3.333 
#    0.000    4.167    0.000    2.500    0.000    0.000 
#    0.000    0.000    0.000    0.000    0.000    0.000 
#
# Total GULP energy -594690.255880 kJ/mol
# GULP energy per Si atom -12389.380331 kJ/mol
# Density = 1.919326 g / cm^3
# Si number density = 19.237044 Si / 1000 Ang^3
#
#
#
# Elastic Constant Matrix: (Units=GPa)
#
#
# Indices 1 2 3 4 5 6 
#
# 1 63.2062 35.4096 50.7925 0.0000 0.0000 0.0000
# 2 35.4096 85.9723 65.1200 0.0000 0.0000 0.0000
# 3 50.7925 65.1200 123.0537 0.0000 0.0000 0.0000
# 4 0.0000 0.0000 0.0000 35.6847 0.0000 0.0000
# 5 0.0000 0.0000 0.0000 0.0000 29.8515 0.0000
# 6 0.0000 0.0000 0.0000 0.0000 0.0000 31.2883
#
#
#
# Elastic Compliance Matrix: (Units=1/GPa)
#
#
# Indices 1 2 3 4 5 6 
#
# 1 0.024493 -0.004056 -0.007963 0.000000 0.000000 0.000000
# 2 -0.004056 0.020085 -0.008955 0.000000 0.000000 0.000000
# 3 -0.007963 -0.008955 0.016152 0.000000 0.000000 0.000000
# 4 0.000000 0.000000 0.000000 0.028023 0.000000 0.000000
# 5 0.000000 0.000000 0.000000 0.000000 0.033499 0.000000
# 6 0.000000 0.000000 0.000000 0.000000 0.000000 0.031961
#
#
# Mechanical properties :
#
#
# Convention : Reuss Voigt Hill
#
# Bulk Modulus (GPa) = 53.24272 63.87517 58.55895
# Shear Modulus (GPa) = 24.70076 27.42557 26.06317
#
# Velocity S-wave (km/s) = 3.58721 3.77989 3.68481
# Velocity P-wave (km/s) = 6.70035 7.23370 6.97213
#
# Compressibility (1/GPa) = 0.01878191
#
# Stress axis : x y z
#
# Youngs Moduli (GPa) = 40.82814 49.78814 61.91005
#
# Poissons Ratio (x) = 0.20194 0.49302
# Poissons Ratio (y) = 0.16560 0.55439
# Poissons Ratio (z) = 0.32513 0.44584
#
# Static dielectric constant tensor:
#      x y z
#    x 3.668630 0.000000 0.000000 
#    y 0.000000 3.594340 0.000000 
#    z 0.000000 0.000000 3.884920 
# 
# 
# High freq. dielectric constant tensor:
#      x y z
#    x 1.729360 0.000000 0.000000 
#    y 0.000000 1.744440 0.000000 
#    z 0.000000 0.000000 1.756030 
# 
# From -- ./inp_files/20404.got.cif
#   From: 2010.03.12/outbox.cif.g09.slc.cpg/sg59_11_cif.got.tgz:20404.got - 2010.04.16 16:29:54.
