data_PCOD8243871
_publ_section_title
;
Structure prediction by ZEFSAII (Michael W. Deem and Ramdas Pophale) SiO2 
 PCOD8243871
Probable space group: P M M N
;
_chemical_formula_sum "Si O2"
_cell_formula_units_Z 48
_cell_length_a 30.350711
_cell_length_b 8.929917
_cell_length_c 9.355603
_cell_angle_alpha 90.000000
_cell_angle_beta 90.000000
_cell_angle_gamma 90.000000
_cell_volume 2535.642814
_symmetry_space_group_name_H-M "P M M N"
_symmetry_group_IT_number 59
_space_group.IT_coordinate_system_code '2'
_symmetry_cell_setting 'orthorhombic'
loop_
_space_group_symop_operation_xyz
x,y,z
1/2-x,1/2-y,z
1/2+x,-y,-z
-x,1/2+y,-z
-x,-y,-z
1/2+x,1/2+y,-z
1/2-x,y,z
x,1/2-y,z
loop_
_atom_site_type_symbol
_atom_site_label
_atom_site_fract_x
_atom_site_fract_y
_atom_site_fract_z
Si Si1 0.622916 0.573212 0.360869
Si Si2 0.126065 0.573531 0.333350
Si Si3 0.801178 0.578567 0.842505
Si Si4 0.298725 0.071843 0.836421
Si Si5 0.960333 0.922134 0.171239
Si Si6 0.450290 0.077254 0.158610
O O1 0.627097 0.750000 0.384159
O O2 0.620047 0.492740 0.510532
O O3 0.665200 0.510168 0.274176
O O4 0.579340 0.531094 0.273580
O O5 0.125149 0.750000 0.343883
O O6 0.172504 0.522073 0.268935
O O7 0.086625 0.519749 0.233968
O O8 0.750000 0.566406 0.802840
O O9 0.817465 0.750000 0.828879
O O10 0.809840 0.517420 0.002908
O O11 0.250000 0.014252 0.790680
O O12 0.299015 0.250000 0.839108
O O13 0.974181 0.750000 0.192711
O O14 0.944762 0.950207 0.009722
O O15 0.001754 0.024850 0.211568
O O16 0.444115 0.250000 0.200310
#
# Coordination Sequence:
#
# PCOD8243871 Si02
#       6
#     8   8   8   8   8   8
#     4  10  20  35  55  79 110 146 182 221 268 322
#     4  12  25  37  51  77 115 151 183 221 266 318
#     4   9  18  36  62  86 107 137 180 226 272 324
#     4   8  15  31  58  87 108 132 175 226 268 313
#     4   9  19  36  59  85 109 136 177 229 278 323
#     4  10  20  37  61  84 107 138 179 224 272 328
#
# _framework density 18.930112000000001
#
# number of rings (size 3 to 8) (size 9 to 14) (size 15 to 20)
#    0.000    2.333    0.000    4.000    0.000    5.667 
#    0.000    4.167    0.000    1.000    0.000    0.000 
#    0.000    0.000    0.000    0.000    0.000    0.000 
#
# Total GULP energy -595288.155630 kJ/mol
# GULP energy per Si atom -12401.836576 kJ/mol
# Density = 1.888703 g / cm^3
# Si number density = 18.930112 Si / 1000 Ang^3
#
#
#
# Elastic Constant Matrix: (Units=GPa)
#
#
# Indices 1 2 3 4 5 6 
#
# 1 105.9731 37.8465 54.6609 0.0000 0.0000 0.0000
# 2 37.8465 49.5381 29.1822 0.0000 0.0000 0.0000
# 3 54.6609 29.1822 82.8947 0.0000 0.0000 0.0000
# 4 0.0000 0.0000 0.0000 17.2452 0.0000 0.0000
# 5 0.0000 0.0000 0.0000 0.0000 7.7024 0.0000
# 6 0.0000 0.0000 0.0000 0.0000 0.0000 28.1567
#
#
#
# Elastic Compliance Matrix: (Units=1/GPa)
#
#
# Indices 1 2 3 4 5 6 
#
# 1 0.016363 -0.007753 -0.008060 0.000000 0.000000 0.000000
# 2 -0.007753 0.029141 -0.005147 0.000000 0.000000 0.000000
# 3 -0.008060 -0.005147 0.019190 0.000000 0.000000 0.000000
# 4 0.000000 0.000000 0.000000 0.057987 0.000000 0.000000
# 5 0.000000 0.000000 0.000000 0.000000 0.129830 0.000000
# 6 0.000000 0.000000 0.000000 0.000000 0.000000 0.035515
#
#
# Mechanical properties :
#
#
# Convention : Reuss Voigt Hill
#
# Bulk Modulus (GPa) = 43.90816 53.53168 48.71992
# Shear Modulus (GPa) = 14.81315 18.40194 16.60755
#
# Velocity S-wave (km/s) = 2.80039 3.12123 2.96515
# Velocity P-wave (km/s) = 5.80529 6.42880 6.12499
#
# Compressibility (1/GPa) = 0.02277481
#
# Stress axis : x y z
#
# Youngs Moduli (GPa) = 61.11520 34.31566 52.10952
#
# Poissons Ratio (x) = 0.26603 0.42002
# Poissons Ratio (y) = 0.47380 0.26820
# Poissons Ratio (z) = 0.49261 0.17662
#
# Static dielectric constant tensor:
#      x y z
#    x 3.690430 0.000000 0.000000 
#    y 0.000000 3.268570 0.000000 
#    z 0.000000 0.000000 3.470780 
# 
# 
# High freq. dielectric constant tensor:
#      x y z
#    x 1.750550 0.000000 0.000000 
#    y 0.000000 1.711210 0.000000 
#    z 0.000000 0.000000 1.735290 
# 
# From -- ./inp_files/6185.got.cif
#   From: 2010.03.12/outbox.cif.g09.slc.cpg/sg59_4_cif.got.tgz:6185.got - 2010.04.16 16:29:54.
