data_PCOD8243940
_publ_section_title
;
Structure prediction by ZEFSAII (Michael W. Deem and Ramdas Pophale) SiO2 
 PCOD8243940
Probable space group: P M M N
;
_chemical_formula_sum "Si O2"
_cell_formula_units_Z 40
_cell_length_a 8.810907
_cell_length_b 18.120348
_cell_length_c 12.844054
_cell_angle_alpha 90.000000
_cell_angle_beta 90.000000
_cell_angle_gamma 90.000000
_cell_volume 2050.639290
_symmetry_space_group_name_H-M "P M M N"
_symmetry_group_IT_number 59
_space_group.IT_coordinate_system_code '2'
_symmetry_cell_setting 'orthorhombic'
loop_
_space_group_symop_operation_xyz
x,y,z
1/2-x,1/2-y,z
1/2+x,-y,-z
-x,1/2+y,-z
-x,-y,-z
1/2+x,1/2+y,-z
1/2-x,y,z
x,1/2-y,z
loop_
_atom_site_type_symbol
_atom_site_label
_atom_site_fract_x
_atom_site_fract_y
_atom_site_fract_z
Si Si1 0.571903 0.563581 0.819519
Si Si2 0.569365 0.594691 0.180823
Si Si3 0.582298 0.081479 0.389126
Si Si4 0.924037 0.164295 0.011716
Si Si5 0.417694 0.406951 0.589235
O O1 0.750000 0.547249 0.820638
O O2 0.482049 0.488600 0.842598
O O3 0.525957 0.598908 0.708437
O O4 0.530385 0.620978 0.908817
O O5 0.750000 0.598497 0.166768
O O6 0.521194 0.619291 0.297975
O O7 0.485159 0.650566 0.104391
O O8 0.750000 0.112522 0.364664
O O9 0.522198 0.121196 0.494341
O O10 0.588999 0.994943 0.409084
O O11 0.750000 0.137471 0.020763
O O12 0.937916 0.250000 0.037726
O O13 0.250000 0.374841 0.569799
#
# Coordination Sequence:
#
# PCOD8243940 Si02
#       5
#     8   8   8   8   8
#     4  11  21  34  55  80 108 140 176 217 260 310
#     4  10  20  35  56  81 109 139 175 217 259 308
#     4   9  16  27  46  74 107 138 170 211 257 304
#     4  11  24  40  56  75 103 138 176 219 267 317
#     4   8  15  27  45  73 106 137 168 207 255 304
#
# _framework density 19.506114
#
# number of rings (size 3 to 8) (size 9 to 14) (size 15 to 20)
#    0.000    2.200    0.000    5.400    0.000    7.200 
#    0.000    0.000    0.000    1.200    0.000    5.600 
#    0.000    0.000    0.000    0.000    0.000    0.000 
#
# Total GULP energy -495946.759295 kJ/mol
# GULP energy per Si atom -12398.668982 kJ/mol
# Density = 1.946172 g / cm^3
# Si number density = 19.506114 Si / 1000 Ang^3
#
#
#
# Elastic Constant Matrix: (Units=GPa)
#
#
# Indices 1 2 3 4 5 6 
#
# 1 84.5708 7.4919 22.7543 0.0000 0.0000 0.0000
# 2 7.4919 23.4370 6.3553 0.0000 0.0000 0.0000
# 3 22.7543 6.3553 98.7012 0.0000 0.0000 0.0000
# 4 0.0000 0.0000 0.0000 3.3357 0.0000 0.0000
# 5 0.0000 0.0000 0.0000 0.0000 40.1067 0.0000
# 6 0.0000 0.0000 0.0000 0.0000 0.0000 18.7042
#
#
#
# Elastic Compliance Matrix: (Units=1/GPa)
#
#
# Indices 1 2 3 4 5 6 
#
# 1 0.012862 -0.003366 -0.002748 0.000000 0.000000 0.000000
# 2 -0.003366 0.044307 -0.002077 0.000000 0.000000 0.000000
# 3 -0.002748 -0.002077 0.010899 0.000000 0.000000 0.000000
# 4 0.000000 0.000000 0.000000 0.299785 0.000000 0.000000
# 5 0.000000 0.000000 0.000000 0.000000 0.024933 0.000000
# 6 0.000000 0.000000 0.000000 0.000000 0.000000 0.053464
#
#
# Mechanical properties :
#
#
# Convention : Reuss Voigt Hill
#
# Bulk Modulus (GPa) = 19.34806 31.10133 25.22469
# Shear Modulus (GPa) = 10.41968 23.76984 17.09476
#
# Velocity S-wave (km/s) = 2.31373 3.49461 2.96358
# Velocity P-wave (km/s) = 4.13259 5.67997 4.96691
#
# Compressibility (1/GPa) = 0.05168478
#
# Stress axis : x y z
#
# Youngs Moduli (GPa) = 77.74775 22.56993 91.75212
#
# Poissons Ratio (x) = 0.07598 0.25218
# Poissons Ratio (y) = 0.26172 0.19055
# Poissons Ratio (z) = 0.21369 0.04687
#
# Static dielectric constant tensor:
#      x y z
#    x 3.753310 0.000000 0.000000 
#    y 0.000000 2.975440 0.000000 
#    z 0.000000 0.000000 3.947370 
# 
# 
# High freq. dielectric constant tensor:
#      x y z
#    x 1.770960 0.000000 0.000000 
#    y 0.000000 1.697220 0.000000 
#    z 0.000000 0.000000 1.780190 
# 
# From -- ./inp_files/13836.got.cif
#   From: 2010.03.12/outbox.cif.g09.slc.cpg/sg59_7_cif.got.tgz:13836.got - 2010.04.16 16:29:54.
