data_PCOD8243011
_publ_section_title
;
Structure prediction by ZEFSAII (Michael W. Deem and Ramdas Pophale) SiO2 
 PCOD8243011
Probable space group: P M M N
;
_chemical_formula_sum "Si O2"
_cell_formula_units_Z 56
_cell_length_a 22.283761
_cell_length_b 9.007702
_cell_length_c 14.548411
_cell_angle_alpha 90.000000
_cell_angle_beta 90.000000
_cell_angle_gamma 90.000000
_cell_volume 2920.236760
_symmetry_space_group_name_H-M "P M M N"
_symmetry_group_IT_number 59
_space_group.IT_coordinate_system_code '2'
_symmetry_cell_setting 'orthorhombic'
loop_
_space_group_symop_operation_xyz
x,y,z
1/2-x,1/2-y,z
1/2+x,-y,-z
-x,1/2+y,-z
-x,-y,-z
1/2+x,1/2+y,-z
1/2-x,y,z
x,1/2-y,z
loop_
_atom_site_type_symbol
_atom_site_label
_atom_site_fract_x
_atom_site_fract_y
_atom_site_fract_z
Si Si1 0.320267 0.916807 0.578287
Si Si2 0.144838 0.922424 0.376661
Si Si3 0.099131 0.424775 0.718071
Si Si4 0.451910 0.577707 0.882275
Si Si5 0.074638 0.922829 0.092379
Si Si6 0.318110 0.077485 0.197213
Si Si7 0.509641 0.079678 0.594987
O O1 0.250000 0.914822 0.590450
O O2 0.346857 0.750000 0.588586
O O3 0.337420 0.980210 0.477976
O O4 0.344999 0.022912 0.657492
O O5 0.162821 0.750000 0.365874
O O6 0.074394 0.949210 0.361022
O O7 0.179638 0.017320 0.301226
O O8 0.103462 0.250000 0.734224
O O9 0.098423 0.506907 0.816087
O O10 0.038529 0.477309 0.667851
O O11 0.460776 0.750000 0.860926
O O12 0.515694 0.498279 0.864789
O O13 0.426152 0.550814 0.983611
O O14 0.072745 0.750000 0.119082
O O15 0.135793 0.991284 0.131732
O O16 0.250000 0.053494 0.160865
O O17 0.335396 0.250000 0.197042
O O18 0.499048 0.250000 0.572520
O O19 0.500000 0.000000 0.500000
#
# Coordination Sequence:
#
# PCOD8243011 Si02
#       7
#     8   8   8   8   8   8   8
#     4  10  21  37  56  77 106 150 199 240 279 331
#     4  10  20  36  58  82 111 151 195 236 284 341
#     4  11  22  35  55  85 117 150 188 232 284 340
#     4  10  21  38  63  91 117 148 185 232 289 345
#     4  10  21  39  63  90 117 147 187 233 287 348
#     4  11  24  39  57  85 119 156 197 239 287 344
#     4  10  20  33  52  80 111 143 182 228 278 331
#
# _framework density 19.176527
#
# number of rings (size 3 to 8) (size 9 to 14) (size 15 to 20)
#    0.000    1.714    1.429    3.000    0.000    6.571 
#    0.000    0.714    0.000    0.857    0.000    0.000 
#    0.000    0.000    0.000    0.000    0.000    0.000 
#
# Total GULP energy -694608.214156 kJ/mol
# GULP energy per Si atom -12403.718110 kJ/mol
# Density = 1.913288 g / cm^3
# Si number density = 19.176527 Si / 1000 Ang^3
#
#
#
# Elastic Constant Matrix: (Units=GPa)
#
#
# Indices 1 2 3 4 5 6 
#
# 1 71.5584 30.6290 27.9519 0.0000 0.0000 0.0000
# 2 30.6290 92.6881 45.6010 0.0000 0.0000 0.0000
# 3 27.9519 45.6010 87.3312 0.0000 0.0000 0.0000
# 4 0.0000 0.0000 0.0000 31.8484 0.0000 0.0000
# 5 0.0000 0.0000 0.0000 0.0000 27.0804 0.0000
# 6 0.0000 0.0000 0.0000 0.0000 0.0000 31.3270
#
#
#
# Elastic Compliance Matrix: (Units=1/GPa)
#
#
# Indices 1 2 3 4 5 6 
#
# 1 0.016984 -0.003954 -0.003372 0.000000 0.000000 0.000000
# 2 -0.003954 0.015439 -0.006796 0.000000 0.000000 0.000000
# 3 -0.003372 -0.006796 0.016079 0.000000 0.000000 0.000000
# 4 0.000000 0.000000 0.000000 0.031399 0.000000 0.000000
# 5 0.000000 0.000000 0.000000 0.000000 0.036927 0.000000
# 6 0.000000 0.000000 0.000000 0.000000 0.000000 0.031921
#
#
# Mechanical properties :
#
#
# Convention : Reuss Voigt Hill
#
# Bulk Modulus (GPa) = 49.36181 51.10460 50.23320
# Shear Modulus (GPa) = 27.21175 27.87754 27.54465
#
# Velocity S-wave (km/s) = 3.77107 3.81692 3.79406
# Velocity P-wave (km/s) = 6.69013 6.79210 6.74131
#
# Compressibility (1/GPa) = 0.02025858
#
# Stress axis : x y z
#
# Youngs Moduli (GPa) = 58.87951 64.77111 62.19483
#
# Poissons Ratio (x) = 0.25608 0.20969
# Poissons Ratio (y) = 0.23279 0.42269
# Poissons Ratio (z) = 0.19852 0.44020
#
# Static dielectric constant tensor:
#      x y z
#    x 3.787400 0.000000 0.000000 
#    y 0.000000 3.580840 0.000000 
#    z 0.000000 0.000000 3.847820 
# 
# 
# High freq. dielectric constant tensor:
#      x y z
#    x 1.741990 0.000000 0.000000 
#    y 0.000000 1.750150 0.000000 
#    z 0.000000 0.000000 1.748200 
# 
# From -- ./inp_files/24196.got.cif
#   From: 2010.03.12/outbox.cif.g09.slc.cpg/sg59_13_cif.got.tgz:24196.got - 2010.04.16 16:29:54.
