data_PCOD8243097
_publ_section_title
;
Structure prediction by ZEFSAII (Michael W. Deem and Ramdas Pophale) SiO2 
 PCOD8243097
Probable space group: P M M N
;
_chemical_formula_sum "Si O2"
_cell_formula_units_Z 64
_cell_length_a 31.374473
_cell_length_b 13.028631
_cell_length_c 9.855875
_cell_angle_alpha 90.000000
_cell_angle_beta 90.000000
_cell_angle_gamma 90.000000
_cell_volume 4028.750853
_symmetry_space_group_name_H-M "P M M N"
_symmetry_group_IT_number 59
_space_group.IT_coordinate_system_code '2'
_symmetry_cell_setting 'orthorhombic'
loop_
_space_group_symop_operation_xyz
x,y,z
1/2-x,1/2-y,z
1/2+x,-y,-z
-x,1/2+y,-z
-x,-y,-z
1/2+x,1/2+y,-z
1/2-x,y,z
x,1/2-y,z
loop_
_atom_site_type_symbol
_atom_site_label
_atom_site_fract_x
_atom_site_fract_y
_atom_site_fract_z
Si Si1 0.296551 0.372090 0.341178
Si Si2 0.795963 0.628727 0.354324
Si Si3 0.884109 0.630808 0.770063
Si Si4 0.522261 0.367132 0.901007
Si Si5 0.385002 0.371057 0.734273
Si Si6 0.022271 0.635045 0.415630
Si Si7 0.933313 0.554511 0.017894
Si Si8 0.565293 0.936575 0.519544
O O1 0.250000 0.409181 0.284651
O O2 0.297319 0.250000 0.340789
O O3 0.302320 0.415332 0.493977
O O4 0.336128 0.414625 0.251285
O O5 0.750000 0.590938 0.295023
O O6 0.795904 0.750000 0.367950
O O7 0.834954 0.598079 0.255266
O O8 0.883109 0.750000 0.738062
O O9 0.899237 0.610084 0.922047
O O10 0.918656 0.580646 0.671383
O O11 0.536853 0.250000 0.920601
O O12 0.516315 0.394679 0.742618
O O13 0.558578 0.437923 0.969245
O O14 0.477803 0.384344 0.979347
O O15 0.393182 0.250000 0.763163
O O16 0.398247 0.400240 0.582235
O O17 0.412018 0.442579 0.834192
O O18 0.040445 0.750000 0.430786
O O19 0.054730 0.557996 0.490517
O O20 0.976831 0.629337 0.489670
#
# Coordination Sequence:
#
# PCOD8243097 Si02
#       8
#     8   8   8   8   8   8   8   8
#     4   8  14  25  42  65  94 125 153 186 229 273
#     4   8  14  25  43  67  92 123 157 184 223 279
#     4  11  19  29  45  71  98 122 160 196 225 273
#     4  10  20  36  51  64  92 128 159 198 244 277
#     4  11  19  31  49  69 100 132 155 190 233 276
#     4  10  20  34  50  68  94 123 156 203 246 272
#     4  11  22  33  47  70  92 127 164 193 228 283
#     4  11  20  31  49  72  90 122 162 196 234 280
#
# _framework density 15.885816
#
# number of rings (size 3 to 8) (size 9 to 14) (size 15 to 20)
#    0.000    2.000    3.750    3.000    0.000    0.000 
#    0.000    2.500    0.000    3.000    0.000    0.000 
#    0.000    6.000    0.000    0.000    0.000    0.000 
#
# Total GULP energy -793253.276236 kJ/mol
# GULP energy per Si atom -12394.582441 kJ/mol
# Density = 1.584966 g / cm^3
# Si number density = 15.885816 Si / 1000 Ang^3
#
#
#
# Elastic Constant Matrix: (Units=GPa)
#
#
# Indices 1 2 3 4 5 6 
#
# 1 99.2883 30.0720 19.3962 0.0000 0.0000 0.0000
# 2 30.0720 58.6683 13.1245 0.0000 0.0000 0.0000
# 3 19.3962 13.1245 41.8026 0.0000 0.0000 0.0000
# 4 0.0000 0.0000 0.0000 22.0830 0.0000 0.0000
# 5 0.0000 0.0000 0.0000 0.0000 19.5635 0.0000
# 6 0.0000 0.0000 0.0000 0.0000 0.0000 12.5753
#
#
#
# Elastic Compliance Matrix: (Units=1/GPa)
#
#
# Indices 1 2 3 4 5 6 
#
# 1 0.012540 -0.005513 -0.004088 0.000000 0.000000 0.000000
# 2 -0.005513 0.020757 -0.003959 0.000000 0.000000 0.000000
# 3 -0.004088 -0.003959 0.027061 0.000000 0.000000 0.000000
# 4 0.000000 0.000000 0.000000 0.045284 0.000000 0.000000
# 5 0.000000 0.000000 0.000000 0.000000 0.051116 0.000000
# 6 0.000000 0.000000 0.000000 0.000000 0.000000 0.079521
#
#
# Mechanical properties :
#
#
# Convention : Reuss Voigt Hill
#
# Bulk Modulus (GPa) = 30.08513 36.10496 33.09505
# Shear Modulus (GPa) = 18.21647 19.98880 19.10263
#
# Velocity S-wave (km/s) = 3.38999 3.55107 3.47146
# Velocity P-wave (km/s) = 5.85680 6.29211 6.07835
#
# Compressibility (1/GPa) = 0.03323901
#
# Stress axis : x y z
#
# Youngs Moduli (GPa) = 79.74453 48.17759 36.95299
#
# Poissons Ratio (x) = 0.26562 0.15105
# Poissons Ratio (y) = 0.43966 0.14628
# Poissons Ratio (z) = 0.32596 0.19072
#
# Static dielectric constant tensor:
#      x y z
#    x 3.370650 0.000000 0.000000 
#    y 0.000000 2.729630 0.000000 
#    z 0.000000 0.000000 2.922290 
# 
# 
# High freq. dielectric constant tensor:
#      x y z
#    x 1.613220 0.000000 0.000000 
#    y 0.000000 1.566700 0.000000 
#    z 0.000000 0.000000 1.603570 
# 
# From -- ./inp_files/13254.got.cif
#   From: 2010.03.12/outbox.cif.g09.slc.cpg/sg59_7_cif.got.tgz:13254.got - 2010.04.16 16:29:54.
