data_PCOD8243350
_publ_section_title
;
Structure prediction by ZEFSAII (Michael W. Deem and Ramdas Pophale) SiO2 
 PCOD8243350
Probable space group: P M M N
;
_chemical_formula_sum "Si O2"
_cell_formula_units_Z 56
_cell_length_a 8.774588
_cell_length_b 24.112543
_cell_length_c 14.734763
_cell_angle_alpha 90.000000
_cell_angle_beta 90.000000
_cell_angle_gamma 90.000000
_cell_volume 3117.546241
_symmetry_space_group_name_H-M "P M M N"
_symmetry_group_IT_number 59
_space_group.IT_coordinate_system_code '2'
_symmetry_cell_setting 'orthorhombic'
loop_
_space_group_symop_operation_xyz
x,y,z
1/2-x,1/2-y,z
1/2+x,-y,-z
-x,1/2+y,-z
-x,-y,-z
1/2+x,1/2+y,-z
1/2-x,y,z
x,1/2-y,z
loop_
_atom_site_type_symbol
_atom_site_label
_atom_site_fract_x
_atom_site_fract_y
_atom_site_fract_z
Si Si1 0.570037 0.750000 0.996920
Si Si2 0.073854 0.637162 0.035548
Si Si3 0.930088 0.864644 0.711059
Si Si4 0.072978 0.953575 0.183209
Si Si5 0.426980 0.919685 0.551274
Si Si6 0.430703 0.935283 0.866282
Si Si7 0.572537 0.958403 0.377028
Si Si8 0.569796 0.750000 0.792916
O O1 0.750000 0.750000 0.997001
O O2 0.502572 0.750000 0.894636
O O3 0.513758 0.805045 0.047956
O O4 0.250000 0.650524 0.019886
O O5 0.046876 0.602117 0.126185
O O6 0.010648 0.603122 0.948694
O O7 0.750000 0.871943 0.723776
O O8 0.988137 0.803937 0.739781
O O9 0.978679 0.873618 0.606912
O O10 0.017767 0.909620 0.771215
O O11 0.250000 0.964780 0.202350
O O12 0.985862 0.945349 0.277102
O O13 0.006333 0.004377 0.124663
O O14 0.250000 0.904648 0.553158
O O15 0.484778 0.918914 0.447838
O O16 0.462626 0.978285 0.598264
O O17 0.250000 0.942749 0.867910
O O18 0.750000 0.944943 0.383176
O O19 0.750000 0.750000 0.798185
#
# Coordination Sequence:
#
# PCOD8243350 Si02
#       8
#     4   8   8   8   8   8   8   4
#     4  11  21  37  59  82 105 142 191 235 276 322
#     4  10  23  39  55  78 111 149 187 230 279 328
#     4  11  20  34  55  79 112 147 182 224 274 327
#     4  11  22  36  55  80 112 150 186 225 277 330
#     4  10  20  34  53  80 111 141 178 218 268 326
#     4  11  21  34  52  79 113 147 184 225 272 328
#     4  10  20  34  54  80 110 142 178 220 269 324
#     4   9  20  35  53  80 109 142 185 227 270 322
#
# _framework density 17.962844
#
# number of rings (size 3 to 8) (size 9 to 14) (size 15 to 20)
#    0.000    1.571    2.857    2.786    0.000    2.857 
#    0.000    1.429    0.000    0.857    0.000    4.000 
#    0.000    0.000    0.000    0.000    0.000    0.000 
#
# Total GULP energy -694658.875588 kJ/mol
# GULP energy per Si atom -12404.622778 kJ/mol
# Density = 1.792196 g / cm^3
# Si number density = 17.962844 Si / 1000 Ang^3
#
#
#
# Elastic Constant Matrix: (Units=GPa)
#
#
# Indices 1 2 3 4 5 6 
#
# 1 55.1450 34.7941 20.4323 0.0000 0.0000 0.0000
# 2 34.7941 100.3061 33.6736 0.0000 0.0000 0.0000
# 3 20.4323 33.6736 86.3151 0.0000 0.0000 0.0000
# 4 0.0000 0.0000 0.0000 25.7196 0.0000 0.0000
# 5 0.0000 0.0000 0.0000 0.0000 31.2957 0.0000
# 6 0.0000 0.0000 0.0000 0.0000 0.0000 25.1037
#
#
#
# Elastic Compliance Matrix: (Units=1/GPa)
#
#
# Indices 1 2 3 4 5 6 
#
# 1 0.023779 -0.007317 -0.002774 0.000000 0.000000 0.000000
# 2 -0.007317 0.013723 -0.003622 0.000000 0.000000 0.000000
# 3 -0.002774 -0.003622 0.013655 0.000000 0.000000 0.000000
# 4 0.000000 0.000000 0.000000 0.038881 0.000000 0.000000
# 5 0.000000 0.000000 0.000000 0.000000 0.031953 0.000000
# 6 0.000000 0.000000 0.000000 0.000000 0.000000 0.039835
#
#
# Mechanical properties :
#
#
# Convention : Reuss Voigt Hill
#
# Bulk Modulus (GPa) = 42.13879 46.61847 44.37863
# Shear Modulus (GPa) = 25.35981 26.61490 25.98735
#
# Velocity S-wave (km/s) = 3.76146 3.85342 3.80771
# Velocity P-wave (km/s) = 6.50957 6.76812 6.64011
#
# Compressibility (1/GPa) = 0.02373110
#
# Stress axis : x y z
#
# Youngs Moduli (GPa) = 42.05461 72.86801 73.23250
#
# Poissons Ratio (x) = 0.53317 0.20317
# Poissons Ratio (y) = 0.30771 0.26523
# Poissons Ratio (z) = 0.11667 0.26391
#
# Static dielectric constant tensor:
#      x y z
#    x 3.306890 0.000000 0.000000 
#    y 0.000000 3.274740 0.000000 
#    z 0.000000 0.000000 3.323530 
# 
# 
# High freq. dielectric constant tensor:
#      x y z
#    x 1.702610 0.000000 0.000000 
#    y 0.000000 1.677510 0.000000 
#    z 0.000000 0.000000 1.693420 
# 
# From -- ./inp_files/21193.got.cif
#   From: 2010.03.12/outbox.cif.g09.slc.cpg/sg59_11_cif.got.tgz:21193.got - 2010.04.16 16:29:54.
