data_PCOD8243772
_publ_section_title
;
Structure prediction by ZEFSAII (Michael W. Deem and Ramdas Pophale) SiO2 
 PCOD8243772
Probable space group: P M M N
;
_chemical_formula_sum "Si O2"
_cell_formula_units_Z 64
_cell_length_a 17.811406
_cell_length_b 15.938762
_cell_length_c 11.893626
_cell_angle_alpha 90.000000
_cell_angle_beta 90.000000
_cell_angle_gamma 90.000000
_cell_volume 3376.502431
_symmetry_space_group_name_H-M "P M M N"
_symmetry_group_IT_number 59
_space_group.IT_coordinate_system_code '2'
_symmetry_cell_setting 'orthorhombic'
loop_
_space_group_symop_operation_xyz
x,y,z
1/2-x,1/2-y,z
1/2+x,-y,-z
-x,1/2+y,-z
-x,-y,-z
1/2+x,1/2+y,-z
1/2-x,y,z
x,1/2-y,z
loop_
_atom_site_type_symbol
_atom_site_label
_atom_site_fract_x
_atom_site_fract_y
_atom_site_fract_z
Si Si1 0.334719 0.157893 0.087783
Si Si2 0.663988 0.989666 0.761251
Si Si3 0.161634 0.152943 0.651227
Si Si4 0.557080 0.433887 0.945598
Si Si5 0.339114 0.496845 0.492050
Si Si6 0.661019 0.157376 0.375216
Si Si7 0.418058 0.347276 0.875886
Si Si8 0.664908 0.346777 0.118374
O O1 0.250000 0.163881 0.044622
O O2 0.368204 0.250000 0.113256
O O3 0.340025 0.107807 0.204174
O O4 0.379605 0.111150 0.986930
O O5 0.750000 0.023184 0.768937
O O6 0.611974 0.038421 0.847048
O O7 0.631355 0.997026 0.635675
O O8 0.250000 0.145274 0.674679
O O9 0.140559 0.250000 0.621020
O O10 0.118158 0.118378 0.761063
O O11 0.135569 0.089864 0.552050
O O12 0.506700 0.363513 0.883405
O O13 0.500000 0.500000 0.000000
O O14 0.606841 0.398518 0.045504
O O15 0.250000 0.500827 0.493521
O O16 0.372796 0.580798 0.551140
O O17 0.750000 0.158471 0.385970
O O18 0.630709 0.250000 0.414131
O O19 0.638558 0.141315 0.246497
O O20 0.398700 0.250000 0.880748
O O21 0.750000 0.380510 0.101259
O O22 0.661365 0.250000 0.082796
#
# Coordination Sequence:
#
# PCOD8243772 Si02
#       8
#     8   8   8   8   8   8   8   8
#     4   9  17  31  52  76 104 140 178 219 268 322
#     4  10  21  37  53  79 112 143 184 225 264 326
#     4   9  18  33  56  85 111 139 181 229 275 324
#     4  12  23  35  52  81 111 146 178 220 283 333
#     4   9  18  32  54  80 108 142 180 226 273 318
#     4   8  15  30  54  82 106 132 176 234 284 319
#     4  10  20  35  53  76 109 143 178 221 272 330
#     4   9  19  37  60  82 105 139 187 238 278 320
#
# _framework density 18.954525
#
# number of rings (size 3 to 8) (size 9 to 14) (size 15 to 20)
#    0.000    2.500    1.250    1.875    1.750    2.000 
#    0.000    4.375    0.000    3.000    0.000    0.000 
#    0.000    0.000    0.000    0.000    0.000    0.000 
#
# Total GULP energy -793173.832489 kJ/mol
# GULP energy per Si atom -12393.341133 kJ/mol
# Density = 1.891138 g / cm^3
# Si number density = 18.954525 Si / 1000 Ang^3
#
#
#
# Elastic Constant Matrix: (Units=GPa)
#
#
# Indices 1 2 3 4 5 6 
#
# 1 65.5004 34.5307 50.6859 0.0000 0.0000 0.0000
# 2 34.5307 98.3685 74.4445 0.0000 0.0000 0.0000
# 3 50.6859 74.4445 153.1373 0.0000 0.0000 0.0000
# 4 0.0000 0.0000 0.0000 25.1723 0.0000 0.0000
# 5 0.0000 0.0000 0.0000 0.0000 7.6364 0.0000
# 6 0.0000 0.0000 0.0000 0.0000 0.0000 22.2972
#
#
#
# Elastic Compliance Matrix: (Units=1/GPa)
#
#
# Indices 1 2 3 4 5 6 
#
# 1 0.021209 -0.003374 -0.005380 0.000000 0.000000 0.000000
# 2 -0.003374 0.016619 -0.006963 0.000000 0.000000 0.000000
# 3 -0.005380 -0.006963 0.011695 0.000000 0.000000 0.000000
# 4 0.000000 0.000000 0.000000 0.039726 0.000000 0.000000
# 5 0.000000 0.000000 0.000000 0.000000 0.130952 0.000000
# 6 0.000000 0.000000 0.000000 0.000000 0.000000 0.044849
#
#
# Mechanical properties :
#
#
# Convention : Reuss Voigt Hill
#
# Bulk Modulus (GPa) = 55.27437 70.70316 62.98877
# Shear Modulus (GPa) = 16.52824 21.51084 19.01954
#
# Velocity S-wave (km/s) = 2.95616 3.37243 3.17113
# Velocity P-wave (km/s) = 6.39349 7.24892 6.83460
#
# Compressibility (1/GPa) = 0.01809157
#
# Stress axis : x y z
#
# Youngs Moduli (GPa) = 47.15090 60.17107 85.50414
#
# Poissons Ratio (x) = 0.20300 0.45998
# Poissons Ratio (y) = 0.15907 0.59532
# Poissons Ratio (z) = 0.25365 0.41894
#
# Static dielectric constant tensor:
#      x y z
#    x 3.347130 0.000000 0.000000 
#    y 0.000000 3.693710 0.000000 
#    z 0.000000 0.000000 3.597530 
# 
# 
# High freq. dielectric constant tensor:
#      x y z
#    x 1.708550 0.000000 0.000000 
#    y 0.000000 1.740060 0.000000 
#    z 0.000000 0.000000 1.732830 
# 
# From -- ./inp_files/17188.got.cif
#   From: 2010.03.12/outbox.cif.g09.slc.cpg/sg59_9_cif.got.tgz:17188.got - 2010.04.16 16:29:54.
