data_PCOD8243863
_publ_section_title
;
Structure prediction by ZEFSAII (Michael W. Deem and Ramdas Pophale) SiO2 
 PCOD8243863
Probable space group: P M M N
;
_chemical_formula_sum "Si O2"
_cell_formula_units_Z 48
_cell_length_a 10.113139
_cell_length_b 8.891946
_cell_length_c 29.079171
_cell_angle_alpha 90.000000
_cell_angle_beta 90.000000
_cell_angle_gamma 90.000000
_cell_volume 2614.958581
_symmetry_space_group_name_H-M "P M M N"
_symmetry_group_IT_number 59
_space_group.IT_coordinate_system_code '2'
_symmetry_cell_setting 'orthorhombic'
loop_
_space_group_symop_operation_xyz
x,y,z
1/2-x,1/2-y,z
1/2+x,-y,-z
-x,1/2+y,-z
-x,-y,-z
1/2+x,1/2+y,-z
1/2-x,y,z
x,1/2-y,z
loop_
_atom_site_type_symbol
_atom_site_label
_atom_site_fract_x
_atom_site_fract_y
_atom_site_fract_z
Si Si1 0.901020 0.924513 0.131297
Si Si2 0.900634 0.426865 0.035602
Si Si3 0.487018 0.571937 0.396002
Si Si4 0.901566 0.425005 0.788755
Si Si5 0.750000 0.927482 0.445687
Si Si6 0.750000 0.928929 0.549358
Si Si7 0.595592 0.576368 0.693768
O O1 0.750000 0.955401 0.147076
O O2 0.922682 0.750000 0.119641
O O3 0.000902 0.978126 0.170905
O O4 0.937906 0.018635 0.086399
O O5 0.750000 0.474505 0.023548
O O6 0.918426 0.250000 0.033381
O O7 0.000000 0.500000 0.000000
O O8 0.466608 0.750000 0.398648
O O9 0.623540 0.516107 0.417829
O O10 0.377087 0.489135 0.425097
O O11 0.485527 0.520008 0.343155
O O12 0.750000 0.458785 0.803303
O O13 0.921059 0.250000 0.777431
O O14 0.942758 0.518857 0.744143
O O15 0.750000 0.750000 0.449063
O O16 0.750000 0.992690 0.497373
O O17 0.750000 0.750000 0.551414
O O18 0.750000 0.550848 0.684104
O O19 0.556126 0.750000 0.689577
#
# Coordination Sequence:
#
# PCOD8243863 Si02
#       7
#     8   8   8   8   4   4   8
#     4   9  18  34  54  77 108 144 180 222 275 328
#     4  10  21  36  55  80 111 148 189 232 277 327
#     4  11  21  37  59  81 107 143 183 221 267 323
#     4   9  18  33  54  78 103 135 179 224 266 319
#     4   9  22  39  55  81 113 141 177 225 268 317
#     4  11  21  37  59  83 111 141 177 221 270 323
#     4  10  20  35  55  79 108 139 177 224 273 319
#
# _framework density 18.355931000000002
#
# number of rings (size 3 to 8) (size 9 to 14) (size 15 to 20)
#    0.000    2.167    0.833    2.250    0.000    3.000 
#    1.500    5.833    0.000    0.000    0.000    0.000 
#    0.000    0.000    0.000    0.000    0.000    0.000 
#
# Total GULP energy -595333.997480 kJ/mol
# GULP energy per Si atom -12402.791614 kJ/mol
# Density = 1.831415 g / cm^3
# Si number density = 18.355931 Si / 1000 Ang^3
#
#
#
# Elastic Constant Matrix: (Units=GPa)
#
#
# Indices 1 2 3 4 5 6 
#
# 1 126.3410 45.7708 91.1208 0.0000 0.0000 0.0000
# 2 45.7708 73.9743 56.0251 0.0000 0.0000 0.0000
# 3 91.1208 56.0251 151.8091 0.0000 0.0000 0.0000
# 4 0.0000 0.0000 0.0000 34.1496 0.0000 0.0000
# 5 0.0000 0.0000 0.0000 0.0000 25.6704 0.0000
# 6 0.0000 0.0000 0.0000 0.0000 0.0000 32.7065
#
#
#
# Elastic Compliance Matrix: (Units=1/GPa)
#
#
# Indices 1 2 3 4 5 6 
#
# 1 0.014518 -0.003308 -0.007493 0.000000 0.000000 0.000000
# 2 -0.003308 0.019516 -0.005217 0.000000 0.000000 0.000000
# 3 -0.007493 -0.005217 0.013010 0.000000 0.000000 0.000000
# 4 0.000000 0.000000 0.000000 0.029283 0.000000 0.000000
# 5 0.000000 0.000000 0.000000 0.000000 0.038955 0.000000
# 6 0.000000 0.000000 0.000000 0.000000 0.000000 0.030575
#
#
# Mechanical properties :
#
#
# Convention : Reuss Voigt Hill
#
# Bulk Modulus (GPa) = 66.63081 81.99533 74.31307
# Shear Modulus (GPa) = 27.33792 29.11913 28.22853
#
# Velocity S-wave (km/s) = 3.86336 3.98724 3.92579
# Velocity P-wave (km/s) = 7.50193 8.12182 7.81802
#
# Compressibility (1/GPa) = 0.01500807
#
# Stress axis : x y z
#
# Youngs Moduli (GPa) = 68.88084 51.24026 76.86169
#
# Poissons Ratio (x) = 0.16948 0.57596
# Poissons Ratio (y) = 0.22783 0.40099
# Poissons Ratio (z) = 0.51615 0.26732
#
# Static dielectric constant tensor:
#      x y z
#    x 4.411290 0.000000 0.000000 
#    y 0.000000 3.362440 0.000000 
#    z 0.000000 0.000000 3.486670 
# 
# 
# High freq. dielectric constant tensor:
#      x y z
#    x 1.708650 0.000000 0.000000 
#    y 0.000000 1.711290 0.000000 
#    z 0.000000 0.000000 1.720240 
# 
# From -- ./inp_files/33101.got.cif
#   From: 2010.03.12/outbox.cif.g09.slc.cpg/sg59_17_cif.got.tgz:33101.got - 2010.04.16 16:29:54.
