data_PCOD8243451
_publ_section_title
;
Structure prediction by ZEFSAII (Michael W. Deem and Ramdas Pophale) SiO2 
 PCOD8243451
Probable space group: P M M N
;
_chemical_formula_sum "Si O2"
_cell_formula_units_Z 64
_cell_length_a 19.153854
_cell_length_b 9.033578
_cell_length_c 18.612557
_cell_angle_alpha 90.000000
_cell_angle_beta 90.000000
_cell_angle_gamma 90.000000
_cell_volume 3220.490425
_symmetry_space_group_name_H-M "P M M N"
_symmetry_group_IT_number 59
_space_group.IT_coordinate_system_code '2'
_symmetry_cell_setting 'orthorhombic'
loop_
_space_group_symop_operation_xyz
x,y,z
1/2-x,1/2-y,z
1/2+x,-y,-z
-x,1/2+y,-z
-x,-y,-z
1/2+x,1/2+y,-z
1/2-x,y,z
x,1/2-y,z
loop_
_atom_site_type_symbol
_atom_site_label
_atom_site_fract_x
_atom_site_fract_y
_atom_site_fract_z
Si Si1 0.456038 0.580393 0.706901
Si Si2 0.670148 0.419955 0.498077
Si Si3 0.455117 0.075587 0.561852
Si Si4 0.170498 0.922935 0.803297
Si Si5 0.832823 0.915789 0.053874
Si Si6 0.405692 0.418881 0.216336
Si Si7 0.330428 0.575945 0.088746
Si Si8 0.667823 0.415508 0.661870
O O1 0.455953 0.750000 0.679923
O O2 0.478659 0.476307 0.640895
O O3 0.379717 0.535219 0.736924
O O4 0.511573 0.560008 0.771561
O O5 0.750000 0.469254 0.489846
O O6 0.660548 0.250000 0.473566
O O7 0.625265 0.526705 0.447527
O O8 0.644185 0.438718 0.579841
O O9 0.464135 0.250000 0.555771
O O10 0.500000 0.000000 0.500000
O O11 0.250000 0.970215 0.783727
O O12 0.166569 0.750000 0.820698
O O13 0.141546 0.005863 0.873600
O O14 0.750000 0.915898 0.053024
O O15 0.863237 0.750000 0.051694
O O16 0.859781 0.002932 0.984025
O O17 0.386999 0.250000 0.197035
O O18 0.379254 0.523814 0.153285
O O19 0.368257 0.460269 0.290639
O O20 0.250000 0.530061 0.104353
O O21 0.337112 0.750000 0.080019
O O22 0.750000 0.434667 0.668568
O O23 0.646439 0.250000 0.687408
#
# Coordination Sequence:
#
# PCOD8243451 Si02
#       8
#     8   8   8   8   8   8   8   8
#     4  10  23  41  58  81 112 144 183 229 278 334
#     4   9  19  37  60  84 111 143 180 226 281 339
#     4  12  25  40  60  84 112 148 190 235 283 338
#     4   9  18  36  62  86 109 142 182 223 272 331
#     4   9  17  31  54  84 115 143 176 223 273 319
#     4  11  22  34  50  75 109 145 181 226 274 320
#     4  10  20  34  54  80 110 146 187 225 262 315
#     4   9  18  33  53  77 105 140 181 220 262 320
#
# _framework density 19.87275
#
# number of rings (size 3 to 8) (size 9 to 14) (size 15 to 20)
#    0.000    2.125    0.000    4.125    0.000    8.750 
#    0.000    3.125    0.000    0.000    0.000    0.000 
#    0.000    0.000    0.000    0.000    0.000    0.000 
#
# Total GULP energy -793729.899908 kJ/mol
# GULP energy per Si atom -12402.029686 kJ/mol
# Density = 1.982752 g / cm^3
# Si number density = 19.872750 Si / 1000 Ang^3
#
#
#
# Elastic Constant Matrix: (Units=GPa)
#
#
# Indices 1 2 3 4 5 6 
#
# 1 59.9999 36.1670 39.7861 0.0000 0.0000 0.0000
# 2 36.1670 106.2742 52.0723 0.0000 0.0000 0.0000
# 3 39.7861 52.0723 98.3099 0.0000 0.0000 0.0000
# 4 0.0000 0.0000 0.0000 37.7733 0.0000 0.0000
# 5 0.0000 0.0000 0.0000 0.0000 26.1875 0.0000
# 6 0.0000 0.0000 0.0000 0.0000 0.0000 23.7849
#
#
#
# Elastic Compliance Matrix: (Units=1/GPa)
#
#
# Indices 1 2 3 4 5 6 
#
# 1 0.024388 -0.004678 -0.007392 0.000000 0.000000 0.000000
# 2 -0.004678 0.013605 -0.005313 0.000000 0.000000 0.000000
# 3 -0.007392 -0.005313 0.015978 0.000000 0.000000 0.000000
# 4 0.000000 0.000000 0.000000 0.026474 0.000000 0.000000
# 5 0.000000 0.000000 0.000000 0.000000 0.038186 0.000000
# 6 0.000000 0.000000 0.000000 0.000000 0.000000 0.042044
#
#
# Mechanical properties :
#
#
# Convention : Reuss Voigt Hill
#
# Bulk Modulus (GPa) = 52.07048 57.84832 54.95940
# Shear Modulus (GPa) = 24.77187 26.65304 25.71246
#
# Velocity S-wave (km/s) = 3.53445 3.66619 3.60092
# Velocity P-wave (km/s) = 6.55097 6.86250 6.70854
#
# Compressibility (1/GPa) = 0.01920474
#
# Stress axis : x y z
#
# Youngs Moduli (GPa) = 41.00350 73.50331 62.58682
#
# Poissons Ratio (x) = 0.34382 0.46266
# Poissons Ratio (y) = 0.19180 0.33253
# Poissons Ratio (z) = 0.30311 0.39053
#
# Static dielectric constant tensor:
#      x y z
#    x 3.609550 0.000000 0.000000 
#    y 0.000000 3.628110 0.000000 
#    z 0.000000 0.000000 3.581690 
# 
# 
# High freq. dielectric constant tensor:
#      x y z
#    x 1.764860 0.000000 0.000000 
#    y 0.000000 1.772560 0.000000 
#    z 0.000000 0.000000 1.773030 
# 
# From -- ./inp_files/28300.got.cif
#   From: 2010.03.12/outbox.cif.g09.slc.cpg/sg59_15_cif.got.tgz:28300.got - 2010.04.16 16:29:54.
