data_PCOD8243904
_publ_section_title
;
Structure prediction by ZEFSAII (Michael W. Deem and Ramdas Pophale) SiO2 
 PCOD8243904
Probable space group: P M M N
;
_chemical_formula_sum "Si O2"
_cell_formula_units_Z 56
_cell_length_a 8.653151
_cell_length_b 21.123873
_cell_length_c 16.019315
_cell_angle_alpha 90.000000
_cell_angle_beta 90.000000
_cell_angle_gamma 90.000000
_cell_volume 2928.139556
_symmetry_space_group_name_H-M "P M M N"
_symmetry_group_IT_number 59
_space_group.IT_coordinate_system_code '2'
_symmetry_cell_setting 'orthorhombic'
loop_
_space_group_symop_operation_xyz
x,y,z
1/2-x,1/2-y,z
1/2+x,-y,-z
-x,1/2+y,-z
-x,-y,-z
1/2+x,1/2+y,-z
1/2-x,y,z
x,1/2-y,z
loop_
_atom_site_type_symbol
_atom_site_label
_atom_site_fract_x
_atom_site_fract_y
_atom_site_fract_z
Si Si1 0.927746 0.750000 0.631989
Si Si2 0.569756 0.250000 0.192852
Si Si3 0.073498 0.119790 0.176869
Si Si4 0.929590 0.360445 0.467237
Si Si5 0.574076 0.552783 0.654436
Si Si6 0.933585 0.066271 0.759693
Si Si7 0.568309 0.179176 0.650010
Si Si8 0.069841 0.502206 0.909013
O O1 0.750000 0.750000 0.663713
O O2 0.045563 0.750000 0.708403
O O3 0.958142 0.810722 0.575853
O O4 0.750000 0.250000 0.171525
O O5 0.489212 0.311297 0.152767
O O6 0.250000 0.112043 0.146638
O O7 0.062427 0.108830 0.276561
O O8 0.967270 0.069915 0.129936
O O9 0.750000 0.343684 0.452792
O O10 0.971399 0.358178 0.564930
O O11 0.970014 0.428597 0.426023
O O12 0.750000 0.543526 0.624432
O O13 0.510086 0.487895 0.694853
O O14 0.750000 0.062061 0.767319
O O15 0.990752 0.134784 0.726017
O O16 0.002976 0.054198 0.851169
O O17 0.750000 0.187232 0.657431
O O18 0.493073 0.250000 0.653676
O O19 0.250000 0.491969 0.915625
O O20 0.000000 0.500000 0.000000
#
# Coordination Sequence:
#
# PCOD8243904 Si02
#       8
#     4   4   8   8   8   8   8   8
#     4  12  22  32  46  70 107 152 195 236 280 322
#     4  12  22  32  52  82 115 152 191 230 274 332
#     4  10  20  35  55  82 117 152 184 223 278 333
#     4  11  20  31  50  76 106 145 197 242 276 321
#     4   9  18  31  48  74 110 146 183 226 282 336
#     4   9  19  37  59  81 110 145 183 229 287 344
#     4   9  18  34  56  80 106 145 194 240 282 327
#     4  11  22  39  64  90 114 140 181 228 277 342
#
# _framework density 19.124770999999999
#
# number of rings (size 3 to 8) (size 9 to 14) (size 15 to 20)
#    0.000    1.857    2.143    4.286    0.000    2.857 
#    0.000    1.429    1.571    0.000    0.000    0.000 
#    0.000    0.000    0.000    0.000    0.000    0.000 
#
# Total GULP energy -694327.604680 kJ/mol
# GULP energy per Si atom -12398.707226 kJ/mol
# Density = 1.908124 g / cm^3
# Si number density = 19.124771 Si / 1000 Ang^3
#
#
#
# Elastic Constant Matrix: (Units=GPa)
#
#
# Indices 1 2 3 4 5 6 
#
# 1 69.3344 28.0109 32.4976 0.0000 0.0000 0.0000
# 2 28.0109 99.4523 58.0299 0.0000 0.0000 0.0000
# 3 32.4976 58.0299 119.2514 0.0000 0.0000 0.0000
# 4 0.0000 0.0000 0.0000 16.3118 0.0000 0.0000
# 5 0.0000 0.0000 0.0000 0.0000 25.7996 0.0000
# 6 0.0000 0.0000 0.0000 0.0000 0.0000 26.0008
#
#
#
# Elastic Compliance Matrix: (Units=1/GPa)
#
#
# Indices 1 2 3 4 5 6 
#
# 1 0.017126 -0.002933 -0.003240 0.000000 0.000000 0.000000
# 2 -0.002933 0.014545 -0.006278 0.000000 0.000000 0.000000
# 3 -0.003240 -0.006278 0.012324 0.000000 0.000000 0.000000
# 4 0.000000 0.000000 0.000000 0.061305 0.000000 0.000000
# 5 0.000000 0.000000 0.000000 0.000000 0.038760 0.000000
# 6 0.000000 0.000000 0.000000 0.000000 0.000000 0.038460
#
#
# Mechanical properties :
#
#
# Convention : Reuss Voigt Hill
#
# Bulk Modulus (GPa) = 52.37818 58.34611 55.36215
# Shear Modulus (GPa) = 23.38772 24.92241 24.15506
#
# Velocity S-wave (km/s) = 3.50080 3.61383 3.55776
# Velocity P-wave (km/s) = 6.61724 6.92729 6.77404
#
# Compressibility (1/GPa) = 0.01909192
#
# Stress axis : x y z
#
# Youngs Moduli (GPa) = 58.38936 68.75402 81.14459
#
# Poissons Ratio (x) = 0.20168 0.26289
# Poissons Ratio (y) = 0.17127 0.50945
# Poissons Ratio (z) = 0.18917 0.43166
#
# Static dielectric constant tensor:
#      x y z
#    x 3.355700 0.000000 0.000000 
#    y 0.000000 3.707500 0.000000 
#    z 0.000000 0.000000 3.388390 
# 
# 
# High freq. dielectric constant tensor:
#      x y z
#    x 1.731090 0.000000 0.000000 
#    y 0.000000 1.745530 0.000000 
#    z 0.000000 0.000000 1.718070 
# 
# From -- ./inp_files/21234.got.cif
#   From: 2010.03.12/outbox.cif.g09.slc.cpg/sg59_11_cif.got.tgz:21234.got - 2010.04.16 16:29:54.
