data_PCOD8243161
_publ_section_title
;
Structure prediction by ZEFSAII (Michael W. Deem and Ramdas Pophale) SiO2 
 PCOD8243161
Probable space group: P M M N
;
_chemical_formula_sum "Si O2"
_cell_formula_units_Z 48
_cell_length_a 9.309524
_cell_length_b 30.042966
_cell_length_c 10.155752
_cell_angle_alpha 90.000000
_cell_angle_beta 90.000000
_cell_angle_gamma 90.000000
_cell_volume 2840.418739
_symmetry_space_group_name_H-M "P M M N"
_symmetry_group_IT_number 59
_space_group.IT_coordinate_system_code '2'
_symmetry_cell_setting 'orthorhombic'
loop_
_space_group_symop_operation_xyz
x,y,z
1/2-x,1/2-y,z
1/2+x,-y,-z
-x,1/2+y,-z
-x,-y,-z
1/2+x,1/2+y,-z
1/2-x,y,z
x,1/2-y,z
loop_
_atom_site_type_symbol
_atom_site_label
_atom_site_fract_x
_atom_site_fract_y
_atom_site_fract_z
Si Si1 0.585832 0.106479 0.789951
Si Si2 0.580156 0.976733 0.118943
Si Si3 0.416539 0.524900 0.612719
Si Si4 0.416352 0.201382 0.504659
Si Si5 0.914768 0.118974 0.482362
Si Si6 0.913094 0.297521 0.769757
O O1 0.750000 0.090785 0.813464
O O2 0.478619 0.073283 0.863662
O O3 0.549900 0.107442 0.634448
O O4 0.560231 0.156598 0.850959
O O5 0.750000 0.974863 0.092805
O O6 0.540337 0.005707 0.246359
O O7 0.500000 0.000000 0.000000
O O8 0.500000 0.500000 0.500000
O O9 0.250000 0.517722 0.582132
O O10 0.456472 0.577082 0.608512
O O11 0.250000 0.189475 0.511913
O O12 0.440726 0.250000 0.436604
O O13 0.495322 0.161267 0.428259
O O14 0.476334 0.203558 0.651335
O O15 0.750000 0.131877 0.465851
O O16 0.750000 0.300718 0.713145
O O17 0.930514 0.250000 0.849168
#
# Coordination Sequence:
#
# PCOD8243161 Si02
#       6
#     8   8   8   8   8   8
#     4   9  16  28  47  69  96 127 159 198 242 286
#     4  11  23  36  51  71  98 132 167 204 248 295
#     4  10  20  34  52  74  97 126 163 203 244 288
#     4   9  16  24  36  60  94 126 156 192 235 283
#     4   9  17  29  46  68  94 124 159 198 241 288
#     4   8  14  25  41  62  91 126 158 190 235 287
#
# _framework density 16.898916
#
# number of rings (size 3 to 8) (size 9 to 14) (size 15 to 20)
#    0.000    2.667    1.667    2.000    0.000    5.000 
#    0.000    0.000    0.000    0.000    0.000    1.167 
#    0.000    4.000    0.000    0.000    0.000    0.000 
#
# Total GULP energy -594678.352909 kJ/mol
# GULP energy per Si atom -12389.132352 kJ/mol
# Density = 1.686045 g / cm^3
# Si number density = 16.898916 Si / 1000 Ang^3
#
#
#
# Elastic Constant Matrix: (Units=GPa)
#
#
# Indices 1 2 3 4 5 6 
#
# 1 84.5253 74.9560 38.3281 0.0000 0.0000 0.0000
# 2 74.9560 180.6846 51.7207 0.0000 0.0000 0.0000
# 3 38.3281 51.7207 54.8007 0.0000 0.0000 0.0000
# 4 0.0000 0.0000 0.0000 13.2146 0.0000 0.0000
# 5 0.0000 0.0000 0.0000 0.0000 15.3289 0.0000
# 6 0.0000 0.0000 0.0000 0.0000 0.0000 33.7414
#
#
#
# Elastic Compliance Matrix: (Units=1/GPa)
#
#
# Indices 1 2 3 4 5 6 
#
# 1 0.021592 -0.006350 -0.009109 0.000000 0.000000 0.000000
# 2 -0.006350 0.009451 -0.004478 0.000000 0.000000 0.000000
# 3 -0.009109 -0.004478 0.028845 0.000000 0.000000 0.000000
# 4 0.000000 0.000000 0.000000 0.075674 0.000000 0.000000
# 5 0.000000 0.000000 0.000000 0.000000 0.065236 0.000000
# 6 0.000000 0.000000 0.000000 0.000000 0.000000 0.029637
#
#
# Mechanical properties :
#
#
# Convention : Reuss Voigt Hill
#
# Bulk Modulus (GPa) = 49.96450 72.22446 61.09448
# Shear Modulus (GPa) = 18.05182 22.79072 20.42127
#
# Velocity S-wave (km/s) = 3.27191 3.67638 3.48003
# Velocity P-wave (km/s) = 6.62607 7.80083 7.23732
#
# Compressibility (1/GPa) = 0.02001421
#
# Stress axis : x y z
#
# Youngs Moduli (GPa) = 46.31280 105.81234 34.66790
#
# Poissons Ratio (x) = 0.67192 0.31578
# Poissons Ratio (y) = 0.29409 0.15525
# Poissons Ratio (z) = 0.42185 0.47385
#
# Static dielectric constant tensor:
#      x y z
#    x 3.202830 0.000000 0.000000 
#    y 0.000000 3.860970 0.000000 
#    z 0.000000 0.000000 2.614740 
# 
# 
# High freq. dielectric constant tensor:
#      x y z
#    x 1.658080 0.000000 0.000000 
#    y 0.000000 1.682710 0.000000 
#    z 0.000000 0.000000 1.574130 
# 
# From -- ./inp_files/14520.got.cif
#   From: 2010.03.12/outbox.cif.g09.slc.cpg/sg59_8_cif.got.tgz:14520.got - 2010.04.16 16:29:54.
