data_PCOD8243980
_publ_section_title
;
Structure prediction by ZEFSAII (Michael W. Deem and Ramdas Pophale) SiO2 
 PCOD8243980
Probable space group: P M M N
;
_chemical_formula_sum "Si O2"
_cell_formula_units_Z 64
_cell_length_a 9.335059
_cell_length_b 28.372342
_cell_length_c 12.655931
_cell_angle_alpha 90.000000
_cell_angle_beta 90.000000
_cell_angle_gamma 90.000000
_cell_volume 3352.018074
_symmetry_space_group_name_H-M "P M M N"
_symmetry_group_IT_number 59
_space_group.IT_coordinate_system_code '2'
_symmetry_cell_setting 'orthorhombic'
loop_
_space_group_symop_operation_xyz
x,y,z
1/2-x,1/2-y,z
1/2+x,-y,-z
-x,1/2+y,-z
-x,-y,-z
1/2+x,1/2+y,-z
1/2-x,y,z
x,1/2-y,z
loop_
_atom_site_type_symbol
_atom_site_label
_atom_site_fract_x
_atom_site_fract_y
_atom_site_fract_z
Si Si1 0.084597 0.304534 0.415364
Si Si2 0.416217 0.804097 0.016112
Si Si3 0.587278 0.164079 0.212402
Si Si4 0.581673 0.981095 0.101047
Si Si5 0.587738 0.544529 0.534413
Si Si6 0.412552 0.939523 0.734940
Si Si7 0.579039 0.624091 0.163826
Si Si8 0.912110 0.633514 0.397771
O O1 0.250000 0.319729 0.401894
O O2 0.067278 0.250000 0.440911
O O3 0.013820 0.332348 0.515139
O O4 0.007949 0.317215 0.307236
O O5 0.250000 0.818146 0.029828
O O6 0.443081 0.750000 0.048519
O O7 0.464437 0.811253 0.895023
O O8 0.512785 0.837112 0.087986
O O9 0.750000 0.178491 0.238383
O O10 0.573636 0.107789 0.195541
O O11 0.750000 0.983459 0.077639
O O12 0.531127 0.928228 0.128486
O O13 0.540459 0.015084 0.198173
O O14 0.500000 0.000000 0.000000
O O15 0.500000 0.500000 0.500000
O O16 0.750000 0.530196 0.561129
O O17 0.517776 0.567907 0.636930
O O18 0.581791 0.580028 0.436860
O O19 0.250000 0.946160 0.693487
O O20 0.750000 0.627692 0.160914
O O21 0.517041 0.634839 0.281520
O O22 0.750000 0.651178 0.385331
#
# Coordination Sequence:
#
# PCOD8243980 Si02
#       8
#     8   8   8   8   8   8   8   8
#     4  10  20  35  57  84 113 146 187 235 285 340
#     4  10  22  40  60  83 113 150 190 236 295 353
#     4  10  20  36  59  84 114 149 186 233 287 345
#     4  10  21  37  57  83 116 153 196 243 290 343
#     4  11  21  35  56  81 113 150 188 231 279 336
#     4  10  20  35  56  83 114 148 189 236 285 340
#     4  10  21  38  60  84 112 149 193 240 286 339
#     4   9  19  37  57  80 112 148 185 231 285 335
#
# _framework density 19.092974000000002
#
# number of rings (size 3 to 8) (size 9 to 14) (size 15 to 20)
#    0.000    2.000    1.250    2.250    0.000    6.000 
#    0.000    4.375    0.000    0.000    0.000    0.000 
#    0.000    0.000    0.000    0.000    0.000    0.000 
#
# Total GULP energy -793641.737959 kJ/mol
# GULP energy per Si atom -12400.652156 kJ/mol
# Density = 1.904952 g / cm^3
# Si number density = 19.092974 Si / 1000 Ang^3
#
#
#
# Elastic Constant Matrix: (Units=GPa)
#
#
# Indices 1 2 3 4 5 6 
#
# 1 58.3352 32.8916 46.9998 0.0000 0.0000 0.0000
# 2 32.8916 102.6184 50.2670 0.0000 0.0000 0.0000
# 3 46.9998 50.2670 137.6675 0.0000 0.0000 0.0000
# 4 0.0000 0.0000 0.0000 34.8688 0.0000 0.0000
# 5 0.0000 0.0000 0.0000 0.0000 30.7525 0.0000
# 6 0.0000 0.0000 0.0000 0.0000 0.0000 29.0191
#
#
#
# Elastic Compliance Matrix: (Units=1/GPa)
#
#
# Indices 1 2 3 4 5 6 
#
# 1 0.025411 -0.004744 -0.006943 0.000000 0.000000 0.000000
# 2 -0.004744 0.012753 -0.003037 0.000000 0.000000 0.000000
# 3 -0.006943 -0.003037 0.010743 0.000000 0.000000 0.000000
# 4 0.000000 0.000000 0.000000 0.028679 0.000000 0.000000
# 5 0.000000 0.000000 0.000000 0.000000 0.032518 0.000000
# 6 0.000000 0.000000 0.000000 0.000000 0.000000 0.034460
#
#
# Mechanical properties :
#
#
# Convention : Reuss Voigt Hill
#
# Bulk Modulus (GPa) = 51.38943 62.10420 56.74681
# Shear Modulus (GPa) = 27.70106 30.15892 28.92999
#
# Velocity S-wave (km/s) = 3.81314 3.97871 3.89680
# Velocity P-wave (km/s) = 6.80885 7.32835 7.07337
#
# Compressibility (1/GPa) = 0.01945926
#
# Stress axis : x y z
#
# Youngs Moduli (GPa) = 39.35286 78.41299 93.08176
#
# Poissons Ratio (x) = 0.37197 0.64629
# Poissons Ratio (y) = 0.18668 0.28269
# Poissons Ratio (z) = 0.27324 0.23814
#
# Static dielectric constant tensor:
#      x y z
#    x 3.399950 0.000000 0.000000 
#    y 0.000000 3.753760 0.000000 
#    z 0.000000 0.000000 3.720630 
# 
# 
# High freq. dielectric constant tensor:
#      x y z
#    x 1.721730 0.000000 0.000000 
#    y 0.000000 1.756460 0.000000 
#    z 0.000000 0.000000 1.747810 
# 
# From -- ./inp_files/14882.got.cif
#   From: 2010.03.12/outbox.cif.g09.slc.cpg/sg59_8_cif.got.tgz:14882.got - 2010.04.16 16:29:54.
