data_PCOD8243355
_publ_section_title
;
Structure prediction by ZEFSAII (Michael W. Deem and Ramdas Pophale) SiO2 
 PCOD8243355
Probable space group: P M M N
;
_chemical_formula_sum "Si O2"
_cell_formula_units_Z 56
_cell_length_a 14.402049
_cell_length_b 14.708954
_cell_length_c 13.494841
_cell_angle_alpha 90.000000
_cell_angle_beta 90.000000
_cell_angle_gamma 90.000000
_cell_volume 2858.734652
_symmetry_space_group_name_H-M "P M M N"
_symmetry_group_IT_number 59
_space_group.IT_coordinate_system_code '2'
_symmetry_cell_setting 'orthorhombic'
loop_
_space_group_symop_operation_xyz
x,y,z
1/2-x,1/2-y,z
1/2+x,-y,-z
-x,1/2+y,-z
-x,-y,-z
1/2+x,1/2+y,-z
1/2-x,y,z
x,1/2-y,z
loop_
_atom_site_type_symbol
_atom_site_label
_atom_site_fract_x
_atom_site_fract_y
_atom_site_fract_z
Si Si1 0.552542 0.956256 0.407074
Si Si2 0.148695 0.911083 0.730823
Si Si3 0.453825 0.149548 0.244950
Si Si4 0.982510 0.357368 0.786075
Si Si5 0.851642 0.940359 0.103772
Si Si6 0.148548 0.143822 0.435195
Si Si7 0.359013 0.498935 0.115121
O O1 0.491353 0.910110 0.319552
O O2 0.614021 0.876154 0.454268
O O3 0.500000 0.000000 0.500000
O O4 0.623011 0.031256 0.366102
O O5 0.250000 0.863503 0.714429
O O6 0.065716 0.840719 0.752644
O O7 0.155376 0.975904 0.823689
O O8 0.412645 0.250000 0.225640
O O9 0.420959 0.106362 0.350113
O O10 0.416921 0.083422 0.161499
O O11 0.962291 0.250000 0.770220
O O12 0.074636 0.367792 0.853934
O O13 0.897413 0.404372 0.845265
O O14 0.750000 0.892432 0.094942
O O15 0.880414 0.986203 0.000354
O O16 0.250000 0.099850 0.417609
O O17 0.154654 0.250000 0.422508
O O18 0.250000 0.492566 0.140452
#
# Coordination Sequence:
#
# PCOD8243355 Si02
#       7
#     8   8   8   8   8   8   8
#     4  11  19  36  59  84 114 160 202 244 295 361
#     4  10  20  37  59  84 115 151 194 246 302 360
#     4  11  22  37  59  86 116 151 200 253 305 360
#     4  11  23  38  61  93 129 161 202 256 312 368
#     4   9  20  39  64  88 118 158 199 244 299 363
#     4  10  20  34  53  80 112 145 189 242 292 348
#     4  11  22  41  63  86 122 163 204 248 300 364
#
# _framework density 19.589086000000002
#
# number of rings (size 3 to 8) (size 9 to 14) (size 15 to 20)
#    0.000    1.571    4.286    1.714    0.000    2.857 
#    0.000    2.143    0.000    2.571    0.000    0.000 
#    0.000    0.000    0.000    0.000    0.000    0.000 
#
# Total GULP energy -693932.046572 kJ/mol
# GULP energy per Si atom -12391.643689 kJ/mol
# Density = 1.954450 g / cm^3
# Si number density = 19.589086 Si / 1000 Ang^3
#
#
#
# Elastic Constant Matrix: (Units=GPa)
#
#
# Indices 1 2 3 4 5 6 
#
# 1 132.0107 29.7211 55.4399 0.0000 0.0000 0.0000
# 2 29.7211 79.0137 32.2900 0.0000 0.0000 0.0000
# 3 55.4399 32.2900 117.9860 0.0000 0.0000 0.0000
# 4 0.0000 0.0000 0.0000 18.8459 0.0000 0.0000
# 5 0.0000 0.0000 0.0000 0.0000 23.5858 0.0000
# 6 0.0000 0.0000 0.0000 0.0000 0.0000 19.1824
#
#
#
# Elastic Compliance Matrix: (Units=1/GPa)
#
#
# Indices 1 2 3 4 5 6 
#
# 1 0.009714 -0.002014 -0.004013 0.000000 0.000000 0.000000
# 2 -0.002014 0.014667 -0.003068 0.000000 0.000000 0.000000
# 3 -0.004013 -0.003068 0.011201 0.000000 0.000000 0.000000
# 4 0.000000 0.000000 0.000000 0.053062 0.000000 0.000000
# 5 0.000000 0.000000 0.000000 0.000000 0.042398 0.000000
# 6 0.000000 0.000000 0.000000 0.000000 0.000000 0.052131
#
#
# Mechanical properties :
#
#
# Convention : Reuss Voigt Hill
#
# Bulk Modulus (GPa) = 57.49677 62.65692 60.07685
# Shear Modulus (GPa) = 24.13582 26.42679 25.28131
#
# Velocity S-wave (km/s) = 3.51394 3.67694 3.59636
# Velocity P-wave (km/s) = 6.77340 7.07683 6.92678
#
# Compressibility (1/GPa) = 0.01739228
#
# Stress axis : x y z
#
# Youngs Moduli (GPa) = 102.94418 68.17917 89.27800
#
# Poissons Ratio (x) = 0.13730 0.35830
# Poissons Ratio (y) = 0.20731 0.27389
# Poissons Ratio (z) = 0.41315 0.20916
#
# Static dielectric constant tensor:
#      x y z
#    x 4.272850 0.000000 0.000000 
#    y 0.000000 3.315780 0.000000 
#    z 0.000000 0.000000 3.818760 
# 
# 
# High freq. dielectric constant tensor:
#      x y z
#    x 1.772160 0.000000 0.000000 
#    y 0.000000 1.740020 0.000000 
#    z 0.000000 0.000000 1.775370 
# 
# From -- ./inp_files/16922.got.cif
#   From: 2010.03.12/outbox.cif.g09.slc.cpg/sg59_9_cif.got.tgz:16922.got - 2010.04.16 16:29:54.
