data_PCOD8243431
_publ_section_title
;
Structure prediction by ZEFSAII (Michael W. Deem and Ramdas Pophale) SiO2 
 PCOD8243431
Probable space group: P M M N
;
_chemical_formula_sum "Si O2"
_cell_formula_units_Z 48
_cell_length_a 9.120905
_cell_length_b 17.725561
_cell_length_c 15.381759
_cell_angle_alpha 90.000000
_cell_angle_beta 90.000000
_cell_angle_gamma 90.000000
_cell_volume 2486.817552
_symmetry_space_group_name_H-M "P M M N"
_symmetry_group_IT_number 59
_space_group.IT_coordinate_system_code '2'
_symmetry_cell_setting 'orthorhombic'
loop_
_space_group_symop_operation_xyz
x,y,z
1/2-x,1/2-y,z
1/2+x,-y,-z
-x,1/2+y,-z
-x,-y,-z
1/2+x,1/2+y,-z
1/2-x,y,z
x,1/2-y,z
loop_
_atom_site_type_symbol
_atom_site_label
_atom_site_fract_x
_atom_site_fract_y
_atom_site_fract_z
Si Si1 0.424057 0.077326 0.650997
Si Si2 0.920826 0.578695 0.011532
Si Si3 0.080349 0.337195 0.164995
Si Si4 0.581735 0.836820 0.517517
Si Si5 0.923744 0.093048 0.324817
Si Si6 0.575102 0.835104 0.181287
O O1 0.250000 0.082559 0.652858
O O2 0.483087 0.114000 0.561864
O O3 0.487358 0.123052 0.733303
O O4 0.478537 0.991440 0.654969
O O5 0.750000 0.561569 0.021729
O O6 0.982867 0.620269 0.097022
O O7 0.953046 0.633389 0.931119
O O8 0.000000 0.500000 0.000000
O O9 0.250000 0.348444 0.190091
O O10 0.035543 0.250000 0.169353
O O11 0.980988 0.384216 0.230566
O O12 0.750000 0.858293 0.537395
O O13 0.567964 0.750000 0.490289
O O14 0.487624 0.850956 0.603309
O O15 0.750000 0.098928 0.325169
O O16 0.750000 0.833706 0.181383
O O17 0.513300 0.750000 0.179686
#
# Coordination Sequence:
#
# PCOD8243431 Si02
#       6
#     8   8   8   8   8   8
#     4   9  18  32  51  77 106 134 167 210 260 311
#     4  10  20  34  54  80 108 138 172 211 257 306
#     4  10  21  37  55  76 105 142 182 219 255 302
#     4  10  20  35  55  77 102 135 174 213 255 308
#     4  11  22  35  53  78 107 137 171 215 266 314
#     4   9  16  29  52  79 103 129 168 216 256 294
#
# _framework density 19.301779
#
# number of rings (size 3 to 8) (size 9 to 14) (size 15 to 20)
#    0.000    2.167    0.000    3.500    0.000    8.667 
#    0.000    0.833    0.000    2.500    0.000    0.000 
#    0.000    0.000    0.000    0.000    0.000    0.000 
#
# Total GULP energy -595370.779748 kJ/mol
# GULP energy per Si atom -12403.557911 kJ/mol
# Density = 1.925785 g / cm^3
# Si number density = 19.301779 Si / 1000 Ang^3
#
#
#
# Elastic Constant Matrix: (Units=GPa)
#
#
# Indices 1 2 3 4 5 6 
#
# 1 40.0415 26.1589 27.4176 0.0000 0.0000 0.0000
# 2 26.1589 100.8466 22.6792 0.0000 0.0000 0.0000
# 3 27.4176 22.6792 107.1820 0.0000 0.0000 0.0000
# 4 0.0000 0.0000 0.0000 44.1600 0.0000 0.0000
# 5 0.0000 0.0000 0.0000 0.0000 19.1097 0.0000
# 6 0.0000 0.0000 0.0000 0.0000 0.0000 26.1745
#
#
#
# Elastic Compliance Matrix: (Units=1/GPa)
#
#
# Indices 1 2 3 4 5 6 
#
# 1 0.034827 -0.007382 -0.007347 0.000000 0.000000 0.000000
# 2 -0.007382 0.011976 -0.000646 0.000000 0.000000 0.000000
# 3 -0.007347 -0.000646 0.011346 0.000000 0.000000 0.000000
# 4 0.000000 0.000000 0.000000 0.022645 0.000000 0.000000
# 5 0.000000 0.000000 0.000000 0.000000 0.052329 0.000000
# 6 0.000000 0.000000 0.000000 0.000000 0.000000 0.038205
#
#
# Mechanical properties :
#
#
# Convention : Reuss Voigt Hill
#
# Bulk Modulus (GPa) = 36.49604 44.50904 40.50254
# Shear Modulus (GPa) = 23.67299 29.34313 26.50806
#
# Velocity S-wave (km/s) = 3.50589 3.90324 3.70989
# Velocity P-wave (km/s) = 5.94454 6.58964 6.27538
#
# Compressibility (1/GPa) = 0.02740023
#
# Stress axis : x y z
#
# Youngs Moduli (GPa) = 28.71315 83.50004 88.13698
#
# Poissons Ratio (x) = 0.61637 0.64755
# Poissons Ratio (y) = 0.21195 0.05692
# Poissons Ratio (z) = 0.21096 0.05392
#
# Static dielectric constant tensor:
#      x y z
#    x 3.168520 0.000000 0.000000 
#    y 0.000000 3.772480 0.000000 
#    z 0.000000 0.000000 3.718750 
# 
# 
# High freq. dielectric constant tensor:
#      x y z
#    x 1.706430 0.000000 0.000000 
#    y 0.000000 1.768050 0.000000 
#    z 0.000000 0.000000 1.769340 
# 
# From -- ./inp_files/20286.got.cif
#   From: 2010.03.12/outbox.cif.g09.slc.cpg/sg59_11_cif.got.tgz:20286.got - 2010.04.16 16:29:54.
