data_PCOD8243605
_publ_section_title
;
Structure prediction by ZEFSAII (Michael W. Deem and Ramdas Pophale) SiO2 
 PCOD8243605
Probable space group: P M M N
;
_chemical_formula_sum "Si O2"
_cell_formula_units_Z 64
_cell_length_a 13.938224
_cell_length_b 9.132704
_cell_length_c 26.374560
_cell_angle_alpha 90.000000
_cell_angle_beta 90.000000
_cell_angle_gamma 90.000000
_cell_volume 3357.314645
_symmetry_space_group_name_H-M "P M M N"
_symmetry_group_IT_number 59
_space_group.IT_coordinate_system_code '2'
_symmetry_cell_setting 'orthorhombic'
loop_
_space_group_symop_operation_xyz
x,y,z
1/2-x,1/2-y,z
1/2+x,-y,-z
-x,1/2+y,-z
-x,-y,-z
1/2+x,1/2+y,-z
1/2-x,y,z
x,1/2-y,z
loop_
_atom_site_type_symbol
_atom_site_label
_atom_site_fract_x
_atom_site_fract_y
_atom_site_fract_z
Si Si1 0.858937 0.918298 0.984380
Si Si2 0.646903 0.922116 0.729381
Si Si3 0.954558 0.420576 0.075082
Si Si4 0.979761 0.579346 0.447777
Si Si5 0.143976 0.911885 0.371608
Si Si6 0.638500 0.418754 0.366601
Si Si7 0.061104 0.577340 0.742359
Si Si8 0.859388 0.580561 0.165193
O O1 0.750000 0.951354 0.965972
O O2 0.868947 0.750000 0.002326
O O3 0.933588 0.949943 0.938787
O O4 0.884148 0.020297 0.031637
O O5 0.750000 0.985219 0.751216
O O6 0.653511 0.750000 0.729698
O O7 0.548998 0.967535 0.758228
O O8 0.633165 0.969483 0.671860
O O9 0.933613 0.250000 0.082229
O O10 0.932494 0.501538 0.127268
O O11 0.959135 0.750000 0.457125
O O12 0.891954 0.512531 0.415556
O O13 0.000000 0.500000 0.500000
O O14 0.075546 0.547430 0.417053
O O15 0.250000 0.915781 0.395022
O O16 0.120614 0.750000 0.349301
O O17 0.750000 0.445424 0.356321
O O18 0.616047 0.250000 0.378545
O O19 0.582362 0.469331 0.315678
O O20 0.079856 0.750000 0.749242
O O21 0.131008 0.489271 0.779253
O O22 0.750000 0.559371 0.146575
O O23 0.887191 0.750000 0.167808
#
# Coordination Sequence:
#
# PCOD8243605 Si02
#       8
#     8   8   8   8   8   8   8   8
#     4   9  18  34  56  82 114 151 189 231 282 336
#     4   9  17  31  55  84 108 131 164 209 259 313
#     4  10  20  34  55  83 113 148 191 236 281 331
#     4  11  23  37  55  79 109 142 179 220 267 324
#     4   9  18  33  53  76 101 131 166 207 257 310
#     4  10  21  38  59  82 110 143 179 223 275 328
#     4  10  20  36  59  84 111 143 182 224 271 328
#     4  11  24  39  55  78 110 148 189 234 282 328
#
# _framework density 19.062856
#
# number of rings (size 3 to 8) (size 9 to 14) (size 15 to 20)
#    0.000    2.125    1.250    1.875    0.000    6.000 
#    0.000    1.875    0.000    3.750    0.000    0.000 
#    0.000    0.000    0.000    0.000    0.000    0.000 
#
# Total GULP energy -793329.397957 kJ/mol
# GULP energy per Si atom -12395.771843 kJ/mol
# Density = 1.901947 g / cm^3
# Si number density = 19.062856 Si / 1000 Ang^3
#
#
#
# Elastic Constant Matrix: (Units=GPa)
#
#
# Indices 1 2 3 4 5 6 
#
# 1 111.8727 40.0129 29.3234 0.0000 0.0000 0.0000
# 2 40.0129 66.1424 40.8656 0.0000 0.0000 0.0000
# 3 29.3234 40.8656 81.8434 0.0000 0.0000 0.0000
# 4 0.0000 0.0000 0.0000 31.9380 0.0000 0.0000
# 5 0.0000 0.0000 0.0000 0.0000 24.8632 0.0000
# 6 0.0000 0.0000 0.0000 0.0000 0.0000 27.0799
#
#
#
# Elastic Compliance Matrix: (Units=1/GPa)
#
#
# Indices 1 2 3 4 5 6 
#
# 1 0.011456 -0.006355 -0.000931 0.000000 0.000000 0.000000
# 2 -0.006355 0.025389 -0.010400 0.000000 0.000000 0.000000
# 3 -0.000931 -0.010400 0.017745 0.000000 0.000000 0.000000
# 4 0.000000 0.000000 0.000000 0.031311 0.000000 0.000000
# 5 0.000000 0.000000 0.000000 0.000000 0.040220 0.000000
# 6 0.000000 0.000000 0.000000 0.000000 0.000000 0.036928
#
#
# Mechanical properties :
#
#
# Convention : Reuss Voigt Hill
#
# Bulk Modulus (GPa) = 52.03714 53.36249 52.69981
# Shear Modulus (GPa) = 24.41088 26.75332 25.58210
#
# Velocity S-wave (km/s) = 3.58236 3.75030 3.66729
# Velocity P-wave (km/s) = 6.66843 6.84154 6.75554
#
# Compressibility (1/GPa) = 0.01921704
#
# Stress axis : x y z
#
# Youngs Moduli (GPa) = 87.29264 39.38737 56.35332
#
# Poissons Ratio (x) = 0.25029 0.05249
# Poissons Ratio (y) = 0.55471 0.58609
# Poissons Ratio (z) = 0.08131 0.40964
#
# Static dielectric constant tensor:
#      x y z
#    x 3.943040 0.000000 0.000000 
#    y 0.000000 3.591240 0.000000 
#    z 0.000000 0.000000 3.224610 
# 
# 
# High freq. dielectric constant tensor:
#      x y z
#    x 1.758580 0.000000 0.000000 
#    y 0.000000 1.741100 0.000000 
#    z 0.000000 0.000000 1.715710 
# 
# From -- ./inp_files/31583.got.cif
#   From: 2010.03.12/outbox.cif.g09.slc.cpg/sg59_16_cif.got.tgz:31583.got - 2010.04.16 16:29:54.
