data_PCOD8243109
_publ_section_title
;
Structure prediction by ZEFSAII (Michael W. Deem and Ramdas Pophale) SiO2 
 PCOD8243109
Probable space group: P M M N
;
_chemical_formula_sum "Si O2"
_cell_formula_units_Z 64
_cell_length_a 9.214154
_cell_length_b 20.246508
_cell_length_c 20.564816
_cell_angle_alpha 90.000000
_cell_angle_beta 90.000000
_cell_angle_gamma 90.000000
_cell_volume 3836.457788
_symmetry_space_group_name_H-M "P M M N"
_symmetry_group_IT_number 59
_space_group.IT_coordinate_system_code '2'
_symmetry_cell_setting 'orthorhombic'
loop_
_space_group_symop_operation_xyz
x,y,z
1/2-x,1/2-y,z
1/2+x,-y,-z
-x,1/2+y,-z
-x,-y,-z
1/2+x,1/2+y,-z
1/2-x,y,z
x,1/2-y,z
loop_
_atom_site_type_symbol
_atom_site_label
_atom_site_fract_x
_atom_site_fract_y
_atom_site_fract_z
Si Si1 0.086737 0.914401 0.052889
Si Si2 0.586738 0.570920 0.929061
Si Si3 0.577705 0.434791 0.473982
Si Si4 0.921132 0.465658 0.332225
Si Si5 0.587453 0.899913 0.175031
Si Si6 0.918689 0.674377 0.445630
Si Si7 0.412492 0.556588 0.806906
Si Si8 0.078409 0.110693 0.684650
O O1 0.250000 0.887982 0.046043
O O2 0.014003 0.878801 0.115035
O O3 0.084234 0.992611 0.062367
O O4 0.000140 0.894809 0.987837
O O5 0.750000 0.598242 0.929813
O O6 0.514374 0.591069 0.860418
O O7 0.500000 0.500000 0.500000
O O8 0.750000 0.441561 0.484942
O O9 0.538503 0.426093 0.397518
O O10 0.518048 0.369762 0.508370
O O11 0.750000 0.472740 0.324835
O O12 0.975485 0.428962 0.266114
O O13 0.987336 0.539744 0.337134
O O14 0.750000 0.874063 0.160288
O O15 0.523689 0.869086 0.242764
O O16 0.590284 0.978366 0.183199
O O17 0.750000 0.654666 0.455117
O O18 0.946745 0.750000 0.464212
O O19 0.965283 0.663757 0.370246
O O20 0.250000 0.585181 0.815578
O O21 0.250000 0.104505 0.690663
#
# Coordination Sequence:
#
# PCOD8243109 Si02
#       8
#     8   8   8   8   8   8   8   8
#     4   9  15  21  29  43  66  96 132 171 206 248
#     4   9  15  21  29  43  67  98 131 167 206 251
#     4  11  20  32  51  72  95 122 156 198 240 288
#     4   8  14  25  43  62  82 109 145 185 227 274
#     4   8  13  21  35  50  67  96 134 175 212 252
#     4  10  20  34  51  70  95 126 159 195 238 289
#     4   8  13  22  35  50  68  97 134 171 212 258
#     4   8  13  25  43  61  82 110 146 183 224 272
#
# _framework density 16.682054999999998
#
# number of rings (size 3 to 8) (size 9 to 14) (size 15 to 20)
#    0.000    3.125    1.250    2.625    0.000    3.250 
#    0.000    1.875    0.000    0.000    0.000    0.000 
#    0.000    0.000    0.000    1.125    0.000   17.000 
#
# Total GULP energy -793009.884123 kJ/mol
# GULP energy per Si atom -12390.779439 kJ/mol
# Density = 1.664409 g / cm^3
# Si number density = 16.682055 Si / 1000 Ang^3
#
#
#
# Elastic Constant Matrix: (Units=GPa)
#
#
# Indices 1 2 3 4 5 6 
#
# 1 93.8463 22.3414 69.5199 0.0000 0.0000 0.0000
# 2 22.3414 35.0999 33.0533 0.0000 0.0000 0.0000
# 3 69.5199 33.0533 170.4476 0.0000 0.0000 0.0000
# 4 0.0000 0.0000 0.0000 10.7950 0.0000 0.0000
# 5 0.0000 0.0000 0.0000 0.0000 28.9391 0.0000
# 6 0.0000 0.0000 0.0000 0.0000 0.0000 11.2503
#
#
#
# Elastic Compliance Matrix: (Units=1/GPa)
#
#
# Indices 1 2 3 4 5 6 
#
# 1 0.015935 -0.004921 -0.005545 0.000000 0.000000 0.000000
# 2 -0.004921 0.036375 -0.005047 0.000000 0.000000 0.000000
# 3 -0.005545 -0.005047 0.009107 0.000000 0.000000 0.000000
# 4 0.000000 0.000000 0.000000 0.092636 0.000000 0.000000
# 5 0.000000 0.000000 0.000000 0.000000 0.034555 0.000000
# 6 0.000000 0.000000 0.000000 0.000000 0.000000 0.088887
#
#
# Mechanical properties :
#
#
# Convention : Reuss Voigt Hill
#
# Bulk Modulus (GPa) = 32.90400 61.02477 46.96439
# Shear Modulus (GPa) = 15.69116 21.82881 18.75998
#
# Velocity S-wave (km/s) = 3.07025 3.62127 3.35708
# Velocity P-wave (km/s) = 5.68644 7.35835 6.57575
#
# Compressibility (1/GPa) = 0.03039144
#
# Stress axis : x y z
#
# Youngs Moduli (GPa) = 62.75533 27.49152 109.80318
#
# Poissons Ratio (x) = 0.13529 0.60886
# Poissons Ratio (y) = 0.30882 0.55415
# Poissons Ratio (z) = 0.34798 0.13874
#
# Static dielectric constant tensor:
#      x y z
#    x 3.055910 0.000000 0.000000 
#    y 0.000000 2.488150 0.000000 
#    z 0.000000 0.000000 3.660740 
# 
# 
# High freq. dielectric constant tensor:
#      x y z
#    x 1.624350 0.000000 0.000000 
#    y 0.000000 1.558860 0.000000 
#    z 0.000000 0.000000 1.666690 
# 
# From -- ./inp_files/29785.got.cif
#   From: 2010.03.12/outbox.cif.g09.slc.cpg/sg59_15_cif.got.tgz:29785.got - 2010.04.16 16:29:54.
