data_PCOD8243409
_publ_section_title
;
Structure prediction by ZEFSAII (Michael W. Deem and Ramdas Pophale) SiO2 
 PCOD8243409
Probable space group: P M M N
;
_chemical_formula_sum "Si O2"
_cell_formula_units_Z 64
_cell_length_a 19.238615
_cell_length_b 8.846290
_cell_length_c 21.619082
_cell_angle_alpha 90.000000
_cell_angle_beta 90.000000
_cell_angle_gamma 90.000000
_cell_volume 3679.359510
_symmetry_space_group_name_H-M "P M M N"
_symmetry_group_IT_number 59
_space_group.IT_coordinate_system_code '2'
_symmetry_cell_setting 'orthorhombic'
loop_
_space_group_symop_operation_xyz
x,y,z
1/2-x,1/2-y,z
1/2+x,-y,-z
-x,1/2+y,-z
-x,-y,-z
1/2+x,1/2+y,-z
1/2-x,y,z
x,1/2-y,z
loop_
_atom_site_type_symbol
_atom_site_label
_atom_site_fract_x
_atom_site_fract_y
_atom_site_fract_z
Si Si1 0.535310 0.074389 0.324722
Si Si2 0.957997 0.571678 0.196003
Si Si3 0.034020 0.416454 0.088623
Si Si4 0.827117 0.079152 0.389910
Si Si5 0.105030 0.583839 0.988881
Si Si6 0.329006 0.074247 0.482926
Si Si7 0.961902 0.071123 0.558967
Si Si8 0.171227 0.928448 0.866441
O O1 0.514549 0.250000 0.323935
O O2 0.617873 0.051632 0.335518
O O3 0.516145 0.999436 0.259945
O O4 0.493619 0.991096 0.378215
O O5 0.955188 0.750000 0.201862
O O6 0.881010 0.512386 0.179572
O O7 0.015198 0.526076 0.145172
O O8 0.053223 0.250000 0.114091
O O9 0.969700 0.404326 0.042743
O O10 0.100139 0.479792 0.049968
O O11 0.750000 0.053410 0.362054
O O12 0.834808 0.250000 0.416283
O O13 0.841862 0.963651 0.445236
O O14 0.129579 0.750000 0.010435
O O15 0.158530 0.518058 0.937575
O O16 0.250000 0.033970 0.463826
O O17 0.345167 0.250000 0.473116
O O18 0.380793 0.975643 0.441161
O O19 0.970038 0.250000 0.556057
O O20 0.000000 0.000000 0.500000
O O21 0.250000 0.967610 0.847274
O O22 0.155478 0.750000 0.861758
#
# Coordination Sequence:
#
# PCOD8243409 Si02
#       8
#     8   8   8   8   8   8   8   8
#     4  11  22  36  53  74 102 138 178 221 266 320
#     4  11  22  34  48  69  99 134 172 214 255 303
#     4   9  16  28  46  67  92 123 159 200 246 294
#     4   9  18  32  50  71  96 130 170 210 254 308
#     4   8  14  25  44  70  95 121 157 202 246 285
#     4  10  20  34  54  79 105 132 165 208 258 313
#     4  12  23  36  55  79 107 138 172 217 271 323
#     4   9  18  33  51  71 100 139 178 211 246 294
#
# _framework density 17.394331999999999
#
# number of rings (size 3 to 8) (size 9 to 14) (size 15 to 20)
#    0.000    2.125    1.250    4.125    0.000    5.000 
#    0.000    1.250    0.000    0.000    0.000    0.875 
#    0.000    5.000    0.000    0.000    0.000    0.000 
#
# Total GULP energy -793471.781604 kJ/mol
# GULP energy per Si atom -12397.996588 kJ/mol
# Density = 1.735474 g / cm^3
# Si number density = 17.394332 Si / 1000 Ang^3
#
#
#
# Elastic Constant Matrix: (Units=GPa)
#
#
# Indices 1 2 3 4 5 6 
#
# 1 51.1978 36.2474 37.1091 0.0000 0.0000 0.0000
# 2 36.2474 119.4152 50.8116 0.0000 0.0000 0.0000
# 3 37.1091 50.8116 97.6113 0.0000 0.0000 0.0000
# 4 0.0000 0.0000 0.0000 30.9599 0.0000 0.0000
# 5 0.0000 0.0000 0.0000 0.0000 18.7827 0.0000
# 6 0.0000 0.0000 0.0000 0.0000 0.0000 22.7676
#
#
#
# Elastic Compliance Matrix: (Units=1/GPa)
#
#
# Indices 1 2 3 4 5 6 
#
# 1 0.029406 -0.005355 -0.008392 0.000000 0.000000 0.000000
# 2 -0.005355 0.011732 -0.004071 0.000000 0.000000 0.000000
# 3 -0.008392 -0.004071 0.015554 0.000000 0.000000 0.000000
# 4 0.000000 0.000000 0.000000 0.032300 0.000000 0.000000
# 5 0.000000 0.000000 0.000000 0.000000 0.053241 0.000000
# 6 0.000000 0.000000 0.000000 0.000000 0.000000 0.043922
#
#
# Mechanical properties :
#
#
# Convention : Reuss Voigt Hill
#
# Bulk Modulus (GPa) = 47.49230 57.39559 52.44395
# Shear Modulus (GPa) = 21.85224 24.10578 22.97901
#
# Velocity S-wave (km/s) = 3.54826 3.72673 3.63859
# Velocity P-wave (km/s) = 6.64450 7.18236 6.91866
#
# Compressibility (1/GPa) = 0.02105604
#
# Stress axis : x y z
#
# Youngs Moduli (GPa) = 34.00671 85.23716 64.29111
#
# Poissons Ratio (x) = 0.45646 0.53951
# Poissons Ratio (y) = 0.18211 0.26174
# Poissons Ratio (z) = 0.28537 0.34701
#
# Static dielectric constant tensor:
#      x y z
#    x 3.292220 0.000000 0.000000 
#    y 0.000000 3.411500 0.000000 
#    z 0.000000 0.000000 3.101440 
# 
# 
# High freq. dielectric constant tensor:
#      x y z
#    x 1.648370 0.000000 0.000000 
#    y 0.000000 1.681550 0.000000 
#    z 0.000000 0.000000 1.650130 
# 
# From -- ./inp_files/30970.got.cif
#   From: 2010.03.12/outbox.cif.g09.slc.cpg/sg59_16_cif.got.tgz:30970.got - 2010.04.16 16:29:54.
