data_PCOD8243323
_publ_section_title
;
Structure prediction by ZEFSAII (Michael W. Deem and Ramdas Pophale) SiO2 
 PCOD8243323
Probable space group: P M M N
;
_chemical_formula_sum "Si O2"
_cell_formula_units_Z 64
_cell_length_a 12.457342
_cell_length_b 13.568951
_cell_length_c 20.688792
_cell_angle_alpha 90.000000
_cell_angle_beta 90.000000
_cell_angle_gamma 90.000000
_cell_volume 3497.089885
_symmetry_space_group_name_H-M "P M M N"
_symmetry_group_IT_number 59
_space_group.IT_coordinate_system_code '2'
_symmetry_cell_setting 'orthorhombic'
loop_
_space_group_symop_operation_xyz
x,y,z
1/2-x,1/2-y,z
1/2+x,-y,-z
-x,1/2+y,-z
-x,-y,-z
1/2+x,1/2+y,-z
1/2-x,y,z
x,1/2-y,z
loop_
_atom_site_type_symbol
_atom_site_label
_atom_site_fract_x
_atom_site_fract_y
_atom_site_fract_z
Si Si1 0.480037 0.496094 0.285070
Si Si2 0.874558 0.035123 0.580097
Si Si3 0.984911 0.860189 0.518644
Si Si4 0.130911 0.860903 0.640281
Si Si5 0.876431 0.640171 0.818273
Si Si6 0.628086 0.526112 0.941482
Si Si7 0.953575 0.865877 0.061401
Si Si8 0.628105 0.635207 0.204122
O O1 0.406366 0.530516 0.344722
O O2 0.576073 0.426890 0.306536
O O3 0.403423 0.432421 0.239926
O O4 0.536701 0.586153 0.248464
O O5 0.750000 0.067738 0.574559
O O6 0.958274 0.112399 0.548911
O O7 0.888454 0.931823 0.541060
O O8 0.937407 0.750000 0.513575
O O9 0.077752 0.869357 0.570909
O O10 0.250000 0.901089 0.630817
O O11 0.128120 0.750000 0.666555
O O12 0.750000 0.649920 0.822906
O O13 0.925995 0.750000 0.808212
O O14 0.922024 0.593540 0.884486
O O15 0.750000 0.497703 0.926113
O O16 0.566464 0.422406 0.944854
O O17 0.624125 0.589588 0.006943
O O18 0.973395 0.750000 0.050239
O O19 0.897337 0.886701 0.129571
O O20 0.750000 0.597768 0.218712
O O21 0.620117 0.750000 0.219339
#
# Coordination Sequence:
#
# PCOD8243323 Si02
#       8
#     8   8   8   8   8   8   8   8
#     4  11  20  34  51  77 110 145 181 220 266 321
#     4  10  21  35  55  81 111 143 179 222 270 323
#     4   9  19  36  56  78 105 137 177 222 269 320
#     4   9  17  30  51  76 100 131 172 217 267 320
#     4  10  20  34  53  78 109 143 178 220 272 329
#     4  10  20  35  57  84 111 142 182 231 282 331
#     4  10  20  36  58  83 109 143 187 235 280 328
#     4  10  21  37  56  77 105 145 191 233 273 320
#
# _framework density 18.300930000000001
#
# number of rings (size 3 to 8) (size 9 to 14) (size 15 to 20)
#    0.000    2.125    1.250    2.250    0.000    3.500 
#    0.000    0.625    0.000    1.125    0.000    0.000 
#    0.000    0.000    0.000    0.000    0.000    0.000 
#
# Total GULP energy -793460.258755 kJ/mol
# GULP energy per Si atom -12397.816543 kJ/mol
# Density = 1.825928 g / cm^3
# Si number density = 18.300930 Si / 1000 Ang^3
#
#
#
# Elastic Constant Matrix: (Units=GPa)
#
#
# Indices 1 2 3 4 5 6 
#
# 1 51.8276 20.4373 12.8895 0.0000 0.0000 0.0000
# 2 20.4373 83.7422 31.2951 0.0000 0.0000 0.0000
# 3 12.8895 31.2951 91.8709 0.0000 0.0000 0.0000
# 4 0.0000 0.0000 0.0000 28.9779 0.0000 0.0000
# 5 0.0000 0.0000 0.0000 0.0000 18.2869 0.0000
# 6 0.0000 0.0000 0.0000 0.0000 0.0000 19.2585
#
#
#
# Elastic Compliance Matrix: (Units=1/GPa)
#
#
# Indices 1 2 3 4 5 6 
#
# 1 0.021507 -0.004722 -0.001409 0.000000 0.000000 0.000000
# 2 -0.004722 0.014720 -0.004352 0.000000 0.000000 0.000000
# 3 -0.001409 -0.004352 0.012565 0.000000 0.000000 0.000000
# 4 0.000000 0.000000 0.000000 0.034509 0.000000 0.000000
# 5 0.000000 0.000000 0.000000 0.000000 0.054684 0.000000
# 6 0.000000 0.000000 0.000000 0.000000 0.000000 0.051925
#
#
# Mechanical properties :
#
#
# Convention : Reuss Voigt Hill
#
# Bulk Modulus (GPa) = 35.93706 39.63162 37.78434
# Shear Modulus (GPa) = 22.71160 24.15925 23.43542
#
# Velocity S-wave (km/s) = 3.52662 3.63727 3.58237
# Velocity P-wave (km/s) = 6.02180 6.27234 6.14834
#
# Compressibility (1/GPa) = 0.02782643
#
# Stress axis : x y z
#
# Youngs Moduli (GPa) = 46.49583 67.93394 79.58686
#
# Poissons Ratio (x) = 0.32081 0.11213
# Poissons Ratio (y) = 0.21957 0.34634
# Poissons Ratio (z) = 0.06551 0.29563
#
# Static dielectric constant tensor:
#      x y z
#    x 3.247360 0.000000 0.000000 
#    y 0.000000 3.578600 0.000000 
#    z 0.000000 0.000000 3.450690 
# 
# 
# High freq. dielectric constant tensor:
#      x y z
#    x 1.701730 0.000000 0.000000 
#    y 0.000000 1.709250 0.000000 
#    z 0.000000 0.000000 1.717070 
# 
# From -- ./inp_files/27098.got.cif
#   From: 2010.03.12/outbox.cif.g09.slc.cpg/sg59_14_cif.got.tgz:27098.got - 2010.04.16 16:29:54.
