data_PCOD8243505
_publ_section_title
;
Structure prediction by ZEFSAII (Michael W. Deem and Ramdas Pophale) SiO2 
 PCOD8243505
Probable space group: P M M N
;
_chemical_formula_sum "Si O2"
_cell_formula_units_Z 56
_cell_length_a 8.766920
_cell_length_b 14.351388
_cell_length_c 23.871326
_cell_angle_alpha 90.000000
_cell_angle_beta 90.000000
_cell_angle_gamma 90.000000
_cell_volume 3003.429854
_symmetry_space_group_name_H-M "P M M N"
_symmetry_group_IT_number 59
_space_group.IT_coordinate_system_code '2'
_symmetry_cell_setting 'orthorhombic'
loop_
_space_group_symop_operation_xyz
x,y,z
1/2-x,1/2-y,z
1/2+x,-y,-z
-x,1/2+y,-z
-x,-y,-z
1/2+x,1/2+y,-z
1/2-x,y,z
x,1/2-y,z
loop_
_atom_site_type_symbol
_atom_site_label
_atom_site_fract_x
_atom_site_fract_y
_atom_site_fract_z
Si Si1 0.926838 0.856786 0.972818
Si Si2 0.569694 0.356384 0.238214
Si Si3 0.570159 0.144776 0.907012
Si Si4 0.928840 0.572173 0.654262
Si Si5 0.930142 0.056330 0.552673
Si Si6 0.931009 0.750000 0.590979
Si Si7 0.431597 0.250000 0.534147
Si Si8 0.569394 0.034930 0.128830
O O1 0.750000 0.883292 0.978053
O O2 0.949380 0.750000 0.954323
O O3 0.006175 0.921983 0.927912
O O4 0.006243 0.876211 0.031634
O O5 0.750000 0.353371 0.240569
O O6 0.504748 0.250000 0.244198
O O7 0.511147 0.427863 0.285856
O O8 0.512676 0.400640 0.179984
O O9 0.750000 0.131285 0.907837
O O10 0.526246 0.250000 0.887952
O O11 0.495934 0.070218 0.864274
O O12 0.750000 0.579269 0.665447
O O13 0.969414 0.487426 0.613235
O O14 0.995566 0.661291 0.622416
O O15 0.750000 0.058824 0.542374
O O16 0.000468 0.157835 0.561729
O O17 0.000000 0.000000 0.500000
O O18 0.750000 0.750000 0.588428
O O19 0.994593 0.750000 0.528710
O O20 0.250000 0.250000 0.539286
O O21 0.750000 0.030356 0.126585
#
# Coordination Sequence:
#
# PCOD8243505 Si02
#       8
#     8   8   8   8   8   4   4   8
#     4  10  20  34  54  82 114 146 182 221 267 326
#     4  10  22  38  56  82 112 142 180 225 272 325
#     4  10  21  37  57  80 107 141 183 228 274 325
#     4  10  20  36  57  80 111 147 183 225 272 327
#     4  11  22  36  56  85 117 151 189 229 280 336
#     4   9  16  31  53  81 113 145 179 218 269 324
#     4  11  21  37  57  83 119 151 185 232 281 332
#     4  11  22  36  55  79 112 147 179 224 277 325
#
# _framework density 18.645349
#
# number of rings (size 3 to 8) (size 9 to 14) (size 15 to 20)
#    0.000    1.714    2.143    2.786    0.000    4.571 
#    0.000    0.000    1.571    0.000    0.000    0.000 
#    0.000    0.000    0.000    0.000    0.000    0.000 
#
# Total GULP energy -694306.783063 kJ/mol
# GULP energy per Si atom -12398.335412 kJ/mol
# Density = 1.860291 g / cm^3
# Si number density = 18.645349 Si / 1000 Ang^3
#
#
#
# Elastic Constant Matrix: (Units=GPa)
#
#
# Indices 1 2 3 4 5 6 
#
# 1 72.3017 47.3199 38.0117 0.0000 0.0000 0.0000
# 2 47.3199 137.1786 56.7838 0.0000 0.0000 0.0000
# 3 38.0117 56.7838 84.0604 0.0000 0.0000 0.0000
# 4 0.0000 0.0000 0.0000 31.7001 0.0000 0.0000
# 5 0.0000 0.0000 0.0000 0.0000 29.4610 0.0000
# 6 0.0000 0.0000 0.0000 0.0000 0.0000 33.2665
#
#
#
# Elastic Compliance Matrix: (Units=1/GPa)
#
#
# Indices 1 2 3 4 5 6 
#
# 1 0.019852 -0.004348 -0.006040 0.000000 0.000000 0.000000
# 2 -0.004348 0.011072 -0.005513 0.000000 0.000000 0.000000
# 3 -0.006040 -0.005513 0.018352 0.000000 0.000000 0.000000
# 4 0.000000 0.000000 0.000000 0.031546 0.000000 0.000000
# 5 0.000000 0.000000 0.000000 0.000000 0.033943 0.000000
# 6 0.000000 0.000000 0.000000 0.000000 0.000000 0.030060
#
#
# Mechanical properties :
#
#
# Convention : Reuss Voigt Hill
#
# Bulk Modulus (GPa) = 57.22907 64.19684 60.71296
# Shear Modulus (GPa) = 27.40478 28.98054 28.19266
#
# Velocity S-wave (km/s) = 3.83795 3.94674 3.89272
# Velocity P-wave (km/s) = 7.09929 7.43467 7.26891
#
# Compressibility (1/GPa) = 0.01747364
#
# Stress axis : x y z
#
# Youngs Moduli (GPa) = 50.37311 90.32162 54.49138
#
# Poissons Ratio (x) = 0.39269 0.32913
# Poissons Ratio (y) = 0.21901 0.30041
# Poissons Ratio (z) = 0.30425 0.49794
#
# Static dielectric constant tensor:
#      x y z
#    x 3.366010 0.000000 0.000000 
#    y 0.000000 3.719040 0.000000 
#    z 0.000000 0.000000 3.421230 
# 
# 
# High freq. dielectric constant tensor:
#      x y z
#    x 1.724650 0.000000 0.000000 
#    y 0.000000 1.732900 0.000000 
#    z 0.000000 0.000000 1.707940 
# 
# From -- ./inp_files/29258.got.cif
#   From: 2010.03.12/outbox.cif.g09.slc.cpg/sg59_15_cif.got.tgz:29258.got - 2010.04.16 16:29:54.
