data_PCOD8243275
_publ_section_title
;
Structure prediction by ZEFSAII (Michael W. Deem and Ramdas Pophale) SiO2 
 PCOD8243275
Probable space group: P M M N
;
_chemical_formula_sum "Si O2"
_cell_formula_units_Z 40
_cell_length_a 8.928077
_cell_length_b 9.295566
_cell_length_c 25.821130
_cell_angle_alpha 90.000000
_cell_angle_beta 90.000000
_cell_angle_gamma 90.000000
_cell_volume 2142.935059
_symmetry_space_group_name_H-M "P M M N"
_symmetry_group_IT_number 59
_space_group.IT_coordinate_system_code '2'
_symmetry_cell_setting 'orthorhombic'
loop_
_space_group_symop_operation_xyz
x,y,z
1/2-x,1/2-y,z
1/2+x,-y,-z
-x,1/2+y,-z
-x,-y,-z
1/2+x,1/2+y,-z
1/2-x,y,z
x,1/2-y,z
loop_
_atom_site_type_symbol
_atom_site_label
_atom_site_fract_x
_atom_site_fract_y
_atom_site_fract_z
Si Si1 0.576653 0.418105 0.046536
Si Si2 0.925539 0.584132 0.847321
Si Si3 0.424191 0.418880 0.546959
Si Si4 0.421756 0.420553 0.754704
Si Si5 0.081095 0.579044 0.348836
O O1 0.750000 0.459372 0.048546
O O2 0.550457 0.250000 0.037714
O O3 0.502663 0.469186 0.100021
O O4 0.500000 0.500000 0.000000
O O5 0.750000 0.558949 0.853050
O O6 0.964957 0.750000 0.836155
O O7 0.986553 0.488834 0.801084
O O8 0.500000 0.500000 0.500000
O O9 0.250000 0.456780 0.548787
O O10 0.452167 0.250000 0.539930
O O11 0.498265 0.476866 0.599810
O O12 0.250000 0.470562 0.757224
O O13 0.436378 0.250000 0.758865
O O14 0.491802 0.478201 0.701083
O O15 0.250000 0.517736 0.347746
O O16 0.082262 0.750000 0.348496
#
# Coordination Sequence:
#
# PCOD8243275 Si02
#       5
#     8   8   8   8   8
#     4  10  21  37  57  80 106 138 175 214 258 308
#     4  10  21  37  56  78 106 140 175 213 260 310
#     4  10  20  34  53  77 105 137 173 214 260 310
#     4  10  20  34  54  80 107 136 173 215 257 305
#     4   9  17  31  52  76 103 136 172 212 259 308
#
# _framework density 18.665989
#
# number of rings (size 3 to 8) (size 9 to 14) (size 15 to 20)
#    0.000    2.200    0.000    3.000    0.000    8.000 
#    0.000    1.000    0.000    6.000    0.000    0.000 
#    0.000    0.000    0.000    0.000    0.000    0.000 
#
# Total GULP energy -496136.575686 kJ/mol
# GULP energy per Si atom -12403.414392 kJ/mol
# Density = 1.862350 g / cm^3
# Si number density = 18.665989 Si / 1000 Ang^3
#
#
#
# Elastic Constant Matrix: (Units=GPa)
#
#
# Indices 1 2 3 4 5 6 
#
# 1 130.1695 34.6021 77.4248 0.0000 0.0000 0.0000
# 2 34.6021 27.1894 41.7407 0.0000 0.0000 0.0000
# 3 77.4248 41.7407 179.6435 0.0000 0.0000 0.0000
# 4 0.0000 0.0000 0.0000 32.2658 0.0000 0.0000
# 5 0.0000 0.0000 0.0000 0.0000 46.9007 0.0000
# 6 0.0000 0.0000 0.0000 0.0000 0.0000 27.6140
#
#
#
# Elastic Compliance Matrix: (Units=1/GPa)
#
#
# Indices 1 2 3 4 5 6 
#
# 1 0.012342 -0.011722 -0.002596 0.000000 0.000000 0.000000
# 2 -0.011722 0.068306 -0.010819 0.000000 0.000000 0.000000
# 3 -0.002596 -0.010819 0.009199 0.000000 0.000000 0.000000
# 4 0.000000 0.000000 0.000000 0.030993 0.000000 0.000000
# 5 0.000000 0.000000 0.000000 0.000000 0.021322 0.000000
# 6 0.000000 0.000000 0.000000 0.000000 0.000000 0.036214
#
#
# Mechanical properties :
#
#
# Convention : Reuss Voigt Hill
#
# Bulk Modulus (GPa) = 25.26930 71.61529 48.44229
# Shear Modulus (GPa) = 20.67480 33.57176 27.12328
#
# Velocity S-wave (km/s) = 3.33170 4.24554 3.81607
# Velocity P-wave (km/s) = 5.32610 7.90460 6.73981
#
# Compressibility (1/GPa) = 0.03957372
#
# Stress axis : x y z
#
# Youngs Moduli (GPa) = 81.02243 14.63997 108.70597
#
# Poissons Ratio (x) = 0.17161 0.28217
# Poissons Ratio (y) = 0.94976 1.17609
# Poissons Ratio (z) = 0.21031 0.15839
#
# Static dielectric constant tensor:
#      x y z
#    x 3.611350 0.000000 0.000000 
#    y 0.000000 3.124120 0.000000 
#    z 0.000000 0.000000 3.622410 
# 
# 
# High freq. dielectric constant tensor:
#      x y z
#    x 1.746960 0.000000 0.000000 
#    y 0.000000 1.692020 0.000000 
#    z 0.000000 0.000000 1.742570 
# 
# From -- ./inp_files/26745.got.cif
#   From: 2010.03.12/outbox.cif.g09.slc.cpg/sg59_14_cif.got.tgz:26745.got - 2010.04.16 16:29:54.
