data_PCOD8243424
_publ_section_title
;
Structure prediction by ZEFSAII (Michael W. Deem and Ramdas Pophale) SiO2 
 PCOD8243424
Probable space group: P M M N
;
_chemical_formula_sum "Si O2"
_cell_formula_units_Z 48
_cell_length_a 8.859922
_cell_length_b 30.085679
_cell_length_c 9.561786
_cell_angle_alpha 90.000000
_cell_angle_beta 90.000000
_cell_angle_gamma 90.000000
_cell_volume 2548.758784
_symmetry_space_group_name_H-M "P M M N"
_symmetry_group_IT_number 59
_space_group.IT_coordinate_system_code '2'
_symmetry_cell_setting 'orthorhombic'
loop_
_space_group_symop_operation_xyz
x,y,z
1/2-x,1/2-y,z
1/2+x,-y,-z
-x,1/2+y,-z
-x,-y,-z
1/2+x,1/2+y,-z
1/2-x,y,z
x,1/2-y,z
loop_
_atom_site_type_symbol
_atom_site_label
_atom_site_fract_x
_atom_site_fract_y
_atom_site_fract_z
Si Si1 0.925844 0.049302 0.356963
Si Si2 0.573990 0.801347 0.352022
Si Si3 0.074630 0.052580 0.648116
Si Si4 0.571612 0.124500 0.148795
Si Si5 0.429195 0.874177 0.164946
Si Si6 0.573341 0.300651 0.356928
O O1 0.750000 0.056618 0.391904
O O2 0.981061 0.080044 0.229339
O O3 0.019753 0.063626 0.492389
O O4 0.958791 0.998620 0.314389
O O5 0.750000 0.811977 0.346640
O O6 0.538173 0.750000 0.321056
O O7 0.490195 0.829588 0.235037
O O8 0.513873 0.815139 0.503957
O O9 0.250000 0.064408 0.658666
O O10 0.983956 0.081710 0.758111
O O11 0.750000 0.125530 0.139191
O O12 0.514862 0.168206 0.231433
O O13 0.504761 0.124448 0.992736
O O14 0.250000 0.872980 0.167469
O O15 0.750000 0.307586 0.386398
O O16 0.536354 0.250000 0.314868
#
# Coordination Sequence:
#
# PCOD8243424 Si02
#       6
#     8   8   8   8   8   8
#     4   9  18  35  57  78 103 138 179 222 266 311
#     4  10  21  37  56  79 107 137 172 216 263 311
#     4  10  20  34  54  80 107 136 175 221 266 313
#     4   9  19  34  52  76 105 138 177 219 260 306
#     4  11  22  35  53  77 107 142 177 213 257 312
#     4   9  17  32  56  82 105 133 172 217 264 313
#
# _framework density 18.832697
#
# number of rings (size 3 to 8) (size 9 to 14) (size 15 to 20)
#    0.000    2.333    0.000    2.500    0.000    4.333 
#    0.000    5.000    0.000    2.000    0.000    0.000 
#    0.000    0.000    0.000    0.000    0.000    0.000 
#
# Total GULP energy -595315.515831 kJ/mol
# GULP energy per Si atom -12402.406580 kJ/mol
# Density = 1.878983 g / cm^3
# Si number density = 18.832697 Si / 1000 Ang^3
#
#
#
# Elastic Constant Matrix: (Units=GPa)
#
#
# Indices 1 2 3 4 5 6 
#
# 1 65.9007 40.5750 52.5606 0.0000 0.0000 0.0000
# 2 40.5750 125.3793 96.7190 0.0000 0.0000 0.0000
# 3 52.5606 96.7190 171.6104 0.0000 0.0000 0.0000
# 4 0.0000 0.0000 0.0000 12.9876 0.0000 0.0000
# 5 0.0000 0.0000 0.0000 0.0000 14.6098 0.0000
# 6 0.0000 0.0000 0.0000 0.0000 0.0000 26.0000
#
#
#
# Elastic Compliance Matrix: (Units=1/GPa)
#
#
# Indices 1 2 3 4 5 6 
#
# 1 0.020786 -0.003212 -0.004556 0.000000 0.000000 0.000000
# 2 -0.003212 0.014607 -0.007249 0.000000 0.000000 0.000000
# 3 -0.004556 -0.007249 0.011308 0.000000 0.000000 0.000000
# 4 0.000000 0.000000 0.000000 0.076997 0.000000 0.000000
# 5 0.000000 0.000000 0.000000 0.000000 0.068447 0.000000
# 6 0.000000 0.000000 0.000000 0.000000 0.000000 0.038462
#
#
# Mechanical properties :
#
#
# Convention : Reuss Voigt Hill
#
# Bulk Modulus (GPa) = 59.99810 82.51108 71.25459
# Shear Modulus (GPa) = 18.78323 22.25519 20.51921
#
# Velocity S-wave (km/s) = 3.16155 3.44136 3.30442
# Velocity P-wave (km/s) = 6.72717 7.72647 7.24407
#
# Compressibility (1/GPa) = 0.01666719
#
# Stress axis : x y z
#
# Youngs Moduli (GPa) = 48.10994 68.46032 88.43444
#
# Poissons Ratio (x) = 0.21991 0.40289
# Poissons Ratio (y) = 0.15454 0.64103
# Poissons Ratio (z) = 0.21918 0.49624
#
# Static dielectric constant tensor:
#      x y z
#    x 3.327290 0.000000 0.000000 
#    y 0.000000 3.622550 0.000000 
#    z 0.000000 0.000000 3.595510 
# 
# 
# High freq. dielectric constant tensor:
#      x y z
#    x 1.719040 0.000000 0.000000 
#    y 0.000000 1.746760 0.000000 
#    z 0.000000 0.000000 1.728150 
# 
# From -- ./inp_files/6257.got.cif
#   From: 2010.03.12/outbox.cif.g09.slc.cpg/sg59_4_cif.got.tgz:6257.got - 2010.04.16 16:29:54.
