data_PCOD8243735
_publ_section_title
;
Structure prediction by ZEFSAII (Michael W. Deem and Ramdas Pophale) SiO2 
 PCOD8243735
Probable space group: P M M N
;
_chemical_formula_sum "Si O2"
_cell_formula_units_Z 40
_cell_length_a 13.641359
_cell_length_b 22.917160
_cell_length_c 6.447882
_cell_angle_alpha 90.000000
_cell_angle_beta 90.000000
_cell_angle_gamma 90.000000
_cell_volume 2015.744652
_symmetry_space_group_name_H-M "P M M N"
_symmetry_group_IT_number 59
_space_group.IT_coordinate_system_code '2'
_symmetry_cell_setting 'orthorhombic'
loop_
_space_group_symop_operation_xyz
x,y,z
1/2-x,1/2-y,z
1/2+x,-y,-z
-x,1/2+y,-z
-x,-y,-z
1/2+x,1/2+y,-z
1/2-x,y,z
x,1/2-y,z
loop_
_atom_site_type_symbol
_atom_site_label
_atom_site_fract_x
_atom_site_fract_y
_atom_site_fract_z
Si Si1 0.362366 0.909050 0.283915
Si Si2 0.014965 0.388889 0.060178
Si Si3 0.031549 0.815881 0.560351
Si Si4 0.138349 0.137178 0.679904
Si Si5 0.860851 0.538132 0.633394
O O1 0.250000 0.899744 0.220389
O O2 0.394983 0.856294 0.430111
O O3 0.378015 0.969586 0.409069
O O4 0.424312 0.912850 0.072904
O O5 0.061320 0.440345 0.196923
O O6 0.974233 0.336797 0.202749
O O7 0.099668 0.362845 0.913840
O O8 0.071619 0.750000 0.556119
O O9 0.923243 0.817769 0.459523
O O10 0.250000 0.158222 0.677587
O O11 0.123953 0.072231 0.583135
O O12 0.750000 0.549036 0.716608
#
# Coordination Sequence:
#
# PCOD8243735 Si02
#       5
#     8   8   8   8   8
#     4  10  22  38  57  81 109 145 188 229 271 322
#     4  10  20  34  58  85 112 142 180 226 276 327
#     4  10  23  40  54  74 108 147 188 232 273 314
#     4   9  19  36  59  86 114 142 172 214 274 341
#     4   9  18  34  57  88 120 144 170 213 275 341
#
# _framework density 19.843783999999999
#
# number of rings (size 3 to 8) (size 9 to 14) (size 15 to 20)
#    0.000    2.400    0.000    1.200    0.000   14.400 
#    0.000    4.000    0.000    0.000    0.000    0.000 
#    0.000    0.000    0.000    0.000    0.000    0.000 
#
# Total GULP energy -496035.429509 kJ/mol
# GULP energy per Si atom -12400.885738 kJ/mol
# Density = 1.979862 g / cm^3
# Si number density = 19.843784 Si / 1000 Ang^3
#
#
#
# Elastic Constant Matrix: (Units=GPa)
#
#
# Indices 1 2 3 4 5 6 
#
# 1 91.0549 28.3708 32.8262 0.0000 0.0000 0.0000
# 2 28.3708 133.6602 36.9194 0.0000 0.0000 0.0000
# 3 32.8262 36.9194 94.3455 0.0000 0.0000 0.0000
# 4 0.0000 0.0000 0.0000 17.0128 0.0000 0.0000
# 5 0.0000 0.0000 0.0000 0.0000 22.7701 0.0000
# 6 0.0000 0.0000 0.0000 0.0000 0.0000 21.6828
#
#
#
# Elastic Compliance Matrix: (Units=1/GPa)
#
#
# Indices 1 2 3 4 5 6 
#
# 1 0.012885 -0.001678 -0.003826 0.000000 0.000000 0.000000
# 2 -0.001678 0.008607 -0.002784 0.000000 0.000000 0.000000
# 3 -0.003826 -0.002784 0.013020 0.000000 0.000000 0.000000
# 4 0.000000 0.000000 0.000000 0.058779 0.000000 0.000000
# 5 0.000000 0.000000 0.000000 0.000000 0.043917 0.000000
# 6 0.000000 0.000000 0.000000 0.000000 0.000000 0.046120
#
#
# Mechanical properties :
#
#
# Convention : Reuss Voigt Hill
#
# Bulk Modulus (GPa) = 55.75837 57.25481 56.50659
# Shear Modulus (GPa) = 24.28559 27.02273 25.65416
#
# Velocity S-wave (km/s) = 3.50214 3.69422 3.59946
# Velocity P-wave (km/s) = 6.67180 6.86380 6.76848
#
# Compressibility (1/GPa) = 0.01793453
#
# Stress axis : x y z
#
# Youngs Moduli (GPa) = 77.61160 116.18608 76.80363
#
# Poissons Ratio (x) = 0.19496 0.29388
# Poissons Ratio (y) = 0.13023 0.21384
# Poissons Ratio (z) = 0.29697 0.32349
#
# Static dielectric constant tensor:
#      x y z
#    x 3.726460 0.000000 0.000000 
#    y 0.000000 3.395530 0.000000 
#    z 0.000000 0.000000 3.533620 
# 
# 
# High freq. dielectric constant tensor:
#      x y z
#    x 1.782390 0.000000 0.000000 
#    y 0.000000 1.758100 0.000000 
#    z 0.000000 0.000000 1.769660 
# 
# From -- ./inp_files/2007.got.cif
#   From: 2010.03.12/outbox.cif.g09.slc.cpg/sg59_2_cif.got.tgz:2007.got - 2010.04.16 16:29:54.
