data_PCOD8243234
_publ_section_title
;
Structure prediction by ZEFSAII (Michael W. Deem and Ramdas Pophale) SiO2 
 PCOD8243234
Probable space group: P M M N
;
_chemical_formula_sum "Si O2"
_cell_formula_units_Z 48
_cell_length_a 9.228915
_cell_length_b 9.169106
_cell_length_c 30.994916
_cell_angle_alpha 90.000000
_cell_angle_beta 90.000000
_cell_angle_gamma 90.000000
_cell_volume 2622.817684
_symmetry_space_group_name_H-M "P M M N"
_symmetry_group_IT_number 59
_space_group.IT_coordinate_system_code '2'
_symmetry_cell_setting 'orthorhombic'
loop_
_space_group_symop_operation_xyz
x,y,z
1/2-x,1/2-y,z
1/2+x,-y,-z
-x,1/2+y,-z
-x,-y,-z
1/2+x,1/2+y,-z
1/2-x,y,z
x,1/2-y,z
loop_
_atom_site_type_symbol
_atom_site_label
_atom_site_fract_x
_atom_site_fract_y
_atom_site_fract_z
Si Si1 0.082755 0.421759 0.961815
Si Si2 0.582421 0.580370 0.791802
Si Si3 0.422234 0.414567 0.623375
Si Si4 0.421030 0.919231 0.538500
Si Si5 0.583868 0.079243 0.877039
Si Si6 0.079945 0.581688 0.707181
O O1 0.250000 0.468596 0.962326
O O2 0.063105 0.250000 0.967814
O O3 0.013269 0.474183 0.916868
O O4 0.000000 0.500000 0.000000
O O5 0.750000 0.545069 0.783871
O O6 0.553127 0.750000 0.799094
O O7 0.524630 0.498549 0.834166
O O8 0.495936 0.522298 0.750322
O O9 0.250000 0.414347 0.624233
O O10 0.483132 0.250000 0.620031
O O11 0.477010 0.508032 0.582737
O O12 0.480981 0.489180 0.666979
O O13 0.250000 0.939567 0.532831
O O14 0.465005 0.750000 0.538989
O O15 0.500000 0.000000 0.500000
O O16 0.750000 0.034563 0.886525
O O17 0.568224 0.250000 0.869465
O O18 0.250000 0.559803 0.713105
O O19 0.040272 0.750000 0.698639
#
# Coordination Sequence:
#
# PCOD8243234 Si02
#       6
#     8   8   8   8   8   8
#     4  10  21  36  54  77 104 134 169 209 253 301
#     4   9  18  32  49  70  97 128 161 198 243 294
#     4   9  17  30  49  72  97 127 164 204 246 294
#     4  10  20  34  53  76 102 133 169 209 254 304
#     4   9  18  33  51  70  96 130 164 199 243 294
#     4   9  17  30  48  69  93 122 158 199 241 287
#
# _framework density 18.300930000000001
#
# number of rings (size 3 to 8) (size 9 to 14) (size 15 to 20)
#    0.000    2.667    0.000    1.500    0.000    6.000 
#    0.000    2.500    0.000    3.000    0.000    0.000 
#    0.000    0.000    0.000    0.000    0.000    0.000 
#
# Total GULP energy -595284.626461 kJ/mol
# GULP energy per Si atom -12401.763051 kJ/mol
# Density = 1.825928 g / cm^3
# Si number density = 18.300930 Si / 1000 Ang^3
#
#
#
# Elastic Constant Matrix: (Units=GPa)
#
#
# Indices 1 2 3 4 5 6 
#
# 1 59.8084 39.9848 68.8715 0.0000 0.0000 0.0000
# 2 39.9848 94.5114 87.5813 0.0000 0.0000 0.0000
# 3 68.8715 87.5813 208.3062 0.0000 0.0000 0.0000
# 4 0.0000 0.0000 0.0000 42.1354 0.0000 0.0000
# 5 0.0000 0.0000 0.0000 0.0000 36.0154 0.0000
# 6 0.0000 0.0000 0.0000 0.0000 0.0000 21.6871
#
#
#
# Elastic Compliance Matrix: (Units=1/GPa)
#
#
# Indices 1 2 3 4 5 6 
#
# 1 0.028629 -0.005473 -0.007164 0.000000 0.000000 0.000000
# 2 -0.005473 0.018381 -0.005919 0.000000 0.000000 0.000000
# 3 -0.007164 -0.005919 0.009658 0.000000 0.000000 0.000000
# 4 0.000000 0.000000 0.000000 0.023733 0.000000 0.000000
# 5 0.000000 0.000000 0.000000 0.000000 0.027766 0.000000
# 6 0.000000 0.000000 0.000000 0.000000 0.000000 0.046110
#
#
# Mechanical properties :
#
#
# Convention : Reuss Voigt Hill
#
# Bulk Modulus (GPa) = 51.13599 83.94459 67.54029
# Shear Modulus (GPa) = 25.26429 31.04679 28.15554
#
# Velocity S-wave (km/s) = 3.71953 4.12328 3.92660
# Velocity P-wave (km/s) = 6.81534 8.28476 7.58571
#
# Compressibility (1/GPa) = 0.01955570
#
# Stress axis : x y z
#
# Youngs Moduli (GPa) = 34.92946 54.40463 103.54275
#
# Poissons Ratio (x) = 0.29775 0.74183
# Poissons Ratio (y) = 0.19117 0.61283
# Poissons Ratio (z) = 0.25025 0.32200
#
# Static dielectric constant tensor:
#      x y z
#    x 3.204200 0.000000 0.000000 
#    y 0.000000 3.507640 0.000000 
#    z 0.000000 0.000000 3.610060 
# 
# 
# High freq. dielectric constant tensor:
#      x y z
#    x 1.685540 0.000000 0.000000 
#    y 0.000000 1.708600 0.000000 
#    z 0.000000 0.000000 1.724880 
# 
# From -- ./inp_files/32809.got.cif
#   From: 2010.03.12/outbox.cif.g09.slc.cpg/sg59_17_cif.got.tgz:32809.got - 2010.04.16 16:29:54.
