data_PCOD8243988
_publ_section_title
;
Structure prediction by ZEFSAII (Michael W. Deem and Ramdas Pophale) SiO2 
 PCOD8243988
Probable space group: P M M N
;
_chemical_formula_sum "Si O2"
_cell_formula_units_Z 40
_cell_length_a 8.990594
_cell_length_b 20.408111
_cell_length_c 11.474483
_cell_angle_alpha 90.000000
_cell_angle_beta 90.000000
_cell_angle_gamma 90.000000
_cell_volume 2105.350078
_symmetry_space_group_name_H-M "P M M N"
_symmetry_group_IT_number 59
_space_group.IT_coordinate_system_code '2'
_symmetry_cell_setting 'orthorhombic'
loop_
_space_group_symop_operation_xyz
x,y,z
1/2-x,1/2-y,z
1/2+x,-y,-z
-x,1/2+y,-z
-x,-y,-z
1/2+x,1/2+y,-z
1/2-x,y,z
x,1/2-y,z
loop_
_atom_site_type_symbol
_atom_site_label
_atom_site_fract_x
_atom_site_fract_y
_atom_site_fract_z
Si Si1 0.422144 0.629170 0.241720
Si Si2 0.426440 0.376926 0.230630
Si Si3 0.573710 0.750000 0.627715
Si Si4 0.926105 0.750000 0.361691
Si Si5 0.923409 0.000362 0.621935
Si Si6 0.924787 0.428644 0.006942
O O1 0.250000 0.647068 0.260770
O O2 0.521224 0.687413 0.290002
O O3 0.470314 0.565311 0.311829
O O4 0.456572 0.614235 0.107529
O O5 0.250000 0.375658 0.208943
O O6 0.482366 0.313248 0.301007
O O7 0.479422 0.438978 0.304387
O O8 0.508751 0.382762 0.107645
O O9 0.750000 0.750000 0.620641
O O10 0.510239 0.750000 0.494951
O O11 0.750000 0.750000 0.365893
O O12 0.750000 0.995178 0.601313
O O13 0.000000 0.000000 0.500000
O O14 0.750000 0.440567 0.024458
O O15 0.000000 0.500000 0.000000
#
# Coordination Sequence:
#
# PCOD8243988 Si02
#       6
#     8   8   4   4   8   8
#     4  10  22  40  59  83 120 161 191 240 307 352
#     4  10  20  38  60  86 120 157 195 243 298 347
#     4   9  20  38  61  86 122 159 192 243 298 343
#     4  11  23  40  63  90 116 155 204 247 288 353
#     4  10  20  35  56  83 117 156 199 246 296 348
#     4  11  22  39  62  88 119 155 197 245 296 353
#
# _framework density 18.999216000000001
#
# number of rings (size 3 to 8) (size 9 to 14) (size 15 to 20)
#    0.000    1.800    2.000    2.100    0.000    5.600 
#    0.000    4.500    0.000    0.000    0.000    0.000 
#    0.000    0.000    0.000    0.000    0.000    0.000 
#
# Total GULP energy -496055.640881 kJ/mol
# GULP energy per Si atom -12401.391022 kJ/mol
# Density = 1.895597 g / cm^3
# Si number density = 18.999216 Si / 1000 Ang^3
#
#
#
# Elastic Constant Matrix: (Units=GPa)
#
#
# Indices 1 2 3 4 5 6 
#
# 1 57.2656 56.1291 59.1450 0.0000 0.0000 0.0000
# 2 56.1291 151.8882 89.3918 0.0000 0.0000 0.0000
# 3 59.1450 89.3918 176.6170 0.0000 0.0000 0.0000
# 4 0.0000 0.0000 0.0000 30.0258 0.0000 0.0000
# 5 0.0000 0.0000 0.0000 0.0000 38.3261 0.0000
# 6 0.0000 0.0000 0.0000 0.0000 0.0000 -28.2361
#
#
#
# Elastic Compliance Matrix: (Units=1/GPa)
#
#
# Indices 1 2 3 4 5 6 
#
# 1 0.032231 -0.007917 -0.006787 0.000000 0.000000 0.000000
# 2 -0.007917 0.011321 -0.003079 0.000000 0.000000 0.000000
# 3 -0.006787 -0.003079 0.009493 0.000000 0.000000 0.000000
# 4 0.000000 0.000000 0.000000 0.033305 0.000000 0.000000
# 5 0.000000 0.000000 0.000000 0.000000 0.026092 0.000000
# 6 0.000000 0.000000 0.000000 0.000000 0.000000 -0.035416
#
#
# Mechanical properties :
#
#
# Convention : Reuss Voigt Hill
#
# Bulk Modulus (GPa) = 57.20437 88.34472 72.77455
# Shear Modulus (GPa) = 42.22301 20.09682 31.15992
#
# Velocity S-wave (km/s) = 4.71930 3.25587 4.05416
# Velocity P-wave (km/s) = 7.73756 7.79322 7.76544
#
# Compressibility (1/GPa) = 0.01748118
#
# Stress axis : x y z
#
# Youngs Moduli (GPa) = 31.02559 88.32764 105.33984
#
# Poissons Ratio (x) = 0.69926 0.71491
# Poissons Ratio (y) = 0.24562 0.32435
# Poissons Ratio (z) = 0.21056 0.27197
#
# Static dielectric constant tensor:
#      x y z
#    x 3.311930 0.000000 0.000000 
#    y 0.000000 3.631570 0.000000 
#    z 0.000000 0.000000 3.682590 
# 
# 
# High freq. dielectric constant tensor:
#      x y z
#    x 1.724750 0.000000 0.000000 
#    y 0.000000 1.747910 0.000000 
#    z 0.000000 0.000000 1.757170 
# 
# From -- ./inp_files/14138.got.cif
#   From: 2010.03.12/outbox.cif.g09.slc.cpg/sg59_8_cif.got.tgz:14138.got - 2010.04.16 16:29:54.
