data_PCOD8243375
_publ_section_title
;
Structure prediction by ZEFSAII (Michael W. Deem and Ramdas Pophale) SiO2 
 PCOD8243375
Probable space group: P M M N
;
_chemical_formula_sum "Si O2"
_cell_formula_units_Z 48
_cell_length_a 8.990316
_cell_length_b 9.606606
_cell_length_c 29.494727
_cell_angle_alpha 90.000000
_cell_angle_beta 90.000000
_cell_angle_gamma 90.000000
_cell_volume 2547.354087
_symmetry_space_group_name_H-M "P M M N"
_symmetry_group_IT_number 59
_space_group.IT_coordinate_system_code '2'
_symmetry_cell_setting 'orthorhombic'
loop_
_space_group_symop_operation_xyz
x,y,z
1/2-x,1/2-y,z
1/2+x,-y,-z
-x,1/2+y,-z
-x,-y,-z
1/2+x,1/2+y,-z
1/2-x,y,z
x,1/2-y,z
loop_
_atom_site_type_symbol
_atom_site_label
_atom_site_fract_x
_atom_site_fract_y
_atom_site_fract_z
Si Si1 0.574135 0.086940 0.120015
Si Si2 0.075052 0.250000 0.451657
Si Si3 0.926989 0.085567 0.959359
Si Si4 0.421470 0.411483 0.695790
Si Si5 0.573981 0.595576 0.203819
Si Si6 0.425726 0.750000 0.451456
Si Si7 0.424793 0.999625 0.390935
O O1 0.750000 0.071131 0.110876
O O2 0.527725 0.250000 0.116699
O O3 0.484791 0.990251 0.085480
O O4 0.527385 0.025733 0.168974
O O5 0.250000 0.250000 0.460669
O O6 0.019869 0.374469 0.420889
O O7 0.997030 0.250000 0.499591
O O8 0.750000 0.072414 0.962607
O O9 0.973258 0.250000 0.960354
O O10 0.000000 0.000000 0.000000
O O11 0.250000 0.452255 0.693426
O O12 0.447531 0.250000 0.684470
O O13 0.486119 0.444351 0.746123
O O14 0.505668 0.504468 0.659042
O O15 0.750000 0.606663 0.206768
O O16 0.513393 0.750000 0.189315
O O17 0.250000 0.750000 0.458362
O O18 0.484217 0.624422 0.421512
O O19 0.250000 0.995616 0.383558
#
# Coordination Sequence:
#
# PCOD8243375 Si02
#       7
#     8   4   8   8   8   4   8
#     4  10  20  35  57  85 116 150 187 228 278 332
#     4  10  22  36  50  72 102 134 164 204 259 314
#     4  11  24  40  59  85 116 151 193 237 280 329
#     4   9  17  31  53  79 103 133 176 219 258 308
#     4   8  15  30  52  77 106 139 177 222 268 314
#     4  10  20  34  54  74  96 128 170 212 253 306
#     4  10  20  35  52  73 102 133 166 209 259 311
#
# _framework density 18.84308
#
# number of rings (size 3 to 8) (size 9 to 14) (size 15 to 20)
#    0.000    2.333    0.833    3.000    0.000    5.667 
#    1.500    0.833    0.000    1.000    0.000    0.000 
#    0.000    0.000    0.000    0.000    0.000    0.000 
#
# Total GULP energy -594846.818074 kJ/mol
# GULP energy per Si atom -12392.642043 kJ/mol
# Density = 1.880019 g / cm^3
# Si number density = 18.843080 Si / 1000 Ang^3
#
#
#
# Elastic Constant Matrix: (Units=GPa)
#
#
# Indices 1 2 3 4 5 6 
#
# 1 41.3558 37.1089 42.1120 0.0000 0.0000 0.0000
# 2 37.1089 149.6772 80.0364 0.0000 0.0000 0.0000
# 3 42.1120 80.0364 162.4400 0.0000 0.0000 0.0000
# 4 0.0000 0.0000 0.0000 358.1193 0.0000 0.0000
# 5 0.0000 0.0000 0.0000 0.0000 32.3576 0.0000
# 6 0.0000 0.0000 0.0000 0.0000 0.0000 28.0101
#
#
#
# Elastic Compliance Matrix: (Units=1/GPa)
#
#
# Indices 1 2 3 4 5 6 
#
# 1 0.035701 -0.005298 -0.006645 0.000000 0.000000 0.000000
# 2 -0.005298 0.009857 -0.003483 0.000000 0.000000 0.000000
# 3 -0.006645 -0.003483 0.009595 0.000000 0.000000 0.000000
# 4 0.000000 0.000000 0.000000 0.002792 0.000000 0.000000
# 5 0.000000 0.000000 0.000000 0.000000 0.030905 0.000000
# 6 0.000000 0.000000 0.000000 0.000000 0.000000 0.035701
#
#
# Mechanical properties :
#
#
# Convention : Reuss Voigt Hill
#
# Bulk Modulus (GPa) = 41.15114 74.66529 57.90821
# Shear Modulus (GPa) = 30.58032 96.64512 63.61272
#
# Velocity S-wave (km/s) = 4.03289 7.16943 5.81657
# Velocity P-wave (km/s) = 6.60090 10.40409 8.71255
#
# Compressibility (1/GPa) = 0.02430066
#
# Stress axis : x y z
#
# Youngs Moduli (GPa) = 28.01062 101.44927 104.22028
#
# Poissons Ratio (x) = 0.53747 0.69254
# Poissons Ratio (y) = 0.14840 0.36303
# Poissons Ratio (z) = 0.18613 0.35338
#
# Static dielectric constant tensor:
#      x y z
#    x 3.177880 0.000000 0.000000 
#    y 0.000000 3.610680 0.000000 
#    z 0.000000 0.000000 3.731700 
# 
# 
# High freq. dielectric constant tensor:
#      x y z
#    x 1.703460 0.000000 0.000000 
#    y 0.000000 1.734580 0.000000 
#    z 0.000000 0.000000 1.750310 
# 
# From -- ./inp_files/33057.got.cif
#   From: 2010.03.12/outbox.cif.g09.slc.cpg/sg59_17_cif.got.tgz:33057.got - 2010.04.16 16:29:54.
