data_PCOD8243250
_publ_section_title
;
Structure prediction by ZEFSAII (Michael W. Deem and Ramdas Pophale) SiO2 
 PCOD8243250
Probable space group: P M M N
;
_chemical_formula_sum "Si O2"
_cell_formula_units_Z 64
_cell_length_a 14.280591
_cell_length_b 9.256871
_cell_length_c 24.179636
_cell_angle_alpha 90.000000
_cell_angle_beta 90.000000
_cell_angle_gamma 90.000000
_cell_volume 3196.392856
_symmetry_space_group_name_H-M "P M M N"
_symmetry_group_IT_number 59
_space_group.IT_coordinate_system_code '2'
_symmetry_cell_setting 'orthorhombic'
loop_
_space_group_symop_operation_xyz
x,y,z
1/2-x,1/2-y,z
1/2+x,-y,-z
-x,1/2+y,-z
-x,-y,-z
1/2+x,1/2+y,-z
1/2-x,y,z
x,1/2-y,z
loop_
_atom_site_type_symbol
_atom_site_label
_atom_site_fract_x
_atom_site_fract_y
_atom_site_fract_z
Si Si1 0.144517 0.585014 0.769646
Si Si2 0.992060 0.418413 0.583765
Si Si3 0.361837 0.088416 0.084746
Si Si4 0.638247 0.913415 0.124761
Si Si5 0.641734 0.082390 0.482918
Si Si6 0.638126 0.086834 0.019445
Si Si7 0.979566 0.583302 0.694160
Si Si8 0.853971 0.922164 0.794687
O O1 0.250000 0.540662 0.754700
O O2 0.137713 0.750000 0.790647
O O3 0.102901 0.486921 0.818644
O O4 0.086917 0.564550 0.713171
O O5 0.011557 0.250000 0.591627
O O6 0.907250 0.448170 0.541575
O O7 0.958890 0.487125 0.641046
O O8 0.088756 0.491219 0.563939
O O9 0.250000 0.091620 0.084022
O O10 0.400415 0.250000 0.074430
O O11 0.393550 0.027294 0.145151
O O12 0.401864 0.986881 0.036271
O O13 0.750000 0.918167 0.123272
O O14 0.600841 0.750000 0.122126
O O15 0.597775 0.001750 0.072569
O O16 0.750000 0.033650 0.486472
O O17 0.633321 0.250000 0.466625
O O18 0.750000 0.081554 0.019376
O O19 0.601177 0.250000 0.021980
O O20 0.955892 0.750000 0.680441
O O21 0.917472 0.522032 0.744598
O O22 0.750000 0.984268 0.784788
O O23 0.852219 0.750000 0.795730
#
# Coordination Sequence:
#
# PCOD8243250 Si02
#       8
#     8   8   8   8   8   8   8   8
#     4   9  18  32  48  67  94 129 168 208 250 299
#     4  10  21  36  55  84 117 144 178 223 264 305
#     4   8  13  23  40  61  86 117 155 201 252 305
#     4   9  16  26  42  64  89 119 158 204 254 307
#     4   9  19  38  62  84 111 149 185 217 259 309
#     4   9  15  22  36  61  91 120 152 195 249 310
#     4  10  20  34  53  76 104 141 179 212 252 305
#     4   8  15  29  49  72  97 128 170 217 260 305
#
# _framework density 20.022570999999999
#
# number of rings (size 3 to 8) (size 9 to 14) (size 15 to 20)
#    0.000    3.000    0.000    1.875    0.000    5.250 
#    0.000    1.875    0.000    1.500    0.000    0.000 
#    0.000    0.000    0.000    0.000    0.000    0.000 
#
# Total GULP energy -793506.856450 kJ/mol
# GULP energy per Si atom -12398.544632 kJ/mol
# Density = 1.997700 g / cm^3
# Si number density = 20.022571 Si / 1000 Ang^3
#
#
#
# Elastic Constant Matrix: (Units=GPa)
#
#
# Indices 1 2 3 4 5 6 
#
# 1 47.4944 7.2378 8.3788 0.0000 0.0000 0.0000
# 2 7.2378 90.9289 43.3738 0.0000 0.0000 0.0000
# 3 8.3788 43.3738 107.3191 0.0000 0.0000 0.0000
# 4 0.0000 0.0000 0.0000 40.8675 0.0000 0.0000
# 5 0.0000 0.0000 0.0000 0.0000 19.5541 0.0000
# 6 0.0000 0.0000 0.0000 0.0000 0.0000 13.0806
#
#
#
# Elastic Compliance Matrix: (Units=1/GPa)
#
#
# Indices 1 2 3 4 5 6 
#
# 1 0.021442 -0.001125 -0.001219 0.000000 0.000000 0.000000
# 2 -0.001125 0.013683 -0.005442 0.000000 0.000000 0.000000
# 3 -0.001219 -0.005442 0.011613 0.000000 0.000000 0.000000
# 4 0.000000 0.000000 0.000000 0.024469 0.000000 0.000000
# 5 0.000000 0.000000 0.000000 0.000000 0.051140 0.000000
# 6 0.000000 0.000000 0.000000 0.000000 0.000000 0.076449
#
#
# Mechanical properties :
#
#
# Convention : Reuss Voigt Hill
#
# Bulk Modulus (GPa) = 32.08817 40.41371 36.25094
# Shear Modulus (GPa) = 22.24619 27.15058 24.69838
#
# Velocity S-wave (km/s) = 3.33687 3.68638 3.51597
# Velocity P-wave (km/s) = 5.55941 6.19251 5.88448
#
# Compressibility (1/GPa) = 0.03116413
#
# Stress axis : x y z
#
# Youngs Moduli (GPa) = 46.63814 73.08234 86.11213
#
# Poissons Ratio (x) = 0.08223 0.10500
# Poissons Ratio (y) = 0.05247 0.46865
# Poissons Ratio (z) = 0.05687 0.39774
#
# Static dielectric constant tensor:
#      x y z
#    x 3.505940 0.000000 0.000000 
#    y 0.000000 3.523970 0.000000 
#    z 0.000000 0.000000 3.679560 
# 
# 
# High freq. dielectric constant tensor:
#      x y z
#    x 1.769630 0.000000 0.000000 
#    y 0.000000 1.761550 0.000000 
#    z 0.000000 0.000000 1.780620 
# 
# From -- ./inp_files/32258.got.cif
#   From: 2010.03.12/outbox.cif.g09.slc.cpg/sg59_17_cif.got.tgz:32258.got - 2010.04.16 16:29:54.
