data_PCOD8243421
_publ_section_title
;
Structure prediction by ZEFSAII (Michael W. Deem and Ramdas Pophale) SiO2 
 PCOD8243421
Probable space group: P M M N
;
_chemical_formula_sum "Si O2"
_cell_formula_units_Z 48
_cell_length_a 9.233997
_cell_length_b 7.721525
_cell_length_c 34.459606
_cell_angle_alpha 90.000000
_cell_angle_beta 90.000000
_cell_angle_gamma 90.000000
_cell_volume 2456.988471
_symmetry_space_group_name_H-M "P M M N"
_symmetry_group_IT_number 59
_space_group.IT_coordinate_system_code '2'
_symmetry_cell_setting 'orthorhombic'
loop_
_space_group_symop_operation_xyz
x,y,z
1/2-x,1/2-y,z
1/2+x,-y,-z
-x,1/2+y,-z
-x,-y,-z
1/2+x,1/2+y,-z
1/2-x,y,z
x,1/2-y,z
loop_
_atom_site_type_symbol
_atom_site_label
_atom_site_fract_x
_atom_site_fract_y
_atom_site_fract_z
Si Si1 0.909107 0.449438 0.387461
Si Si2 0.418547 0.553030 0.961416
Si Si3 0.577513 0.557497 0.768801
Si Si4 0.580534 0.750000 0.096184
Si Si5 0.089337 0.044682 0.316804
Si Si6 0.577538 0.250000 0.822872
Si Si7 0.586014 0.452699 0.538368
O O1 0.750000 0.535469 0.393756
O O2 0.887055 0.250000 0.377822
O O3 0.987733 0.537177 0.350319
O O4 0.006264 0.462844 0.425475
O O5 0.250000 0.533300 0.970577
O O6 0.457830 0.750000 0.949106
O O7 0.464356 0.422645 0.927252
O O8 0.500000 0.500000 0.000000
O O9 0.750000 0.561575 0.767847
O O10 0.518549 0.750000 0.779496
O O11 0.524597 0.499911 0.725797
O O12 0.520745 0.420318 0.800297
O O13 0.750000 0.750000 0.106068
O O14 0.489343 0.750000 0.134964
O O15 0.250000 0.964184 0.321757
O O16 0.100247 0.250000 0.321214
O O17 0.750000 0.250000 0.826211
O O18 0.500000 0.500000 0.500000
O O19 0.750000 0.525320 0.535485
O O20 0.587981 0.250000 0.544585
#
# Coordination Sequence:
#
# PCOD8243421 Si02
#       7
#     8   8   8   4   8   4   8
#     4  10  20  34  54  81 111 140 172 213 261 316
#     4  10  20  35  57  82 109 144 185 229 281 336
#     4   8  15  30  52  77 106 139 179 229 279 322
#     4  10  22  38  52  76 116 150 178 226 284 338
#     4   8  14  28  51  75 101 136 172 210 263 318
#     4  10  20  34  54  80 106 142 192 236 272 326
#     4  11  24  40  57  78 103 135 175 215 259 314
#
# _framework density 19.536113
#
# number of rings (size 3 to 8) (size 9 to 14) (size 15 to 20)
#    0.000    2.500    0.833    2.500    0.000    5.667 
#    1.500    0.833    0.000    1.000    0.000    0.000 
#    0.000    0.000    0.000    0.000    0.000    0.000 
#
# Total GULP energy -595029.458885 kJ/mol
# GULP energy per Si atom -12396.447060 kJ/mol
# Density = 1.949165 g / cm^3
# Si number density = 19.536113 Si / 1000 Ang^3
#
#
#
# Elastic Constant Matrix: (Units=GPa)
#
#
# Indices 1 2 3 4 5 6 
#
# 1 96.6168 31.0799 67.1262 0.0000 0.0000 0.0000
# 2 31.0799 98.4232 61.9615 0.0000 0.0000 0.0000
# 3 67.1262 61.9615 177.9290 0.0000 0.0000 0.0000
# 4 0.0000 0.0000 0.0000 26.4926 0.0000 0.0000
# 5 0.0000 0.0000 0.0000 0.0000 36.5072 0.0000
# 6 0.0000 0.0000 0.0000 0.0000 0.0000 16.4444
#
#
#
# Elastic Compliance Matrix: (Units=1/GPa)
#
#
# Indices 1 2 3 4 5 6 
#
# 1 0.014180 -0.001422 -0.004855 0.000000 0.000000 0.000000
# 2 -0.001422 0.013156 -0.004045 0.000000 0.000000 0.000000
# 3 -0.004855 -0.004045 0.008860 0.000000 0.000000 0.000000
# 4 0.000000 0.000000 0.000000 0.037746 0.000000 0.000000
# 5 0.000000 0.000000 0.000000 0.000000 0.027392 0.000000
# 6 0.000000 0.000000 0.000000 0.000000 0.000000 0.060811
#
#
# Mechanical properties :
#
#
# Convention : Reuss Voigt Hill
#
# Bulk Modulus (GPa) = 64.29311 77.03381 70.66346
# Shear Modulus (GPa) = 26.59966 30.07562 28.33764
#
# Velocity S-wave (km/s) = 3.69394 3.92789 3.81271
# Velocity P-wave (km/s) = 7.15366 7.75166 7.45866
#
# Compressibility (1/GPa) = 0.01555377
#
# Stress axis : x y z
#
# Youngs Moduli (GPa) = 70.52018 76.01333 112.86291
#
# Poissons Ratio (x) = 0.10806 0.54791
# Poissons Ratio (y) = 0.10025 0.45652
# Poissons Ratio (z) = 0.34235 0.30747
#
# Static dielectric constant tensor:
#      x y z
#    x 3.680370 0.000000 0.000000 
#    y 0.000000 3.842190 0.000000 
#    z 0.000000 0.000000 3.604690 
# 
# 
# High freq. dielectric constant tensor:
#      x y z
#    x 1.742100 0.000000 0.000000 
#    y 0.000000 1.757680 0.000000 
#    z 0.000000 0.000000 1.761540 
# 
# From -- ./inp_files/32923.got.cif
#   From: 2010.03.12/outbox.cif.g09.slc.cpg/sg59_17_cif.got.tgz:32923.got - 2010.04.16 16:29:54.
