data_PCOD8243274
_publ_section_title
;
Structure prediction by ZEFSAII (Michael W. Deem and Ramdas Pophale) SiO2 
 PCOD8243274
Probable space group: P M M N
;
_chemical_formula_sum "Si O2"
_cell_formula_units_Z 48
_cell_length_a 9.197272
_cell_length_b 9.356181
_cell_length_c 30.715462
_cell_angle_alpha 90.000000
_cell_angle_beta 90.000000
_cell_angle_gamma 90.000000
_cell_volume 2643.106711
_symmetry_space_group_name_H-M "P M M N"
_symmetry_group_IT_number 59
_space_group.IT_coordinate_system_code '2'
_symmetry_cell_setting 'orthorhombic'
loop_
_space_group_symop_operation_xyz
x,y,z
1/2-x,1/2-y,z
1/2+x,-y,-z
-x,1/2+y,-z
-x,-y,-z
1/2+x,1/2+y,-z
1/2-x,y,z
x,1/2-y,z
loop_
_atom_site_type_symbol
_atom_site_label
_atom_site_fract_x
_atom_site_fract_y
_atom_site_fract_z
Si Si1 0.577813 0.088496 0.866396
Si Si2 0.919517 0.415612 0.206189
Si Si3 0.085593 0.584349 0.035976
Si Si4 0.914046 0.080315 0.623844
Si Si5 0.581139 0.916373 0.291336
Si Si6 0.919425 0.581447 0.461780
O O1 0.750000 0.071932 0.863319
O O2 0.532457 0.250000 0.853287
O O3 0.524039 0.055607 0.915506
O O4 0.503454 0.975036 0.835213
O O5 0.750000 0.442321 0.198396
O O6 0.957110 0.250000 0.211896
O O7 0.972518 0.497123 0.249342
O O8 0.250000 0.530303 0.034027
O O9 0.074603 0.750000 0.024578
O O10 0.000000 0.500000 0.000000
O O11 0.750000 0.019222 0.620559
O O12 0.911995 0.250000 0.624455
O O13 0.989306 0.024524 0.667907
O O14 0.008523 0.026989 0.583022
O O15 0.750000 0.944160 0.301559
O O16 0.550679 0.750000 0.282556
O O17 0.750000 0.540354 0.461245
O O18 0.941676 0.750000 0.468239
O O19 0.000000 0.500000 0.500000
#
# Coordination Sequence:
#
# PCOD8243274 Si02
#       6
#     8   8   8   8   8   8
#     4   9  19  36  55  74  99 133 172 211 250 296
#     4  10  21  35  51  75 106 136 167 206 253 303
#     4   9  19  35  53  75 103 133 167 208 252 299
#     4   9  17  30  50  75 100 128 167 213 256 299
#     4   9  17  31  51  72  95 127 167 208 250 298
#     4  10  20  34  53  77 105 137 173 212 254 302
#
# _framework density 18.160447999999999
#
# number of rings (size 3 to 8) (size 9 to 14) (size 15 to 20)
#    0.000    2.667    0.000    2.500    0.000    6.667 
#    0.000    7.500    0.000    3.000    0.000    0.000 
#    0.000    0.000    0.000    0.000    0.000    0.000 
#
# Total GULP energy -595215.262693 kJ/mol
# GULP energy per Si atom -12400.317973 kJ/mol
# Density = 1.811911 g / cm^3
# Si number density = 18.160448 Si / 1000 Ang^3
#
#
#
# Elastic Constant Matrix: (Units=GPa)
#
#
# Indices 1 2 3 4 5 6 
#
# 1 93.4218 40.1563 72.6147 0.0000 0.0000 0.0000
# 2 40.1563 59.9471 61.7836 0.0000 0.0000 0.0000
# 3 72.6147 61.7836 159.4158 0.0000 0.0000 0.0000
# 4 0.0000 0.0000 0.0000 32.4270 0.0000 0.0000
# 5 0.0000 0.0000 0.0000 0.0000 39.5315 0.0000
# 6 0.0000 0.0000 0.0000 0.0000 0.0000 26.8516
#
#
#
# Elastic Compliance Matrix: (Units=1/GPa)
#
#
# Indices 1 2 3 4 5 6 
#
# 1 0.017750 -0.005923 -0.005790 0.000000 0.000000 0.000000
# 2 -0.005923 0.029753 -0.008833 0.000000 0.000000 0.000000
# 3 -0.005790 -0.008833 0.012334 0.000000 0.000000 0.000000
# 4 0.000000 0.000000 0.000000 0.030839 0.000000 0.000000
# 5 0.000000 0.000000 0.000000 0.000000 0.025296 0.000000
# 6 0.000000 0.000000 0.000000 0.000000 0.000000 0.037242
#
#
# Mechanical properties :
#
#
# Convention : Reuss Voigt Hill
#
# Bulk Modulus (GPa) = 53.34845 73.54378 63.44612
# Shear Modulus (GPa) = 24.93103 28.97735 26.95419
#
# Velocity S-wave (km/s) = 3.70918 3.99887 3.85674
# Velocity P-wave (km/s) = 6.91259 7.86803 7.40573
#
# Compressibility (1/GPa) = 0.01874469
#
# Stress axis : x y z
#
# Youngs Moduli (GPa) = 56.33660 33.61047 81.07980
#
# Poissons Ratio (x) = 0.19908 0.46944
# Poissons Ratio (y) = 0.33369 0.71618
# Poissons Ratio (z) = 0.32618 0.29688
#
# Static dielectric constant tensor:
#      x y z
#    x 3.362130 0.000000 0.000000 
#    y 0.000000 3.138660 0.000000 
#    z 0.000000 0.000000 3.489460 
# 
# 
# High freq. dielectric constant tensor:
#      x y z
#    x 1.703660 0.000000 0.000000 
#    y 0.000000 1.680450 0.000000 
#    z 0.000000 0.000000 1.717760 
# 
# From -- ./inp_files/32831.got.cif
#   From: 2010.03.12/outbox.cif.g09.slc.cpg/sg59_17_cif.got.tgz:32831.got - 2010.04.16 16:29:54.
