data_PCOD8243829
_publ_section_title
;
Structure prediction by ZEFSAII (Michael W. Deem and Ramdas Pophale) SiO2 
 PCOD8243829
Probable space group: P M M N
;
_chemical_formula_sum "Si O2"
_cell_formula_units_Z 64
_cell_length_a 18.375468
_cell_length_b 8.986330
_cell_length_c 20.614063
_cell_angle_alpha 90.000000
_cell_angle_beta 90.000000
_cell_angle_gamma 90.000000
_cell_volume 3403.959394
_symmetry_space_group_name_H-M "P M M N"
_symmetry_group_IT_number 59
_space_group.IT_coordinate_system_code '2'
_symmetry_cell_setting 'orthorhombic'
loop_
_space_group_symop_operation_xyz
x,y,z
1/2-x,1/2-y,z
1/2+x,-y,-z
-x,1/2+y,-z
-x,-y,-z
1/2+x,1/2+y,-z
1/2-x,y,z
x,1/2-y,z
loop_
_atom_site_type_symbol
_atom_site_label
_atom_site_fract_x
_atom_site_fract_y
_atom_site_fract_z
Si Si1 0.333370 0.425592 0.560895
Si Si2 0.666377 0.076183 0.569677
Si Si3 0.582491 0.572963 0.313813
Si Si4 0.420659 0.423150 0.933882
Si Si5 0.331773 0.072846 0.809969
Si Si6 0.334464 0.075167 0.184718
Si Si7 0.411293 0.922974 0.067045
Si Si8 0.917187 0.073424 0.697050
O O1 0.250000 0.474251 0.573241
O O2 0.340192 0.250000 0.555019
O O3 0.363562 0.495250 0.494387
O O4 0.381964 0.488150 0.619878
O O5 0.750000 0.033985 0.582150
O O6 0.655201 0.250000 0.558956
O O7 0.621882 0.019161 0.631573
O O8 0.585801 0.750000 0.313895
O O9 0.627877 0.508337 0.253302
O O10 0.499976 0.517689 0.307445
O O11 0.406936 0.250000 0.949200
O O12 0.373503 0.481991 0.873813
O O13 0.504520 0.451602 0.915591
O O14 0.394958 0.518171 0.995173
O O15 0.250000 0.009824 0.811327
O O16 0.331886 0.250000 0.807411
O O17 0.250000 0.035804 0.194236
O O18 0.348360 0.250000 0.185464
O O19 0.360694 0.011527 0.116303
O O20 0.379662 0.001056 0.241901
O O21 0.391361 0.750000 0.070829
O O22 0.911571 0.250000 0.705957
#
# Coordination Sequence:
#
# PCOD8243829 Si02
#       8
#     8   8   8   8   8   8   8   8
#     4   9  17  30  50  75 103 136 172 210 252 299
#     4   9  18  32  49  70  98 132 168 207 255 311
#     4   9  17  30  49  75 104 132 168 213 255 298
#     4   9  18  33  53  79 109 139 173 212 254 302
#     4   9  16  27  47  74 102 132 166 206 252 300
#     4  11  24  39  55  77 105 135 170 217 267 313
#     4  10  20  35  56  79 105 139 175 212 255 306
#     4  10  20  35  55  76 100 133 172 213 258 311
#
# _framework density 18.801634
#
# number of rings (size 3 to 8) (size 9 to 14) (size 15 to 20)
#    0.000    2.500    0.000    2.250    0.000    7.000 
#    0.000    3.125    0.000    0.750    0.000    0.000 
#    0.000    0.000    0.000    0.000    0.000    0.000 
#
# Total GULP energy -793736.720675 kJ/mol
# GULP energy per Si atom -12402.136261 kJ/mol
# Density = 1.875884 g / cm^3
# Si number density = 18.801634 Si / 1000 Ang^3
#
#
#
# Elastic Constant Matrix: (Units=GPa)
#
#
# Indices 1 2 3 4 5 6 
#
# 1 104.6901 26.2755 71.6089 0.0000 0.0000 0.0000
# 2 26.2755 30.5587 28.4636 0.0000 0.0000 0.0000
# 3 71.6089 28.4636 143.2428 0.0000 0.0000 0.0000
# 4 0.0000 0.0000 0.0000 29.6826 0.0000 0.0000
# 5 0.0000 0.0000 0.0000 0.0000 42.2665 0.0000
# 6 0.0000 0.0000 0.0000 0.0000 0.0000 15.9479
#
#
#
# Elastic Compliance Matrix: (Units=1/GPa)
#
#
# Indices 1 2 3 4 5 6 
#
# 1 0.015857 -0.007670 -0.006403 0.000000 0.000000 0.000000
# 2 -0.007670 0.043867 -0.004882 0.000000 0.000000 0.000000
# 3 -0.006403 -0.004882 0.011152 0.000000 0.000000 0.000000
# 4 0.000000 0.000000 0.000000 0.033690 0.000000 0.000000
# 5 0.000000 0.000000 0.000000 0.000000 0.023659 0.000000
# 6 0.000000 0.000000 0.000000 0.000000 0.000000 0.062704
#
#
# Mechanical properties :
#
#
# Convention : Reuss Voigt Hill
#
# Bulk Modulus (GPa) = 30.33545 59.02085 44.67815
# Shear Modulus (GPa) = 20.84831 27.72230 24.28531
#
# Velocity S-wave (km/s) = 3.33356 3.84404 3.59787
# Velocity P-wave (km/s) = 5.56654 7.15274 6.40890
#
# Compressibility (1/GPa) = 0.03296474
#
# Stress axis : x y z
#
# Youngs Moduli (GPa) = 63.06480 22.79643 89.66904
#
# Poissons Ratio (x) = 0.17486 0.57413
# Poissons Ratio (y) = 0.48373 0.43778
# Poissons Ratio (z) = 0.40379 0.11130
#
# Static dielectric constant tensor:
#      x y z
#    x 3.590250 0.000000 0.000000 
#    y 0.000000 3.152860 0.000000 
#    z 0.000000 0.000000 3.639730 
# 
# 
# High freq. dielectric constant tensor:
#      x y z
#    x 1.733630 0.000000 0.000000 
#    y 0.000000 1.697580 0.000000 
#    z 0.000000 0.000000 1.747040 
# 
# From -- ./inp_files/30826.got.cif
#   From: 2010.03.12/outbox.cif.g09.slc.cpg/sg59_16_cif.got.tgz:30826.got - 2010.04.16 16:29:54.
