data_PCOD8243953
_publ_section_title
;
Structure prediction by ZEFSAII (Michael W. Deem and Ramdas Pophale) SiO2 
 PCOD8243953
Probable space group: P M M N
;
_chemical_formula_sum "Si O2"
_cell_formula_units_Z 48
_cell_length_a 8.976588
_cell_length_b 15.089584
_cell_length_c 19.007621
_cell_angle_alpha 90.000000
_cell_angle_beta 90.000000
_cell_angle_gamma 90.000000
_cell_volume 2574.638882
_symmetry_space_group_name_H-M "P M M N"
_symmetry_group_IT_number 59
_space_group.IT_coordinate_system_code '2'
_symmetry_cell_setting 'orthorhombic'
loop_
_space_group_symop_operation_xyz
x,y,z
1/2-x,1/2-y,z
1/2+x,-y,-z
-x,1/2+y,-z
-x,-y,-z
1/2+x,1/2+y,-z
1/2-x,y,z
x,1/2-y,z
loop_
_atom_site_type_symbol
_atom_site_label
_atom_site_fract_x
_atom_site_fract_y
_atom_site_fract_z
Si Si1 0.927420 0.750000 0.728243
Si Si2 0.572974 0.750000 0.949216
Si Si3 0.426950 0.109266 0.161112
Si Si4 0.927180 0.750000 0.570761
Si Si5 0.423583 0.587412 0.184498
Si Si6 0.925579 0.589287 0.476225
Si Si7 0.573042 0.750000 0.107772
Si Si8 0.919140 0.352340 0.661414
O O1 0.750000 0.750000 0.724708
O O2 0.983256 0.837765 0.769607
O O3 0.994750 0.750000 0.649550
O O4 0.750000 0.750000 0.949375
O O5 0.510130 0.750000 0.028073
O O6 0.516692 0.661645 0.908371
O O7 0.250000 0.106628 0.163153
O O8 0.486461 0.008534 0.160330
O O9 0.750000 0.750000 0.573058
O O10 0.985707 0.664536 0.528979
O O11 0.250000 0.600644 0.166005
O O12 0.516272 0.661973 0.145149
O O13 0.448966 0.593017 0.267879
O O14 0.750000 0.579530 0.480847
O O15 0.000000 0.500000 0.500000
O O16 0.968425 0.612485 0.396799
O O17 0.750000 0.750000 0.109630
O O18 0.750000 0.366622 0.635068
O O19 0.950861 0.250000 0.678084
#
# Coordination Sequence:
#
# PCOD8243953 Si02
#       8
#     4   4   8   4   8   8   4   8
#     4   8  14  27  49  77 101 127 166 219 270 305
#     4   8  16  32  50  78 112 140 171 214 272 327
#     4   8  15  29  53  79 104 133 171 219 268 318
#     4   9  19  33  51  75 105 134 177 229 265 310
#     4  10  20  35  56  82 106 137 185 229 265 315
#     4  11  23  38  55  81 112 146 185 226 272 326
#     4  11  22  34  51  76 114 149 174 216 271 326
#     4  10  20  36  56  77 107 143 180 230 280 322
#
# _framework density 18.643391000000001
#
# number of rings (size 3 to 8) (size 9 to 14) (size 15 to 20)
#    0.000    2.500    1.667    1.750    2.333    1.333 
#    0.000    0.000    0.000    1.000    0.000    1.750 
#    0.000    0.000    0.000    0.000    0.000    0.000 
#
# Total GULP energy -595122.517903 kJ/mol
# GULP energy per Si atom -12398.385790 kJ/mol
# Density = 1.860096 g / cm^3
# Si number density = 18.643391 Si / 1000 Ang^3
#
#
#
# Elastic Constant Matrix: (Units=GPa)
#
#
# Indices 1 2 3 4 5 6 
#
# 1 41.8424 36.9266 33.2921 0.0000 0.0000 0.0000
# 2 36.9266 170.7173 69.7188 0.0000 0.0000 0.0000
# 3 33.2921 69.7188 129.0578 0.0000 0.0000 0.0000
# 4 0.0000 0.0000 0.0000 19.0255 0.0000 0.0000
# 5 0.0000 0.0000 0.0000 0.0000 20.5845 0.0000
# 6 0.0000 0.0000 0.0000 0.0000 0.0000 18.1016
#
#
#
# Elastic Compliance Matrix: (Units=1/GPa)
#
#
# Indices 1 2 3 4 5 6 
#
# 1 0.032725 -0.004659 -0.005925 0.000000 0.000000 0.000000
# 2 -0.004659 0.008179 -0.003217 0.000000 0.000000 0.000000
# 3 -0.005925 -0.003217 0.011015 0.000000 0.000000 0.000000
# 4 0.000000 0.000000 0.000000 0.052561 0.000000 0.000000
# 5 0.000000 0.000000 0.000000 0.000000 0.048580 0.000000
# 6 0.000000 0.000000 0.000000 0.000000 0.000000 0.055244
#
#
# Mechanical properties :
#
#
# Convention : Reuss Voigt Hill
#
# Bulk Modulus (GPa) = 41.12247 69.05471 55.08859
# Shear Modulus (GPa) = 20.49094 24.98766 22.73930
#
# Velocity S-wave (km/s) = 3.31886 3.66498 3.49621
# Velocity P-wave (km/s) = 6.06562 7.41819 6.77574
#
# Compressibility (1/GPa) = 0.02431761
#
# Stress axis : x y z
#
# Youngs Moduli (GPa) = 30.55768 122.26503 90.78883
#
# Poissons Ratio (x) = 0.56960 0.53793
# Poissons Ratio (y) = 0.14236 0.29203
# Poissons Ratio (z) = 0.18106 0.39328
#
# Static dielectric constant tensor:
#      x y z
#    x 2.983850 0.000000 0.000000 
#    y 0.000000 3.689690 0.000000 
#    z 0.000000 0.000000 3.394570 
# 
# 
# High freq. dielectric constant tensor:
#      x y z
#    x 1.677770 0.000000 0.000000 
#    y 0.000000 1.736980 0.000000 
#    z 0.000000 0.000000 1.731600 
# 
# From -- ./inp_files/25662.got.cif
#   From: 2010.03.12/outbox.cif.g09.slc.cpg/sg59_13_cif.got.tgz:25662.got - 2010.04.16 16:29:54.
