data_PCOD8243007
_publ_section_title
;
Structure prediction by ZEFSAII (Michael W. Deem and Ramdas Pophale) SiO2 
 PCOD8243007
Probable space group: P M M N
;
_chemical_formula_sum "Si O2"
_cell_formula_units_Z 48
_cell_length_a 8.947018
_cell_length_b 9.276299
_cell_length_c 30.772919
_cell_angle_alpha 90.000000
_cell_angle_beta 90.000000
_cell_angle_gamma 90.000000
_cell_volume 2554.005002
_symmetry_space_group_name_H-M "P M M N"
_symmetry_group_IT_number 59
_space_group.IT_coordinate_system_code '2'
_symmetry_cell_setting 'orthorhombic'
loop_
_space_group_symop_operation_xyz
x,y,z
1/2-x,1/2-y,z
1/2+x,-y,-z
-x,1/2+y,-z
-x,-y,-z
1/2+x,1/2+y,-z
1/2-x,y,z
x,1/2-y,z
loop_
_atom_site_type_symbol
_atom_site_label
_atom_site_fract_x
_atom_site_fract_y
_atom_site_fract_z
Si Si1 0.074797 0.915583 0.127758
Si Si2 0.572839 0.591106 0.287447
Si Si3 0.922991 0.918545 0.039072
Si Si4 0.575986 0.081628 0.205045
Si Si5 0.073874 0.415963 0.460672
Si Si6 0.076608 0.418605 0.615534
O O1 0.250000 0.936350 0.121508
O O2 0.032149 0.750000 0.137356
O O3 0.995487 0.970662 0.084076
O O4 0.019135 0.011607 0.167129
O O5 0.750000 0.599105 0.287920
O O6 0.508339 0.750000 0.276320
O O7 0.516634 0.479541 0.251086
O O8 0.521582 0.543488 0.335581
O O9 0.750000 0.959714 0.040290
O O10 0.949817 0.750000 0.032078
O O11 0.000000 0.000000 0.000000
O O12 0.750000 0.044485 0.197981
O O13 0.545602 0.250000 0.205112
O O14 0.250000 0.430184 0.465329
O O15 0.022642 0.250000 0.462120
O O16 0.000000 0.500000 0.500000
O O17 0.023690 0.484975 0.415490
O O18 0.250000 0.458557 0.608708
O O19 0.051397 0.250000 0.605601
#
# Coordination Sequence:
#
# PCOD8243007 Si02
#       6
#     8   8   8   8   8   8
#     4  10  21  37  56  77 103 139 182 223 264 313
#     4   8  15  30  53  79 107 140 177 217 260 309
#     4  10  21  37  58  83 109 139 175 216 264 316
#     4  10  20  33  52  80 110 140 177 220 265 313
#     4  11  24  39  55  78 107 139 177 219 263 314
#     4   9  18  34  57  84 110 137 174 218 263 314
#
# _framework density 18.794011000000001
#
# number of rings (size 3 to 8) (size 9 to 14) (size 15 to 20)
#    0.000    2.333    0.000    3.500    0.000    8.000 
#    0.000    2.500    0.000    1.000    0.000    0.000 
#    0.000    0.000    0.000    0.000    0.000    0.000 
#
# Total GULP energy -595266.051005 kJ/mol
# GULP energy per Si atom -12401.376063 kJ/mol
# Density = 1.875124 g / cm^3
# Si number density = 18.794011 Si / 1000 Ang^3
#
#
#
# Elastic Constant Matrix: (Units=GPa)
#
#
# Indices 1 2 3 4 5 6 
#
# 1 70.8923 49.6321 57.4274 0.0000 0.0000 0.0000
# 2 49.6321 96.6267 80.3163 0.0000 0.0000 0.0000
# 3 57.4274 80.3163 168.0423 0.0000 0.0000 0.0000
# 4 0.0000 0.0000 0.0000 39.2324 0.0000 0.0000
# 5 0.0000 0.0000 0.0000 0.0000 33.7491 0.0000
# 6 0.0000 0.0000 0.0000 0.0000 0.0000 28.7104
#
#
#
# Elastic Compliance Matrix: (Units=1/GPa)
#
#
# Indices 1 2 3 4 5 6 
#
# 1 0.023356 -0.008897 -0.003729 0.000000 0.000000 0.000000
# 2 -0.008897 0.020559 -0.006786 0.000000 0.000000 0.000000
# 3 -0.003729 -0.006786 0.010469 0.000000 0.000000 0.000000
# 4 0.000000 0.000000 0.000000 0.025489 0.000000 0.000000
# 5 0.000000 0.000000 0.000000 0.000000 0.029630 0.000000
# 6 0.000000 0.000000 0.000000 0.000000 0.000000 0.034831
#
#
# Mechanical properties :
#
#
# Convention : Reuss Voigt Hill
#
# Bulk Modulus (GPa) = 64.26924 78.92365 71.59644
# Shear Modulus (GPa) = 26.54705 30.21741 28.38223
#
# Velocity S-wave (km/s) = 3.76244 4.01411 3.89031
# Velocity P-wave (km/s) = 7.29009 7.97304 7.63920
#
# Compressibility (1/GPa) = 0.01555954
#
# Stress axis : x y z
#
# Youngs Moduli (GPa) = 42.81629 48.63950 95.52169
#
# Poissons Ratio (x) = 0.43273 0.35624
# Poissons Ratio (y) = 0.38092 0.64822
# Poissons Ratio (z) = 0.15968 0.33007
#
# Static dielectric constant tensor:
#      x y z
#    x 3.226280 0.000000 0.000000 
#    y 0.000000 3.450020 0.000000 
#    z 0.000000 0.000000 3.711860 
# 
# 
# High freq. dielectric constant tensor:
#      x y z
#    x 1.714810 0.000000 0.000000 
#    y 0.000000 1.728000 0.000000 
#    z 0.000000 0.000000 1.747260 
# 
# From -- ./inp_files/32884.got.cif
#   From: 2010.03.12/outbox.cif.g09.slc.cpg/sg59_17_cif.got.tgz:32884.got - 2010.04.16 16:29:54.
