data_PCOD8243946
_publ_section_title
;
Structure prediction by ZEFSAII (Michael W. Deem and Ramdas Pophale) SiO2 
 PCOD8243946
Probable space group: P M M N
;
_chemical_formula_sum "Si O2"
_cell_formula_units_Z 64
_cell_length_a 8.789364
_cell_length_b 31.125460
_cell_length_c 12.028917
_cell_angle_alpha 90.000000
_cell_angle_beta 90.000000
_cell_angle_gamma 90.000000
_cell_volume 3290.786882
_symmetry_space_group_name_H-M "P M M N"
_symmetry_group_IT_number 59
_space_group.IT_coordinate_system_code '2'
_symmetry_cell_setting 'orthorhombic'
loop_
_space_group_symop_operation_xyz
x,y,z
1/2-x,1/2-y,z
1/2+x,-y,-z
-x,1/2+y,-z
-x,-y,-z
1/2+x,1/2+y,-z
1/2-x,y,z
x,1/2-y,z
loop_
_atom_site_type_symbol
_atom_site_label
_atom_site_fract_x
_atom_site_fract_y
_atom_site_fract_z
Si Si1 0.930331 0.372745 0.633569
Si Si2 0.925582 0.453267 0.490075
Si Si3 0.572056 0.017469 0.888358
Si Si4 0.575097 0.446172 0.239223
Si Si5 0.429329 0.109062 0.860020
Si Si6 0.577797 0.200863 0.260646
Si Si7 0.426798 0.299617 0.489391
Si Si8 0.572498 0.132810 0.083254
O O1 0.750000 0.374685 0.648834
O O2 0.989897 0.416996 0.574768
O O3 0.011909 0.366110 0.751597
O O4 0.971800 0.330618 0.564011
O O5 0.750000 0.460664 0.515477
O O6 0.951351 0.433471 0.367231
O O7 0.000000 0.500000 0.500000
O O8 0.750000 0.021143 0.905785
O O9 0.508092 0.063336 0.859079
O O10 0.532151 0.986582 0.786132
O O11 0.500000 0.000000 0.000000
O O12 0.750000 0.459151 0.218138
O O13 0.525998 0.407775 0.158518
O O14 0.250000 0.103820 0.855697
O O15 0.475893 0.134692 0.970696
O O16 0.750000 0.187804 0.296041
O O17 0.568654 0.250000 0.224781
O O18 0.465381 0.190481 0.361436
O O19 0.527036 0.174768 0.152368
O O20 0.250000 0.309113 0.509871
O O21 0.467437 0.250000 0.517537
O O22 0.750000 0.131356 0.052605
#
# Coordination Sequence:
#
# PCOD8243946 Si02
#       8
#     8   8   8   8   8   8   8   8
#     4  11  23  41  63  87 117 158 204 249 299 359
#     4  10  22  38  57  84 116 153 194 240 292 349
#     4  12  23  37  56  81 112 151 196 241 287 344
#     4  10  20  35  56  81 111 146 189 240 290 339
#     4  12  25  40  58  83 115 154 197 246 298 353
#     4   9  18  35  61  91 120 151 188 232 285 345
#     4  10  21  38  62  93 125 156 194 243 299 357
#     4  10  20  36  58  83 113 150 192 240 287 342
#
# _framework density 19.448236000000001
#
# number of rings (size 3 to 8) (size 9 to 14) (size 15 to 20)
#    0.000    1.500    1.250    4.500    0.000    6.750 
#    0.000    1.875    0.000    2.250    0.000    0.000 
#    0.000    0.000    0.000    0.000    0.000    0.000 
#
# Total GULP energy -793783.681250 kJ/mol
# GULP energy per Si atom -12402.870020 kJ/mol
# Density = 1.940397 g / cm^3
# Si number density = 19.448236 Si / 1000 Ang^3
#
#
#
# Elastic Constant Matrix: (Units=GPa)
#
#
# Indices 1 2 3 4 5 6 
#
# 1 99.4119 35.8834 43.1561 0.0000 0.0000 0.0000
# 2 35.8834 86.1138 44.8321 0.0000 0.0000 0.0000
# 3 43.1561 44.8321 117.7878 0.0000 0.0000 0.0000
# 4 0.0000 0.0000 0.0000 32.2989 0.0000 0.0000
# 5 0.0000 0.0000 0.0000 0.0000 32.0481 0.0000
# 6 0.0000 0.0000 0.0000 0.0000 0.0000 27.7203
#
#
#
# Elastic Compliance Matrix: (Units=1/GPa)
#
#
# Indices 1 2 3 4 5 6 
#
# 1 0.012801 -0.003607 -0.003317 0.000000 0.000000 0.000000
# 2 -0.003607 0.015499 -0.004577 0.000000 0.000000 0.000000
# 3 -0.003317 -0.004577 0.011448 0.000000 0.000000 0.000000
# 4 0.000000 0.000000 0.000000 0.030961 0.000000 0.000000
# 5 0.000000 0.000000 0.000000 0.000000 0.031203 0.000000
# 6 0.000000 0.000000 0.000000 0.000000 0.000000 0.036075
#
#
# Mechanical properties :
#
#
# Convention : Reuss Voigt Hill
#
# Bulk Modulus (GPa) = 59.72418 61.22853 60.47636
# Shear Modulus (GPa) = 30.01720 30.37626 30.19673
#
# Velocity S-wave (km/s) = 3.93293 3.95638 3.94467
# Velocity P-wave (km/s) = 7.16937 7.24029 7.20492
#
# Compressibility (1/GPa) = 0.01674364
#
# Stress axis : x y z
#
# Youngs Moduli (GPa) = 78.11710 64.52130 87.35527
#
# Poissons Ratio (x) = 0.23274 0.28978
# Poissons Ratio (y) = 0.28179 0.39986
# Poissons Ratio (z) = 0.25913 0.29534
#
# Static dielectric constant tensor:
#      x y z
#    x 3.574430 0.000000 0.000000 
#    y 0.000000 3.577750 0.000000 
#    z 0.000000 0.000000 3.581860 
# 
# 
# High freq. dielectric constant tensor:
#      x y z
#    x 1.755100 0.000000 0.000000 
#    y 0.000000 1.753860 0.000000 
#    z 0.000000 0.000000 1.764920 
# 
# From -- ./inp_files/14886.got.cif
#   From: 2010.03.12/outbox.cif.g09.slc.cpg/sg59_8_cif.got.tgz:14886.got - 2010.04.16 16:29:54.
