data_PCOD8243043
_publ_section_title
;
Structure prediction by ZEFSAII (Michael W. Deem and Ramdas Pophale) SiO2 
 PCOD8243043
Probable space group: P M M N
;
_chemical_formula_sum "Si O2"
_cell_formula_units_Z 56
_cell_length_a 8.871085
_cell_length_b 15.286322
_cell_length_c 21.449908
_cell_angle_alpha 90.000000
_cell_angle_beta 90.000000
_cell_angle_gamma 90.000000
_cell_volume 2908.741840
_symmetry_space_group_name_H-M "P M M N"
_symmetry_group_IT_number 59
_space_group.IT_coordinate_system_code '2'
_symmetry_cell_setting 'orthorhombic'
loop_
_space_group_symop_operation_xyz
x,y,z
1/2-x,1/2-y,z
1/2+x,-y,-z
-x,1/2+y,-z
-x,-y,-z
1/2+x,1/2+y,-z
1/2-x,y,z
x,1/2-y,z
loop_
_atom_site_type_symbol
_atom_site_label
_atom_site_fract_x
_atom_site_fract_y
_atom_site_fract_z
Si Si1 0.928322 0.000021 0.848728
Si Si2 0.070507 0.846773 0.064427
Si Si3 0.075801 0.850921 0.924072
Si Si4 0.427862 0.405408 0.496927
Si Si5 0.072094 0.003996 0.292535
Si Si6 0.422381 0.847374 0.381339
Si Si7 0.077174 0.848954 0.627522
O O1 0.750000 0.003407 0.851740
O O2 0.984740 0.009014 0.777918
O O3 0.981176 0.908128 0.876133
O O4 0.996681 0.081084 0.888393
O O5 0.250000 0.846096 0.065774
O O6 0.011356 0.750000 0.083733
O O7 0.017192 0.869200 0.994271
O O8 0.250000 0.876734 0.917957
O O9 0.050309 0.750000 0.906357
O O10 0.500000 0.500000 0.500000
O O11 0.250000 0.414350 0.492575
O O12 0.473123 0.351839 0.558073
O O13 0.485947 0.355119 0.436499
O O14 0.250000 0.019929 0.295942
O O15 0.990400 0.088222 0.320231
O O16 0.023949 0.917242 0.330153
O O17 0.250000 0.866496 0.401276
O O18 0.437822 0.750000 0.352518
O O19 0.250000 0.875175 0.614773
O O20 0.064183 0.750000 0.652706
#
# Coordination Sequence:
#
# PCOD8243043 Si02
#       7
#     8   8   8   8   8   8   8
#     4  10  20  33  53  81 109 141 184 228 274 321
#     4   8  15  30  53  80 109 140 178 224 272 328
#     4   9  18  33  53  77 106 143 183 223 274 331
#     4  12  23  37  61  89 116 145 180 226 280 330
#     4  10  22  38  55  79 112 149 184 225 275 328
#     4  10  21  38  59  83 112 146 184 226 274 331
#     4  11  24  41  61  84 110 145 188 231 277 329
#
# _framework density 19.252309
#
# number of rings (size 3 to 8) (size 9 to 14) (size 15 to 20)
#    0.000    2.000    1.429    3.429    0.000    5.143 
#    0.000    5.714    0.000    1.286    0.000    2.000 
#    0.000    0.000    0.000    0.000    0.000    0.000 
#
# Total GULP energy -694487.062743 kJ/mol
# GULP energy per Si atom -12401.554692 kJ/mol
# Density = 1.920849 g / cm^3
# Si number density = 19.252309 Si / 1000 Ang^3
#
#
#
# Elastic Constant Matrix: (Units=GPa)
#
#
# Indices 1 2 3 4 5 6 
#
# 1 56.8819 31.5530 38.2130 0.0000 0.0000 0.0000
# 2 31.5530 125.8513 67.2770 0.0000 0.0000 0.0000
# 3 38.2130 67.2770 139.2091 0.0000 0.0000 0.0000
# 4 0.0000 0.0000 0.0000 14.4369 0.0000 0.0000
# 5 0.0000 0.0000 0.0000 0.0000 23.0081 0.0000
# 6 0.0000 0.0000 0.0000 0.0000 0.0000 28.2111
#
#
#
# Elastic Compliance Matrix: (Units=1/GPa)
#
#
# Indices 1 2 3 4 5 6 
#
# 1 0.022443 -0.003146 -0.004640 0.000000 0.000000 0.000000
# 2 -0.003146 0.011155 -0.004527 0.000000 0.000000 0.000000
# 3 -0.004640 -0.004527 0.010645 0.000000 0.000000 0.000000
# 4 0.000000 0.000000 0.000000 0.069267 0.000000 0.000000
# 5 0.000000 0.000000 0.000000 0.000000 0.043463 0.000000
# 6 0.000000 0.000000 0.000000 0.000000 0.000000 0.035447
#
#
# Mechanical properties :
#
#
# Convention : Reuss Voigt Hill
#
# Bulk Modulus (GPa) = 50.98011 66.22538 58.60274
# Shear Modulus (GPa) = 22.36284 25.45783 23.91034
#
# Velocity S-wave (km/s) = 3.41187 3.64033 3.52795
# Velocity P-wave (km/s) = 6.48526 7.22099 6.86299
#
# Compressibility (1/GPa) = 0.01961549
#
# Stress axis : x y z
#
# Youngs Moduli (GPa) = 44.55786 89.64675 93.94024
#
# Poissons Ratio (x) = 0.28206 0.43588
# Poissons Ratio (y) = 0.14019 0.42529
# Poissons Ratio (z) = 0.20675 0.40586
#
# Static dielectric constant tensor:
#      x y z
#    x 3.336660 0.000000 0.000000 
#    y 0.000000 3.276730 0.000000 
#    z 0.000000 0.000000 3.625280 
# 
# 
# High freq. dielectric constant tensor:
#      x y z
#    x 1.728340 0.000000 0.000000 
#    y 0.000000 1.763820 0.000000 
#    z 0.000000 0.000000 1.744830 
# 
# From -- ./inp_files/29000.got.cif
#   From: 2010.03.12/outbox.cif.g09.slc.cpg/sg59_15_cif.got.tgz:29000.got - 2010.04.16 16:29:54.
