data_PCOD8243509
_publ_section_title
;
Structure prediction by ZEFSAII (Michael W. Deem and Ramdas Pophale) SiO2 
 PCOD8243509
Probable space group: P M M N
;
_chemical_formula_sum "Si O2"
_cell_formula_units_Z 56
_cell_length_a 8.705588
_cell_length_b 22.833639
_cell_length_c 15.229208
_cell_angle_alpha 90.000000
_cell_angle_beta 90.000000
_cell_angle_gamma 90.000000
_cell_volume 3027.265830
_symmetry_space_group_name_H-M "P M M N"
_symmetry_group_IT_number 59
_space_group.IT_coordinate_system_code '2'
_symmetry_cell_setting 'orthorhombic'
loop_
_space_group_symop_operation_xyz
x,y,z
1/2-x,1/2-y,z
1/2+x,-y,-z
-x,1/2+y,-z
-x,-y,-z
1/2+x,1/2+y,-z
1/2-x,y,z
x,1/2-y,z
loop_
_atom_site_type_symbol
_atom_site_label
_atom_site_fract_x
_atom_site_fract_y
_atom_site_fract_z
Si Si1 0.571871 0.681469 0.327449
Si Si2 0.430283 0.873559 0.161486
Si Si3 0.577714 0.319476 0.494164
Si Si4 0.429281 0.183312 0.316649
Si Si5 0.574910 0.117591 0.158697
Si Si6 0.427002 0.182525 0.001325
Si Si7 0.927828 0.509554 0.094864
O O1 0.750000 0.668225 0.311271
O O2 0.534283 0.750000 0.316183
O O3 0.470012 0.644653 0.260183
O O4 0.526212 0.659342 0.424623
O O5 0.250000 0.868301 0.144851
O O6 0.483324 0.939714 0.145640
O O7 0.518930 0.828967 0.097595
O O8 0.750000 0.343330 0.506943
O O9 0.574058 0.250000 0.489402
O O10 0.511391 0.343699 0.402438
O O11 0.250000 0.181520 0.335033
O O12 0.483134 0.250000 0.297338
O O13 0.466937 0.143356 0.233634
O O14 0.750000 0.134864 0.179307
O O15 0.529830 0.143480 0.064704
O O16 0.553923 0.047957 0.154579
O O17 0.250000 0.164246 0.011621
O O18 0.450776 0.250000 0.025432
O O19 0.750000 0.526686 0.082741
O O20 0.000000 0.500000 0.000000
#
# Coordination Sequence:
#
# PCOD8243509 Si02
#       7
#     8   8   8   8   8   8   8
#     4  10  20  35  56  83 115 149 184 225 276 332
#     4  12  24  37  56  81 109 145 186 230 276 326
#     4   9  17  31  53  81 113 147 183 225 271 324
#     4  10  20  34  54  82 115 150 185 222 271 329
#     4  11  23  37  56  81 108 142 184 230 277 327
#     4  11  23  37  54  78 110 146 180 221 276 332
#     4  11  23  40  60  80 105 142 189 235 279 328
#
# _framework density 18.498540999999999
#
# number of rings (size 3 to 8) (size 9 to 14) (size 15 to 20)
#    0.000    1.429    1.429    4.714    0.000    9.714 
#    0.000    0.000    0.000    0.857    0.000    0.000 
#    0.000    0.000    0.000    0.000    0.000    0.000 
#
# Total GULP energy -694679.245396 kJ/mol
# GULP energy per Si atom -12404.986525 kJ/mol
# Density = 1.845644 g / cm^3
# Si number density = 18.498541 Si / 1000 Ang^3
#
#
#
# Elastic Constant Matrix: (Units=GPa)
#
#
# Indices 1 2 3 4 5 6 
#
# 1 84.7645 33.9840 18.7186 0.0000 0.0000 0.0000
# 2 33.9840 63.6311 24.9192 0.0000 0.0000 0.0000
# 3 18.7186 24.9192 97.9971 0.0000 0.0000 0.0000
# 4 0.0000 0.0000 0.0000 10.5177 0.0000 0.0000
# 5 0.0000 0.0000 0.0000 0.0000 39.7304 0.0000
# 6 0.0000 0.0000 0.0000 0.0000 0.0000 25.0203
#
#
#
# Elastic Compliance Matrix: (Units=1/GPa)
#
#
# Indices 1 2 3 4 5 6 
#
# 1 0.015087 -0.007695 -0.000925 0.000000 0.000000 0.000000
# 2 -0.007695 0.021379 -0.003966 0.000000 0.000000 0.000000
# 3 -0.000925 -0.003966 0.011390 0.000000 0.000000 0.000000
# 4 0.000000 0.000000 0.000000 0.095078 0.000000 0.000000
# 5 0.000000 0.000000 0.000000 0.000000 0.025170 0.000000
# 6 0.000000 0.000000 0.000000 0.000000 0.000000 0.039968
#
#
# Mechanical properties :
#
#
# Convention : Reuss Voigt Hill
#
# Bulk Modulus (GPa) = 44.08796 44.62626 44.35711
# Shear Modulus (GPa) = 20.76375 26.30507 23.53441
#
# Velocity S-wave (km/s) = 3.35394 3.77504 3.57070
# Velocity P-wave (km/s) = 6.23566 6.57099 6.40552
#
# Compressibility (1/GPa) = 0.02268193
#
# Stress axis : x y z
#
# Youngs Moduli (GPa) = 66.28275 46.77524 87.79893
#
# Poissons Ratio (x) = 0.35995 0.08121
# Poissons Ratio (y) = 0.51007 0.34825
# Poissons Ratio (z) = 0.06131 0.18553
#
# Static dielectric constant tensor:
#      x y z
#    x 3.556090 0.000000 0.000000 
#    y 0.000000 3.283440 0.000000 
#    z 0.000000 0.000000 3.290360 
# 
# 
# High freq. dielectric constant tensor:
#      x y z
#    x 1.736320 0.000000 0.000000 
#    y 0.000000 1.691650 0.000000 
#    z 0.000000 0.000000 1.722130 
# 
# From -- ./inp_files/21054.got.cif
#   From: 2010.03.12/outbox.cif.g09.slc.cpg/sg59_11_cif.got.tgz:21054.got - 2010.04.16 16:29:54.
