data_PCOD8243033
_publ_section_title
;
Structure prediction by ZEFSAII (Michael W. Deem and Ramdas Pophale) SiO2 
 PCOD8243033
Probable space group: P M M N
;
_chemical_formula_sum "Si O2"
_cell_formula_units_Z 64
_cell_length_a 28.036466
_cell_length_b 9.374466
_cell_length_c 12.862102
_cell_angle_alpha 90.000000
_cell_angle_beta 90.000000
_cell_angle_gamma 90.000000
_cell_volume 3380.506361
_symmetry_space_group_name_H-M "P M M N"
_symmetry_group_IT_number 59
_space_group.IT_coordinate_system_code '2'
_symmetry_cell_setting 'orthorhombic'
loop_
_space_group_symop_operation_xyz
x,y,z
1/2-x,1/2-y,z
1/2+x,-y,-z
-x,1/2+y,-z
-x,-y,-z
1/2+x,1/2+y,-z
1/2-x,y,z
x,1/2-y,z
loop_
_atom_site_type_symbol
_atom_site_label
_atom_site_fract_x
_atom_site_fract_y
_atom_site_fract_z
Si Si1 0.357102 0.413969 0.870585
Si Si2 0.863106 0.081066 0.925872
Si Si3 0.353632 0.914017 0.480132
Si Si4 0.304735 0.082891 0.662831
Si Si5 0.956927 0.414107 0.451109
Si Si6 0.048261 0.088656 0.752040
Si Si7 0.971531 0.413491 0.915137
Si Si8 0.804040 0.080406 0.728763
O O1 0.347743 0.250000 0.900048
O O2 0.323417 0.462715 0.776008
O O3 0.412172 0.439322 0.840172
O O4 0.343690 0.509793 0.969174
O O5 0.858627 0.250000 0.937839
O O6 0.917403 0.032687 0.904217
O O7 0.831140 0.023217 0.830743
O O8 0.338506 0.750000 0.496630
O O9 0.410899 0.928481 0.474557
O O10 0.331415 0.975691 0.373678
O O11 0.334496 0.002624 0.576297
O O12 0.250000 0.038109 0.653341
O O13 0.312807 0.250000 0.645726
O O14 0.972125 0.250000 0.438709
O O15 0.944052 0.476109 0.338779
O O16 0.000000 0.500000 0.500000
O O17 0.053677 0.250000 0.707843
O O18 0.996365 0.067247 0.802970
O O19 0.972863 0.250000 0.951173
O O20 0.000000 0.500000 0.000000
O O21 0.750000 0.021360 0.728217
O O22 0.804575 0.250000 0.729312
#
# Coordination Sequence:
#
# PCOD8243033 Si02
#       8
#     8   8   8   8   8   8   8   8
#     4  10  20  36  56  80 113 151 187 227 283 344
#     4  10  21  35  56  83 111 145 189 238 281 331
#     4  10  21  38  62  86 111 147 192 238 283 339
#     4  10  21  37  58  84 114 148 185 231 290 347
#     4  11  24  38  57  86 118 151 187 230 285 346
#     4  10  20  36  57  78 110 152 189 230 283 340
#     4  10  20  33  53  79 108 144 185 227 274 330
#     4   9  19  37  59  82 110 146 188 236 289 335
#
# _framework density 18.932074
#
# number of rings (size 3 to 8) (size 9 to 14) (size 15 to 20)
#    0.000    2.000    2.500    0.750    1.750    3.250 
#    0.000    0.625    0.000    0.750    0.000    0.000 
#    0.000    0.000    0.000    0.000    0.000    0.000 
#
# Total GULP energy -793772.027623 kJ/mol
# GULP energy per Si atom -12402.687932 kJ/mol
# Density = 1.888898 g / cm^3
# Si number density = 18.932074 Si / 1000 Ang^3
#
#
#
# Elastic Constant Matrix: (Units=GPa)
#
#
# Indices 1 2 3 4 5 6 
#
# 1 115.5195 40.3232 57.1779 0.0000 0.0000 0.0000
# 2 40.3232 60.7307 49.2231 0.0000 0.0000 0.0000
# 3 57.1779 49.2231 124.3535 0.0000 0.0000 0.0000
# 4 0.0000 0.0000 0.0000 27.4224 0.0000 0.0000
# 5 0.0000 0.0000 0.0000 0.0000 32.0541 0.0000
# 6 0.0000 0.0000 0.0000 0.0000 0.0000 22.6152
#
#
#
# Elastic Compliance Matrix: (Units=1/GPa)
#
#
# Indices 1 2 3 4 5 6 
#
# 1 0.012249 -0.005253 -0.003552 0.000000 0.000000 0.000000
# 2 -0.005253 0.026497 -0.008073 0.000000 0.000000 0.000000
# 3 -0.003552 -0.008073 0.012871 0.000000 0.000000 0.000000
# 4 0.000000 0.000000 0.000000 0.036467 0.000000 0.000000
# 5 0.000000 0.000000 0.000000 0.000000 0.031197 0.000000
# 6 0.000000 0.000000 0.000000 0.000000 0.000000 0.044218
#
#
# Mechanical properties :
#
#
# Convention : Reuss Voigt Hill
#
# Bulk Modulus (GPa) = 55.99436 66.00579 61.00008
# Shear Modulus (GPa) = 24.60516 26.67697 25.64106
#
# Velocity S-wave (km/s) = 3.60898 3.75786 3.68417
# Velocity P-wave (km/s) = 6.85617 7.33272 7.09845
#
# Compressibility (1/GPa) = 0.01785894
#
# Stress axis : x y z
#
# Youngs Moduli (GPa) = 81.64185 37.73944 77.69645
#
# Poissons Ratio (x) = 0.19826 0.27602
# Poissons Ratio (y) = 0.42889 0.62725
# Poissons Ratio (z) = 0.29003 0.30467
#
# Static dielectric constant tensor:
#      x y z
#    x 3.700700 0.000000 0.000000 
#    y 0.000000 3.305330 0.000000 
#    z 0.000000 0.000000 3.481300 
# 
# 
# High freq. dielectric constant tensor:
#      x y z
#    x 1.746270 0.000000 0.000000 
#    y 0.000000 1.716210 0.000000 
#    z 0.000000 0.000000 1.737260 
# 
# From -- ./inp_files/19278.got.cif
#   From: 2010.03.12/outbox.cif.g09.slc.cpg/sg59_10_cif.got.tgz:19278.got - 2010.04.16 16:29:54.
