data_PCOD8243651
_publ_section_title
;
Structure prediction by ZEFSAII (Michael W. Deem and Ramdas Pophale) SiO2 
 PCOD8243651
Probable space group: P M M N
;
_chemical_formula_sum "Si O2"
_cell_formula_units_Z 56
_cell_length_a 8.914904
_cell_length_b 14.100672
_cell_length_c 22.906691
_cell_angle_alpha 90.000000
_cell_angle_beta 90.000000
_cell_angle_gamma 90.000000
_cell_volume 2879.511642
_symmetry_space_group_name_H-M "P M M N"
_symmetry_group_IT_number 59
_space_group.IT_coordinate_system_code '2'
_symmetry_cell_setting 'orthorhombic'
loop_
_space_group_symop_operation_xyz
x,y,z
1/2-x,1/2-y,z
1/2+x,-y,-z
-x,1/2+y,-z
-x,-y,-z
1/2+x,1/2+y,-z
1/2-x,y,z
x,1/2-y,z
loop_
_atom_site_type_symbol
_atom_site_label
_atom_site_fract_x
_atom_site_fract_y
_atom_site_fract_z
Si Si1 0.925701 0.464526 0.413886
Si Si2 0.073287 0.902684 0.019479
Si Si3 0.078909 0.357317 0.859468
Si Si4 0.925732 0.140451 0.533153
Si Si5 0.072707 0.477300 0.194572
Si Si6 0.572088 0.641046 0.693914
Si Si7 0.917322 0.851335 0.911423
O O1 0.750000 0.473276 0.403108
O O2 0.963584 0.397351 0.468668
O O3 0.989831 0.571361 0.421420
O O4 0.001376 0.414086 0.359662
O O5 0.250000 0.910055 0.025447
O O6 0.011677 0.866129 0.080603
O O7 0.026010 0.834534 0.966578
O O8 0.000000 0.000000 0.000000
O O9 0.250000 0.387746 0.870826
O O10 0.068000 0.250000 0.836779
O O11 0.008440 0.420911 0.807394
O O12 0.750000 0.133766 0.546247
O O13 0.980947 0.250000 0.539249
O O14 0.250000 0.491373 0.197900
O O15 0.016485 0.413322 0.248120
O O16 0.022045 0.428251 0.134044
O O17 0.750000 0.637776 0.688121
O O18 0.515471 0.750000 0.695832
O O19 0.750000 0.881039 0.932685
O O20 0.909570 0.750000 0.878463
#
# Coordination Sequence:
#
# PCOD8243651 Si02
#       7
#     8   8   8   8   8   8   8
#     4  10  20  34  55  86 121 155 194 240 289 340
#     4  12  23  36  56  82 111 143 180 224 276 335
#     4  11  24  41  60  82 110 145 183 228 284 341
#     4   9  18  34  56  83 118 158 198 240 287 339
#     4  10  21  38  60  83 109 144 186 231 274 325
#     4  10  21  38  60  86 116 152 192 232 279 337
#     4  10  20  35  56  82 111 141 173 217 275 332
#
# _framework density 19.447744
#
# number of rings (size 3 to 8) (size 9 to 14) (size 15 to 20)
#    0.000    1.714    1.429    3.429    0.000    7.143 
#    0.000    0.714    0.000    3.429    0.000    0.000 
#    0.000    0.000    0.000    0.000    0.000    0.000 
#
# Total GULP energy -694242.826136 kJ/mol
# GULP energy per Si atom -12397.193324 kJ/mol
# Density = 1.940348 g / cm^3
# Si number density = 19.447744 Si / 1000 Ang^3
#
#
#
# Elastic Constant Matrix: (Units=GPa)
#
#
# Indices 1 2 3 4 5 6 
#
# 1 67.2797 42.3604 41.2180 0.0000 0.0000 0.0000
# 2 42.3604 154.0907 60.4551 0.0000 0.0000 0.0000
# 3 41.2180 60.4551 100.2120 0.0000 0.0000 0.0000
# 4 0.0000 0.0000 0.0000 30.5905 0.0000 0.0000
# 5 0.0000 0.0000 0.0000 0.0000 30.6123 0.0000
# 6 0.0000 0.0000 0.0000 0.0000 0.0000 29.2029
#
#
#
# Elastic Compliance Matrix: (Units=1/GPa)
#
#
# Indices 1 2 3 4 5 6 
#
# 1 0.020954 -0.003117 -0.006738 0.000000 0.000000 0.000000
# 2 -0.003117 0.008966 -0.004127 0.000000 0.000000 0.000000
# 3 -0.006738 -0.004127 0.015240 0.000000 0.000000 0.000000
# 4 0.000000 0.000000 0.000000 0.032690 0.000000 0.000000
# 5 0.000000 0.000000 0.000000 0.000000 0.032667 0.000000
# 6 0.000000 0.000000 0.000000 0.000000 0.000000 0.034243
#
#
# Mechanical properties :
#
#
# Convention : Reuss Voigt Hill
#
# Bulk Modulus (GPa) = 58.15355 67.73882 62.94619
# Shear Modulus (GPa) = 28.01841 29.91774 28.96807
#
# Velocity S-wave (km/s) = 3.79978 3.92646 3.86364
# Velocity P-wave (km/s) = 7.01559 7.44734 7.23469
#
# Compressibility (1/GPa) = 0.01719585
#
# Stress axis : x y z
#
# Youngs Moduli (GPa) = 47.72422 111.53825 65.61725
#
# Poissons Ratio (x) = 0.34762 0.44215
# Poissons Ratio (y) = 0.14874 0.27079
# Poissons Ratio (z) = 0.32158 0.46029
#
# Static dielectric constant tensor:
#      x y z
#    x 3.730310 0.000000 0.000000 
#    y 0.000000 3.929420 0.000000 
#    z 0.000000 0.000000 4.079710 
# 
# 
# High freq. dielectric constant tensor:
#      x y z
#    x 1.753170 0.000000 0.000000 
#    y 0.000000 1.777410 0.000000 
#    z 0.000000 0.000000 1.736470 
# 
# From -- ./inp_files/29140.got.cif
#   From: 2010.03.12/outbox.cif.g09.slc.cpg/sg59_15_cif.got.tgz:29140.got - 2010.04.16 16:29:54.
