data_PCOD8243328
_publ_section_title
;
Structure prediction by ZEFSAII (Michael W. Deem and Ramdas Pophale) SiO2 
 PCOD8243328
Probable space group: P M M N
;
_chemical_formula_sum "Si O2"
_cell_formula_units_Z 64
_cell_length_a 23.005652
_cell_length_b 8.963310
_cell_length_c 15.667422
_cell_angle_alpha 90.000000
_cell_angle_beta 90.000000
_cell_angle_gamma 90.000000
_cell_volume 3230.728808
_symmetry_space_group_name_H-M "P M M N"
_symmetry_group_IT_number 59
_space_group.IT_coordinate_system_code '2'
_symmetry_cell_setting 'orthorhombic'
loop_
_space_group_symop_operation_xyz
x,y,z
1/2-x,1/2-y,z
1/2+x,-y,-z
-x,1/2+y,-z
-x,-y,-z
1/2+x,1/2+y,-z
1/2-x,y,z
x,1/2-y,z
loop_
_atom_site_type_symbol
_atom_site_label
_atom_site_fract_x
_atom_site_fract_y
_atom_site_fract_z
Si Si1 0.683576 0.083907 0.008182
Si Si2 0.523828 0.923586 0.617690
Si Si3 0.182483 0.572913 0.659801
Si Si4 0.411904 0.074923 0.552923
Si Si5 0.816633 0.580470 0.837716
Si Si6 0.993124 0.580795 0.090470
Si Si7 0.417648 0.917752 0.231932
Si Si8 0.112110 0.574881 0.827203
O O1 0.750000 0.086735 0.036383
O O2 0.664326 0.250000 0.977426
O O3 0.649091 0.032017 0.090477
O O4 0.671866 0.964323 0.935178
O O5 0.507794 0.750000 0.615047
O O6 0.571015 0.963980 0.544643
O O7 0.464042 0.014054 0.611030
O O8 0.550204 0.966922 0.707478
O O9 0.250000 0.518682 0.662530
O O10 0.180649 0.750000 0.651987
O O11 0.149244 0.502438 0.578138
O O12 0.147637 0.518343 0.744267
O O13 0.405300 0.250000 0.567872
O O14 0.750000 0.559814 0.812420
O O15 0.837470 0.750000 0.826055
O O16 0.851408 0.472323 0.774663
O O17 0.973629 0.750000 0.072385
O O18 0.055229 0.575352 0.137197
O O19 0.948934 0.507227 0.158485
O O20 0.000000 0.500000 0.000000
O O21 0.419804 0.750000 0.269364
O O22 0.100086 0.750000 0.819538
#
# Coordination Sequence:
#
# PCOD8243328 Si02
#       8
#     8   8   8   8   8   8   8   8
#     4   9  17  31  51  73 100 137 181 226 268 311
#     4  10  21  38  62  88 113 145 183 227 281 337
#     4  10  21  37  58  85 118 157 198 237 283 344
#     4  10  21  38  60  87 116 145 182 228 279 336
#     4  10  21  36  54  77 105 137 175 220 269 321
#     4  11  24  38  53  78 112 149 188 232 282 334
#     4  11  23  38  57  82 110 140 180 226 271 324
#     4  10  20  34  53  78 109 146 188 232 277 328
#
# _framework density 19.809773
#
# number of rings (size 3 to 8) (size 9 to 14) (size 15 to 20)
#    0.000    1.875    0.000    3.750    0.000   12.000 
#    0.000    0.625    0.000    3.000    0.000    0.000 
#    0.000    0.000    0.000    0.000    0.000    0.000 
#
# Total GULP energy -793635.076220 kJ/mol
# GULP energy per Si atom -12400.548066 kJ/mol
# Density = 1.976468 g / cm^3
# Si number density = 19.809773 Si / 1000 Ang^3
#
#
#
# Elastic Constant Matrix: (Units=GPa)
#
#
# Indices 1 2 3 4 5 6 
#
# 1 110.2813 45.7788 39.7899 0.0000 0.0000 0.0000
# 2 45.7788 64.9505 28.0979 0.0000 0.0000 0.0000
# 3 39.7899 28.0979 63.4999 0.0000 0.0000 0.0000
# 4 0.0000 0.0000 0.0000 30.2040 0.0000 0.0000
# 5 0.0000 0.0000 0.0000 0.0000 34.6457 0.0000
# 6 0.0000 0.0000 0.0000 0.0000 0.0000 32.2554
#
#
#
# Elastic Compliance Matrix: (Units=1/GPa)
#
#
# Indices 1 2 3 4 5 6 
#
# 1 0.014238 -0.007638 -0.005542 0.000000 0.000000 0.000000
# 2 -0.007638 0.023138 -0.005453 0.000000 0.000000 0.000000
# 3 -0.005542 -0.005453 0.021633 0.000000 0.000000 0.000000
# 4 0.000000 0.000000 0.000000 0.033108 0.000000 0.000000
# 5 0.000000 0.000000 0.000000 0.000000 0.028864 0.000000
# 6 0.000000 0.000000 0.000000 0.000000 0.000000 0.031003
#
#
# Mechanical properties :
#
#
# Convention : Reuss Voigt Hill
#
# Bulk Modulus (GPa) = 45.98737 51.78498 48.88618
# Shear Modulus (GPa) = 25.44571 27.75869 26.60220
#
# Velocity S-wave (km/s) = 3.58788 3.74741 3.66851
# Velocity P-wave (km/s) = 6.35836 6.70238 6.53264
#
# Compressibility (1/GPa) = 0.02174510
#
# Stress axis : x y z
#
# Youngs Moduli (GPa) = 70.23579 43.21828 46.22471
#
# Poissons Ratio (x) = 0.33009 0.25618
# Poissons Ratio (y) = 0.53644 0.25204
# Poissons Ratio (z) = 0.38925 0.23565
#
# Static dielectric constant tensor:
#      x y z
#    x 3.772110 0.000000 0.000000 
#    y 0.000000 3.616730 0.000000 
#    z 0.000000 0.000000 3.478360 
# 
# 
# High freq. dielectric constant tensor:
#      x y z
#    x 1.777760 0.000000 0.000000 
#    y 0.000000 1.774280 0.000000 
#    z 0.000000 0.000000 1.762260 
# 
# From -- ./inp_files/24771.got.cif
#   From: 2010.03.12/outbox.cif.g09.slc.cpg/sg59_13_cif.got.tgz:24771.got - 2010.04.16 16:29:54.
