data_PCOD8243259
_publ_section_title
;
Structure prediction by ZEFSAII (Michael W. Deem and Ramdas Pophale) SiO2 
 PCOD8243259
Probable space group: P M M N
;
_chemical_formula_sum "Si O2"
_cell_formula_units_Z 48
_cell_length_a 9.070513
_cell_length_b 29.675936
_cell_length_c 10.057161
_cell_angle_alpha 90.000000
_cell_angle_beta 90.000000
_cell_angle_gamma 90.000000
_cell_volume 2707.146000
_symmetry_space_group_name_H-M "P M M N"
_symmetry_group_IT_number 59
_space_group.IT_coordinate_system_code '2'
_symmetry_cell_setting 'orthorhombic'
loop_
_space_group_symop_operation_xyz
x,y,z
1/2-x,1/2-y,z
1/2+x,-y,-z
-x,1/2+y,-z
-x,-y,-z
1/2+x,1/2+y,-z
1/2-x,y,z
x,1/2-y,z
loop_
_atom_site_type_symbol
_atom_site_label
_atom_site_fract_x
_atom_site_fract_y
_atom_site_fract_z
Si Si1 0.077230 0.301418 0.379726
Si Si2 0.921920 0.198923 0.113828
Si Si3 0.580631 0.532135 0.398924
Si Si4 0.425092 0.464532 0.903817
Si Si5 0.422934 0.365545 0.616009
Si Si6 0.575654 0.129039 0.887777
O O1 0.250000 0.306583 0.359403
O O2 0.031220 0.250000 0.410018
O O3 0.023001 0.331682 0.502187
O O4 0.001785 0.319194 0.245727
O O5 0.750000 0.196329 0.142820
O O6 0.971934 0.250000 0.081111
O O7 0.967106 0.167995 0.990801
O O8 0.500000 0.500000 0.500000
O O9 0.750000 0.522024 0.420300
O O10 0.535351 0.521510 0.247060
O O11 0.542809 0.583866 0.432659
O O12 0.250000 0.462725 0.926555
O O13 0.492819 0.415844 0.935341
O O14 0.500000 0.500000 0.000000
O O15 0.250000 0.360193 0.650287
O O16 0.517297 0.354014 0.745932
O O17 0.750000 0.120070 0.881417
#
# Coordination Sequence:
#
# PCOD8243259 Si02
#       6
#     8   8   8   8   8   8
#     4   9  18  33  53  76 101 131 170 213 256 305
#     4   9  19  35  52  73 104 137 170 212 257 301
#     4   9  19  34  51  72  99 130 164 203 246 294
#     4  10  21  37  55  77 105 135 169 210 255 303
#     4   9  19  35  51  72 103 133 164 207 255 300
#     4  10  20  34  53  77 103 134 173 212 253 304
#
# _framework density 17.730848999999999
#
# number of rings (size 3 to 8) (size 9 to 14) (size 15 to 20)
#    0.000    2.667    0.000    2.000    0.000    7.333 
#    0.000    3.333    0.000    0.000    0.000    0.000 
#    0.000    0.000    0.000    0.000    0.000    0.000 
#
# Total GULP energy -595249.457144 kJ/mol
# GULP energy per Si atom -12401.030357 kJ/mol
# Density = 1.769049 g / cm^3
# Si number density = 17.730849 Si / 1000 Ang^3
#
#
#
# Elastic Constant Matrix: (Units=GPa)
#
#
# Indices 1 2 3 4 5 6 
#
# 1 63.4440 52.7461 59.9275 0.0000 0.0000 0.0000
# 2 52.7461 113.3978 98.8131 0.0000 0.0000 0.0000
# 3 59.9275 98.8131 137.9725 0.0000 0.0000 0.0000
# 4 0.0000 0.0000 0.0000 40.8558 0.0000 0.0000
# 5 0.0000 0.0000 0.0000 0.0000 37.5645 0.0000
# 6 0.0000 0.0000 0.0000 0.0000 0.0000 28.2863
#
#
#
# Elastic Compliance Matrix: (Units=1/GPa)
#
#
# Indices 1 2 3 4 5 6 
#
# 1 0.028450 -0.006558 -0.007660 0.000000 0.000000 0.000000
# 2 -0.006558 0.024970 -0.015034 0.000000 0.000000 0.000000
# 3 -0.007660 -0.015034 0.021342 0.000000 0.000000 0.000000
# 4 0.000000 0.000000 0.000000 0.024476 0.000000 0.000000
# 5 0.000000 0.000000 0.000000 0.000000 0.026621 0.000000
# 6 0.000000 0.000000 0.000000 0.000000 0.000000 0.035353
#
#
# Mechanical properties :
#
#
# Convention : Reuss Voigt Hill
#
# Bulk Modulus (GPa) = 61.51415 81.97643 71.74529
# Shear Modulus (GPa) = 22.20883 28.22984 25.21933
#
# Velocity S-wave (km/s) = 3.54298 3.99448 3.77549
# Velocity P-wave (km/s) = 7.17674 8.22245 7.71733
#
# Compressibility (1/GPa) = 0.01625642
#
# Stress axis : x y z
#
# Youngs Moduli (GPa) = 35.14945 40.04862 46.85584
#
# Poissons Ratio (x) = 0.26266 0.35892
# Poissons Ratio (y) = 0.23053 0.70444
# Poissons Ratio (z) = 0.26925 0.60210
#
# Static dielectric constant tensor:
#      x y z
#    x 3.285300 0.000000 0.000000 
#    y 0.000000 3.431970 0.000000 
#    z 0.000000 0.000000 3.377320 
# 
# 
# High freq. dielectric constant tensor:
#      x y z
#    x 1.687710 0.000000 0.000000 
#    y 0.000000 1.687630 0.000000 
#    z 0.000000 0.000000 1.689290 
# 
# From -- ./inp_files/6198.got.cif
#   From: 2010.03.12/outbox.cif.g09.slc.cpg/sg59_4_cif.got.tgz:6198.got - 2010.04.16 16:29:54.
