data_PCOD8243069
_publ_section_title
;
Structure prediction by ZEFSAII (Michael W. Deem and Ramdas Pophale) SiO2 
 PCOD8243069
Probable space group: P M M N
;
_chemical_formula_sum "Si O2"
_cell_formula_units_Z 56
_cell_length_a 8.813196
_cell_length_b 24.058059
_cell_length_c 14.663094
_cell_angle_alpha 90.000000
_cell_angle_beta 90.000000
_cell_angle_gamma 90.000000
_cell_volume 3108.992204
_symmetry_space_group_name_H-M "P M M N"
_symmetry_group_IT_number 59
_space_group.IT_coordinate_system_code '2'
_symmetry_cell_setting 'orthorhombic'
loop_
_space_group_symop_operation_xyz
x,y,z
1/2-x,1/2-y,z
1/2+x,-y,-z
-x,1/2+y,-z
-x,-y,-z
1/2+x,1/2+y,-z
1/2-x,y,z
x,1/2-y,z
loop_
_atom_site_type_symbol
_atom_site_label
_atom_site_fract_x
_atom_site_fract_y
_atom_site_fract_z
Si Si1 0.573150 0.950261 0.186773
Si Si2 0.073600 0.080343 0.445972
Si Si3 0.571117 0.250000 0.010030
Si Si4 0.577342 0.070324 0.126095
Si Si5 0.073813 0.136915 0.967064
Si Si6 0.573765 0.457935 0.621575
Si Si7 0.573256 0.750000 0.792868
Si Si8 0.576654 0.352918 0.295643
O O1 0.750000 0.953888 0.213001
O O2 0.535465 0.898344 0.122552
O O3 0.475826 0.941810 0.277201
O O4 0.525057 0.006275 0.133196
O O5 0.250000 0.095308 0.441542
O O6 0.020349 0.079536 0.550712
O O7 0.977952 0.127416 0.394647
O O8 0.037296 0.022162 0.397002
O O9 0.750000 0.250000 0.008098
O O10 0.520070 0.250000 0.114240
O O11 0.513322 0.304912 0.958778
O O12 0.750000 0.075236 0.090729
O O13 0.559812 0.096214 0.225953
O O14 0.470747 0.102587 0.056523
O O15 0.250000 0.150446 0.974969
O O16 0.750000 0.444849 0.608306
O O17 0.750000 0.750000 0.816840
O O18 0.532203 0.803578 0.734503
O O19 0.750000 0.332023 0.301164
#
# Coordination Sequence:
#
# PCOD8243069 Si02
#       8
#     8   8   4   8   8   8   4   8
#     4  10  21  37  55  81 115 151 186 228 280 335
#     4  10  20  34  54  81 113 147 183 225 274 327
#     4  12  24  40  58  77 106 145 190 236 282 328
#     4  10  20  34  54  80 115 152 183 221 276 335
#     4  11  23  37  57  81 110 146 189 235 279 331
#     4  10  20  33  54  82 111 146 185 226 272 329
#     4  12  24  38  58  81 110 145 190 234 278 332
#     4  11  21  35  57  83 114 148 186 228 277 333
#
# _framework density 18.012267999999999
#
# number of rings (size 3 to 8) (size 9 to 14) (size 15 to 20)
#    0.000    1.429    2.857    3.429    0.000    3.429 
#    0.000    0.000    0.000    0.857    0.000    3.000 
#    0.000    0.000    0.000    0.000    0.000    0.000 
#
# Total GULP energy -694715.051967 kJ/mol
# GULP energy per Si atom -12405.625928 kJ/mol
# Density = 1.797127 g / cm^3
# Si number density = 18.012268 Si / 1000 Ang^3
#
#
#
# Elastic Constant Matrix: (Units=GPa)
#
#
# Indices 1 2 3 4 5 6 
#
# 1 92.5078 50.3238 41.4296 0.0000 0.0000 0.0000
# 2 50.3238 109.2925 45.2098 0.0000 0.0000 0.0000
# 3 41.4296 45.2098 87.0713 0.0000 0.0000 0.0000
# 4 0.0000 0.0000 0.0000 112.0286 0.0000 0.0000
# 5 0.0000 0.0000 0.0000 0.0000 33.6681 0.0000
# 6 0.0000 0.0000 0.0000 0.0000 0.0000 28.2498
#
#
#
# Elastic Compliance Matrix: (Units=1/GPa)
#
#
# Indices 1 2 3 4 5 6 
#
# 1 0.015842 -0.005319 -0.004776 0.000000 0.000000 0.000000
# 2 -0.005319 0.013438 -0.004447 0.000000 0.000000 0.000000
# 3 -0.004776 -0.004447 0.016066 0.000000 0.000000 0.000000
# 4 0.000000 0.000000 0.000000 0.008926 0.000000 0.000000
# 5 0.000000 0.000000 0.000000 0.000000 0.029702 0.000000
# 6 0.000000 0.000000 0.000000 0.000000 0.000000 0.035398
#
#
# Mechanical properties :
#
#
# Convention : Reuss Voigt Hill
#
# Bulk Modulus (GPa) = 61.48858 62.53309 62.01084
# Shear Modulus (GPa) = 32.49319 44.91653 38.70486
#
# Velocity S-wave (km/s) = 4.25190 4.99908 4.64055
# Velocity P-wave (km/s) = 7.63649 8.25308 7.95077
#
# Compressibility (1/GPa) = 0.01626318
#
# Stress axis : x y z
#
# Youngs Moduli (GPa) = 63.12167 74.41429 62.24201
#
# Poissons Ratio (x) = 0.39580 0.29729
# Poissons Ratio (y) = 0.33574 0.27677
# Poissons Ratio (z) = 0.30149 0.33090
#
# Static dielectric constant tensor:
#      x y z
#    x 3.384030 0.000000 0.000000 
#    y 0.000000 3.384950 0.000000 
#    z 0.000000 0.000000 3.206360 
# 
# 
# High freq. dielectric constant tensor:
#      x y z
#    x 1.709610 0.000000 0.000000 
#    y 0.000000 1.684870 0.000000 
#    z 0.000000 0.000000 1.690050 
# 
# From -- ./inp_files/21203.got.cif
#   From: 2010.03.12/outbox.cif.g09.slc.cpg/sg59_11_cif.got.tgz:21203.got - 2010.04.16 16:29:54.
