data_PCOD8243348
_publ_section_title
;
Structure prediction by ZEFSAII (Michael W. Deem and Ramdas Pophale) SiO2 
 PCOD8243348
Probable space group: P M M N
;
_chemical_formula_sum "Si O2"
_cell_formula_units_Z 56
_cell_length_a 20.365113
_cell_length_b 8.576447
_cell_length_c 15.531132
_cell_angle_alpha 90.000000
_cell_angle_beta 90.000000
_cell_angle_gamma 90.000000
_cell_volume 2712.672365
_symmetry_space_group_name_H-M "P M M N"
_symmetry_group_IT_number 59
_space_group.IT_coordinate_system_code '2'
_symmetry_cell_setting 'orthorhombic'
loop_
_space_group_symop_operation_xyz
x,y,z
1/2-x,1/2-y,z
1/2+x,-y,-z
-x,1/2+y,-z
-x,-y,-z
1/2+x,1/2+y,-z
1/2-x,y,z
x,1/2-y,z
loop_
_atom_site_type_symbol
_atom_site_label
_atom_site_fract_x
_atom_site_fract_y
_atom_site_fract_z
Si Si1 0.325295 0.934147 0.963961
Si Si2 0.542017 0.567291 0.080349
Si Si3 0.631085 0.429553 0.697803
Si Si4 0.443811 0.933981 0.562833
Si Si5 0.676707 0.571198 0.528170
Si Si6 0.175947 0.419992 0.138365
Si Si7 0.001577 0.570954 0.742585
O O1 0.250000 0.992416 0.942136
O O2 0.325647 0.750000 0.959259
O O3 0.352830 0.989435 0.056654
O O4 0.383535 0.001039 0.904282
O O5 0.546332 0.750000 0.065425
O O6 0.506987 0.532218 0.171419
O O7 0.500000 0.500000 0.000000
O O8 0.609172 0.250000 0.695603
O O9 0.673280 0.469545 0.614443
O O10 0.674426 0.465214 0.781037
O O11 0.569515 0.544097 0.701756
O O12 0.443452 0.750000 0.548596
O O13 0.451199 0.977554 0.663639
O O14 0.500000 0.000000 0.500000
O O15 0.373707 0.006831 0.541404
O O16 0.750000 0.554152 0.489934
O O17 0.660435 0.750000 0.550538
O O18 0.250000 0.383929 0.115693
O O19 0.140403 0.250000 0.152159
O O20 0.012053 0.750000 0.768582
#
# Coordination Sequence:
#
# PCOD8243348 Si02
#       7
#     8   8   8   8   8   8   8
#     4  10  21  39  62  87 119 161 209 261 319 382
#     4  12  25  42  65  94 130 168 213 269 322 381
#     4  12  23  35  56  86 121 160 204 256 314 380
#     4  11  23  41  68  95 125 164 209 260 312 376
#     4  11  24  41  62  90 127 168 210 261 319 377
#     4  10  20  34  53  79 115 158 202 250 309 377
#     4  11  24  42  64  91 123 163 210 259 315 381
#
# _framework density 20.64385
#
# number of rings (size 3 to 8) (size 9 to 14) (size 15 to 20)
#    0.000    1.000    1.429    6.000    0.000    6.286 
#    0.000    0.714    0.000    0.857    0.000    0.000 
#    0.000    0.000    0.000    0.000    0.000    0.000 
#
# Total GULP energy -694112.464520 kJ/mol
# GULP energy per Si atom -12394.865438 kJ/mol
# Density = 2.059686 g / cm^3
# Si number density = 20.643850 Si / 1000 Ang^3
#
#
#
# Elastic Constant Matrix: (Units=GPa)
#
#
# Indices 1 2 3 4 5 6 
#
# 1 110.5130 35.1212 33.3397 0.0000 0.0000 0.0000
# 2 35.1212 103.3076 34.7606 0.0000 0.0000 0.0000
# 3 33.3397 34.7606 88.0416 0.0000 0.0000 0.0000
# 4 0.0000 0.0000 0.0000 33.3315 0.0000 0.0000
# 5 0.0000 0.0000 0.0000 0.0000 28.6657 0.0000
# 6 0.0000 0.0000 0.0000 0.0000 0.0000 33.7241
#
#
#
# Elastic Compliance Matrix: (Units=1/GPa)
#
#
# Indices 1 2 3 4 5 6 
#
# 1 0.010810 -0.002650 -0.003047 0.000000 0.000000 0.000000
# 2 -0.002650 0.011812 -0.003660 0.000000 0.000000 0.000000
# 3 -0.003047 -0.003660 0.013957 0.000000 0.000000 0.000000
# 4 0.000000 0.000000 0.000000 0.030002 0.000000 0.000000
# 5 0.000000 0.000000 0.000000 0.000000 0.034885 0.000000
# 6 0.000000 0.000000 0.000000 0.000000 0.000000 0.029652
#
#
# Mechanical properties :
#
#
# Convention : Reuss Voigt Hill
#
# Bulk Modulus (GPa) = 55.97568 56.47837 56.22702
# Shear Modulus (GPa) = 32.09476 32.38697 32.24087
#
# Velocity S-wave (km/s) = 3.94723 3.96516 3.95621
# Velocity P-wave (km/s) = 6.92445 6.95566 6.94007
#
# Compressibility (1/GPa) = 0.01786490
#
# Stress axis : x y z
#
# Youngs Moduli (GPa) = 92.50572 84.65787 71.64634
#
# Poissons Ratio (x) = 0.22432 0.21834
# Poissons Ratio (y) = 0.24511 0.26225
# Poissons Ratio (z) = 0.28191 0.30988
#
# Static dielectric constant tensor:
#      x y z
#    x 3.941130 0.000000 0.000000 
#    y 0.000000 3.906620 0.000000 
#    z 0.000000 0.000000 3.734620 
# 
# 
# High freq. dielectric constant tensor:
#      x y z
#    x 1.810900 0.000000 0.000000 
#    y 0.000000 1.820990 0.000000 
#    z 0.000000 0.000000 1.794320 
# 
# From -- ./inp_files/24184.got.cif
#   From: 2010.03.12/outbox.cif.g09.slc.cpg/sg59_13_cif.got.tgz:24184.got - 2010.04.16 16:29:54.
