data_PCOD8243204
_publ_section_title
;
Structure prediction by ZEFSAII (Michael W. Deem and Ramdas Pophale) SiO2 
 PCOD8243204
Probable space group: P M M N
;
_chemical_formula_sum "Si O2"
_cell_formula_units_Z 56
_cell_length_a 9.856255
_cell_length_b 20.131320
_cell_length_c 14.854944
_cell_angle_alpha 90.000000
_cell_angle_beta 90.000000
_cell_angle_gamma 90.000000
_cell_volume 2947.509423
_symmetry_space_group_name_H-M "P M M N"
_symmetry_group_IT_number 59
_space_group.IT_coordinate_system_code '2'
_symmetry_cell_setting 'orthorhombic'
loop_
_space_group_symop_operation_xyz
x,y,z
1/2-x,1/2-y,z
1/2+x,-y,-z
-x,1/2+y,-z
-x,-y,-z
1/2+x,1/2+y,-z
1/2-x,y,z
x,1/2-y,z
loop_
_atom_site_type_symbol
_atom_site_label
_atom_site_fract_x
_atom_site_fract_y
_atom_site_fract_z
Si Si1 0.906434 0.250000 0.244943
Si Si2 0.600172 0.954868 0.808423
Si Si3 0.588949 0.174282 0.661736
Si Si4 0.599869 0.104603 0.840795
Si Si5 0.903605 0.891277 0.993678
Si Si6 0.401732 0.612756 0.677546
Si Si7 0.094340 0.564233 0.481367
Si Si8 0.102338 0.250000 0.081856
O O1 0.750000 0.250000 0.218571
O O2 0.948684 0.312761 0.303330
O O3 0.984122 0.250000 0.152377
O O4 0.750000 0.922066 0.796789
O O5 0.503156 0.936145 0.727148
O O6 0.613369 0.032876 0.796700
O O7 0.541959 0.930113 0.905001
O O8 0.750000 0.174352 0.654122
O O9 0.534892 0.250000 0.640911
O O10 0.544637 0.154829 0.763867
O O11 0.535427 0.116270 0.593630
O O12 0.750000 0.127876 0.874216
O O13 0.498874 0.093906 0.922885
O O14 0.750000 0.914888 0.015293
O O15 0.911747 0.812866 0.981887
O O16 0.250000 0.598518 0.713993
O O17 0.407624 0.606456 0.571557
O O18 0.250000 0.541692 0.458480
O O19 0.000000 0.500000 0.500000
O O20 0.250000 0.250000 0.130219
#
# Coordination Sequence:
#
# PCOD8243204 Si02
#       8
#     4   8   8   8   8   8   8   4
#     4  10  20  34  52  81 114 140 176 227 274 317
#     4  10  20  36  56  80 112 147 181 223 273 332
#     4   9  19  36  57  81 110 146 188 231 276 329
#     4  10  21  35  55  81 106 139 188 236 274 316
#     4  10  21  35  53  77 108 147 184 221 273 332
#     4  10  21  34  55  85 112 141 178 222 274 325
#     4  10  21  38  61  86 113 146 183 226 277 332
#     4  10  20  36  54  75 106 146 186 217 264 335
#
# _framework density 18.999089999999999
#
# number of rings (size 3 to 8) (size 9 to 14) (size 15 to 20)
#    0.000    2.143    1.429    1.286    2.000    3.429 
#    0.000    0.714    0.000    1.286    0.000    0.000 
#    0.000    0.000    0.000    0.000    0.000    0.000 
#
# Total GULP energy -694060.296152 kJ/mol
# GULP energy per Si atom -12393.933860 kJ/mol
# Density = 1.895585 g / cm^3
# Si number density = 18.999090 Si / 1000 Ang^3
#
#
#
# Elastic Constant Matrix: (Units=GPa)
#
#
# Indices 1 2 3 4 5 6 
#
# 1 40.8479 8.8744 16.5179 0.0000 0.0000 0.0000
# 2 8.8744 81.4511 3.1589 0.0000 0.0000 0.0000
# 3 16.5179 3.1589 66.0597 0.0000 0.0000 0.0000
# 4 0.0000 0.0000 0.0000 31.5202 0.0000 0.0000
# 5 0.0000 0.0000 0.0000 0.0000 24.8902 0.0000
# 6 0.0000 0.0000 0.0000 0.0000 0.0000 18.7525
#
#
#
# Elastic Compliance Matrix: (Units=1/GPa)
#
#
# Indices 1 2 3 4 5 6 
#
# 1 0.027845 -0.002769 -0.006830 0.000000 0.000000 0.000000
# 2 -0.002769 0.012575 0.000091 0.000000 0.000000 0.000000
# 3 -0.006830 0.000091 0.016841 0.000000 0.000000 0.000000
# 4 0.000000 0.000000 0.000000 0.031726 0.000000 0.000000
# 5 0.000000 0.000000 0.000000 0.000000 0.040176 0.000000
# 6 0.000000 0.000000 0.000000 0.000000 0.000000 0.053326
#
#
# Mechanical properties :
#
#
# Convention : Reuss Voigt Hill
#
# Bulk Modulus (GPa) = 26.14684 27.27344 26.71014
# Shear Modulus (GPa) = 23.33679 25.68640 24.51160
#
# Velocity S-wave (km/s) = 3.50853 3.68092 3.59576
# Velocity P-wave (km/s) = 5.49591 5.69665 5.59718
#
# Compressibility (1/GPa) = 0.03824554
#
# Stress axis : x y z
#
# Youngs Moduli (GPa) = 35.91373 79.52002 59.37792
#
# Poissons Ratio (x) = 0.22018 0.40555
# Poissons Ratio (y) = 0.09944 -0.00540
# Poissons Ratio (z) = 0.24529 -0.00724
#
# Static dielectric constant tensor:
#      x y z
#    x 3.365620 0.000000 0.000000 
#    y 0.000000 3.711190 0.000000 
#    z 0.000000 0.000000 3.392600 
# 
# 
# High freq. dielectric constant tensor:
#      x y z
#    x 1.718560 0.000000 0.000000 
#    y 0.000000 1.750130 0.000000 
#    z 0.000000 0.000000 1.734900 
# 
# From -- ./inp_files/21159.got.cif
#   From: 2010.03.12/outbox.cif.g09.slc.cpg/sg59_11_cif.got.tgz:21159.got - 2010.04.16 16:29:54.
