data_PCOD8243702
_publ_section_title
;
Structure prediction by ZEFSAII (Michael W. Deem and Ramdas Pophale) SiO2 
 PCOD8243702
Probable space group: P M M N
;
_chemical_formula_sum "Si O2"
_cell_formula_units_Z 56
_cell_length_a 14.092898
_cell_length_b 9.010654
_cell_length_c 22.702989
_cell_angle_alpha 90.000000
_cell_angle_beta 90.000000
_cell_angle_gamma 90.000000
_cell_volume 2882.966931
_symmetry_space_group_name_H-M "P M M N"
_symmetry_group_IT_number 59
_space_group.IT_coordinate_system_code '2'
_symmetry_cell_setting 'orthorhombic'
loop_
_space_group_symop_operation_xyz
x,y,z
1/2-x,1/2-y,z
1/2+x,-y,-z
-x,1/2+y,-z
-x,-y,-z
1/2+x,1/2+y,-z
1/2-x,y,z
x,1/2-y,z
loop_
_atom_site_type_symbol
_atom_site_label
_atom_site_fract_x
_atom_site_fract_y
_atom_site_fract_z
Si Si1 0.466870 0.575737 0.086464
Si Si2 0.640512 0.424266 0.032488
Si Si3 0.360177 0.075620 0.192892
Si Si4 0.352007 0.916389 0.407889
Si Si5 0.142664 0.078488 0.649621
Si Si6 0.031447 0.075722 0.310586
Si Si7 0.901645 0.574236 0.483565
O O1 0.480135 0.750000 0.093552
O O2 0.572092 0.505938 0.079198
O O3 0.416593 0.511678 0.143458
O O4 0.397796 0.535306 0.032295
O O5 0.750000 0.478924 0.038515
O O6 0.633937 0.250000 0.044579
O O7 0.250000 0.028225 0.193232
O O8 0.371254 0.250000 0.181401
O O9 0.407087 0.027795 0.254429
O O10 0.250000 0.909635 0.375363
O O11 0.391913 0.750000 0.419057
O O12 0.427221 0.002094 0.368870
O O13 0.331495 0.001566 0.469002
O O14 0.250000 0.047834 0.669620
O O15 0.115450 0.250000 0.657150
O O16 0.130840 0.029524 0.581764
O O17 0.076497 0.982701 0.693576
O O18 0.032830 0.250000 0.318822
O O19 0.903203 0.750000 0.491550
O O20 0.000000 0.500000 0.500000
#
# Coordination Sequence:
#
# PCOD8243702 Si02
#       7
#     8   8   8   8   8   8   8
#     4  10  20  34  56  88 121 153 194 240 286 336
#     4   9  18  34  56  84 121 161 197 235 281 334
#     4  10  22  40  60  83 113 150 191 233 282 340
#     4  11  23  37  55  81 112 145 181 223 275 335
#     4  10  22  40  60  81 109 145 183 227 282 341
#     4  11  23  39  60  83 109 143 186 235 281 331
#     4  11  21  35  57  83 111 143 179 222 278 339
#
# _framework density 19.424434000000002
#
# number of rings (size 3 to 8) (size 9 to 14) (size 15 to 20)
#    0.000    1.714    1.429    3.000    0.000    6.000 
#    0.000    0.714    0.000    0.857    0.000    0.000 
#    0.000    0.000    0.000    0.000    0.000    0.000 
#
# Total GULP energy -694324.620285 kJ/mol
# GULP energy per Si atom -12398.653934 kJ/mol
# Density = 1.938022 g / cm^3
# Si number density = 19.424434 Si / 1000 Ang^3
#
#
#
# Elastic Constant Matrix: (Units=GPa)
#
#
# Indices 1 2 3 4 5 6 
#
# 1 154.3887 55.2740 54.2862 0.0000 0.0000 0.0000
# 2 55.2740 79.0914 49.4076 0.0000 0.0000 0.0000
# 3 54.2862 49.4076 80.8770 0.0000 0.0000 0.0000
# 4 0.0000 0.0000 0.0000 31.4645 0.0000 0.0000
# 5 0.0000 0.0000 0.0000 0.0000 31.2111 0.0000
# 6 0.0000 0.0000 0.0000 0.0000 0.0000 29.6008
#
#
#
# Elastic Compliance Matrix: (Units=1/GPa)
#
#
# Indices 1 2 3 4 5 6 
#
# 1 0.009263 -0.004188 -0.003659 0.000000 0.000000 0.000000
# 2 -0.004188 0.022340 -0.010836 0.000000 0.000000 0.000000
# 3 -0.003659 -0.010836 0.021441 0.000000 0.000000 0.000000
# 4 0.000000 0.000000 0.000000 0.031782 0.000000 0.000000
# 5 0.000000 0.000000 0.000000 0.000000 0.032040 0.000000
# 6 0.000000 0.000000 0.000000 0.000000 0.000000 0.033783
#
#
# Mechanical properties :
#
#
# Convention : Reuss Voigt Hill
#
# Bulk Modulus (GPa) = 63.78961 70.25472 67.02216
# Shear Modulus (GPa) = 25.87455 28.81456 27.34455
#
# Velocity S-wave (km/s) = 3.65370 3.85570 3.75606
# Velocity P-wave (km/s) = 7.12113 7.48790 7.30682
#
# Compressibility (1/GPa) = 0.01567654
#
# Stress axis : x y z
#
# Youngs Moduli (GPa) = 107.95486 44.76362 46.64058
#
# Poissons Ratio (x) = 0.18746 0.17067
# Poissons Ratio (y) = 0.45208 0.50541
# Poissons Ratio (z) = 0.39504 0.48507
#
# Static dielectric constant tensor:
#      x y z
#    x 3.841950 0.000000 0.000000 
#    y 0.000000 3.632830 0.000000 
#    z 0.000000 0.000000 3.460660 
# 
# 
# High freq. dielectric constant tensor:
#      x y z
#    x 1.775980 0.000000 0.000000 
#    y 0.000000 1.758920 0.000000 
#    z 0.000000 0.000000 1.734100 
# 
# From -- ./inp_files/30329.got.cif
#   From: 2010.03.12/outbox.cif.g09.slc.cpg/sg59_16_cif.got.tgz:30329.got - 2010.04.16 16:29:54.
