data_PCOD8243230
_publ_section_title
;
Structure prediction by ZEFSAII (Michael W. Deem and Ramdas Pophale) SiO2 
 PCOD8243230
Probable space group: P M M N
;
_chemical_formula_sum "Si O2"
_cell_formula_units_Z 48
_cell_length_a 17.888334
_cell_length_b 9.158118
_cell_length_c 15.628857
_cell_angle_alpha 90.000000
_cell_angle_beta 90.000000
_cell_angle_gamma 90.000000
_cell_volume 2560.373642
_symmetry_space_group_name_H-M "P M M N"
_symmetry_group_IT_number 59
_space_group.IT_coordinate_system_code '2'
_symmetry_cell_setting 'orthorhombic'
loop_
_space_group_symop_operation_xyz
x,y,z
1/2-x,1/2-y,z
1/2+x,-y,-z
-x,1/2+y,-z
-x,-y,-z
1/2+x,1/2+y,-z
1/2-x,y,z
x,1/2-y,z
loop_
_atom_site_type_symbol
_atom_site_label
_atom_site_fract_x
_atom_site_fract_y
_atom_site_fract_z
Si Si1 0.165212 0.578954 0.674764
Si Si2 0.160891 0.585856 0.188344
Si Si3 0.920787 0.076340 0.495271
Si Si4 0.339022 0.085262 0.026075
Si Si5 0.338749 0.083871 0.354706
Si Si6 0.161241 0.085532 0.838356
O O1 0.250000 0.522817 0.659436
O O2 0.164487 0.750000 0.687636
O O3 0.115603 0.530936 0.594689
O O4 0.129004 0.511155 0.760876
O O5 0.250000 0.586831 0.186709
O O6 0.129802 0.750000 0.199200
O O7 0.128553 0.520027 0.099709
O O8 0.132008 0.485738 0.266132
O O9 0.928333 0.250000 0.504987
O O10 0.868053 0.015449 0.569013
O O11 0.000000 0.000000 0.500000
O O12 0.250000 0.083961 0.029211
O O13 0.367457 0.250000 0.042681
O O14 0.366484 0.030387 0.932084
O O15 0.250000 0.081988 0.358444
O O16 0.369085 0.250000 0.361523
O O17 0.250000 0.077034 0.836821
O O18 0.133421 0.250000 0.823711
#
# Coordination Sequence:
#
# PCOD8243230 Si02
#       6
#     8   8   8   8   8   8
#     4   9  18  32  50  72  98 128 161 200 246 292
#     4   9  16  25  40  65  96 129 163 199 240 285
#     4  11  23  38  54  73  99 130 166 208 254 302
#     4   8  13  22  36  58  92 129 160 193 235 280
#     4  10  20  34  53  76 101 131 167 206 249 297
#     4   8  14  24  40  64  94 127 161 197 237 282
#
# _framework density 18.747264000000001
#
# number of rings (size 3 to 8) (size 9 to 14) (size 15 to 20)
#    0.000    2.833    0.000    3.000    0.000    5.667 
#    0.000    5.000    0.000    0.000    0.000    1.167 
#    0.000    0.000    0.000    0.000    0.000    0.000 
#
# Total GULP energy -594979.279000 kJ/mol
# GULP energy per Si atom -12395.401646 kJ/mol
# Density = 1.870459 g / cm^3
# Si number density = 18.747264 Si / 1000 Ang^3
#
#
#
# Elastic Constant Matrix: (Units=GPa)
#
#
# Indices 1 2 3 4 5 6 
#
# 1 15.9923 20.2382 18.8379 0.0000 0.0000 0.0000
# 2 20.2382 98.0744 75.0398 0.0000 0.0000 0.0000
# 3 18.8379 75.0398 174.5440 0.0000 0.0000 0.0000
# 4 0.0000 0.0000 0.0000 41.4756 0.0000 0.0000
# 5 0.0000 0.0000 0.0000 0.0000 -1.4992 0.0000
# 6 0.0000 0.0000 0.0000 0.0000 0.0000 17.8371
#
#
#
# Elastic Compliance Matrix: (Units=1/GPa)
#
#
# Indices 1 2 3 4 5 6 
#
# 1 0.085324 -0.015738 -0.002443 0.000000 0.000000 0.000000
# 2 -0.015738 0.018097 -0.006082 0.000000 0.000000 0.000000
# 3 -0.002443 -0.006082 0.008608 0.000000 0.000000 0.000000
# 4 0.000000 0.000000 0.000000 0.024111 0.000000 0.000000
# 5 0.000000 0.000000 0.000000 0.000000 -0.667028 0.000000
# 6 0.000000 0.000000 0.000000 0.000000 0.000000 0.056063
#
#
# Mechanical properties :
#
#
# Convention : Reuss Voigt Hill
#
# Bulk Modulus (GPa) = 15.74708 57.42692 36.58700
# Shear Modulus (GPa) = -12.34167 23.19569 5.42701
#
# Velocity S-wave (km/s) = -2.56855 3.52132 1.70327
# Velocity P-wave (km/s) = 0.61541 6.87252 4.84009
#
# Compressibility (1/GPa) = 0.06350385
#
# Stress axis : x y z
#
# Youngs Moduli (GPa) = 11.72001 55.25641 116.17714
#
# Poissons Ratio (x) = 0.86964 0.28377
# Poissons Ratio (y) = 0.18445 0.70657
# Poissons Ratio (z) = 0.02863 0.33606
#
# Static dielectric constant tensor:
#      x y z
#    x 2.866720 0.000000 0.000000 
#    y 0.000000 3.636310 0.000000 
#    z 0.000000 0.000000 3.950920 
# 
# 
# High freq. dielectric constant tensor:
#      x y z
#    x 1.662110 0.000000 0.000000 
#    y 0.000000 1.732100 0.000000 
#    z 0.000000 0.000000 1.750030 
# 
# From -- ./inp_files/24109.got.cif
#   From: 2010.03.12/outbox.cif.g09.slc.cpg/sg59_13_cif.got.tgz:24109.got - 2010.04.16 16:29:54.
