data_PCOD8243419
_publ_section_title
;
Structure prediction by ZEFSAII (Michael W. Deem and Ramdas Pophale) SiO2 
 PCOD8243419
Probable space group: P M M N
;
_chemical_formula_sum "Si O2"
_cell_formula_units_Z 48
_cell_length_a 9.589358
_cell_length_b 15.625111
_cell_length_c 17.313664
_cell_angle_alpha 90.000000
_cell_angle_beta 90.000000
_cell_angle_gamma 90.000000
_cell_volume 2594.189091
_symmetry_space_group_name_H-M "P M M N"
_symmetry_group_IT_number 59
_space_group.IT_coordinate_system_code '2'
_symmetry_cell_setting 'orthorhombic'
loop_
_space_group_symop_operation_xyz
x,y,z
1/2-x,1/2-y,z
1/2+x,-y,-z
-x,1/2+y,-z
-x,-y,-z
1/2+x,1/2+y,-z
1/2-x,y,z
x,1/2-y,z
loop_
_atom_site_type_symbol
_atom_site_label
_atom_site_fract_x
_atom_site_fract_y
_atom_site_fract_z
Si Si1 0.084828 0.401087 0.320479
Si Si2 0.083941 0.654709 0.151314
Si Si3 0.094006 0.647617 0.983518
Si Si4 0.083473 0.250000 0.430709
Si Si5 0.915099 0.089599 0.688581
Si Si6 0.083243 0.750000 0.411725
Si Si7 0.593937 0.851500 0.845755
O O1 0.250000 0.392669 0.314907
O O2 0.032226 0.333778 0.383927
O O3 0.036805 0.497123 0.344313
O O4 0.024883 0.379375 0.235560
O O5 0.250000 0.659063 0.150842
O O6 0.023601 0.750000 0.163466
O O7 0.028471 0.598302 0.223263
O O8 0.036442 0.616970 0.067865
O O9 0.250000 0.613137 0.968651
O O10 0.094491 0.750000 0.983209
O O11 0.995952 0.610247 0.916219
O O12 0.250000 0.250000 0.445574
O O13 0.998541 0.250000 0.508912
O O14 0.750000 0.095317 0.690898
O O15 0.969115 0.166040 0.634401
O O16 0.250000 0.750000 0.425137
O O17 0.750000 0.889341 0.853961
O O18 0.597579 0.750000 0.849198
#
# Coordination Sequence:
#
# PCOD8243419 Si02
#       7
#     8   8   8   4   8   4   8
#     4   9  17  30  49  70  93 127 164 192 224 276
#     4   8  12  22  41  65  93 123 154 191 232 274
#     4   8  14  23  39  65  93 121 155 192 234 275
#     4  10  20  36  54  71  96 128 156 185 230 290
#     4   9  16  28  49  75  98 120 154 199 237 270
#     4  10  20  34  54  79  98 114 148 199 244 282
#     4   9  15  26  44  64  89 122 162 198 224 260
#
# _framework density 18.502893
#
# number of rings (size 3 to 8) (size 9 to 14) (size 15 to 20)
#    0.000    3.167    1.667    1.000    0.000    0.667 
#    0.000    1.667    0.000    2.000    0.000    0.000 
#    0.000    0.000    0.000    0.000    0.000    0.000 
#
# Total GULP energy -594763.093489 kJ/mol
# GULP energy per Si atom -12390.897781 kJ/mol
# Density = 1.846078 g / cm^3
# Si number density = 18.502893 Si / 1000 Ang^3
#
#
#
# Elastic Constant Matrix: (Units=GPa)
#
#
# Indices 1 2 3 4 5 6 
#
# 1 33.3876 17.5671 42.2451 0.0000 0.0000 0.0000
# 2 17.5671 93.2625 64.8940 0.0000 0.0000 0.0000
# 3 42.2451 64.8940 177.9428 0.0000 0.0000 0.0000
# 4 0.0000 0.0000 0.0000 9.6369 0.0000 0.0000
# 5 0.0000 0.0000 0.0000 0.0000 30.0912 0.0000
# 6 0.0000 0.0000 0.0000 0.0000 0.0000 6.0622
#
#
#
# Elastic Compliance Matrix: (Units=1/GPa)
#
#
# Indices 1 2 3 4 5 6 
#
# 1 0.042935 -0.001333 -0.009707 0.000000 0.000000 0.000000
# 2 -0.001333 0.014410 -0.004939 0.000000 0.000000 0.000000
# 3 -0.009707 -0.004939 0.009725 0.000000 0.000000 0.000000
# 4 0.000000 0.000000 0.000000 0.103768 0.000000 0.000000
# 5 0.000000 0.000000 0.000000 0.000000 0.033232 0.000000
# 6 0.000000 0.000000 0.000000 0.000000 0.000000 0.164957
#
#
# Mechanical properties :
#
#
# Convention : Reuss Voigt Hill
#
# Bulk Modulus (GPa) = 28.47962 61.55613 45.01788
# Shear Modulus (GPa) = 12.11569 21.15051 16.63310
#
# Velocity S-wave (km/s) = 2.56168 3.38463 3.00150
# Velocity P-wave (km/s) = 4.91681 6.97244 6.03282
#
# Compressibility (1/GPa) = 0.03511282
#
# Stress axis : x y z
#
# Youngs Moduli (GPa) = 23.29119 69.39642 102.82362
#
# Poissons Ratio (x) = 0.09250 0.99810
# Poissons Ratio (y) = 0.03105 0.50782
# Poissons Ratio (z) = 0.22609 0.34273
#
# Static dielectric constant tensor:
#      x y z
#    x 2.943460 0.000000 0.000000 
#    y 0.000000 3.458070 0.000000 
#    z 0.000000 0.000000 3.627960 
# 
# 
# High freq. dielectric constant tensor:
#      x y z
#    x 1.648290 0.000000 0.000000 
#    y 0.000000 1.710010 0.000000 
#    z 0.000000 0.000000 1.727680 
# 
# From -- ./inp_files/22447.got.cif
#   From: 2010.03.12/outbox.cif.g09.slc.cpg/sg59_12_cif.got.tgz:22447.got - 2010.04.16 16:29:54.
