data_PCOD8243965
_publ_section_title
;
Structure prediction by ZEFSAII (Michael W. Deem and Ramdas Pophale) SiO2 
 PCOD8243965
Probable space group: P M M N
;
_chemical_formula_sum "Si O2"
_cell_formula_units_Z 64
_cell_length_a 22.683592
_cell_length_b 16.947227
_cell_length_c 9.276928
_cell_angle_alpha 90.000000
_cell_angle_beta 90.000000
_cell_angle_gamma 90.000000
_cell_volume 3566.273610
_symmetry_space_group_name_H-M "P M M N"
_symmetry_group_IT_number 59
_space_group.IT_coordinate_system_code '2'
_symmetry_cell_setting 'orthorhombic'
loop_
_space_group_symop_operation_xyz
x,y,z
1/2-x,1/2-y,z
1/2+x,-y,-z
-x,1/2+y,-z
-x,-y,-z
1/2+x,1/2+y,-z
1/2-x,y,z
x,1/2-y,z
loop_
_atom_site_type_symbol
_atom_site_label
_atom_site_fract_x
_atom_site_fract_y
_atom_site_fract_z
Si Si1 0.402090 0.840091 0.157236
Si Si2 0.683806 0.530085 0.609841
Si Si3 0.514876 0.453215 0.289922
Si Si4 0.923416 0.068639 0.573723
Si Si5 0.317716 0.340301 0.612434
Si Si6 0.515188 0.841639 0.966545
Si Si7 0.107962 0.429424 0.851113
Si Si8 0.682044 0.478468 0.922634
O O1 0.382592 0.750000 0.135863
O O2 0.416430 0.854491 0.326086
O O3 0.349244 0.894648 0.102405
O O4 0.460214 0.861171 0.068167
O O5 0.750000 0.500475 0.576475
O O6 0.640661 0.466818 0.535030
O O7 0.673183 0.616271 0.541058
O O8 0.673232 0.533825 0.781959
O O9 0.543115 0.408561 0.427540
O O10 0.457830 0.501739 0.337048
O O11 0.493126 0.386593 0.182587
O O12 0.562239 0.510837 0.219813
O O13 0.250000 0.346869 0.664501
O O14 0.336592 0.250000 0.589266
O O15 0.359646 0.378697 0.730586
O O16 0.520634 0.750000 0.931290
O O17 0.574529 0.869750 0.043487
O O18 0.156102 0.478084 0.939346
O O19 0.750000 0.460521 0.953674
#
# Coordination Sequence:
#
# PCOD8243965 Si02
#       8
#     8   8   8   8   8   8   8   8
#     4  10  20  35  56  82 113 145 184 233 283 329
#     4   9  18  35  55  79 107 141 183 226 272 331
#     4  11  21  35  57  80 111 151 184 231 275 336
#     4  10  20  36  56  83 108 145 189 228 278 330
#     4  10  21  37  57  82 113 147 184 230 280 327
#     4  11  22  36  54  82 115 150 182 225 282 332
#     4  12  20  37  57  83 110 150 188 231 270 335
#     4  10  21  36  59  84 109 144 190 233 278 335
#
# _framework density 17.945903000000001
#
# number of rings (size 3 to 8) (size 9 to 14) (size 15 to 20)
#    0.000    1.625    3.750    2.625    0.000    0.750 
#    0.000    3.125    0.000    3.000    0.000    0.000 
#    0.000    0.000    0.000    0.000    0.000    0.000 
#
# Total GULP energy -793705.501588 kJ/mol
# GULP energy per Si atom -12401.648462 kJ/mol
# Density = 1.790506 g / cm^3
# Si number density = 17.945903 Si / 1000 Ang^3
#
#
#
# Elastic Constant Matrix: (Units=GPa)
#
#
# Indices 1 2 3 4 5 6 
#
# 1 92.7358 39.9430 31.4678 0.0000 0.0000 0.0000
# 2 39.9430 84.2958 48.2565 0.0000 0.0000 0.0000
# 3 31.4678 48.2565 76.0741 0.0000 0.0000 0.0000
# 4 0.0000 0.0000 0.0000 29.2639 0.0000 0.0000
# 5 0.0000 0.0000 0.0000 0.0000 19.7616 0.0000
# 6 0.0000 0.0000 0.0000 0.0000 0.0000 24.5031
#
#
#
# Elastic Compliance Matrix: (Units=1/GPa)
#
#
# Indices 1 2 3 4 5 6 
#
# 1 0.013835 -0.005149 -0.002456 0.000000 0.000000 0.000000
# 2 -0.005149 0.020544 -0.010902 0.000000 0.000000 0.000000
# 3 -0.002456 -0.010902 0.021076 0.000000 0.000000 0.000000
# 4 0.000000 0.000000 0.000000 0.034172 0.000000 0.000000
# 5 0.000000 0.000000 0.000000 0.000000 0.050603 0.000000
# 6 0.000000 0.000000 0.000000 0.000000 0.000000 0.040811
#
#
# Mechanical properties :
#
#
# Convention : Reuss Voigt Hill
#
# Bulk Modulus (GPa) = 54.22880 54.71559 54.47219
# Shear Modulus (GPa) = 22.30128 23.60161 22.95145
#
# Velocity S-wave (km/s) = 3.52901 3.63044 3.58008
# Velocity P-wave (km/s) = 6.84754 6.93749 6.89266
#
# Compressibility (1/GPa) = 0.01844039
#
# Stress axis : x y z
#
# Youngs Moduli (GPa) = 72.28191 48.67653 47.44649
#
# Poissons Ratio (x) = 0.25065 0.11654
# Poissons Ratio (y) = 0.37221 0.51724
# Poissons Ratio (z) = 0.17754 0.53065
#
# Static dielectric constant tensor:
#      x y z
#    x 3.508880 0.000000 0.000000 
#    y 0.000000 3.168680 0.000000 
#    z 0.000000 0.000000 3.419180 
# 
# 
# High freq. dielectric constant tensor:
#      x y z
#    x 1.709320 0.000000 0.000000 
#    y 0.000000 1.678710 0.000000 
#    z 0.000000 0.000000 1.699940 
# 
# From -- ./inp_files/9554.got.cif
#   From: 2010.03.12/outbox.cif.g09.slc.cpg/sg59_5_cif.got.tgz:9554.got - 2010.04.16 16:29:54.
