data_PCOD8243638
_publ_section_title
;
Structure prediction by ZEFSAII (Michael W. Deem and Ramdas Pophale) SiO2 
 PCOD8243638
Probable space group: P M M N
;
_chemical_formula_sum "Si O2"
_cell_formula_units_Z 64
_cell_length_a 9.075654
_cell_length_b 18.105870
_cell_length_c 21.199889
_cell_angle_alpha 90.000000
_cell_angle_beta 90.000000
_cell_angle_gamma 90.000000
_cell_volume 3483.621124
_symmetry_space_group_name_H-M "P M M N"
_symmetry_group_IT_number 59
_space_group.IT_coordinate_system_code '2'
_symmetry_cell_setting 'orthorhombic'
loop_
_space_group_symop_operation_xyz
x,y,z
1/2-x,1/2-y,z
1/2+x,-y,-z
-x,1/2+y,-z
-x,-y,-z
1/2+x,1/2+y,-z
1/2-x,y,z
x,1/2-y,z
loop_
_atom_site_type_symbol
_atom_site_label
_atom_site_fract_x
_atom_site_fract_y
_atom_site_fract_z
Si Si1 0.419014 0.335529 0.616428
Si Si2 0.582602 0.956170 0.188618
Si Si3 0.078705 0.610562 0.756240
Si Si4 0.075500 0.421993 0.492982
Si Si5 0.920078 0.834474 0.875959
Si Si6 0.423279 0.833895 0.258025
Si Si7 0.921110 0.163679 0.382301
Si Si8 0.578106 0.036030 0.059135
O O1 0.250000 0.353571 0.631654
O O2 0.446161 0.250000 0.603379
O O3 0.473667 0.376549 0.554234
O O4 0.512561 0.363332 0.675881
O O5 0.750000 0.930124 0.197320
O O6 0.479406 0.886300 0.202226
O O7 0.546286 0.023403 0.236211
O O8 0.551815 0.981607 0.117639
O O9 0.250000 0.627140 0.770513
O O10 0.033082 0.635731 0.686768
O O11 0.983728 0.657111 0.805649
O O12 0.250000 0.431032 0.488450
O O13 0.000000 0.500000 0.500000
O O14 0.020048 0.380149 0.431348
O O15 0.750000 0.858926 0.875455
O O16 0.937749 0.750000 0.897750
O O17 0.007691 0.884408 0.926048
O O18 0.250000 0.838533 0.261765
O O19 0.476445 0.750000 0.244803
O O20 0.750000 0.146752 0.395464
O O21 0.955849 0.250000 0.388034
O O22 0.750000 0.047585 0.045227
O O23 0.500000 0.000000 0.000000
#
# Coordination Sequence:
#
# PCOD8243638 Si02
#       8
#     8   8   8   8   8   8   8   8
#     4   9  19  37  58  75  97 136 180 223 274 331
#     4   9  19  35  56  82 111 145 182 220 266 322
#     4   9  19  35  56  82 112 146 184 225 274 331
#     4  11  24  39  55  77 106 141 184 231 279 333
#     4  10  20  34  55  85 118 150 188 232 274 322
#     4  10  21  35  54  82 111 138 176 228 279 325
#     4  10  21  37  57  81 111 146 181 224 280 336
#     4  10  21  38  60  85 114 151 190 229 276 326
#
# _framework density 18.371687000000001
#
# number of rings (size 3 to 8) (size 9 to 14) (size 15 to 20)
#    0.000    2.250    0.000    3.000    1.750    7.000 
#    0.000    1.875    0.000    0.750    0.000    0.000 
#    0.000    0.000    0.000    0.000    0.000    0.000 
#
# Total GULP energy -793811.626037 kJ/mol
# GULP energy per Si atom -12403.306657 kJ/mol
# Density = 1.832987 g / cm^3
# Si number density = 18.371687 Si / 1000 Ang^3
#
#
#
# Elastic Constant Matrix: (Units=GPa)
#
#
# Indices 1 2 3 4 5 6 
#
# 1 97.3738 60.1608 59.8750 0.0000 0.0000 0.0000
# 2 60.1608 106.5878 68.6496 0.0000 0.0000 0.0000
# 3 59.8750 68.6496 106.4707 0.0000 0.0000 0.0000
# 4 0.0000 0.0000 0.0000 28.9420 0.0000 0.0000
# 5 0.0000 0.0000 0.0000 0.0000 36.1471 0.0000
# 6 0.0000 0.0000 0.0000 0.0000 0.0000 33.5475
#
#
#
# Elastic Compliance Matrix: (Units=1/GPa)
#
#
# Indices 1 2 3 4 5 6 
#
# 1 0.017779 -0.006149 -0.006033 0.000000 0.000000 0.000000
# 2 -0.006149 0.018172 -0.008259 0.000000 0.000000 0.000000
# 3 -0.006033 -0.008259 0.018110 0.000000 0.000000 0.000000
# 4 0.000000 0.000000 0.000000 0.034552 0.000000 0.000000
# 5 0.000000 0.000000 0.000000 0.000000 0.027665 0.000000
# 6 0.000000 0.000000 0.000000 0.000000 0.000000 0.029809
#
#
# Mechanical properties :
#
#
# Convention : Reuss Voigt Hill
#
# Bulk Modulus (GPa) = 75.88083 76.42258 76.15170
# Shear Modulus (GPa) = 26.12871 27.84377 26.98624
#
# Velocity S-wave (km/s) = 3.77533 3.89727 3.83679
# Velocity P-wave (km/s) = 7.77155 7.87019 7.82103
#
# Compressibility (1/GPa) = 0.01317856
#
# Stress axis : x y z
#
# Youngs Moduli (GPa) = 56.24768 55.03072 55.21727
#
# Poissons Ratio (x) = 0.33837 0.33315
# Poissons Ratio (y) = 0.34585 0.45603
# Poissons Ratio (z) = 0.33936 0.45449
#
# Static dielectric constant tensor:
#      x y z
#    x 3.411610 0.000000 0.000000 
#    y 0.000000 3.449570 0.000000 
#    z 0.000000 0.000000 4.834780 
# 
# 
# High freq. dielectric constant tensor:
#      x y z
#    x 1.716840 0.000000 0.000000 
#    y 0.000000 1.717820 0.000000 
#    z 0.000000 0.000000 1.707570 
# 
# From -- ./inp_files/29400.got.cif
#   From: 2010.03.12/outbox.cif.g09.slc.cpg/sg59_15_cif.got.tgz:29400.got - 2010.04.16 16:29:54.
