data_PCOD8243883
_publ_section_title
;
Structure prediction by ZEFSAII (Michael W. Deem and Ramdas Pophale) SiO2 
 PCOD8243883
Probable space group: P M M N
;
_chemical_formula_sum "Si O2"
_cell_formula_units_Z 64
_cell_length_a 22.037115
_cell_length_b 9.075248
_cell_length_c 16.582611
_cell_angle_alpha 90.000000
_cell_angle_beta 90.000000
_cell_angle_gamma 90.000000
_cell_volume 3316.394246
_symmetry_space_group_name_H-M "P M M N"
_symmetry_group_IT_number 59
_space_group.IT_coordinate_system_code '2'
_symmetry_cell_setting 'orthorhombic'
loop_
_space_group_symop_operation_xyz
x,y,z
1/2-x,1/2-y,z
1/2+x,-y,-z
-x,1/2+y,-z
-x,-y,-z
1/2+x,1/2+y,-z
1/2-x,y,z
x,1/2-y,z
loop_
_atom_site_type_symbol
_atom_site_label
_atom_site_fract_x
_atom_site_fract_y
_atom_site_fract_z
Si Si1 0.922336 0.425654 0.718646
Si Si2 0.822122 0.582619 0.145077
Si Si3 0.351238 0.084574 0.558073
Si Si4 0.587010 0.078219 0.037762
Si Si5 0.988943 0.914583 0.419419
Si Si6 0.321017 0.422560 0.378204
Si Si7 0.682155 0.409663 0.296205
Si Si8 0.460512 0.422121 0.116819
O O1 0.919773 0.250000 0.727009
O O2 0.856948 0.485453 0.689367
O O3 0.940321 0.494864 0.803175
O O4 0.973787 0.480799 0.655563
O O5 0.750000 0.575694 0.135780
O O6 0.845510 0.750000 0.137867
O O7 0.851197 0.482317 0.075981
O O8 0.846649 0.521420 0.231249
O O9 0.324269 0.250000 0.561833
O O10 0.417720 0.079722 0.597458
O O11 0.347310 0.029816 0.465781
O O12 0.313131 0.977107 0.614410
O O13 0.593998 0.250000 0.017198
O O14 0.531668 0.050960 0.099802
O O15 0.578077 0.988796 0.955920
O O16 0.012207 0.750000 0.434466
O O17 0.000000 0.000000 0.500000
O O18 0.250000 0.462455 0.372643
O O19 0.332186 0.250000 0.363092
O O20 0.750000 0.381390 0.266622
O O21 0.648048 0.250000 0.297039
O O22 0.445429 0.250000 0.125016
#
# Coordination Sequence:
#
# PCOD8243883 Si02
#       8
#     8   8   8   8   8   8   8   8
#     4  11  23  38  58  87 119 151 188 238 292 339
#     4  10  21  37  58  84 117 157 195 233 281 341
#     4  10  20  35  55  80 109 148 193 234 282 339
#     4  10  21  39  63  92 120 149 186 232 287 342
#     4  10  21  36  55  81 112 147 185 231 281 334
#     4  10  21  38  60  82 109 151 199 244 289 342
#     4  10  21  35  51  77 113 150 191 236 278 327
#     4  10  22  40  63  89 117 152 189 233 285 345
#
# _framework density 19.298069000000002
#
# number of rings (size 3 to 8) (size 9 to 14) (size 15 to 20)
#    0.000    1.875    1.250    2.250    1.750    5.250 
#    0.000    0.625    0.000    3.750    0.000    0.000 
#    0.000    0.000    0.000    0.000    0.000    0.000 
#
# Total GULP energy -793543.858501 kJ/mol
# GULP energy per Si atom -12399.122789 kJ/mol
# Density = 1.925415 g / cm^3
# Si number density = 19.298069 Si / 1000 Ang^3
#
#
#
# Elastic Constant Matrix: (Units=GPa)
#
#
# Indices 1 2 3 4 5 6 
#
# 1 71.5560 40.0834 49.2834 0.0000 0.0000 0.0000
# 2 40.0834 107.8204 61.7206 0.0000 0.0000 0.0000
# 3 49.2834 61.7206 134.2793 0.0000 0.0000 0.0000
# 4 0.0000 0.0000 0.0000 37.1926 0.0000 0.0000
# 5 0.0000 0.0000 0.0000 0.0000 27.6491 0.0000
# 6 0.0000 0.0000 0.0000 0.0000 0.0000 28.3476
#
#
#
# Elastic Compliance Matrix: (Units=1/GPa)
#
#
# Indices 1 2 3 4 5 6 
#
# 1 0.020143 -0.004419 -0.005362 0.000000 0.000000 0.000000
# 2 -0.004419 0.013556 -0.004609 0.000000 0.000000 0.000000
# 3 -0.005362 -0.004609 0.011534 0.000000 0.000000 0.000000
# 4 0.000000 0.000000 0.000000 0.026887 0.000000 0.000000
# 5 0.000000 0.000000 0.000000 0.000000 0.036168 0.000000
# 6 0.000000 0.000000 0.000000 0.000000 0.000000 0.035276
#
#
# Mechanical properties :
#
#
# Convention : Reuss Voigt Hill
#
# Bulk Modulus (GPa) = 60.77936 68.42560 64.60248
# Shear Modulus (GPa) = 28.11705 29.47577 28.79641
#
# Velocity S-wave (km/s) = 3.82119 3.91243 3.86708
# Velocity P-wave (km/s) = 7.14368 7.47955 7.31354
#
# Compressibility (1/GPa) = 0.01645295
#
# Stress axis : x y z
#
# Youngs Moduli (GPa) = 49.64386 73.76860 86.70375
#
# Poissons Ratio (x) = 0.32600 0.46489
# Poissons Ratio (y) = 0.21939 0.39961
# Poissons Ratio (z) = 0.26618 0.33999
#
# Static dielectric constant tensor:
#      x y z
#    x 3.638140 0.000000 0.000000 
#    y 0.000000 3.704890 0.000000 
#    z 0.000000 0.000000 3.440180 
# 
# 
# High freq. dielectric constant tensor:
#      x y z
#    x 1.741130 0.000000 0.000000 
#    y 0.000000 1.761180 0.000000 
#    z 0.000000 0.000000 1.746860 
# 
# From -- ./inp_files/24670.got.cif
#   From: 2010.03.12/outbox.cif.g09.slc.cpg/sg59_13_cif.got.tgz:24670.got - 2010.04.16 16:29:54.
