data_PCOD8243585
_publ_section_title
;
Structure prediction by ZEFSAII (Michael W. Deem and Ramdas Pophale) SiO2 
 PCOD8243585
Probable space group: P M M N
;
_chemical_formula_sum "Si O2"
_cell_formula_units_Z 32
_cell_length_a 9.165016
_cell_length_b 9.061857
_cell_length_c 20.654576
_cell_angle_alpha 90.000000
_cell_angle_beta 90.000000
_cell_angle_gamma 90.000000
_cell_volume 1715.405176
_symmetry_space_group_name_H-M "P M M N"
_symmetry_group_IT_number 59
_space_group.IT_coordinate_system_code '2'
_symmetry_cell_setting 'orthorhombic'
loop_
_space_group_symop_operation_xyz
x,y,z
1/2-x,1/2-y,z
1/2+x,-y,-z
-x,1/2+y,-z
-x,-y,-z
1/2+x,1/2+y,-z
1/2-x,y,z
x,1/2-y,z
loop_
_atom_site_type_symbol
_atom_site_label
_atom_site_fract_x
_atom_site_fract_y
_atom_site_fract_z
Si Si1 0.579638 0.576448 0.559288
Si Si2 0.914088 0.423721 0.056614
Si Si3 0.578791 0.921108 0.324797
Si Si4 0.423100 0.913595 0.801654
O O1 0.500000 0.500000 0.500000
O O2 0.750000 0.537764 0.556361
O O3 0.552098 0.750000 0.554985
O O4 0.513304 0.516594 0.625474
O O5 0.750000 0.483400 0.052517
O O6 0.920163 0.250000 0.046410
O O7 0.981858 0.463790 0.127556
O O8 0.000000 0.500000 0.000000
O O9 0.750000 0.951868 0.335981
O O10 0.541564 0.750000 0.334068
O O11 0.528703 0.970248 0.253034
O O12 0.250000 0.904901 0.806881
O O13 0.483090 0.750000 0.783800
#
# Coordination Sequence:
#
# PCOD8243585 Si02
#       4
#     8   8   8   8
#     4  11  24  40  58  81 108 139 175 212 252 302
#     4   9  18  32  50  74 103 135 174 217 260 310
#     4  10  20  34  55  83 109 134 170 214 259 309
#     4   8  15  30  51  73 100 136 175 214 257 306
#
# _framework density 18.654485999999999
#
# number of rings (size 3 to 8) (size 9 to 14) (size 15 to 20)
#    0.000    2.500    0.000    3.750    0.000    8.000 
#    0.000    3.750    0.000    1.500    0.000    0.000 
#    0.000    0.000    0.000    0.000    0.000    0.000 
#
# Total GULP energy -396711.797704 kJ/mol
# GULP energy per Si atom -12397.243678 kJ/mol
# Density = 1.861203 g / cm^3
# Si number density = 18.654486 Si / 1000 Ang^3
#
#
#
# Elastic Constant Matrix: (Units=GPa)
#
#
# Indices 1 2 3 4 5 6 
#
# 1 74.7972 54.8206 64.2575 0.0000 0.0000 0.0000
# 2 54.8206 85.8177 67.7053 0.0000 0.0000 0.0000
# 3 64.2575 67.7053 165.3562 0.0000 0.0000 0.0000
# 4 0.0000 0.0000 0.0000 42.6555 0.0000 0.0000
# 5 0.0000 0.0000 0.0000 0.0000 31.9105 0.0000
# 6 0.0000 0.0000 0.0000 0.0000 0.0000 27.1780
#
#
#
# Elastic Compliance Matrix: (Units=1/GPa)
#
#
# Indices 1 2 3 4 5 6 
#
# 1 0.027905 -0.013695 -0.005237 0.000000 0.000000 0.000000
# 2 -0.013695 0.023934 -0.004478 0.000000 0.000000 0.000000
# 3 -0.005237 -0.004478 0.009916 0.000000 0.000000 0.000000
# 4 0.000000 0.000000 0.000000 0.023444 0.000000 0.000000
# 5 0.000000 0.000000 0.000000 0.000000 0.031338 0.000000
# 6 0.000000 0.000000 0.000000 0.000000 0.000000 0.036794
#
#
# Mechanical properties :
#
#
# Convention : Reuss Voigt Hill
#
# Bulk Modulus (GPa) = 66.95006 77.72645 72.33825
# Shear Modulus (GPa) = 24.37499 29.62797 27.00148
#
# Velocity S-wave (km/s) = 3.61869 3.98961 3.80867
# Velocity P-wave (km/s) = 7.30940 7.93596 7.62911
#
# Compressibility (1/GPa) = 0.01493651
#
# Stress axis : x y z
#
# Youngs Moduli (GPa) = 35.83529 41.78237 100.84640
#
# Poissons Ratio (x) = 0.57219 0.52812
# Poissons Ratio (y) = 0.49075 0.45158
# Poissons Ratio (z) = 0.18766 0.18710
#
# Static dielectric constant tensor:
#      x y z
#    x 3.218160 0.000000 0.000000 
#    y 0.000000 3.326500 0.000000 
#    z 0.000000 0.000000 3.689010 
# 
# 
# High freq. dielectric constant tensor:
#      x y z
#    x 1.692700 0.000000 0.000000 
#    y 0.000000 1.725990 0.000000 
#    z 0.000000 0.000000 1.745250 
# 
# From -- ./inp_files/25213.got.cif
#   From: 2010.03.12/outbox.cif.g09.slc.cpg/sg59_13_cif.got.tgz:25213.got - 2010.04.16 16:29:54.
