data_PCOD8243915
_publ_section_title
;
Structure prediction by ZEFSAII (Michael W. Deem and Ramdas Pophale) SiO2 
 PCOD8243915
Probable space group: P M M N
;
_chemical_formula_sum "Si O2"
_cell_formula_units_Z 56
_cell_length_a 14.234994
_cell_length_b 15.815004
_cell_length_c 12.615752
_cell_angle_alpha 90.000000
_cell_angle_beta 90.000000
_cell_angle_gamma 90.000000
_cell_volume 2840.139929
_symmetry_space_group_name_H-M "P M M N"
_symmetry_group_IT_number 59
_space_group.IT_coordinate_system_code '2'
_symmetry_cell_setting 'orthorhombic'
loop_
_space_group_symop_operation_xyz
x,y,z
1/2-x,1/2-y,z
1/2+x,-y,-z
-x,1/2+y,-z
-x,-y,-z
1/2+x,1/2+y,-z
1/2-x,y,z
x,1/2-y,z
loop_
_atom_site_type_symbol
_atom_site_label
_atom_site_fract_x
_atom_site_fract_y
_atom_site_fract_z
Si Si1 0.980487 0.918572 0.179400
Si Si2 0.145846 0.656615 0.714909
Si Si3 0.356620 0.021660 0.626911
Si Si4 0.143691 0.844353 0.291106
Si Si5 0.462583 0.402519 0.195344
Si Si6 0.646736 0.653890 0.998056
Si Si7 0.358389 0.022725 0.389272
O O1 0.921846 0.931565 0.288241
O O2 0.066010 0.852773 0.197787
O O3 0.916029 0.890973 0.084334
O O4 0.024236 0.006662 0.141198
O O5 0.250000 0.649649 0.768936
O O6 0.136269 0.750000 0.661180
O O7 0.135258 0.580611 0.631059
O O8 0.062462 0.646169 0.800404
O O9 0.250000 0.050900 0.648260
O O10 0.388889 0.046550 0.508651
O O11 0.250000 0.853046 0.245185
O O12 0.132258 0.750000 0.342758
O O13 0.124011 0.921963 0.371771
O O14 0.393790 0.350120 0.120705
O O15 0.419193 0.417357 0.312547
O O16 0.750000 0.611673 0.998245
O O17 0.654447 0.750000 0.032847
O O18 0.250000 0.044444 0.369736
#
# Coordination Sequence:
#
# PCOD8243915 Si02
#       7
#     8   8   8   8   8   8   8
#     4  10  20  35  56  79 104 137 174 214 257 307
#     4   9  18  32  50  75 108 141 171 206 251 305
#     4   9  18  33  54  79 106 137 173 213 256 304
#     4   9  18  32  50  75 108 141 171 206 251 305
#     4  10  20  35  56  79 104 137 174 214 257 307
#     4  11  23  38  57  79 103 133 172 219 266 310
#     4   9  18  33  54  79 106 137 173 213 256 304
#
# _framework density 19.717338999999999
#
# number of rings (size 3 to 8) (size 9 to 14) (size 15 to 20)
#    0.000    2.429    0.000    2.143    0.000    6.857 
#    0.000    3.571    0.000    5.143    0.000   10.000 
#    0.000    0.000    0.000    0.000    0.000    0.000 
#
# Total GULP energy -693855.204723 kJ/mol
# GULP energy per Si atom -12390.271513 kJ/mol
# Density = 1.967246 g / cm^3
# Si number density = 19.717339 Si / 1000 Ang^3
#
#
#
# Elastic Constant Matrix: (Units=GPa)
#
#
# Indices 1 2 3 4 5 6 
#
# 1 111.7764 15.3355 37.0243 0.0000 0.0000 0.0000
# 2 15.3355 52.2660 17.0965 0.0000 0.0000 0.0000
# 3 37.0243 17.0965 86.1737 0.0000 0.0000 0.0000
# 4 0.0000 0.0000 0.0000 6.7794 0.0000 0.0000
# 5 0.0000 0.0000 0.0000 0.0000 29.6777 0.0000
# 6 0.0000 0.0000 0.0000 0.0000 0.0000 24.6685
#
#
#
# Elastic Compliance Matrix: (Units=1/GPa)
#
#
# Indices 1 2 3 4 5 6 
#
# 1 0.010575 -0.001729 -0.004201 0.000000 0.000000 0.000000
# 2 -0.001729 0.020743 -0.003373 0.000000 0.000000 0.000000
# 3 -0.004201 -0.003373 0.014078 0.000000 0.000000 0.000000
# 4 0.000000 0.000000 0.000000 0.147506 0.000000 0.000000
# 5 0.000000 0.000000 0.000000 0.000000 0.033695 0.000000
# 6 0.000000 0.000000 0.000000 0.000000 0.000000 0.040537
#
#
# Mechanical properties :
#
#
# Convention : Reuss Voigt Hill
#
# Bulk Modulus (GPa) = 37.32351 43.23651 40.28001
# Shear Modulus (GPa) = 16.96813 24.27578 20.62195
#
# Velocity S-wave (km/s) = 2.93673 3.51264 3.23751
# Velocity P-wave (km/s) = 5.51992 6.19897 5.86928
#
# Compressibility (1/GPa) = 0.02679276
#
# Stress axis : x y z
#
# Youngs Moduli (GPa) = 94.56278 48.20821 71.03117
#
# Poissons Ratio (x) = 0.08334 0.29837
# Poissons Ratio (y) = 0.16348 0.23956
# Poissons Ratio (z) = 0.39721 0.16259
#
# Static dielectric constant tensor:
#      x y z
#    x 4.049560 0.000000 0.000000 
#    y 0.000000 3.550820 0.000000 
#    z 0.000000 0.000000 3.229780 
# 
# 
# High freq. dielectric constant tensor:
#      x y z
#    x 1.796930 0.000000 0.000000 
#    y 0.000000 1.757070 0.000000 
#    z 0.000000 0.000000 1.732640 
# 
# From -- ./inp_files/16968.got.cif
#   From: 2010.03.12/outbox.cif.g09.slc.cpg/sg59_9_cif.got.tgz:16968.got - 2010.04.16 16:29:54.
