data_PCOD8243009
_publ_section_title
;
Structure prediction by ZEFSAII (Michael W. Deem and Ramdas Pophale) SiO2 
 PCOD8243009
Probable space group: P M M N
;
_chemical_formula_sum "Si O2"
_cell_formula_units_Z 56
_cell_length_a 17.893866
_cell_length_b 9.108941
_cell_length_c 18.925885
_cell_angle_alpha 90.000000
_cell_angle_beta 90.000000
_cell_angle_gamma 90.000000
_cell_volume 3084.808911
_symmetry_space_group_name_H-M "P M M N"
_symmetry_group_IT_number 59
_space_group.IT_coordinate_system_code '2'
_symmetry_cell_setting 'orthorhombic'
loop_
_space_group_symop_operation_xyz
x,y,z
1/2-x,1/2-y,z
1/2+x,-y,-z
-x,1/2+y,-z
-x,-y,-z
1/2+x,1/2+y,-z
1/2-x,y,z
x,1/2-y,z
loop_
_atom_site_type_symbol
_atom_site_label
_atom_site_fract_x
_atom_site_fract_y
_atom_site_fract_z
Si Si1 0.835816 0.920255 0.856896
Si Si2 0.338921 0.415293 0.562786
Si Si3 0.162803 0.919480 0.425859
Si Si4 0.336152 0.921184 0.701989
Si Si5 0.105625 0.580020 0.275512
Si Si6 0.550727 0.583871 0.209764
Si Si7 0.033404 0.922475 0.067795
O O1 0.750000 0.939836 0.880222
O O2 0.859419 0.750000 0.857047
O O3 0.845918 0.983443 0.778207
O O4 0.886606 0.007744 0.912870
O O5 0.250000 0.421774 0.560830
O O6 0.369376 0.250000 0.566453
O O7 0.370541 0.490190 0.491802
O O8 0.367747 0.499894 0.631938
O O9 0.250000 0.950148 0.415479
O O10 0.146839 0.750000 0.441661
O O11 0.121851 0.972810 0.354912
O O12 0.250000 0.960994 0.715626
O O13 0.347928 0.750000 0.691216
O O14 0.382107 0.975879 0.769841
O O15 0.128799 0.750000 0.264382
O O16 0.018126 0.557079 0.262471
O O17 0.580086 0.750000 0.215901
O O18 0.525247 0.548622 0.130448
O O19 0.045132 0.750000 0.054429
O O20 0.000000 0.000000 0.000000
#
# Coordination Sequence:
#
# PCOD8243009 Si02
#       7
#     8   8   8   8   8   8   8
#     4  10  20  33  52  80 111 142 178 217 253 296
#     4   9  17  29  46  68  95 128 166 210 258 303
#     4   9  16  27  45  69  98 132 169 209 252 299
#     4  10  20  34  53  75  97 125 166 213 257 304
#     4   9  18  32  50  73 103 138 173 210 255 306
#     4   9  19  35  54  77 102 129 163 202 248 303
#     4  10  21  38  60  83 109 141 173 208 254 308
#
# _framework density 18.153473999999999
#
# number of rings (size 3 to 8) (size 9 to 14) (size 15 to 20)
#    0.000    2.571    0.000    3.000    0.000    7.714 
#    0.000    2.857    0.000    0.857    0.000    0.000 
#    0.000    0.000    0.000    0.000    0.000    0.000 
#
# Total GULP energy -694493.389032 kJ/mol
# GULP energy per Si atom -12401.667661 kJ/mol
# Density = 1.811216 g / cm^3
# Si number density = 18.153474 Si / 1000 Ang^3
#
#
#
# Elastic Constant Matrix: (Units=GPa)
#
#
# Indices 1 2 3 4 5 6 
#
# 1 69.3732 56.6215 59.5603 0.0000 0.0000 0.0000
# 2 56.6215 119.3386 70.1582 0.0000 0.0000 0.0000
# 3 59.5603 70.1582 121.7362 0.0000 0.0000 0.0000
# 4 0.0000 0.0000 0.0000 37.2799 0.0000 0.0000
# 5 0.0000 0.0000 0.0000 0.0000 26.1922 0.0000
# 6 0.0000 0.0000 0.0000 0.0000 0.0000 27.8547
#
#
#
# Elastic Compliance Matrix: (Units=1/GPa)
#
#
# Indices 1 2 3 4 5 6 
#
# 1 0.029470 -0.008327 -0.009619 0.000000 0.000000 0.000000
# 2 -0.008327 0.015026 -0.004586 0.000000 0.000000 0.000000
# 3 -0.009619 -0.004586 0.015564 0.000000 0.000000 0.000000
# 4 0.000000 0.000000 0.000000 0.026824 0.000000 0.000000
# 5 0.000000 0.000000 0.000000 0.000000 0.038179 0.000000
# 6 0.000000 0.000000 0.000000 0.000000 0.000000 0.035901
#
#
# Mechanical properties :
#
#
# Convention : Reuss Voigt Hill
#
# Bulk Modulus (GPa) = 66.68702 75.90312 71.29507
# Shear Modulus (GPa) = 23.69365 26.53924 25.11645
#
# Velocity S-wave (km/s) = 3.61665 3.82768 3.72366
# Velocity P-wave (km/s) = 7.36581 7.83821 7.60568
#
# Compressibility (1/GPa) = 0.01499542
#
# Stress axis : x y z
#
# Youngs Moduli (GPa) = 33.93281 66.54960 64.25243
#
# Poissons Ratio (x) = 0.55418 0.61806
# Poissons Ratio (y) = 0.28257 0.29464
# Poissons Ratio (z) = 0.32641 0.30518
#
# Static dielectric constant tensor:
#      x y z
#    x 3.123280 0.000000 0.000000 
#    y 0.000000 3.429380 0.000000 
#    z 0.000000 0.000000 3.350390 
# 
# 
# High freq. dielectric constant tensor:
#      x y z
#    x 1.682420 0.000000 0.000000 
#    y 0.000000 1.710780 0.000000 
#    z 0.000000 0.000000 1.700300 
# 
# From -- ./inp_files/28093.got.cif
#   From: 2010.03.12/outbox.cif.g09.slc.cpg/sg59_15_cif.got.tgz:28093.got - 2010.04.16 16:29:54.
