data_PCOD8243362
_publ_section_title
;
Structure prediction by ZEFSAII (Michael W. Deem and Ramdas Pophale) SiO2 
 PCOD8243362
Probable space group: P M M N
;
_chemical_formula_sum "Si O2"
_cell_formula_units_Z 64
_cell_length_a 17.322062
_cell_length_b 13.998825
_cell_length_c 13.081422
_cell_angle_alpha 90.000000
_cell_angle_beta 90.000000
_cell_angle_gamma 90.000000
_cell_volume 3172.094589
_symmetry_space_group_name_H-M "P M M N"
_symmetry_group_IT_number 59
_space_group.IT_coordinate_system_code '2'
_symmetry_cell_setting 'orthorhombic'
loop_
_space_group_symop_operation_xyz
x,y,z
1/2-x,1/2-y,z
1/2+x,-y,-z
-x,1/2+y,-z
-x,-y,-z
1/2+x,1/2+y,-z
1/2-x,y,z
x,1/2-y,z
loop_
_atom_site_type_symbol
_atom_site_label
_atom_site_fract_x
_atom_site_fract_y
_atom_site_fract_z
Si Si1 0.841995 0.640325 0.526025
Si Si2 0.941684 0.412343 0.023702
Si Si3 0.159187 0.359386 0.869109
Si Si4 0.659475 0.534825 0.327586
Si Si5 0.338606 0.454890 0.266878
Si Si6 0.159479 0.640801 0.792757
Si Si7 0.094432 0.146975 0.076177
Si Si8 0.662517 0.143182 0.834007
O O1 0.750000 0.638664 0.524508
O O2 0.871816 0.750000 0.521634
O O3 0.876609 0.578641 0.431395
O O4 0.872525 0.587707 0.628119
O O5 0.879671 0.418832 0.115329
O O6 0.003158 0.333740 0.062855
O O7 0.898027 0.379856 0.922410
O O8 0.000000 0.500000 0.000000
O O9 0.250000 0.369508 0.867892
O O10 0.131270 0.250000 0.867324
O O11 0.123072 0.409616 0.769554
O O12 0.128135 0.407150 0.974691
O O13 0.750000 0.555741 0.331583
O O14 0.643389 0.421047 0.311293
O O15 0.250000 0.422506 0.253166
O O16 0.388783 0.416471 0.173843
O O17 0.347055 0.570145 0.261681
O O18 0.250000 0.640933 0.817373
O O19 0.129617 0.750000 0.779426
O O20 0.135612 0.250000 0.089507
O O21 0.750000 0.134393 0.877879
O O22 0.647274 0.250000 0.792348
#
# Coordination Sequence:
#
# PCOD8243362 Si02
#       8
#     8   8   8   8   8   8   8   8
#     4   9  17  31  53  81 113 148 186 233 286 342
#     4  12  22  36  54  81 113 149 188 237 287 335
#     4   9  17  29  46  73 111 148 181 224 280 341
#     4   9  17  30  51  77 104 139 188 238 286 333
#     4  10  20  34  53  80 114 151 192 228 274 341
#     4  10  21  37  57  82 114 153 195 238 286 342
#     4  11  21  32  49  78 113 147 182 224 284 342
#     4  10  21  38  58  79 110 154 198 235 275 333
#
# _framework density 20.175943
#
# number of rings (size 3 to 8) (size 9 to 14) (size 15 to 20)
#    0.000    2.000    1.250    3.375    0.000    3.750 
#    0.000    0.625    0.000    4.500    0.000    0.000 
#    0.000    0.000    0.000    0.000    0.000    0.000 
#
# Total GULP energy -792948.320072 kJ/mol
# GULP energy per Si atom -12389.817501 kJ/mol
# Density = 2.013002 g / cm^3
# Si number density = 20.175943 Si / 1000 Ang^3
#
#
#
# Elastic Constant Matrix: (Units=GPa)
#
#
# Indices 1 2 3 4 5 6 
#
# 1 37.8233 36.4908 25.0972 0.0000 0.0000 0.0000
# 2 36.4908 141.1731 85.5570 0.0000 0.0000 0.0000
# 3 25.0972 85.5570 158.4940 0.0000 0.0000 0.0000
# 4 0.0000 0.0000 0.0000 29.4270 0.0000 0.0000
# 5 0.0000 0.0000 0.0000 0.0000 6.0977 0.0000
# 6 0.0000 0.0000 0.0000 0.0000 0.0000 19.8339
#
#
#
# Elastic Compliance Matrix: (Units=1/GPa)
#
#
# Indices 1 2 3 4 5 6 
#
# 1 0.035326 -0.008533 -0.000988 0.000000 0.000000 0.000000
# 2 -0.008533 0.012589 -0.005444 0.000000 0.000000 0.000000
# 3 -0.000988 -0.005444 0.009405 0.000000 0.000000 0.000000
# 4 0.000000 0.000000 0.000000 0.033982 0.000000 0.000000
# 5 0.000000 0.000000 0.000000 0.000000 0.163997 0.000000
# 6 0.000000 0.000000 0.000000 0.000000 0.000000 0.050419
#
#
# Mechanical properties :
#
#
# Convention : Reuss Voigt Hill
#
# Bulk Modulus (GPa) = 36.50969 70.19783 53.35376
# Shear Modulus (GPa) = 14.50214 23.76140 19.13177
#
# Velocity S-wave (km/s) = 2.68392 3.43550 3.08270
# Velocity P-wave (km/s) = 5.26683 7.11374 6.25878
#
# Compressibility (1/GPa) = 0.02738999
#
# Stress axis : x y z
#
# Youngs Moduli (GPa) = 28.30762 79.43750 106.32948
#
# Poissons Ratio (x) = 0.67780 0.10504
# Poissons Ratio (y) = 0.24154 0.57889
# Poissons Ratio (z) = 0.02796 0.43248
#
# Static dielectric constant tensor:
#      x y z
#    x 3.649640 0.000000 0.000000 
#    y 0.000000 4.055240 0.000000 
#    z 0.000000 0.000000 3.685900 
# 
# 
# High freq. dielectric constant tensor:
#      x y z
#    x 1.755510 0.000000 0.000000 
#    y 0.000000 1.809530 0.000000 
#    z 0.000000 0.000000 1.765410 
# 
# From -- ./inp_files/17876.got.cif
#   From: 2010.03.12/outbox.cif.g09.slc.cpg/sg59_9_cif.got.tgz:17876.got - 2010.04.16 16:29:54.
