data_PCOD8243977
_publ_section_title
;
Structure prediction by ZEFSAII (Michael W. Deem and Ramdas Pophale) SiO2 
 PCOD8243977
Probable space group: P M M N
;
_chemical_formula_sum "Si O2"
_cell_formula_units_Z 48
_cell_length_a 18.628515
_cell_length_b 9.056482
_cell_length_c 14.731105
_cell_angle_alpha 90.000000
_cell_angle_beta 90.000000
_cell_angle_gamma 90.000000
_cell_volume 2485.267206
_symmetry_space_group_name_H-M "P M M N"
_symmetry_group_IT_number 59
_space_group.IT_coordinate_system_code '2'
_symmetry_cell_setting 'orthorhombic'
loop_
_space_group_symop_operation_xyz
x,y,z
1/2-x,1/2-y,z
1/2+x,-y,-z
-x,1/2+y,-z
-x,-y,-z
1/2+x,1/2+y,-z
1/2-x,y,z
x,1/2-y,z
loop_
_atom_site_type_symbol
_atom_site_label
_atom_site_fract_x
_atom_site_fract_y
_atom_site_fract_z
Si Si1 0.917661 0.579222 0.640747
Si Si2 0.906450 0.579351 0.935332
Si Si3 0.166887 0.421658 0.538066
Si Si4 0.330302 0.580114 0.207245
Si Si5 0.579018 0.078240 0.313455
Si Si6 0.048203 0.078652 0.868659
O O1 0.900146 0.750000 0.660987
O O2 0.881445 0.528552 0.547062
O O3 0.886120 0.480996 0.720424
O O4 0.002736 0.549400 0.637398
O O5 0.914588 0.750000 0.909421
O O6 0.836710 0.509164 0.887715
O O7 0.972799 0.494949 0.890545
O O8 0.900596 0.557446 0.043533
O O9 0.250000 0.456304 0.516779
O O10 0.155024 0.250000 0.559811
O O11 0.142238 0.515052 0.624425
O O12 0.250000 0.558355 0.244772
O O13 0.347932 0.750000 0.188541
O O14 0.592482 0.250000 0.297350
O O15 0.585149 0.998637 0.216602
O O16 0.035667 0.250000 0.846812
#
# Coordination Sequence:
#
# PCOD8243977 Si02
#       6
#     8   8   8   8   8   8
#     4  10  21  38  60  86 114 150 195 240 290 348
#     4  10  20  35  56  83 113 149 191 233 284 341
#     4  10  22  40  60  82 113 155 197 238 290 348
#     4  11  23  36  54  84 120 157 195 239 293 347
#     4  11  22  36  59  90 118 149 193 241 290 345
#     4  10  20  35  58  85 114 148 188 236 284 335
#
# _framework density 19.313818999999999
#
# number of rings (size 3 to 8) (size 9 to 14) (size 15 to 20)
#    0.000    1.667    1.667    3.000    0.000    5.667 
#    0.000    0.833    0.000    1.000    0.000    0.000 
#    0.000    0.000    0.000    0.000    0.000    0.000 
#
# Total GULP energy -595348.270222 kJ/mol
# GULP energy per Si atom -12403.088963 kJ/mol
# Density = 1.926986 g / cm^3
# Si number density = 19.313819 Si / 1000 Ang^3
#
#
#
# Elastic Constant Matrix: (Units=GPa)
#
#
# Indices 1 2 3 4 5 6 
#
# 1 53.6031 33.1253 28.5155 0.0000 0.0000 0.0000
# 2 33.1253 114.1341 61.9818 0.0000 0.0000 0.0000
# 3 28.5155 61.9818 121.0279 0.0000 0.0000 0.0000
# 4 0.0000 0.0000 0.0000 34.1725 0.0000 0.0000
# 5 0.0000 0.0000 0.0000 0.0000 21.5057 0.0000
# 6 0.0000 0.0000 0.0000 0.0000 0.0000 27.9241
#
#
#
# Elastic Compliance Matrix: (Units=1/GPa)
#
#
# Indices 1 2 3 4 5 6 
#
# 1 0.023408 -0.005262 -0.002820 0.000000 0.000000 0.000000
# 2 -0.005262 0.013320 -0.005582 0.000000 0.000000 0.000000
# 3 -0.002820 -0.005582 0.011786 0.000000 0.000000 0.000000
# 4 0.000000 0.000000 0.000000 0.029263 0.000000 0.000000
# 5 0.000000 0.000000 0.000000 0.000000 0.046499 0.000000
# 6 0.000000 0.000000 0.000000 0.000000 0.000000 0.035811
#
#
# Mechanical properties :
#
#
# Convention : Reuss Voigt Hill
#
# Bulk Modulus (GPa) = 47.20272 59.55671 53.37972
# Shear Modulus (GPa) = 25.70993 27.72998 26.71995
#
# Velocity S-wave (km/s) = 3.65247 3.79325 3.72353
# Velocity P-wave (km/s) = 6.50233 7.07731 6.79590
#
# Compressibility (1/GPa) = 0.02118522
#
# Stress axis : x y z
#
# Youngs Moduli (GPa) = 42.72078 75.07453 84.84911
#
# Poissons Ratio (x) = 0.39505 0.23930
# Poissons Ratio (y) = 0.22480 0.47361
# Poissons Ratio (z) = 0.12048 0.41905
#
# Static dielectric constant tensor:
#      x y z
#    x 3.402800 0.000000 0.000000 
#    y 0.000000 3.614610 0.000000 
#    z 0.000000 0.000000 3.702670 
# 
# 
# High freq. dielectric constant tensor:
#      x y z
#    x 1.733630 0.000000 0.000000 
#    y 0.000000 1.762310 0.000000 
#    z 0.000000 0.000000 1.758790 
# 
# From -- ./inp_files/20380.got.cif
#   From: 2010.03.12/outbox.cif.g09.slc.cpg/sg59_11_cif.got.tgz:20380.got - 2010.04.16 16:29:54.
