data_PCOD8243779
_publ_section_title
;
Structure prediction by ZEFSAII (Michael W. Deem and Ramdas Pophale) SiO2 
 PCOD8243779
Probable space group: P M M N
;
_chemical_formula_sum "Si O2"
_cell_formula_units_Z 64
_cell_length_a 19.624627
_cell_length_b 8.987080
_cell_length_c 19.016209
_cell_angle_alpha 90.000000
_cell_angle_beta 90.000000
_cell_angle_gamma 90.000000
_cell_volume 3353.852514
_symmetry_space_group_name_H-M "P M M N"
_symmetry_group_IT_number 59
_space_group.IT_coordinate_system_code '2'
_symmetry_cell_setting 'orthorhombic'
loop_
_space_group_symop_operation_xyz
x,y,z
1/2-x,1/2-y,z
1/2+x,-y,-z
-x,1/2+y,-z
-x,-y,-z
1/2+x,1/2+y,-z
1/2-x,y,z
x,1/2-y,z
loop_
_atom_site_type_symbol
_atom_site_label
_atom_site_fract_x
_atom_site_fract_y
_atom_site_fract_z
Si Si1 0.545137 0.425335 0.205383
Si Si2 0.672119 0.422439 0.412909
Si Si3 0.934183 0.075759 0.528507
Si Si4 0.673366 0.422220 0.911386
Si Si5 0.671471 0.925922 0.266599
Si Si6 0.463503 0.074506 0.064617
Si Si7 0.555630 0.918367 0.671608
Si Si8 0.175554 0.087998 0.225464
O O1 0.557499 0.250000 0.200581
O O2 0.619249 0.505120 0.208843
O O3 0.499828 0.476922 0.137907
O O4 0.505241 0.469143 0.276768
O O5 0.750000 0.451559 0.433347
O O6 0.658033 0.250000 0.395399
O O7 0.629140 0.477348 0.480302
O O8 0.651404 0.514388 0.343755
O O9 0.941642 0.250000 0.523531
O O10 0.929918 0.030044 0.608977
O O11 0.000000 0.000000 0.500000
O O12 0.750000 0.464288 0.938878
O O13 0.657993 0.250000 0.926265
O O14 0.614792 0.522853 0.945157
O O15 0.669026 0.452886 0.828476
O O16 0.750000 0.971065 0.248101
O O17 0.662872 0.750000 0.266097
O O18 0.467104 0.250000 0.057370
O O19 0.500000 0.000000 0.000000
O O20 0.541631 0.750000 0.644758
O O21 0.625537 0.932234 0.711492
O O22 0.250000 0.088076 0.259612
O O23 0.160974 0.250000 0.187991
#
# Coordination Sequence:
#
# PCOD8243779 Si02
#       8
#     8   8   8   8   8   8   8   8
#     4  10  21  38  59  83 112 147 186 227 278 342
#     4   9  19  37  57  75 103 146 190 230 278 337
#     4  11  23  36  51  75 105 142 184 231 283 337
#     4  10  20  35  58  88 120 154 193 234 275 327
#     4  10  21  36  57  86 113 139 181 236 287 337
#     4  11  23  41  63  90 121 156 195 238 289 346
#     4  10  20  35  53  78 110 144 184 231 278 335
#     4   9  17  32  54  79 110 148 186 226 274 326
#
# _framework density 19.082532
#
# number of rings (size 3 to 8) (size 9 to 14) (size 15 to 20)
#    0.000    2.000    1.250    2.250    0.000    8.000 
#    0.000    0.625    0.000    0.750    0.000    0.000 
#    0.000    0.000    0.000    0.000    0.000    0.000 
#
# Total GULP energy -793207.018689 kJ/mol
# GULP energy per Si atom -12393.859667 kJ/mol
# Density = 1.903910 g / cm^3
# Si number density = 19.082532 Si / 1000 Ang^3
#
#
#
# Elastic Constant Matrix: (Units=GPa)
#
#
# Indices 1 2 3 4 5 6 
#
# 1 141.6645 54.6299 57.6180 0.0000 0.0000 0.0000
# 2 54.6299 67.1348 37.0389 0.0000 0.0000 0.0000
# 3 57.6180 37.0389 72.8305 0.0000 0.0000 0.0000
# 4 0.0000 0.0000 0.0000 31.7066 0.0000 0.0000
# 5 0.0000 0.0000 0.0000 0.0000 29.9517 0.0000
# 6 0.0000 0.0000 0.0000 0.0000 0.0000 32.2849
#
#
#
# Elastic Compliance Matrix: (Units=1/GPa)
#
#
# Indices 1 2 3 4 5 6 
#
# 1 0.012077 -0.006333 -0.006334 0.000000 0.000000 0.000000
# 2 -0.006333 0.024026 -0.007208 0.000000 0.000000 0.000000
# 3 -0.006334 -0.007208 0.022407 0.000000 0.000000 0.000000
# 4 0.000000 0.000000 0.000000 0.031539 0.000000 0.000000
# 5 0.000000 0.000000 0.000000 0.000000 0.033387 0.000000
# 6 0.000000 0.000000 0.000000 0.000000 0.000000 0.030974
#
#
# Mechanical properties :
#
#
# Convention : Reuss Voigt Hill
#
# Bulk Modulus (GPa) = 53.30573 64.46704 58.88638
# Shear Modulus (GPa) = 24.94827 27.61153 26.27990
#
# Velocity S-wave (km/s) = 3.61970 3.80801 3.71505
# Velocity P-wave (km/s) = 6.74275 7.29323 7.02338
#
# Compressibility (1/GPa) = 0.01875971
#
# Stress axis : x y z
#
# Youngs Moduli (GPa) = 82.79981 41.62177 44.62858
#
# Poissons Ratio (x) = 0.26360 0.28267
# Poissons Ratio (y) = 0.52440 0.32169
# Poissons Ratio (z) = 0.52444 0.30002
#
# Static dielectric constant tensor:
#      x y z
#    x 4.011020 0.000000 0.000000 
#    y 0.000000 3.497960 0.000000 
#    z 0.000000 0.000000 3.264190 
# 
# 
# High freq. dielectric constant tensor:
#      x y z
#    x 1.763140 0.000000 0.000000 
#    y 0.000000 1.739680 0.000000 
#    z 0.000000 0.000000 1.719140 
# 
# From -- ./inp_files/28154.got.cif
#   From: 2010.03.12/outbox.cif.g09.slc.cpg/sg59_15_cif.got.tgz:28154.got - 2010.04.16 16:29:54.
