data_PCOD8243319
_publ_section_title
;
Structure prediction by ZEFSAII (Michael W. Deem and Ramdas Pophale) SiO2 
 PCOD8243319
Probable space group: P M M N
;
_chemical_formula_sum "Si O2"
_cell_formula_units_Z 40
_cell_length_a 8.972192
_cell_length_b 8.834686
_cell_length_c 25.808584
_cell_angle_alpha 90.000000
_cell_angle_beta 90.000000
_cell_angle_gamma 90.000000
_cell_volume 2045.756099
_symmetry_space_group_name_H-M "P M M N"
_symmetry_group_IT_number 59
_space_group.IT_coordinate_system_code '2'
_symmetry_cell_setting 'orthorhombic'
loop_
_space_group_symop_operation_xyz
x,y,z
1/2-x,1/2-y,z
1/2+x,-y,-z
-x,1/2+y,-z
-x,-y,-z
1/2+x,1/2+y,-z
1/2-x,y,z
x,1/2-y,z
loop_
_atom_site_type_symbol
_atom_site_label
_atom_site_fract_x
_atom_site_fract_y
_atom_site_fract_z
Si Si1 0.574478 0.574880 0.241927
Si Si2 0.420022 0.071523 0.951215
Si Si3 0.926956 0.079901 0.346938
Si Si4 0.573930 0.923976 0.450972
Si Si5 0.424376 0.425662 0.145547
O O1 0.750000 0.549127 0.234386
O O2 0.531834 0.750000 0.235325
O O3 0.519962 0.519302 0.298182
O O4 0.488092 0.474706 0.200592
O O5 0.250000 0.015349 0.950048
O O6 0.429588 0.250000 0.956561
O O7 0.498311 0.022952 0.898624
O O8 0.500000 0.000000 0.000000
O O9 0.750000 0.082531 0.348790
O O10 0.990827 0.250000 0.342155
O O11 0.988814 0.004253 0.399310
O O12 0.750000 0.943452 0.455420
O O13 0.526293 0.750000 0.448511
O O14 0.500000 0.000000 0.500000
O O15 0.250000 0.459376 0.144063
O O16 0.459228 0.250000 0.136152
#
# Coordination Sequence:
#
# PCOD8243319 Si02
#       5
#     8   8   8   8   8
#     4  10  20  35  57  84 111 141 181 227 274 327
#     4  11  24  41  62  89 118 149 188 231 275 326
#     4   9  17  31  53  79 107 141 180 223 273 328
#     4  10  20  34  53  78 108 142 181 226 275 328
#     4  11  24  40  58  83 115 150 188 229 274 326
#
# _framework density 19.552672999999999
#
# number of rings (size 3 to 8) (size 9 to 14) (size 15 to 20)
#    0.000    1.800    0.000    4.200    0.000   12.800 
#    0.000    1.000    0.000    6.000    0.000    0.000 
#    0.000    0.000    0.000    0.000    0.000    0.000 
#
# Total GULP energy -496166.478610 kJ/mol
# GULP energy per Si atom -12404.161965 kJ/mol
# Density = 1.950817 g / cm^3
# Si number density = 19.552673 Si / 1000 Ang^3
#
#
#
# Elastic Constant Matrix: (Units=GPa)
#
#
# Indices 1 2 3 4 5 6 
#
# 1 65.1641 39.4732 44.7231 0.0000 0.0000 0.0000
# 2 39.4732 82.4393 31.0857 0.0000 0.0000 0.0000
# 3 44.7231 31.0857 144.1266 0.0000 0.0000 0.0000
# 4 0.0000 0.0000 0.0000 47.0677 0.0000 0.0000
# 5 0.0000 0.0000 0.0000 0.0000 34.6201 0.0000
# 6 0.0000 0.0000 0.0000 0.0000 0.0000 28.0337
#
#
#
# Elastic Compliance Matrix: (Units=1/GPa)
#
#
# Indices 1 2 3 4 5 6 
#
# 1 0.025291 -0.009961 -0.005700 0.000000 0.000000 0.000000
# 2 -0.009961 0.017127 -0.000603 0.000000 0.000000 0.000000
# 3 -0.005700 -0.000603 0.008837 0.000000 0.000000 0.000000
# 4 0.000000 0.000000 0.000000 0.021246 0.000000 0.000000
# 5 0.000000 0.000000 0.000000 0.000000 0.028885 0.000000
# 6 0.000000 0.000000 0.000000 0.000000 0.000000 0.035671
#
#
# Mechanical properties :
#
#
# Convention : Reuss Voigt Hill
#
# Bulk Modulus (GPa) = 53.39509 58.03268 55.71388
# Shear Modulus (GPa) = 28.43701 33.70751 31.07226
#
# Velocity S-wave (km/s) = 3.81777 4.15653 3.99075
# Velocity P-wave (km/s) = 6.84116 7.26500 7.05626
#
# Compressibility (1/GPa) = 0.01872831
#
# Stress axis : x y z
#
# Youngs Moduli (GPa) = 39.53929 58.38769 113.15982
#
# Poissons Ratio (x) = 0.58158 0.64497
# Poissons Ratio (y) = 0.39384 0.06825
# Poissons Ratio (z) = 0.22536 0.03522
#
# Static dielectric constant tensor:
#      x y z
#    x 3.424600 0.000000 0.000000 
#    y 0.000000 3.763600 0.000000 
#    z 0.000000 0.000000 3.224930 
# 
# 
# High freq. dielectric constant tensor:
#      x y z
#    x 1.738630 0.000000 0.000000 
#    y 0.000000 1.780110 0.000000 
#    z 0.000000 0.000000 1.782190 
# 
# From -- ./inp_files/31135.got.cif
#   From: 2010.03.12/outbox.cif.g09.slc.cpg/sg59_16_cif.got.tgz:31135.got - 2010.04.16 16:29:54.
