data_PCOD8243467
_publ_section_title
;
Structure prediction by ZEFSAII (Michael W. Deem and Ramdas Pophale) SiO2 
 PCOD8243467
Probable space group: P M M N
;
_chemical_formula_sum "Si O2"
_cell_formula_units_Z 64
_cell_length_a 8.907647
_cell_length_b 24.447255
_cell_length_c 15.014500
_cell_angle_alpha 90.000000
_cell_angle_beta 90.000000
_cell_angle_gamma 90.000000
_cell_volume 3269.670394
_symmetry_space_group_name_H-M "P M M N"
_symmetry_group_IT_number 59
_space_group.IT_coordinate_system_code '2'
_symmetry_cell_setting 'orthorhombic'
loop_
_space_group_symop_operation_xyz
x,y,z
1/2-x,1/2-y,z
1/2+x,-y,-z
-x,1/2+y,-z
-x,-y,-z
1/2+x,1/2+y,-z
1/2-x,y,z
x,1/2-y,z
loop_
_atom_site_type_symbol
_atom_site_label
_atom_site_fract_x
_atom_site_fract_y
_atom_site_fract_z
Si Si1 0.077563 0.622298 0.823756
Si Si2 0.073479 0.187175 0.024234
Si Si3 0.423615 0.187605 0.521048
Si Si4 0.422982 0.990639 0.352982
Si Si5 0.577002 0.883911 0.139100
Si Si6 0.570628 0.892034 0.633500
Si Si7 0.571394 0.373704 0.671712
Si Si8 0.919117 0.497712 0.175759
O O1 0.250000 0.638705 0.812992
O O2 0.061021 0.561804 0.870249
O O3 0.999723 0.667260 0.884580
O O4 0.004121 0.624007 0.726416
O O5 0.250000 0.178942 0.033907
O O6 0.029783 0.250000 0.007698
O O7 0.009979 0.151694 0.941686
O O8 0.250000 0.175253 0.539671
O O9 0.451019 0.250000 0.493319
O O10 0.484867 0.150561 0.440429
O O11 0.513904 0.175849 0.611464
O O12 0.250000 0.987192 0.374227
O O13 0.490825 0.930525 0.375323
O O14 0.484889 0.046553 0.399088
O O15 0.451150 0.999009 0.248599
O O16 0.750000 0.868407 0.154668
O O17 0.490349 0.867905 0.228736
O O18 0.559655 0.948729 0.113277
O O19 0.750000 0.890883 0.646130
O O20 0.750000 0.373075 0.677314
O O21 0.750000 0.500191 0.218141
#
# Coordination Sequence:
#
# PCOD8243467 Si02
#       8
#     8   8   8   8   8   8   8   8
#     4  10  20  34  54  81 110 137 167 211 267 319
#     4  10  22  38  54  74 101 137 182 222 255 302
#     4  10  22  38  54  74 101 137 182 222 255 302
#     4   8  15  29  50  77 106 134 167 207 256 313
#     4   9  18  35  57  78 104 140 178 216 257 304
#     4   9  18  35  57  78 104 140 178 216 257 304
#     4  10  20  34  54  81 110 137 167 211 267 319
#     4   8  15  29  50  77 106 134 167 207 256 313
#
# _framework density 19.573837000000001
#
# number of rings (size 3 to 8) (size 9 to 14) (size 15 to 20)
#    0.000    2.750    0.000    0.750    0.000    4.500 
#    0.000    2.500    0.000    0.000    0.000    0.000 
#    0.000    0.000    0.000    0.000    0.000    0.000 
#
# Total GULP energy -792856.158108 kJ/mol
# GULP energy per Si atom -12388.377470 kJ/mol
# Density = 1.952929 g / cm^3
# Si number density = 19.573837 Si / 1000 Ang^3
#
#
#
# Elastic Constant Matrix: (Units=GPa)
#
#
# Indices 1 2 3 4 5 6 
#
# 1 33.0711 24.9201 22.9455 0.0000 0.0000 0.0000
# 2 24.9201 83.1954 27.4416 0.0000 0.0000 0.0000
# 3 22.9455 27.4416 66.7651 0.0000 0.0000 0.0000
# 4 0.0000 0.0000 0.0000 36.3772 0.0000 0.0000
# 5 0.0000 0.0000 0.0000 0.0000 16.2201 0.0000
# 6 0.0000 0.0000 0.0000 0.0000 0.0000 19.1236
#
#
#
# Elastic Compliance Matrix: (Units=1/GPa)
#
#
# Indices 1 2 3 4 5 6 
#
# 1 0.045768 -0.009857 -0.011678 0.000000 0.000000 0.000000
# 2 -0.009857 0.016028 -0.003200 0.000000 0.000000 0.000000
# 3 -0.011678 -0.003200 0.020307 0.000000 0.000000 0.000000
# 4 0.000000 0.000000 0.000000 0.027490 0.000000 0.000000
# 5 0.000000 0.000000 0.000000 0.000000 0.061652 0.000000
# 6 0.000000 0.000000 0.000000 0.000000 0.000000 0.052292
#
#
# Mechanical properties :
#
#
# Convention : Reuss Voigt Hill
#
# Bulk Modulus (GPa) = 30.64458 37.07177 33.85818
# Shear Modulus (GPa) = 17.61285 21.52581 19.56933
#
# Velocity S-wave (km/s) = 3.00295 3.31981 3.16534
# Velocity P-wave (km/s) = 5.26436 5.80305 5.54025
#
# Compressibility (1/GPa) = 0.03263220
#
# Stress axis : x y z
#
# Youngs Moduli (GPa) = 21.84929 62.39058 49.24522
#
# Poissons Ratio (x) = 0.61501 0.57508
# Poissons Ratio (y) = 0.21538 0.15759
# Poissons Ratio (z) = 0.25515 0.19965
#
# Static dielectric constant tensor:
#      x y z
#    x 3.439470 0.000000 0.000000 
#    y 0.000000 3.971120 0.000000 
#    z 0.000000 0.000000 3.230410 
# 
# 
# High freq. dielectric constant tensor:
#      x y z
#    x 1.751700 0.000000 0.000000 
#    y 0.000000 1.777430 0.000000 
#    z 0.000000 0.000000 1.733440 
# 
# From -- ./inp_files/21625.got.cif
#   From: 2010.03.12/outbox.cif.g09.slc.cpg/sg59_11_cif.got.tgz:21625.got - 2010.04.16 16:29:54.
