data_PCOD8243302
_publ_section_title
;
Structure prediction by ZEFSAII (Michael W. Deem and Ramdas Pophale) SiO2 
 PCOD8243302
Probable space group: P M M N
;
_chemical_formula_sum "Si O2"
_cell_formula_units_Z 48
_cell_length_a 9.085493
_cell_length_b 9.095714
_cell_length_c 31.184239
_cell_angle_alpha 90.000000
_cell_angle_beta 90.000000
_cell_angle_gamma 90.000000
_cell_volume 2577.035757
_symmetry_space_group_name_H-M "P M M N"
_symmetry_group_IT_number 59
_space_group.IT_coordinate_system_code '2'
_symmetry_cell_setting 'orthorhombic'
loop_
_space_group_symop_operation_xyz
x,y,z
1/2-x,1/2-y,z
1/2+x,-y,-z
-x,1/2+y,-z
-x,-y,-z
1/2+x,1/2+y,-z
1/2-x,y,z
x,1/2-y,z
loop_
_atom_site_type_symbol
_atom_site_label
_atom_site_fract_x
_atom_site_fract_y
_atom_site_fract_z
Si Si1 0.085711 0.425475 0.131886
Si Si2 0.584861 0.575655 0.703470
Si Si3 0.915213 0.425539 0.213872
Si Si4 0.423425 0.415897 0.037868
Si Si5 0.422492 0.921989 0.617603
Si Si6 0.921970 0.076750 0.539586
O O1 0.250000 0.483215 0.141713
O O2 0.087265 0.250000 0.131247
O O3 0.032970 0.481204 0.084853
O O4 0.979384 0.486494 0.169015
O O5 0.750000 0.511464 0.698738
O O6 0.591185 0.750000 0.706243
O O7 0.511496 0.512212 0.746722
O O8 0.485571 0.527337 0.663378
O O9 0.750000 0.485105 0.218922
O O10 0.917915 0.250000 0.214104
O O11 0.250000 0.426088 0.031890
O O12 0.479585 0.250000 0.034908
O O13 0.500000 0.500000 0.000000
O O14 0.250000 0.957339 0.616133
O O15 0.452310 0.750000 0.608964
O O16 0.506562 0.017336 0.582773
O O17 0.750000 0.037031 0.539045
O O18 0.947854 0.250000 0.536297
O O19 0.000000 0.000000 0.500000
#
# Coordination Sequence:
#
# PCOD8243302 Si02
#       6
#     8   8   8   8   8   8
#     4   8  14  25  39  56  83 118 153 191 237 288
#     4   9  16  26  42  65  95 131 165 197 239 289
#     4   9  15  22  35  59  90 121 155 196 239 284
#     4   9  18  31  46  66  92 122 158 200 245 294
#     4  10  20  34  53  78 107 137 170 208 248 291
#     4  11  24  40  58  81 107 136 172 211 251 297
#
# _framework density 18.626052000000001
#
# number of rings (size 3 to 8) (size 9 to 14) (size 15 to 20)
#    0.000    2.667    0.000    3.500    0.000    9.333 
#    0.000    1.667    0.000    0.000    0.000    1.167 
#    0.000    4.000    0.000    0.000    0.000    0.000 
#
# Total GULP energy -595056.346576 kJ/mol
# GULP energy per Si atom -12397.007220 kJ/mol
# Density = 1.858366 g / cm^3
# Si number density = 18.626052 Si / 1000 Ang^3
#
#
#
# Elastic Constant Matrix: (Units=GPa)
#
#
# Indices 1 2 3 4 5 6 
#
# 1 141.4356 39.9303 91.4982 0.0000 0.0000 0.0000
# 2 39.9303 35.1832 41.8215 0.0000 0.0000 0.0000
# 3 91.4982 41.8215 183.5238 0.0000 0.0000 0.0000
# 4 0.0000 0.0000 0.0000 21.0237 0.0000 0.0000
# 5 0.0000 0.0000 0.0000 0.0000 44.7549 0.0000
# 6 0.0000 0.0000 0.0000 0.0000 0.0000 19.0646
#
#
#
# Elastic Compliance Matrix: (Units=1/GPa)
#
#
# Indices 1 2 3 4 5 6 
#
# 1 0.012251 -0.009112 -0.004031 0.000000 0.000000 0.000000
# 2 -0.009112 0.045759 -0.005885 0.000000 0.000000 0.000000
# 3 -0.004031 -0.005885 0.008800 0.000000 0.000000 0.000000
# 4 0.000000 0.000000 0.000000 0.047565 0.000000 0.000000
# 5 0.000000 0.000000 0.000000 0.000000 0.022344 0.000000
# 6 0.000000 0.000000 0.000000 0.000000 0.000000 0.052453
#
#
# Mechanical properties :
#
#
# Convention : Reuss Voigt Hill
#
# Bulk Modulus (GPa) = 34.77809 78.51585 56.64697
# Shear Modulus (GPa) = 21.11373 29.42814 25.27093
#
# Velocity S-wave (km/s) = 3.37049 3.97916 3.68741
# Velocity P-wave (km/s) = 5.81887 7.95971 6.97195
#
# Compressibility (1/GPa) = 0.02875373
#
# Stress axis : x y z
#
# Youngs Moduli (GPa) = 81.62726 21.85364 113.63834
#
# Poissons Ratio (x) = 0.19912 0.45812
# Poissons Ratio (y) = 0.74376 0.66874
# Poissons Ratio (z) = 0.32907 0.12860
#
# Static dielectric constant tensor:
#      x y z
#    x 3.469340 0.000000 0.000000 
#    y 0.000000 2.916140 0.000000 
#    z 0.000000 0.000000 3.819360 
# 
# 
# High freq. dielectric constant tensor:
#      x y z
#    x 1.733310 0.000000 0.000000 
#    y 0.000000 1.657810 0.000000 
#    z 0.000000 0.000000 1.745810 
# 
# From -- ./inp_files/32885.got.cif
#   From: 2010.03.12/outbox.cif.g09.slc.cpg/sg59_17_cif.got.tgz:32885.got - 2010.04.16 16:29:54.
