data_PCOD8243292
_publ_section_title
;
Structure prediction by ZEFSAII (Michael W. Deem and Ramdas Pophale) SiO2 
 PCOD8243292
Probable space group: P M M N
;
_chemical_formula_sum "Si O2"
_cell_formula_units_Z 64
_cell_length_a 8.870244
_cell_length_b 18.473168
_cell_length_c 21.880065
_cell_angle_alpha 90.000000
_cell_angle_beta 90.000000
_cell_angle_gamma 90.000000
_cell_volume 3585.300438
_symmetry_space_group_name_H-M "P M M N"
_symmetry_group_IT_number 59
_space_group.IT_coordinate_system_code '2'
_symmetry_cell_setting 'orthorhombic'
loop_
_space_group_symop_operation_xyz
x,y,z
1/2-x,1/2-y,z
1/2+x,-y,-z
-x,1/2+y,-z
-x,-y,-z
1/2+x,1/2+y,-z
1/2-x,y,z
x,1/2-y,z
loop_
_atom_site_type_symbol
_atom_site_label
_atom_site_fract_x
_atom_site_fract_y
_atom_site_fract_z
Si Si1 0.571555 0.460139 0.557715
Si Si2 0.583733 0.954444 0.916246
Si Si3 0.422191 0.830715 0.623859
Si Si4 0.583842 0.108301 0.979582
Si Si5 0.570569 0.036047 0.800610
Si Si6 0.924902 0.832777 0.134128
Si Si7 0.922700 0.666872 0.497461
Si Si8 0.574529 0.022089 0.321125
O O1 0.500000 0.500000 0.500000
O O2 0.750000 0.471744 0.560524
O O3 0.529228 0.375839 0.549694
O O4 0.494554 0.487857 0.618628
O O5 0.750000 0.920739 0.908499
O O6 0.594252 0.027473 0.954868
O O7 0.515178 0.975965 0.850049
O O8 0.483520 0.894979 0.951607
O O9 0.250000 0.835938 0.600160
O O10 0.455746 0.750000 0.650146
O O11 0.530025 0.848403 0.567218
O O12 0.450075 0.890638 0.676434
O O13 0.750000 0.143173 0.983213
O O14 0.482351 0.157003 0.935199
O O15 0.750000 0.041230 0.800880
O O16 0.509397 0.115480 0.817876
O O17 0.511993 0.011613 0.735489
O O18 0.750000 0.852960 0.135296
O O19 0.953316 0.750000 0.154295
O O20 0.750000 0.641570 0.490627
O O21 0.943641 0.750000 0.480277
O O22 0.750000 0.002146 0.316332
#
# Coordination Sequence:
#
# PCOD8243292 Si02
#       8
#     8   8   8   8   8   8   8   8
#     4  12  23  36  55  79 109 142 178 225 278 330
#     4   8  15  28  46  70 100 131 165 208 257 305
#     4   9  18  33  54  79 105 134 168 209 261 322
#     4   9  16  26  46  75 102 130 166 210 259 306
#     4  10  21  36  54  77 106 143 186 229 270 322
#     4  10  20  34  53  77 107 144 185 229 276 325
#     4  10  20  34  54  80 108 137 171 215 269 328
#     4  11  22  36  56  81 109 142 181 227 273 326
#
# _framework density 17.850666
#
# number of rings (size 3 to 8) (size 9 to 14) (size 15 to 20)
#    0.000    2.125    1.250    3.750    0.000    5.750 
#    0.000    0.625    0.000    4.500    0.000    3.500 
#    0.000    0.000    0.000    0.000    0.000    0.000 
#
# Total GULP energy -793414.935740 kJ/mol
# GULP energy per Si atom -12397.108371 kJ/mol
# Density = 1.781004 g / cm^3
# Si number density = 17.850666 Si / 1000 Ang^3
#
#
#
# Elastic Constant Matrix: (Units=GPa)
#
#
# Indices 1 2 3 4 5 6 
#
# 1 84.4700 39.9996 36.2031 0.0000 0.0000 0.0000
# 2 39.9996 86.8179 49.6591 0.0000 0.0000 0.0000
# 3 36.2031 49.6591 113.8908 0.0000 0.0000 0.0000
# 4 0.0000 0.0000 0.0000 20.0920 0.0000 0.0000
# 5 0.0000 0.0000 0.0000 0.0000 30.5177 0.0000
# 6 0.0000 0.0000 0.0000 0.0000 0.0000 23.0444
#
#
#
# Elastic Compliance Matrix: (Units=1/GPa)
#
#
# Indices 1 2 3 4 5 6 
#
# 1 0.015634 -0.005809 -0.002437 0.000000 0.000000 0.000000
# 2 -0.005809 0.017504 -0.005786 0.000000 0.000000 0.000000
# 3 -0.002437 -0.005786 0.012078 0.000000 0.000000 0.000000
# 4 0.000000 0.000000 0.000000 0.049771 0.000000 0.000000
# 5 0.000000 0.000000 0.000000 0.000000 0.032768 0.000000
# 6 0.000000 0.000000 0.000000 0.000000 0.000000 0.043395
#
#
# Mechanical properties :
#
#
# Convention : Reuss Voigt Hill
#
# Bulk Modulus (GPa) = 58.30043 59.65580 58.97811
# Shear Modulus (GPa) = 24.39865 25.35193 24.87529
#
# Velocity S-wave (km/s) = 3.70106 3.77267 3.73704
# Velocity P-wave (km/s) = 7.14107 7.24357 7.19250
#
# Compressibility (1/GPa) = 0.01715253
#
# Stress axis : x y z
#
# Youngs Moduli (GPa) = 63.96432 57.12923 82.79815
#
# Poissons Ratio (x) = 0.33187 0.20175
# Poissons Ratio (y) = 0.37158 0.47904
# Poissons Ratio (z) = 0.15586 0.33053
#
# Static dielectric constant tensor:
#      x y z
#    x 3.559380 0.000000 0.000000 
#    y 0.000000 3.383980 0.000000 
#    z 0.000000 0.000000 3.275700 
# 
# 
# High freq. dielectric constant tensor:
#      x y z
#    x 1.706260 0.000000 0.000000 
#    y 0.000000 1.678100 0.000000 
#    z 0.000000 0.000000 1.667030 
# 
# From -- ./inp_files/29451.got.cif
#   From: 2010.03.12/outbox.cif.g09.slc.cpg/sg59_15_cif.got.tgz:29451.got - 2010.04.16 16:29:54.
