data_PCOD8243155
_publ_section_title
;
Structure prediction by ZEFSAII (Michael W. Deem and Ramdas Pophale) SiO2 
 PCOD8243155
Probable space group: P M M N
;
_chemical_formula_sum "Si O2"
_cell_formula_units_Z 64
_cell_length_a 8.992184
_cell_length_b 22.297124
_cell_length_c 16.419296
_cell_angle_alpha 90.000000
_cell_angle_beta 90.000000
_cell_angle_gamma 90.000000
_cell_volume 3292.066248
_symmetry_space_group_name_H-M "P M M N"
_symmetry_group_IT_number 59
_space_group.IT_coordinate_system_code '2'
_symmetry_cell_setting 'orthorhombic'
loop_
_space_group_symop_operation_xyz
x,y,z
1/2-x,1/2-y,z
1/2+x,-y,-z
-x,1/2+y,-z
-x,-y,-z
1/2+x,1/2+y,-z
1/2-x,y,z
x,1/2-y,z
loop_
_atom_site_type_symbol
_atom_site_label
_atom_site_fract_x
_atom_site_fract_y
_atom_site_fract_z
Si Si1 0.073413 0.820334 0.832743
Si Si2 0.419780 0.320452 0.629466
Si Si3 0.576367 0.413510 0.720655
Si Si4 0.587289 0.318227 0.473458
Si Si5 0.924425 0.991402 0.586839
Si Si6 0.576879 0.460112 0.895634
Si Si7 0.924437 0.908449 0.953139
Si Si8 0.574070 0.632486 0.670839
O O1 0.250000 0.827309 0.829316
O O2 0.027920 0.750000 0.832875
O O3 0.010715 0.852334 0.913639
O O4 0.002215 0.855351 0.756963
O O5 0.250000 0.338926 0.619121
O O6 0.439438 0.250000 0.640061
O O7 0.488968 0.351101 0.709632
O O8 0.503516 0.347759 0.550156
O O9 0.750000 0.399891 0.719388
O O10 0.526660 0.455972 0.646955
O O11 0.528842 0.443494 0.804896
O O12 0.750000 0.349095 0.460823
O O13 0.612767 0.250000 0.496689
O O14 0.486465 0.318995 0.392941
O O15 0.750000 0.990186 0.571962
O O16 0.975146 0.930792 0.632377
O O17 0.000000 0.000000 0.500000
O O18 0.750000 0.448249 0.913497
O O19 0.539537 0.530410 0.904480
O O20 0.481466 0.417923 0.955036
O O21 0.750000 0.893844 0.953508
O O22 0.750000 0.637949 0.682988
#
# Coordination Sequence:
#
# PCOD8243155 Si02
#       8
#     8   8   8   8   8   8   8   8
#     4  11  24  40  58  83 117 156 196 237 285 345
#     4  10  21  36  53  75 104 136 174 223 272 315
#     4  10  20  36  57  79 107 142 180 220 265 323
#     4  10  20  34  52  74 102 139 184 228 269 318
#     4  10  22  37  53  79 114 150 187 231 281 330
#     4   9  19  37  61  88 116 146 181 226 280 337
#     4  10  20  37  62  89 115 144 182 228 279 335
#     4  11  22  36  55  80 111 146 187 233 282 335
#
# _framework density 19.440677999999998
#
# number of rings (size 3 to 8) (size 9 to 14) (size 15 to 20)
#    0.000    1.875    0.000    3.750    0.000   10.500 
#    0.000    1.875    0.000    0.750    0.000    0.000 
#    0.000    0.000    0.000    0.000    0.000    0.000 
#
# Total GULP energy -793625.188040 kJ/mol
# GULP energy per Si atom -12400.393563 kJ/mol
# Density = 1.939643 g / cm^3
# Si number density = 19.440678 Si / 1000 Ang^3
#
#
#
# Elastic Constant Matrix: (Units=GPa)
#
#
# Indices 1 2 3 4 5 6 
#
# 1 93.8137 53.9318 57.1587 0.0000 0.0000 0.0000
# 2 53.9318 73.3154 60.0786 0.0000 0.0000 0.0000
# 3 57.1587 60.0786 128.3513 0.0000 0.0000 0.0000
# 4 0.0000 0.0000 0.0000 30.4274 0.0000 0.0000
# 5 0.0000 0.0000 0.0000 0.0000 38.1448 0.0000
# 6 0.0000 0.0000 0.0000 0.0000 0.0000 28.0032
#
#
#
# Elastic Compliance Matrix: (Units=1/GPa)
#
#
# Indices 1 2 3 4 5 6 
#
# 1 0.019225 -0.011561 -0.003150 0.000000 0.000000 0.000000
# 2 -0.011561 0.029079 -0.008463 0.000000 0.000000 0.000000
# 3 -0.003150 -0.008463 0.013155 0.000000 0.000000 0.000000
# 4 0.000000 0.000000 0.000000 0.032865 0.000000 0.000000
# 5 0.000000 0.000000 0.000000 0.000000 0.026216 0.000000
# 6 0.000000 0.000000 0.000000 0.000000 0.000000 0.035710
#
#
# Mechanical properties :
#
#
# Convention : Reuss Voigt Hill
#
# Bulk Modulus (GPa) = 66.17432 70.86874 68.52153
# Shear Modulus (GPa) = 24.08080 27.60249 25.84165
#
# Velocity S-wave (km/s) = 3.52331 3.77215 3.64985
# Velocity P-wave (km/s) = 7.11791 7.45018 7.28594
#
# Compressibility (1/GPa) = 0.01511160
#
# Stress axis : x y z
#
# Youngs Moduli (GPa) = 52.01655 34.38929 76.01541
#
# Poissons Ratio (x) = 0.39756 0.23945
# Poissons Ratio (y) = 0.60134 0.64331
# Poissons Ratio (z) = 0.16385 0.29103
#
# Static dielectric constant tensor:
#      x y z
#    x 3.654800 0.000000 0.000000 
#    y 0.000000 3.557370 0.000000 
#    z 0.000000 0.000000 3.528330 
# 
# 
# High freq. dielectric constant tensor:
#      x y z
#    x 1.763900 0.000000 0.000000 
#    y 0.000000 1.754770 0.000000 
#    z 0.000000 0.000000 1.754850 
# 
# From -- ./inp_files/21556.got.cif
#   From: 2010.03.12/outbox.cif.g09.slc.cpg/sg59_11_cif.got.tgz:21556.got - 2010.04.16 16:29:54.
