data_PCOD8243244
_publ_section_title
;
Structure prediction by ZEFSAII (Michael W. Deem and Ramdas Pophale) SiO2 
 PCOD8243244
Probable space group: P M M N
;
_chemical_formula_sum "Si O2"
_cell_formula_units_Z 56
_cell_length_a 18.696113
_cell_length_b 9.184781
_cell_length_c 17.934693
_cell_angle_alpha 90.000000
_cell_angle_beta 90.000000
_cell_angle_gamma 90.000000
_cell_volume 3079.740164
_symmetry_space_group_name_H-M "P M M N"
_symmetry_group_IT_number 59
_space_group.IT_coordinate_system_code '2'
_symmetry_cell_setting 'orthorhombic'
loop_
_space_group_symop_operation_xyz
x,y,z
1/2-x,1/2-y,z
1/2+x,-y,-z
-x,1/2+y,-z
-x,-y,-z
1/2+x,1/2+y,-z
1/2-x,y,z
x,1/2-y,z
loop_
_atom_site_type_symbol
_atom_site_label
_atom_site_fract_x
_atom_site_fract_y
_atom_site_fract_z
Si Si1 0.833762 0.918214 0.793874
Si Si2 0.832630 0.580726 0.215670
Si Si3 0.418277 0.081917 0.927742
Si Si4 0.168333 0.578963 0.637358
Si Si5 0.167592 0.581204 0.355525
Si Si6 0.424666 0.578273 0.497689
Si Si7 0.585279 0.081457 0.924191
O O1 0.750000 0.939052 0.807677
O O2 0.856272 0.750000 0.793972
O O3 0.856477 0.986547 0.715038
O O4 0.874459 0.000619 0.858647
O O5 0.750000 0.545262 0.200846
O O6 0.846452 0.750000 0.229612
O O7 0.876237 0.524773 0.144388
O O8 0.861270 0.497002 0.288204
O O9 0.400538 0.250000 0.945008
O O10 0.501431 0.058380 0.911638
O O11 0.391212 0.987474 0.997285
O O12 0.250000 0.531755 0.621624
O O13 0.162283 0.750000 0.649029
O O14 0.121012 0.525176 0.568416
O O15 0.250000 0.551571 0.377313
O O16 0.155952 0.750000 0.335627
O O17 0.118496 0.531710 0.424114
O O18 0.500000 0.500000 0.500000
O O19 0.436906 0.750000 0.499708
O O20 0.607026 0.250000 0.924005
#
# Coordination Sequence:
#
# PCOD8243244 Si02
#       7
#     8   8   8   8   8   8   8
#     4  10  21  36  54  77 104 133 168 213 263 311
#     4   9  18  33  53  76 101 131 168 208 251 299
#     4   9  19  35  52  73 104 139 173 210 254 303
#     4   9  18  34  54  74  99 132 169 207 248 296
#     4   9  18  35  57  76  98 133 175 214 253 302
#     4  10  21  35  52  77 106 135 168 208 254 300
#     4  10  20  34  53  76 103 137 175 212 252 303
#
# _framework density 18.183351999999999
#
# number of rings (size 3 to 8) (size 9 to 14) (size 15 to 20)
#    0.000    2.571    0.000    1.286    0.000    6.571 
#    0.000    5.714    0.000    4.286    0.000    0.000 
#    0.000    0.000    0.000    0.000    0.000    0.000 
#
# Total GULP energy -694579.431489 kJ/mol
# GULP energy per Si atom -12403.204134 kJ/mol
# Density = 1.814197 g / cm^3
# Si number density = 18.183352 Si / 1000 Ang^3
#
#
#
# Elastic Constant Matrix: (Units=GPa)
#
#
# Indices 1 2 3 4 5 6 
#
# 1 81.1074 50.0570 89.5909 0.0000 0.0000 0.0000
# 2 50.0570 84.6575 87.2692 0.0000 0.0000 0.0000
# 3 89.5909 87.2692 198.9460 0.0000 0.0000 0.0000
# 4 0.0000 0.0000 0.0000 36.8406 0.0000 0.0000
# 5 0.0000 0.0000 0.0000 0.0000 -0.6010 0.0000
# 6 0.0000 0.0000 0.0000 0.0000 0.0000 29.4394
#
#
#
# Elastic Compliance Matrix: (Units=1/GPa)
#
#
# Indices 1 2 3 4 5 6 
#
# 1 0.026132 -0.006062 -0.009109 0.000000 0.000000 0.000000
# 2 -0.006062 0.022969 -0.007346 0.000000 0.000000 0.000000
# 3 -0.009109 -0.007346 0.012351 0.000000 0.000000 0.000000
# 4 0.000000 0.000000 0.000000 0.027144 0.000000 0.000000
# 5 0.000000 0.000000 0.000000 0.000000 -1.663844 0.000000
# 6 0.000000 0.000000 0.000000 0.000000 0.000000 0.033968
#
#
# Mechanical properties :
#
#
# Convention : Reuss Voigt Hill
#
# Bulk Modulus (GPa) = 60.90488 90.94944 75.92716
# Shear Modulus (GPa) = -3.35396 22.32206 9.48405
#
# Velocity S-wave (km/s) = -1.35961 3.50753 2.28629
# Velocity P-wave (km/s) = 5.57699 8.15661 6.98688
#
# Compressibility (1/GPa) = 0.01641905
#
# Stress axis : x y z
#
# Youngs Moduli (GPa) = 38.26690 43.53732 80.96598
#
# Poissons Ratio (x) = 0.26390 0.73753
# Poissons Ratio (y) = 0.23196 0.59476
# Poissons Ratio (z) = 0.34858 0.31982
#
# Static dielectric constant tensor:
#      x y z
#    x 3.283050 0.000000 0.000000 
#    y 0.000000 3.441110 0.000000 
#    z 0.000000 0.000000 3.522600 
# 
# 
# High freq. dielectric constant tensor:
#      x y z
#    x 1.698420 0.000000 0.000000 
#    y 0.000000 1.702680 0.000000 
#    z 0.000000 0.000000 1.717040 
# 
# From -- ./inp_files/24291.got.cif
#   From: 2010.03.12/outbox.cif.g09.slc.cpg/sg59_13_cif.got.tgz:24291.got - 2010.04.16 16:29:54.
