data_PCOD8243999
_publ_section_title
;
Structure prediction by ZEFSAII (Michael W. Deem and Ramdas Pophale) SiO2 
 PCOD8243999
Probable space group: P M M N
;
_chemical_formula_sum "Si O2"
_cell_formula_units_Z 64
_cell_length_a 14.609402
_cell_length_b 18.192476
_cell_length_c 11.500380
_cell_angle_alpha 90.000000
_cell_angle_beta 90.000000
_cell_angle_gamma 90.000000
_cell_volume 3056.584742
_symmetry_space_group_name_H-M "P M M N"
_symmetry_group_IT_number 59
_space_group.IT_coordinate_system_code '2'
_symmetry_cell_setting 'orthorhombic'
loop_
_space_group_symop_operation_xyz
x,y,z
1/2-x,1/2-y,z
1/2+x,-y,-z
-x,1/2+y,-z
-x,-y,-z
1/2+x,1/2+y,-z
1/2-x,y,z
x,1/2-y,z
loop_
_atom_site_type_symbol
_atom_site_label
_atom_site_fract_x
_atom_site_fract_y
_atom_site_fract_z
Si Si1 0.357393 0.538800 0.818535
Si Si2 0.857223 0.046674 0.441482
Si Si3 0.643473 0.165403 0.017982
Si Si4 0.642052 0.604953 0.052753
Si Si5 0.356448 0.395474 0.437631
Si Si6 0.478228 0.835051 0.439831
Si Si7 0.642242 0.667094 0.808294
Si Si8 0.484521 0.833861 0.182989
O O1 0.250000 0.531028 0.810168
O O2 0.395473 0.527755 0.687900
O O3 0.391042 0.476405 0.908975
O O4 0.385131 0.618728 0.868337
O O5 0.750000 0.064943 0.439652
O O6 0.909071 0.119460 0.480936
O O7 0.878797 0.979683 0.528908
O O8 0.750000 0.155410 0.987985
O O9 0.618372 0.250000 0.044731
O O10 0.587489 0.132140 0.908908
O O11 0.750000 0.618220 0.068140
O O12 0.588867 0.659822 0.138625
O O13 0.608455 0.622003 0.921408
O O14 0.250000 0.376687 0.460366
O O15 0.416946 0.342359 0.517653
O O16 0.385339 0.380657 0.304162
O O17 0.449481 0.750000 0.446199
O O18 0.472339 0.869171 0.310036
O O19 0.750000 0.675413 0.814387
O O20 0.599610 0.750000 0.804865
O O21 0.458357 0.750000 0.197591
#
# Coordination Sequence:
#
# PCOD8243999 Si02
#       8
#     8   8   8   8   8   8   8   8
#     4   9  19  36  59  87 113 144 192 236 281 348
#     4  10  22  40  61  85 117 157 198 244 294 346
#     4   9  19  37  58  78 107 146 187 242 297 334
#     4  10  20  35  56  84 119 150 177 225 287 341
#     4  10  21  39  62  86 116 155 196 240 292 349
#     4  11  24  39  58  86 118 155 200 248 295 347
#     4   9  18  33  55  85 118 151 189 231 280 344
#     4  10  22  37  54  81 111 145 193 232 275 349
#
# _framework density 20.938400999999999
#
# number of rings (size 3 to 8) (size 9 to 14) (size 15 to 20)
#    0.000    2.250    0.000    1.875    0.000    6.750 
#    0.000    7.500    0.000    0.000    0.000    0.000 
#    0.000    0.000    0.000    0.000    0.000    0.000 
#
# Total GULP energy -793409.411373 kJ/mol
# GULP energy per Si atom -12397.022053 kJ/mol
# Density = 2.089074 g / cm^3
# Si number density = 20.938401 Si / 1000 Ang^3
#
#
#
# Elastic Constant Matrix: (Units=GPa)
#
#
# Indices 1 2 3 4 5 6 
#
# 1 52.8829 36.9258 40.7288 0.0000 0.0000 0.0000
# 2 36.9258 115.2668 86.6468 0.0000 0.0000 0.0000
# 3 40.7288 86.6468 185.7004 0.0000 0.0000 0.0000
# 4 0.0000 0.0000 0.0000 37.0915 0.0000 0.0000
# 5 0.0000 0.0000 0.0000 0.0000 29.1351 0.0000
# 6 0.0000 0.0000 0.0000 0.0000 0.0000 26.8692
#
#
#
# Elastic Compliance Matrix: (Units=1/GPa)
#
#
# Indices 1 2 3 4 5 6 
#
# 1 0.025215 -0.006039 -0.002713 0.000000 0.000000 0.000000
# 2 -0.006039 0.014808 -0.005585 0.000000 0.000000 0.000000
# 3 -0.002713 -0.005585 0.008586 0.000000 0.000000 0.000000
# 4 0.000000 0.000000 0.000000 0.026960 0.000000 0.000000
# 5 0.000000 0.000000 0.000000 0.000000 0.034323 0.000000
# 6 0.000000 0.000000 0.000000 0.000000 0.000000 0.037217
#
#
# Mechanical properties :
#
#
# Convention : Reuss Voigt Hill
#
# Bulk Modulus (GPa) = 50.15835 75.82812 62.99323
# Shear Modulus (GPa) = 27.40793 31.25573 29.33183
#
# Velocity S-wave (km/s) = 3.62191 3.86780 3.74687
# Velocity P-wave (km/s) = 6.44191 7.49933 6.99064
#
# Compressibility (1/GPa) = 0.01993686
#
# Stress axis : x y z
#
# Youngs Moduli (GPa) = 39.65816 67.52966 116.46887
#
# Poissons Ratio (x) = 0.40778 0.31596
# Poissons Ratio (y) = 0.23948 0.65049
# Poissons Ratio (z) = 0.10759 0.37716
#
# Static dielectric constant tensor:
#      x y z
#    x 3.617910 0.000000 0.000000 
#    y 0.000000 3.743080 0.000000 
#    z 0.000000 0.000000 4.219150 
# 
# 
# High freq. dielectric constant tensor:
#      x y z
#    x 1.809850 0.000000 0.000000 
#    y 0.000000 1.813080 0.000000 
#    z 0.000000 0.000000 1.829230 
# 
# From -- ./inp_files/17267.got.cif
#   From: 2010.03.12/outbox.cif.g09.slc.cpg/sg59_9_cif.got.tgz:17267.got - 2010.04.16 16:29:54.
