data_PCOD8243058
_publ_section_title
;
Structure prediction by ZEFSAII (Michael W. Deem and Ramdas Pophale) SiO2 
 PCOD8243058
Probable space group: P M M N
;
_chemical_formula_sum "Si O2"
_cell_formula_units_Z 64
_cell_length_a 8.540393
_cell_length_b 22.102117
_cell_length_c 16.955639
_cell_angle_alpha 90.000000
_cell_angle_beta 90.000000
_cell_angle_gamma 90.000000
_cell_volume 3200.559394
_symmetry_space_group_name_H-M "P M M N"
_symmetry_group_IT_number 59
_space_group.IT_coordinate_system_code '2'
_symmetry_cell_setting 'orthorhombic'
loop_
_space_group_symop_operation_xyz
x,y,z
1/2-x,1/2-y,z
1/2+x,-y,-z
-x,1/2+y,-z
-x,-y,-z
1/2+x,1/2+y,-z
1/2-x,y,z
x,1/2-y,z
loop_
_atom_site_type_symbol
_atom_site_label
_atom_site_fract_x
_atom_site_fract_y
_atom_site_fract_z
Si Si1 0.067320 0.076401 0.291430
Si Si2 0.566380 0.818282 0.262773
Si Si3 0.563310 0.937356 0.534537
Si Si4 0.068132 0.114358 0.888336
Si Si5 0.570117 0.816856 0.810691
Si Si6 0.068889 0.876282 0.949313
Si Si7 0.569183 0.510558 0.863885
Si Si8 0.063533 0.181148 0.561466
O O1 0.250000 0.084508 0.305271
O O2 0.992966 0.063471 0.376613
O O3 0.999574 0.138964 0.255934
O O4 0.031548 0.023787 0.228221
O O5 0.750000 0.829673 0.266694
O O6 0.526422 0.750000 0.238892
O O7 0.494474 0.860174 0.193568
O O8 0.498348 0.832478 0.350020
O O9 0.750000 0.939335 0.530707
O O10 0.502331 0.874986 0.492420
O O11 0.500000 0.000000 0.500000
O O12 0.250000 0.130710 0.894825
O O13 0.043066 0.042785 0.891219
O O14 0.980224 0.143724 0.962896
O O15 0.750000 0.834917 0.830049
O O16 0.557649 0.750000 0.775835
O O17 0.469425 0.820897 0.890850
O O18 0.250000 0.893645 0.946803
O O19 0.966227 0.932689 0.919355
O O20 0.750000 0.492159 0.875123
O O21 0.250000 0.181643 0.561413
O O22 0.008288 0.250000 0.535177
#
# Coordination Sequence:
#
# PCOD8243058 Si02
#       8
#     8   8   8   8   8   8   8   8
#     4   8  17  33  51  76 107 138 172 215 264 318
#     4   8  16  31  49  72 102 134 172 217 259 306
#     4  10  20  33  53  83 116 145 179 226 278 329
#     4  11  21  32  52  78 102 134 177 221 268 324
#     4   9  18  35  58  79 104 141 181 220 267 321
#     4  11  22  36  52  75 107 138 174 221 269 319
#     4  10  20  36  54  72 102 140 178 219 266 322
#     4   8  15  30  52  77 106 141 182 226 266 311
#
# _framework density 19.996504999999999
#
# number of rings (size 3 to 8) (size 9 to 14) (size 15 to 20)
#    0.000    2.625    0.000    3.750    1.750    1.250 
#    0.000    6.250    0.000    1.500    0.000    3.500 
#    0.000    0.000    0.000    0.000    0.000    0.000 
#
# Total GULP energy -793117.004104 kJ/mol
# GULP energy per Si atom -12392.453189 kJ/mol
# Density = 1.995099 g / cm^3
# Si number density = 19.996505 Si / 1000 Ang^3
#
#
#
# Elastic Constant Matrix: (Units=GPa)
#
#
# Indices 1 2 3 4 5 6 
#
# 1 37.6668 13.4690 26.2225 0.0000 0.0000 0.0000
# 2 13.4690 88.7304 43.9425 0.0000 0.0000 0.0000
# 3 26.2225 43.9425 140.0393 0.0000 0.0000 0.0000
# 4 0.0000 0.0000 0.0000 24.4857 0.0000 0.0000
# 5 0.0000 0.0000 0.0000 0.0000 15.8333 0.0000
# 6 0.0000 0.0000 0.0000 0.0000 0.0000 21.4597
#
#
#
# Elastic Compliance Matrix: (Units=1/GPa)
#
#
# Indices 1 2 3 4 5 6 
#
# 1 0.030874 -0.002159 -0.005104 0.000000 0.000000 0.000000
# 2 -0.002159 0.013495 -0.003830 0.000000 0.000000 0.000000
# 3 -0.005104 -0.003830 0.009298 0.000000 0.000000 0.000000
# 4 0.000000 0.000000 0.000000 0.040840 0.000000 0.000000
# 5 0.000000 0.000000 0.000000 0.000000 0.063158 0.000000
# 6 0.000000 0.000000 0.000000 0.000000 0.000000 0.046599
#
#
# Mechanical properties :
#
#
# Convention : Reuss Voigt Hill
#
# Bulk Modulus (GPa) = 31.76521 48.18939 39.97730
# Shear Modulus (GPa) = 21.10214 24.54260 22.82237
#
# Velocity S-wave (km/s) = 3.25205 3.50715 3.38200
# Velocity P-wave (km/s) = 5.47914 6.36799 5.94021
#
# Compressibility (1/GPa) = 0.03148098
#
# Stress axis : x y z
#
# Youngs Moduli (GPa) = 32.39016 74.10339 107.54573
#
# Poissons Ratio (x) = 0.15999 0.54888
# Poissons Ratio (y) = 0.06993 0.41192
# Poissons Ratio (z) = 0.16531 0.28383
#
# Static dielectric constant tensor:
#      x y z
#    x 3.176730 0.000000 0.000000 
#    y 0.000000 3.656740 0.000000 
#    z 0.000000 0.000000 4.312710 
# 
# 
# High freq. dielectric constant tensor:
#      x y z
#    x 1.735290 0.000000 0.000000 
#    y 0.000000 1.777640 0.000000 
#    z 0.000000 0.000000 1.789500 
# 
# From -- ./inp_files/26339.got.cif
#   From: 2010.03.12/outbox.cif.g09.slc.cpg/sg59_14_cif.got.tgz:26339.got - 2010.04.16 16:29:54.
