data_PCOD8243183
_publ_section_title
;
Structure prediction by ZEFSAII (Michael W. Deem and Ramdas Pophale) SiO2 
 PCOD8243183
Probable space group: P M M N
;
_chemical_formula_sum "Si O2"
_cell_formula_units_Z 64
_cell_length_a 19.632527
_cell_length_b 9.255025
_cell_length_c 19.286959
_cell_angle_alpha 90.000000
_cell_angle_beta 90.000000
_cell_angle_gamma 90.000000
_cell_volume 3504.431351
_symmetry_space_group_name_H-M "P M M N"
_symmetry_group_IT_number 59
_space_group.IT_coordinate_system_code '2'
_symmetry_cell_setting 'orthorhombic'
loop_
_space_group_symop_operation_xyz
x,y,z
1/2-x,1/2-y,z
1/2+x,-y,-z
-x,1/2+y,-z
-x,-y,-z
1/2+x,1/2+y,-z
1/2-x,y,z
x,1/2-y,z
loop_
_atom_site_type_symbol
_atom_site_label
_atom_site_fract_x
_atom_site_fract_y
_atom_site_fract_z
Si Si1 0.584497 0.418498 0.068590
Si Si2 0.447667 0.913170 0.079855
Si Si3 0.050730 0.578635 0.711395
Si Si4 0.422847 0.583836 0.231518
Si Si5 0.326714 0.914262 0.464386
Si Si6 0.547579 0.415784 0.446907
Si Si7 0.174010 0.920914 0.806915
Si Si8 0.830305 0.586127 0.668768
O O1 0.578170 0.250000 0.083796
O O2 0.511828 0.483760 0.087086
O O3 0.642844 0.480518 0.119970
O O4 0.599715 0.452226 0.987076
O O5 0.475345 0.750000 0.070750
O O6 0.404182 0.927234 0.150062
O O7 0.038926 0.750000 0.718018
O O8 0.043721 0.526666 0.631683
O O9 0.124523 0.535332 0.742945
O O10 0.994167 0.494416 0.754538
O O11 0.427840 0.750000 0.255846
O O12 0.361526 0.504578 0.269277
O O13 0.250000 0.955656 0.486560
O O14 0.330102 0.750000 0.436608
O O15 0.373831 0.935536 0.531133
O O16 0.354114 0.018150 0.403854
O O17 0.500000 0.500000 0.500000
O O18 0.524822 0.250000 0.450481
O O19 0.250000 0.987704 0.796204
O O20 0.180542 0.750000 0.810379
O O21 0.750000 0.577378 0.676707
O O22 0.857349 0.750000 0.671250
#
# Coordination Sequence:
#
# PCOD8243183 Si02
#       8
#     8   8   8   8   8   8   8   8
#     4   9  16  30  51  74 100 132 171 210 252 302
#     4   9  18  30  48  75 103 131 168 211 253 299
#     4  10  20  34  52  76 104 136 177 216 259 311
#     4  11  21  33  51  76 106 137 172 214 258 307
#     4   9  18  34  54  74  98 131 169 208 256 312
#     4  10  21  34  50  74 102 131 165 210 258 307
#     4   9  17  30  51  78 106 136 173 217 260 303
#     4  10  21  36  54  76 101 131 169 212 258 312
#
# _framework density 18.262591
#
# number of rings (size 3 to 8) (size 9 to 14) (size 15 to 20)
#    0.000    2.375    1.250    1.500    0.000    4.750 
#    0.000    3.125    0.000    3.750    0.000    1.750 
#    0.000    0.000    0.000    0.000    0.000    0.000 
#
# Total GULP energy -793322.543181 kJ/mol
# GULP energy per Si atom -12395.664737 kJ/mol
# Density = 1.822102 g / cm^3
# Si number density = 18.262591 Si / 1000 Ang^3
#
#
#
# Elastic Constant Matrix: (Units=GPa)
#
#
# Indices 1 2 3 4 5 6 
#
# 1 63.4962 19.7317 44.8058 0.0000 0.0000 0.0000
# 2 19.7317 56.3427 35.6667 0.0000 0.0000 0.0000
# 3 44.8058 35.6667 134.9979 0.0000 0.0000 0.0000
# 4 0.0000 0.0000 0.0000 21.5043 0.0000 0.0000
# 5 0.0000 0.0000 0.0000 0.0000 29.7700 0.0000
# 6 0.0000 0.0000 0.0000 0.0000 0.0000 21.9078
#
#
#
# Elastic Compliance Matrix: (Units=1/GPa)
#
#
# Indices 1 2 3 4 5 6 
#
# 1 0.021143 -0.003557 -0.006078 0.000000 0.000000 0.000000
# 2 -0.003557 0.021912 -0.004608 0.000000 0.000000 0.000000
# 3 -0.006078 -0.004608 0.010642 0.000000 0.000000 0.000000
# 4 0.000000 0.000000 0.000000 0.046502 0.000000 0.000000
# 5 0.000000 0.000000 0.000000 0.000000 0.033591 0.000000
# 6 0.000000 0.000000 0.000000 0.000000 0.000000 0.045646
#
#
# Mechanical properties :
#
#
# Convention : Reuss Voigt Hill
#
# Bulk Modulus (GPa) = 39.66613 50.58281 45.12447
# Shear Modulus (GPa) = 23.11330 24.94525 24.02928
#
# Velocity S-wave (km/s) = 3.56140 3.69985 3.63128
# Velocity P-wave (km/s) = 6.21920 6.78303 6.50722
#
# Compressibility (1/GPa) = 0.02521042
#
# Stress axis : x y z
#
# Youngs Moduli (GPa) = 47.29709 45.63795 93.96533
#
# Poissons Ratio (x) = 0.16234 0.57108
# Poissons Ratio (y) = 0.16824 0.43304
# Poissons Ratio (z) = 0.28745 0.21032
#
# Static dielectric constant tensor:
#      x y z
#    x 3.376300 0.000000 0.000000 
#    y 0.000000 3.335100 0.000000 
#    z 0.000000 0.000000 3.619910 
# 
# 
# High freq. dielectric constant tensor:
#      x y z
#    x 1.693550 0.000000 0.000000 
#    y 0.000000 1.693490 0.000000 
#    z 0.000000 0.000000 1.719190 
# 
# From -- ./inp_files/28316.got.cif
#   From: 2010.03.12/outbox.cif.g09.slc.cpg/sg59_15_cif.got.tgz:28316.got - 2010.04.16 16:29:54.
