data_PCOD8243975
_publ_section_title
;
Structure prediction by ZEFSAII (Michael W. Deem and Ramdas Pophale) SiO2 
 PCOD8243975
Probable space group: P M M N
;
_chemical_formula_sum "Si O2"
_cell_formula_units_Z 48
_cell_length_a 14.276827
_cell_length_b 16.267890
_cell_length_c 10.192900
_cell_angle_alpha 90.000000
_cell_angle_beta 90.000000
_cell_angle_gamma 90.000000
_cell_volume 2367.340280
_symmetry_space_group_name_H-M "P M M N"
_symmetry_group_IT_number 59
_space_group.IT_coordinate_system_code '2'
_symmetry_cell_setting 'orthorhombic'
loop_
_space_group_symop_operation_xyz
x,y,z
1/2-x,1/2-y,z
1/2+x,-y,-z
-x,1/2+y,-z
-x,-y,-z
1/2+x,1/2+y,-z
1/2-x,y,z
x,1/2-y,z
loop_
_atom_site_type_symbol
_atom_site_label
_atom_site_fract_x
_atom_site_fract_y
_atom_site_fract_z
Si Si1 0.853125 0.154260 0.541289
Si Si2 0.854147 0.594711 0.803225
Si Si3 0.140455 0.154513 0.725787
Si Si4 0.648781 0.096192 0.828169
Si Si5 0.029113 0.091970 0.963293
Si Si6 0.950717 0.654487 0.550842
O O1 0.750000 0.128888 0.484301
O O2 0.855576 0.250000 0.573467
O O3 0.874422 0.109376 0.676615
O O4 0.937986 0.132431 0.442446
O O5 0.750000 0.634778 0.804371
O O6 0.846886 0.501114 0.847984
O O7 0.898370 0.601604 0.659847
O O8 0.921841 0.637379 0.912438
O O9 0.250000 0.136574 0.710902
O O10 0.121113 0.250000 0.760011
O O11 0.100046 0.096232 0.840104
O O12 0.090731 0.130034 0.589949
O O13 0.750000 0.135144 0.865335
O O14 0.568159 0.136636 0.919476
O O15 0.000000 0.000000 0.000000
O O16 0.932654 0.750000 0.580881
#
# Coordination Sequence:
#
# PCOD8243975 Si02
#       6
#     8   8   8   8   8   8
#     4   9  17  32  55  79 103 135 178 228 275 321
#     4  10  21  35  52  77 114 149 178 221 279 334
#     4  10  20  35  57  83 112 147 192 238 278 333
#     4   9  18  34  55  78 105 141 186 228 270 323
#     4  10  20  36  54  79 110 151 187 231 278 332
#     4  10  20  35  56  83 112 145 185 231 281 333
#
# _framework density 20.275919999999999
#
# number of rings (size 3 to 8) (size 9 to 14) (size 15 to 20)
#    0.000    2.333    1.667    1.000    0.000    3.000 
#    0.000    0.833    0.000    1.000    0.000    0.000 
#    0.000    0.000    0.000    0.000    0.000    0.000 
#
# Total GULP energy -594811.197466 kJ/mol
# GULP energy per Si atom -12391.899947 kJ/mol
# Density = 2.022977 g / cm^3
# Si number density = 20.275920 Si / 1000 Ang^3
#
#
#
# Elastic Constant Matrix: (Units=GPa)
#
#
# Indices 1 2 3 4 5 6 
#
# 1 190.3059 22.2995 73.2993 0.0000 0.0000 0.0000
# 2 22.2995 18.3865 17.6558 0.0000 0.0000 0.0000
# 3 73.2993 17.6558 113.9051 0.0000 0.0000 0.0000
# 4 0.0000 0.0000 0.0000 -1.1496 0.0000 0.0000
# 5 0.0000 0.0000 0.0000 0.0000 38.5317 0.0000
# 6 0.0000 0.0000 0.0000 0.0000 0.0000 18.9208
#
#
#
# Elastic Compliance Matrix: (Units=1/GPa)
#
#
# Indices 1 2 3 4 5 6 
#
# 1 0.007380 -0.005158 -0.003950 0.000000 0.000000 0.000000
# 2 -0.005158 0.067504 -0.007144 0.000000 0.000000 0.000000
# 3 -0.003950 -0.007144 0.012428 0.000000 0.000000 0.000000
# 4 0.000000 0.000000 0.000000 -0.869845 0.000000 0.000000
# 5 0.000000 0.000000 0.000000 0.000000 0.025953 0.000000
# 6 0.000000 0.000000 0.000000 0.000000 0.000000 0.052852
#
#
# Mechanical properties :
#
#
# Convention : Reuss Voigt Hill
#
# Bulk Modulus (GPa) = 18.24541 61.01189 39.62865
# Shear Modulus (GPa) = -7.65751 25.21676 8.77963
#
# Velocity S-wave (km/s) = -1.94547 3.53041 2.08314
# Velocity P-wave (km/s) = 1.99289 6.83919 5.03717
#
# Compressibility (1/GPa) = 0.05480830
#
# Stress axis : x y z
#
# Youngs Moduli (GPa) = 135.49245 14.81400 80.46106
#
# Poissons Ratio (x) = 0.07641 0.31781
# Poissons Ratio (y) = 0.69891 0.57481
# Poissons Ratio (z) = 0.53518 0.10583
#
# Static dielectric constant tensor:
#      x y z
#    x 4.629610 0.000000 0.000000 
#    y 0.000000 3.306500 0.000000 
#    z 0.000000 0.000000 3.543160 
# 
# 
# High freq. dielectric constant tensor:
#      x y z
#    x 1.824180 0.000000 0.000000 
#    y 0.000000 1.753780 0.000000 
#    z 0.000000 0.000000 1.774030 
# 
# From -- ./inp_files/8993.got.cif
#   From: 2010.03.12/outbox.cif.g09.slc.cpg/sg59_5_cif.got.tgz:8993.got - 2010.04.16 16:29:54.
