data_PCOD8243723
_publ_section_title
;
Structure prediction by ZEFSAII (Michael W. Deem and Ramdas Pophale) SiO2 
 PCOD8243723
Probable space group: P M M N
;
_chemical_formula_sum "Si O2"
_cell_formula_units_Z 56
_cell_length_a 20.553617
_cell_length_b 8.640066
_cell_length_c 16.004885
_cell_angle_alpha 90.000000
_cell_angle_beta 90.000000
_cell_angle_gamma 90.000000
_cell_volume 2842.221220
_symmetry_space_group_name_H-M "P M M N"
_symmetry_group_IT_number 59
_space_group.IT_coordinate_system_code '2'
_symmetry_cell_setting 'orthorhombic'
loop_
_space_group_symop_operation_xyz
x,y,z
1/2-x,1/2-y,z
1/2+x,-y,-z
-x,1/2+y,-z
-x,-y,-z
1/2+x,1/2+y,-z
1/2-x,y,z
x,1/2-y,z
loop_
_atom_site_type_symbol
_atom_site_label
_atom_site_fract_x
_atom_site_fract_y
_atom_site_fract_z
Si Si1 0.999551 0.433068 0.407893
Si Si2 0.451800 0.070680 0.115134
Si Si3 0.415137 0.073978 0.930862
Si Si4 0.250000 0.433955 0.354352
Si Si5 0.250000 0.567553 0.536491
Si Si6 0.111990 0.432833 0.285475
Si Si7 0.675783 0.423215 0.192284
Si Si8 0.365579 0.430098 0.642504
O O1 0.001988 0.250000 0.413418
O O2 0.934318 0.484824 0.362000
O O3 0.000000 0.500000 0.500000
O O4 0.061614 0.496980 0.355413
O O5 0.472360 0.250000 0.126825
O O6 0.409097 0.009959 0.193225
O O7 0.515421 0.966123 0.108938
O O8 0.411166 0.048648 0.030294
O O9 0.399192 0.250000 0.907383
O O10 0.362271 0.961274 0.891850
O O11 0.250000 0.250000 0.371505
O O12 0.250000 0.526499 0.440002
O O13 0.185710 0.487691 0.303737
O O14 0.250000 0.750000 0.551276
O O15 0.314915 0.498148 0.576483
O O16 0.109355 0.250000 0.287827
O O17 0.750000 0.436236 0.166846
O O18 0.658296 0.250000 0.223450
O O19 0.660431 0.545735 0.264419
O O20 0.374478 0.250000 0.623048
#
# Coordination Sequence:
#
# PCOD8243723 Si02
#       8
#     8   8   8   4   4   8   8   8
#     4  11  22  37  58  87 123 160 201 251 305 358
#     4   9  18  36  59  85 115 152 197 243 295 353
#     4  10  20  34  57  88 118 150 192 243 296 350
#     4  10  20  38  62  85 112 149 198 247 294 347
#     4  12  24  40  60  85 118 157 196 237 298 367
#     4   9  19  36  59  85 113 151 198 246 295 349
#     4  11  23  39  58  82 117 158 196 236 294 360
#     4  12  24  39  61  88 118 153 198 250 299 353
#
# _framework density 19.702898999999999
#
# number of rings (size 3 to 8) (size 9 to 14) (size 15 to 20)
#    0.000    1.571    0.714    4.929    0.000    3.714 
#    1.286    2.143    0.000    0.000    0.000    0.000 
#    0.000    0.000    0.000    0.000    0.000    0.000 
#
# Total GULP energy -694539.536622 kJ/mol
# GULP energy per Si atom -12402.491725 kJ/mol
# Density = 1.965805 g / cm^3
# Si number density = 19.702899 Si / 1000 Ang^3
#
#
#
# Elastic Constant Matrix: (Units=GPa)
#
#
# Indices 1 2 3 4 5 6 
#
# 1 135.5913 27.4073 68.0975 0.0000 0.0000 0.0000
# 2 27.4073 57.9069 26.5392 0.0000 0.0000 0.0000
# 3 68.0975 26.5392 142.0845 0.0000 0.0000 0.0000
# 4 0.0000 0.0000 0.0000 28.2185 0.0000 0.0000
# 5 0.0000 0.0000 0.0000 0.0000 22.1825 0.0000
# 6 0.0000 0.0000 0.0000 0.0000 0.0000 23.2806
#
#
#
# Elastic Compliance Matrix: (Units=1/GPa)
#
#
# Indices 1 2 3 4 5 6 
#
# 1 0.010113 -0.002805 -0.004323 0.000000 0.000000 0.000000
# 2 -0.002805 0.019664 -0.002328 0.000000 0.000000 0.000000
# 3 -0.004323 -0.002328 0.009545 0.000000 0.000000 0.000000
# 4 0.000000 0.000000 0.000000 0.035438 0.000000 0.000000
# 5 0.000000 0.000000 0.000000 0.000000 0.045081 0.000000
# 6 0.000000 0.000000 0.000000 0.000000 0.000000 0.042954
#
#
# Mechanical properties :
#
#
# Convention : Reuss Voigt Hill
#
# Bulk Modulus (GPa) = 48.99892 64.40785 56.70339
# Shear Modulus (GPa) = 26.52363 28.97225 27.74794
#
# Velocity S-wave (km/s) = 3.67301 3.83881 3.75683
# Velocity P-wave (km/s) = 6.55064 7.23942 6.90362
#
# Compressibility (1/GPa) = 0.02040861
#
# Stress axis : x y z
#
# Youngs Moduli (GPa) = 98.87968 50.85439 104.76794
#
# Poissons Ratio (x) = 0.14266 0.45292
# Poissons Ratio (y) = 0.27739 0.24394
# Poissons Ratio (z) = 0.42746 0.11841
#
# Static dielectric constant tensor:
#      x y z
#    x 4.088900 0.000000 0.000000 
#    y 0.000000 3.608130 0.000000 
#    z 0.000000 0.000000 3.766740 
# 
# 
# High freq. dielectric constant tensor:
#      x y z
#    x 1.772330 0.000000 0.000000 
#    y 0.000000 1.760180 0.000000 
#    z 0.000000 0.000000 1.775590 
# 
# From -- ./inp_files/24340.got.cif
#   From: 2010.03.12/outbox.cif.g09.slc.cpg/sg59_13_cif.got.tgz:24340.got - 2010.04.16 16:29:54.
