data_PCOD8243449
_publ_section_title
;
Structure prediction by ZEFSAII (Michael W. Deem and Ramdas Pophale) SiO2 
 PCOD8243449
Probable space group: P M M N
;
_chemical_formula_sum "Si O2"
_cell_formula_units_Z 56
_cell_length_a 15.808788
_cell_length_b 9.403736
_cell_length_c 19.414750
_cell_angle_alpha 90.000000
_cell_angle_beta 90.000000
_cell_angle_gamma 90.000000
_cell_volume 2886.229135
_symmetry_space_group_name_H-M "P M M N"
_symmetry_group_IT_number 59
_space_group.IT_coordinate_system_code '2'
_symmetry_cell_setting 'orthorhombic'
loop_
_space_group_symop_operation_xyz
x,y,z
1/2-x,1/2-y,z
1/2+x,-y,-z
-x,1/2+y,-z
-x,-y,-z
1/2+x,1/2+y,-z
1/2-x,y,z
x,1/2-y,z
loop_
_atom_site_type_symbol
_atom_site_label
_atom_site_fract_x
_atom_site_fract_y
_atom_site_fract_z
Si Si1 0.591031 0.912007 0.711636
Si Si2 0.156415 0.418585 0.431227
Si Si3 0.398292 0.587204 0.710693
Si Si4 0.649315 0.589050 0.418447
Si Si5 0.655071 0.413739 0.834108
Si Si6 0.000584 0.917666 0.070835
Si Si7 0.343889 0.087429 0.835797
O O1 0.623514 0.750000 0.715224
O O2 0.599380 0.969922 0.633077
O O3 0.494683 0.924119 0.735369
O O4 0.648510 0.002372 0.762783
O O5 0.250000 0.482417 0.419689
O O6 0.161774 0.250000 0.434478
O O7 0.119866 0.467011 0.505703
O O8 0.367781 0.750000 0.706362
O O9 0.390200 0.517832 0.636130
O O10 0.342684 0.505300 0.766655
O O11 0.750000 0.585045 0.414234
O O12 0.617263 0.750000 0.404069
O O13 0.750000 0.436509 0.864300
O O14 0.637744 0.250000 0.816800
O O15 0.584926 0.466845 0.888534
O O16 0.001210 0.750000 0.056308
O O17 0.915746 0.964558 0.111376
O O18 0.000000 0.000000 0.000000
O O19 0.250000 0.072713 0.869453
O O20 0.362327 0.250000 0.814361
#
# Coordination Sequence:
#
# PCOD8243449 Si02
#       7
#     8   8   8   8   8   8   8
#     4  10  20  34  54  80 110 145 188 234 278 328
#     4   8  15  30  51  73  99 136 185 235 278 326
#     4  11  22  33  50  80 114 144 182 235 288 331
#     4   9  18  33  52  72  98 140 190 233 279 338
#     4  10  21  38  60  86 116 150 185 223 276 334
#     4  10  22  40  61  87 119 148 180 224 269 323
#     4  10  21  39  62  84 109 149 195 229 266 323
#
# _framework density 19.402477999999999
#
# number of rings (size 3 to 8) (size 9 to 14) (size 15 to 20)
#    0.000    2.286    1.429    2.143    0.000    6.000 
#    0.000    0.714    0.000    0.857    0.000    0.000 
#    0.000    0.000    0.000    0.000    0.000    0.000 
#
# Total GULP energy -694281.056700 kJ/mol
# GULP energy per Si atom -12397.876012 kJ/mol
# Density = 1.935832 g / cm^3
# Si number density = 19.402478 Si / 1000 Ang^3
#
#
#
# Elastic Constant Matrix: (Units=GPa)
#
#
# Indices 1 2 3 4 5 6 
#
# 1 104.3024 32.2189 55.2713 0.0000 0.0000 0.0000
# 2 32.2189 68.2612 55.1248 0.0000 0.0000 0.0000
# 3 55.2713 55.1248 142.8008 0.0000 0.0000 0.0000
# 4 0.0000 0.0000 0.0000 34.8468 0.0000 0.0000
# 5 0.0000 0.0000 0.0000 0.0000 26.6188 0.0000
# 6 0.0000 0.0000 0.0000 0.0000 0.0000 16.5185
#
#
#
# Elastic Compliance Matrix: (Units=1/GPa)
#
#
# Indices 1 2 3 4 5 6 
#
# 1 0.012440 -0.002881 -0.003702 0.000000 0.000000 0.000000
# 2 -0.002881 0.021952 -0.007359 0.000000 0.000000 0.000000
# 3 -0.003702 -0.007359 0.011277 0.000000 0.000000 0.000000
# 4 0.000000 0.000000 0.000000 0.028697 0.000000 0.000000
# 5 0.000000 0.000000 0.000000 0.000000 0.037567 0.000000
# 6 0.000000 0.000000 0.000000 0.000000 0.000000 0.060538
#
#
# Mechanical properties :
#
#
# Convention : Reuss Voigt Hill
#
# Bulk Modulus (GPa) = 56.23398 66.73270 61.48334
# Shear Modulus (GPa) = 24.23837 27.11345 25.67591
#
# Velocity S-wave (km/s) = 3.53829 3.74227 3.64171
# Velocity P-wave (km/s) = 6.76303 7.28981 7.03135
#
# Compressibility (1/GPa) = 0.01778284
#
# Stress axis : x y z
#
# Youngs Moduli (GPa) = 80.38866 45.55318 88.67984
#
# Poissons Ratio (x) = 0.13126 0.32833
# Poissons Ratio (y) = 0.23164 0.65259
# Poissons Ratio (z) = 0.29763 0.33522
#
# Static dielectric constant tensor:
#      x y z
#    x 3.616450 0.000000 0.000000 
#    y 0.000000 3.370090 0.000000 
#    z 0.000000 0.000000 3.550600 
# 
# 
# High freq. dielectric constant tensor:
#      x y z
#    x 1.758800 0.000000 0.000000 
#    y 0.000000 1.734290 0.000000 
#    z 0.000000 0.000000 1.752100 
# 
# From -- ./inp_files/29065.got.cif
#   From: 2010.03.12/outbox.cif.g09.slc.cpg/sg59_15_cif.got.tgz:29065.got - 2010.04.16 16:29:54.
