data_PCOD8243202
_publ_section_title
;
Structure prediction by ZEFSAII (Michael W. Deem and Ramdas Pophale) SiO2 
 PCOD8243202
Probable space group: P M M N
;
_chemical_formula_sum "Si O2"
_cell_formula_units_Z 56
_cell_length_a 8.704491
_cell_length_b 24.199251
_cell_length_c 14.683372
_cell_angle_alpha 90.000000
_cell_angle_beta 90.000000
_cell_angle_gamma 90.000000
_cell_volume 3092.937231
_symmetry_space_group_name_H-M "P M M N"
_symmetry_group_IT_number 59
_space_group.IT_coordinate_system_code '2'
_symmetry_cell_setting 'orthorhombic'
loop_
_space_group_symop_operation_xyz
x,y,z
1/2-x,1/2-y,z
1/2+x,-y,-z
-x,1/2+y,-z
-x,-y,-z
1/2+x,1/2+y,-z
1/2-x,y,z
x,1/2-y,z
loop_
_atom_site_type_symbol
_atom_site_label
_atom_site_fract_x
_atom_site_fract_y
_atom_site_fract_z
Si Si1 0.929290 0.070823 0.641709
Si Si2 0.932486 0.750000 0.292313
Si Si3 0.927137 0.553905 0.675153
Si Si4 0.930009 0.364401 0.462148
Si Si5 0.568158 0.750000 0.497253
Si Si6 0.569304 0.638745 0.201606
Si Si7 0.573154 0.427909 0.942021
Si Si8 0.074007 0.535854 0.863982
O O1 0.750000 0.081718 0.661114
O O2 0.987278 0.103003 0.552104
O O3 0.028503 0.090628 0.727199
O O4 0.962214 0.005732 0.630421
O O5 0.750000 0.750000 0.296561
O O6 0.998631 0.750000 0.394542
O O7 0.994606 0.803593 0.240218
O O8 0.750000 0.569648 0.663075
O O9 0.028869 0.599682 0.625685
O O10 0.966552 0.555011 0.781943
O O11 0.750000 0.354877 0.465794
O O12 0.009826 0.304944 0.452557
O O13 0.750000 0.750000 0.498715
O O14 0.750000 0.640544 0.184857
O O15 0.482633 0.628570 0.105811
O O16 0.750000 0.441001 0.918783
O O17 0.467456 0.475183 0.898979
O O18 0.549247 0.422499 0.050682
O O19 0.250000 0.535645 0.830947
#
# Coordination Sequence:
#
# PCOD8243202 Si02
#       8
#     8   4   8   8   4   8   8   8
#     4  10  21  35  52  79 114 147 181 224 273 328
#     4   9  20  35  53  80 109 142 183 229 270 322
#     4  11  22  36  55  81 114 149 185 229 278 331
#     4  11  23  38  56  80 111 147 189 231 277 331
#     4  11  21  39  59  78 107 144 189 233 278 324
#     4  11  20  33  55  80 110 147 185 223 273 328
#     4  10  20  34  52  79 112 141 177 222 272 327
#     4  10  20  34  54  79 108 144 181 221 270 327
#
# _framework density 18.105767
#
# number of rings (size 3 to 8) (size 9 to 14) (size 15 to 20)
#    0.000    1.571    2.857    2.786    0.000    2.857 
#    0.000    1.429    0.000    0.857    0.000    2.000 
#    0.000    0.000    0.000    0.000    0.000    0.000 
#
# Total GULP energy -694597.250649 kJ/mol
# GULP energy per Si atom -12403.522333 kJ/mol
# Density = 1.806456 g / cm^3
# Si number density = 18.105767 Si / 1000 Ang^3
#
#
#
# Elastic Constant Matrix: (Units=GPa)
#
#
# Indices 1 2 3 4 5 6 
#
# 1 54.9426 28.1071 20.0511 0.0000 0.0000 0.0000
# 2 28.1071 102.7829 36.6213 0.0000 0.0000 0.0000
# 3 20.0511 36.6213 78.1249 0.0000 0.0000 0.0000
# 4 0.0000 0.0000 0.0000 26.7984 0.0000 0.0000
# 5 0.0000 0.0000 0.0000 0.0000 30.4332 0.0000
# 6 0.0000 0.0000 0.0000 0.0000 0.0000 26.3263
#
#
#
# Elastic Compliance Matrix: (Units=1/GPa)
#
#
# Indices 1 2 3 4 5 6 
#
# 1 0.021878 -0.004781 -0.003374 0.000000 0.000000 0.000000
# 2 -0.004781 0.012725 -0.004738 0.000000 0.000000 0.000000
# 3 -0.003374 -0.004738 0.015887 0.000000 0.000000 0.000000
# 4 0.000000 0.000000 0.000000 0.037316 0.000000 0.000000
# 5 0.000000 0.000000 0.000000 0.000000 0.032859 0.000000
# 6 0.000000 0.000000 0.000000 0.000000 0.000000 0.037985
#
#
# Mechanical properties :
#
#
# Convention : Reuss Voigt Hill
#
# Bulk Modulus (GPa) = 40.47866 45.04549 42.76208
# Shear Modulus (GPa) = 25.95136 26.78298 26.36717
#
# Velocity S-wave (km/s) = 3.79003 3.85028 3.82027
# Velocity P-wave (km/s) = 6.44653 6.68575 6.56723
#
# Compressibility (1/GPa) = 0.02470437
#
# Stress axis : x y z
#
# Youngs Moduli (GPa) = 45.70852 78.58810 62.94519
#
# Poissons Ratio (x) = 0.37569 0.21239
# Poissons Ratio (y) = 0.21851 0.29822
# Poissons Ratio (z) = 0.15423 0.37233
#
# Static dielectric constant tensor:
#      x y z
#    x 3.307940 0.000000 0.000000 
#    y 0.000000 3.310310 0.000000 
#    z 0.000000 0.000000 3.431570 
# 
# 
# High freq. dielectric constant tensor:
#      x y z
#    x 1.707520 0.000000 0.000000 
#    y 0.000000 1.683190 0.000000 
#    z 0.000000 0.000000 1.697220 
# 
# From -- ./inp_files/21109.got.cif
#   From: 2010.03.12/outbox.cif.g09.slc.cpg/sg59_11_cif.got.tgz:21109.got - 2010.04.16 16:29:54.
