data_PCOD8243920
_publ_section_title
;
Structure prediction by ZEFSAII (Michael W. Deem and Ramdas Pophale) SiO2 
 PCOD8243920
Probable space group: P M M N
;
_chemical_formula_sum "Si O2"
_cell_formula_units_Z 56
_cell_length_a 9.349055
_cell_length_b 18.140494
_cell_length_c 18.997774
_cell_angle_alpha 90.000000
_cell_angle_beta 90.000000
_cell_angle_gamma 90.000000
_cell_volume 3221.955525
_symmetry_space_group_name_H-M "P M M N"
_symmetry_group_IT_number 59
_space_group.IT_coordinate_system_code '2'
_symmetry_cell_setting 'orthorhombic'
loop_
_space_group_symop_operation_xyz
x,y,z
1/2-x,1/2-y,z
1/2+x,-y,-z
-x,1/2+y,-z
-x,-y,-z
1/2+x,1/2+y,-z
1/2-x,y,z
x,1/2-y,z
loop_
_atom_site_type_symbol
_atom_site_label
_atom_site_fract_x
_atom_site_fract_y
_atom_site_fract_z
Si Si1 0.912329 0.392155 0.271046
Si Si2 0.583668 0.420613 0.426049
Si Si3 0.080024 0.332333 0.699741
Si Si4 0.415058 0.331959 0.146979
Si Si5 0.919807 0.978690 0.929461
Si Si6 0.083127 0.408537 0.559999
Si Si7 0.414202 0.044182 0.804585
O O1 0.750000 0.365197 0.263236
O O2 0.963533 0.384438 0.351838
O O3 0.925778 0.477418 0.249982
O O4 0.005331 0.340478 0.221040
O O5 0.750000 0.407279 0.440060
O O6 0.548378 0.506996 0.422862
O O7 0.496116 0.382413 0.488933
O O8 0.250000 0.335716 0.696309
O O9 0.022692 0.250000 0.713406
O O10 0.021128 0.361040 0.624908
O O11 0.029474 0.383218 0.764424
O O12 0.250000 0.342563 0.164778
O O13 0.446812 0.250000 0.116219
O O14 0.461328 0.394004 0.090298
O O15 0.750000 0.989302 0.937953
O O16 0.979347 0.032953 0.869676
O O17 0.000000 0.000000 0.000000
O O18 0.250000 0.394640 0.548413
O O19 0.250000 0.052683 0.831372
#
# Coordination Sequence:
#
# PCOD8243920 Si02
#       7
#     8   8   8   8   8   8   8
#     4   9  16  28  48  71  96 126 162 201 241 289
#     4   9  16  27  43  65  92 123 160 206 251 291
#     4   9  16  28  48  71  95 127 168 210 249 289
#     4   9  19  35  53  75 102 128 157 197 242 285
#     4  10  20  35  56  80 103 129 160 194 233 279
#     4   9  16  27  43  65  92 123 164 209 248 288
#     4   9  16  30  51  73  97 125 160 201 240 283
#
# _framework density 17.380749999999999
#
# number of rings (size 3 to 8) (size 9 to 14) (size 15 to 20)
#    0.000    2.857    1.429    0.429    0.000    1.429 
#    0.000    2.143    0.000    8.571    0.000    0.000 
#    0.000    0.000    0.000    0.000    0.000    0.000 
#
# Total GULP energy -694241.104603 kJ/mol
# GULP energy per Si atom -12397.162582 kJ/mol
# Density = 1.734119 g / cm^3
# Si number density = 17.380750 Si / 1000 Ang^3
#
#
#
# Elastic Constant Matrix: (Units=GPa)
#
#
# Indices 1 2 3 4 5 6 
#
# 1 55.4268 34.8282 56.8581 0.0000 0.0000 0.0000
# 2 34.8282 98.3628 63.5257 0.0000 0.0000 0.0000
# 3 56.8581 63.5257 146.6751 0.0000 0.0000 0.0000
# 4 0.0000 0.0000 0.0000 20.1527 0.0000 0.0000
# 5 0.0000 0.0000 0.0000 0.0000 33.8889 0.0000
# 6 0.0000 0.0000 0.0000 0.0000 0.0000 17.6202
#
#
#
# Elastic Compliance Matrix: (Units=1/GPa)
#
#
# Indices 1 2 3 4 5 6 
#
# 1 0.031332 -0.004512 -0.010191 0.000000 0.000000 0.000000
# 2 -0.004512 0.014764 -0.004645 0.000000 0.000000 0.000000
# 3 -0.010191 -0.004645 0.012780 0.000000 0.000000 0.000000
# 4 0.000000 0.000000 0.000000 0.049621 0.000000 0.000000
# 5 0.000000 0.000000 0.000000 0.000000 0.029508 0.000000
# 6 0.000000 0.000000 0.000000 0.000000 0.000000 0.056753
#
#
# Mechanical properties :
#
#
# Convention : Reuss Voigt Hill
#
# Bulk Modulus (GPa) = 49.55742 67.87653 58.71697
# Shear Modulus (GPa) = 20.81754 24.01588 22.41671
#
# Velocity S-wave (km/s) = 3.46459 3.72122 3.59520
# Velocity P-wave (km/s) = 6.67677 7.58952 7.14773
#
# Compressibility (1/GPa) = 0.02017861
#
# Stress axis : x y z
#
# Youngs Moduli (GPa) = 31.91675 67.73151 78.24485
#
# Poissons Ratio (x) = 0.30560 0.79742
# Poissons Ratio (y) = 0.14401 0.36348
# Poissons Ratio (z) = 0.32528 0.31464
#
# Static dielectric constant tensor:
#      x y z
#    x 3.104580 0.000000 0.000000 
#    y 0.000000 3.236870 0.000000 
#    z 0.000000 0.000000 3.327230 
# 
# 
# High freq. dielectric constant tensor:
#      x y z
#    x 1.652930 0.000000 0.000000 
#    y 0.000000 1.654830 0.000000 
#    z 0.000000 0.000000 1.670540 
# 
# From -- ./inp_files/29338.got.cif
#   From: 2010.03.12/outbox.cif.g09.slc.cpg/sg59_15_cif.got.tgz:29338.got - 2010.04.16 16:29:54.
