data_PCOD8243930
_publ_section_title
;
Structure prediction by ZEFSAII (Michael W. Deem and Ramdas Pophale) SiO2 
 PCOD8243930
Probable space group: P M M N
;
_chemical_formula_sum "Si O2"
_cell_formula_units_Z 56
_cell_length_a 14.718127
_cell_length_b 36.226993
_cell_length_c 5.028642
_cell_angle_alpha 90.000000
_cell_angle_beta 90.000000
_cell_angle_gamma 90.000000
_cell_volume 2681.239147
_symmetry_space_group_name_H-M "P M M N"
_symmetry_group_IT_number 59
_space_group.IT_coordinate_system_code '2'
_symmetry_cell_setting 'orthorhombic'
loop_
_space_group_symop_operation_xyz
x,y,z
1/2-x,1/2-y,z
1/2+x,-y,-z
-x,1/2+y,-z
-x,-y,-z
1/2+x,1/2+y,-z
1/2-x,y,z
x,1/2-y,z
loop_
_atom_site_type_symbol
_atom_site_label
_atom_site_fract_x
_atom_site_fract_y
_atom_site_fract_z
Si Si1 0.651984 0.792300 0.425498
Si Si2 0.041509 0.207730 0.088507
Si Si3 0.350938 0.615451 0.597305
Si Si4 0.145046 0.039841 0.441692
Si Si5 0.647564 0.456524 0.721583
Si Si6 0.447812 0.861051 0.103627
Si Si7 0.960722 0.567241 0.057567
O O1 0.750000 0.812025 0.456050
O O2 0.661976 0.750000 0.512143
O O3 0.577917 0.808490 0.630623
O O4 0.622786 0.795777 0.121728
O O5 0.004837 0.250000 0.105756
O O6 0.962337 0.180741 0.992487
O O7 0.250000 0.629886 0.559113
O O8 0.362618 0.572734 0.517396
O O9 0.376074 0.619769 0.905451
O O10 0.411177 0.641022 0.403558
O O11 0.250000 0.052757 0.414473
O O12 0.080406 0.060276 0.232195
O O13 0.136849 0.996211 0.409633
O O14 0.108268 0.049433 0.732958
O O15 0.750000 0.452864 0.853502
O O16 0.563457 0.449799 0.924205
O O17 0.535854 0.888124 0.098850
#
# Coordination Sequence:
#
# PCOD8243930 Si02
#       7
#     8   8   8   8   8   8   8
#     4   9  17  31  52  79 107 135 175 227 276 318
#     4  10  20  35  56  80 108 144 184 229 277 327
#     4  10  21  38  60  85 112 142 181 230 282 331
#     4  11  23  39  58  82 117 157 196 230 273 336
#     4   9  20  37  61  89 112 145 193 243 288 334
#     4  11  22  38  58  83 112 145 184 227 280 343
#     4  11  22  39  57  82 116 152 188 236 288 336
#
# _framework density 20.885866
#
# number of rings (size 3 to 8) (size 9 to 14) (size 15 to 20)
#    0.000    1.857    0.000    4.714    0.000    4.571 
#    0.000   13.571    0.000    2.571    0.000    0.000 
#    0.000    0.000    0.000    0.000    0.000    0.000 
#
# Total GULP energy -694135.200425 kJ/mol
# GULP energy per Si atom -12395.271436 kJ/mol
# Density = 2.083833 g / cm^3
# Si number density = 20.885866 Si / 1000 Ang^3
#
#
#
# Elastic Constant Matrix: (Units=GPa)
#
#
# Indices 1 2 3 4 5 6 
#
# 1 99.3438 28.4770 9.0564 0.0000 0.0000 0.0000
# 2 28.4770 67.4739 -11.4656 0.0000 0.0000 0.0000
# 3 9.0564 -11.4656 57.9035 0.0000 0.0000 0.0000
# 4 0.0000 0.0000 0.0000 18.6627 0.0000 0.0000
# 5 0.0000 0.0000 0.0000 0.0000 28.1740 0.0000
# 6 0.0000 0.0000 0.0000 0.0000 0.0000 16.2529
#
#
#
# Elastic Compliance Matrix: (Units=1/GPa)
#
#
# Indices 1 2 3 4 5 6 
#
# 1 0.011923 -0.005535 -0.002961 0.000000 0.000000 0.000000
# 2 -0.005535 0.017906 0.004411 0.000000 0.000000 0.000000
# 3 -0.002961 0.004411 0.018607 0.000000 0.000000 0.000000
# 4 0.000000 0.000000 0.000000 0.053583 0.000000 0.000000
# 5 0.000000 0.000000 0.000000 0.000000 0.035494 0.000000
# 6 0.000000 0.000000 0.000000 0.000000 0.000000 0.061528
#
#
# Mechanical properties :
#
#
# Convention : Reuss Voigt Hill
#
# Bulk Modulus (GPa) = 24.83444 30.76187 27.79816
# Shear Modulus (GPa) = 22.66235 25.86149 24.26192
#
# Velocity S-wave (km/s) = 3.29759 3.52267 3.41199
# Velocity P-wave (km/s) = 5.13957 5.59519 5.37221
#
# Compressibility (1/GPa) = 0.04026665
#
# Stress axis : x y z
#
# Youngs Moduli (GPa) = 83.87464 55.84678 53.74414
#
# Poissons Ratio (x) = 0.30911 0.15912
# Poissons Ratio (y) = 0.46424 -0.23708
# Poissons Ratio (z) = 0.24833 -0.24636
#
# Static dielectric constant tensor:
#      x y z
#    x 3.906610 0.000000 0.000000 
#    y 0.000000 3.709570 0.000000 
#    z 0.000000 0.000000 3.740170 
# 
# 
# High freq. dielectric constant tensor:
#      x y z
#    x 1.811470 0.000000 0.000000 
#    y 0.000000 1.797470 0.000000 
#    z 0.000000 0.000000 1.827270 
# 
# From -- ./inp_files/2329.got.cif
#   From: 2010.03.12/outbox.cif.g09.slc.cpg/sg59_2_cif.got.tgz:2329.got - 2010.04.16 16:29:54.
