data_PCOD8243655
_publ_section_title
;
Structure prediction by ZEFSAII (Michael W. Deem and Ramdas Pophale) SiO2 
 PCOD8243655
Probable space group: P M M N
;
_chemical_formula_sum "Si O2"
_cell_formula_units_Z 48
_cell_length_a 7.867482
_cell_length_b 9.274671
_cell_length_c 34.243886
_cell_angle_alpha 90.000000
_cell_angle_beta 90.000000
_cell_angle_gamma 90.000000
_cell_volume 2498.718392
_symmetry_space_group_name_H-M "P M M N"
_symmetry_group_IT_number 59
_space_group.IT_coordinate_system_code '2'
_symmetry_cell_setting 'orthorhombic'
loop_
_space_group_symop_operation_xyz
x,y,z
1/2-x,1/2-y,z
1/2+x,-y,-z
-x,1/2+y,-z
-x,-y,-z
1/2+x,1/2+y,-z
1/2-x,y,z
x,1/2-y,z
loop_
_atom_site_type_symbol
_atom_site_label
_atom_site_fract_x
_atom_site_fract_y
_atom_site_fract_z
Si Si1 0.750000 0.416699 0.254797
Si Si2 0.948752 0.406572 0.963578
Si Si3 0.555304 0.583662 0.687812
Si Si4 0.550792 0.087063 0.610406
Si Si5 0.944373 0.408040 0.463315
Si Si6 0.559396 0.077978 0.878355
Si Si7 0.750000 0.578325 0.174304
O O1 0.750000 0.250000 0.242399
O O2 0.577781 0.454147 0.278246
O O3 0.750000 0.515971 0.217270
O O4 0.750000 0.385135 0.963355
O O5 0.037345 0.250000 0.968110
O O6 0.998172 0.477040 0.921606
O O7 0.000000 0.500000 0.000000
O O8 0.750000 0.551559 0.701577
O O9 0.536842 0.750000 0.675074
O O10 0.503421 0.485518 0.651366
O O11 0.750000 0.088078 0.603609
O O12 0.478237 0.250000 0.609970
O O13 0.469483 0.995187 0.576232
O O14 0.750000 0.376202 0.468972
O O15 0.036999 0.250000 0.461878
O O16 0.000000 0.500000 0.500000
O O17 0.750000 0.021393 0.867254
O O18 0.562282 0.250000 0.879549
O O19 0.420060 0.021511 0.847530
O O20 0.750000 0.750000 0.176590
#
# Coordination Sequence:
#
# PCOD8243655 Si02
#       7
#     4   8   8   8   8   8   4
#     4  10  22  38  56  82 114 142 178 228 278 334
#     4   9  18  31  48  73 103 136 176 223 272 321
#     4   9  19  37  59  81 110 148 183 219 271 332
#     4  10  21  37  58  85 114 143 179 226 278 327
#     4  11  24  39  56  80 111 148 190 232 274 324
#     4   8  16  32  51  73 103 137 178 223 265 320
#     4  10  20  34  56  80 100 138 184 220 272 328
#
# _framework density 19.209848999999998
#
# number of rings (size 3 to 8) (size 9 to 14) (size 15 to 20)
#    0.000    2.500    0.000    2.500    2.333    6.000 
#    0.000    0.833    0.000    1.000    0.000    0.000 
#    0.000    0.000    0.000    0.000    0.000    0.000 
#
# Total GULP energy -594922.898410 kJ/mol
# GULP energy per Si atom -12394.227050 kJ/mol
# Density = 1.916613 g / cm^3
# Si number density = 19.209849 Si / 1000 Ang^3
#
#
#
# Elastic Constant Matrix: (Units=GPa)
#
#
# Indices 1 2 3 4 5 6 
#
# 1 93.0106 38.1455 73.5110 0.0000 0.0000 0.0000
# 2 38.1455 100.5748 68.7294 0.0000 0.0000 0.0000
# 3 73.5110 68.7294 147.9846 0.0000 0.0000 0.0000
# 4 0.0000 0.0000 0.0000 35.6259 0.0000 0.0000
# 5 0.0000 0.0000 0.0000 0.0000 35.5417 0.0000
# 6 0.0000 0.0000 0.0000 0.0000 0.0000 17.9922
#
#
#
# Elastic Compliance Matrix: (Units=1/GPa)
#
#
# Indices 1 2 3 4 5 6 
#
# 1 0.017774 -0.001037 -0.008348 0.000000 0.000000 0.000000
# 2 -0.001037 0.014626 -0.006278 0.000000 0.000000 0.000000
# 3 -0.008348 -0.006278 0.013820 0.000000 0.000000 0.000000
# 4 0.000000 0.000000 0.000000 0.028069 0.000000 0.000000
# 5 0.000000 0.000000 0.000000 0.000000 0.028136 0.000000
# 6 0.000000 0.000000 0.000000 0.000000 0.000000 0.055580
#
#
# Mechanical properties :
#
#
# Convention : Reuss Voigt Hill
#
# Bulk Modulus (GPa) = 67.13467 78.03799 72.58633
# Shear Modulus (GPa) = 25.73392 28.57756 27.15574
#
# Velocity S-wave (km/s) = 3.66405 3.86119 3.76391
# Velocity P-wave (km/s) = 7.27491 7.78399 7.53375
#
# Compressibility (1/GPa) = 0.01489543
#
# Stress axis : x y z
#
# Youngs Moduli (GPa) = 56.26060 68.37058 72.35897
#
# Poissons Ratio (x) = 0.07088 0.60405
# Poissons Ratio (y) = 0.05833 0.45427
# Poissons Ratio (z) = 0.46966 0.42923
#
# Static dielectric constant tensor:
#      x y z
#    x 3.929180 0.000000 0.000000 
#    y 0.000000 3.407840 0.000000 
#    z 0.000000 0.000000 3.309500 
# 
# 
# High freq. dielectric constant tensor:
#      x y z
#    x 1.753140 0.000000 0.000000 
#    y 0.000000 1.731330 0.000000 
#    z 0.000000 0.000000 1.746440 
# 
# From -- ./inp_files/33005.got.cif
#   From: 2010.03.12/outbox.cif.g09.slc.cpg/sg59_17_cif.got.tgz:33005.got - 2010.04.16 16:29:54.
