data_PCOD8243853
_publ_section_title
;
Structure prediction by ZEFSAII (Michael W. Deem and Ramdas Pophale) SiO2 
 PCOD8243853
Probable space group: P M M N
;
_chemical_formula_sum "Si O2"
_cell_formula_units_Z 64
_cell_length_a 8.726336
_cell_length_b 22.940477
_cell_length_c 15.845955
_cell_angle_alpha 90.000000
_cell_angle_beta 90.000000
_cell_angle_gamma 90.000000
_cell_volume 3172.143265
_symmetry_space_group_name_H-M "P M M N"
_symmetry_group_IT_number 59
_space_group.IT_coordinate_system_code '2'
_symmetry_cell_setting 'orthorhombic'
loop_
_space_group_symop_operation_xyz
x,y,z
1/2-x,1/2-y,z
1/2+x,-y,-z
-x,1/2+y,-z
-x,-y,-z
1/2+x,1/2+y,-z
1/2-x,y,z
x,1/2-y,z
loop_
_atom_site_type_symbol
_atom_site_label
_atom_site_fract_x
_atom_site_fract_y
_atom_site_fract_z
Si Si1 0.576267 0.536741 0.883115
Si Si2 0.074625 0.184421 0.338491
Si Si3 0.921905 0.183314 0.517686
Si Si4 0.428323 0.920734 0.721052
Si Si5 0.925042 0.088996 0.960794
Si Si6 0.430792 0.817722 0.176942
Si Si7 0.070998 0.116694 0.663699
Si Si8 0.430463 0.997378 0.407015
O O1 0.750000 0.550834 0.856482
O O2 0.462672 0.543855 0.805290
O O3 0.557337 0.469498 0.906764
O O4 0.530949 0.581823 0.957178
O O5 0.250000 0.166174 0.353750
O O6 0.063489 0.250000 0.304819
O O7 0.979816 0.176021 0.423603
O O8 0.992242 0.144971 0.267593
O O9 0.750000 0.156583 0.525420
O O10 0.918278 0.250000 0.545826
O O11 0.040464 0.151466 0.578182
O O12 0.250000 0.922703 0.701691
O O13 0.520604 0.944002 0.640027
O O14 0.750000 0.097063 0.990556
O O15 0.978657 0.145033 0.906045
O O16 0.250000 0.821812 0.191084
O O17 0.482538 0.750000 0.166207
O O18 0.508829 0.846600 0.257713
O O19 0.250000 0.106371 0.676221
O O20 0.990808 0.054348 0.653197
O O21 0.250000 0.992535 0.415632
O O22 0.500000 0.000000 0.500000
#
# Coordination Sequence:
#
# PCOD8243853 Si02
#       8
#     8   8   8   8   8   8   8   8
#     4  10  20  36  61  89 116 150 192 238 289 345
#     4  10  21  38  59  82 110 145 186 232 281 332
#     4  10  20  35  55  78 107 147 194 239 284 335
#     4  12  24  39  60  87 118 150 189 234 283 340
#     4   9  19  37  60  86 115 147 187 239 293 347
#     4  10  21  38  60  86 119 160 202 245 300 365
#     4  12  24  37  55  82 116 154 198 244 293 348
#     4  12  25  42  61  84 118 157 199 246 299 354
#
# _framework density 20.175633999999999
#
# number of rings (size 3 to 8) (size 9 to 14) (size 15 to 20)
#    0.000    1.375    0.000    6.375    0.000    5.250 
#    0.000    0.625    0.000    2.250    0.000    0.000 
#    0.000    0.000    0.000    0.000    0.000    0.000 
#
# Total GULP energy -793723.947749 kJ/mol
# GULP energy per Si atom -12401.936684 kJ/mol
# Density = 2.012971 g / cm^3
# Si number density = 20.175634 Si / 1000 Ang^3
#
#
#
# Elastic Constant Matrix: (Units=GPa)
#
#
# Indices 1 2 3 4 5 6 
#
# 1 116.9629 49.8130 35.4920 0.0000 0.0000 0.0000
# 2 49.8130 103.3090 38.8620 0.0000 0.0000 0.0000
# 3 35.4920 38.8620 71.9371 0.0000 0.0000 0.0000
# 4 0.0000 0.0000 0.0000 33.9750 0.0000 0.0000
# 5 0.0000 0.0000 0.0000 0.0000 35.0346 0.0000
# 6 0.0000 0.0000 0.0000 0.0000 0.0000 30.2017
#
#
#
# Elastic Compliance Matrix: (Units=1/GPa)
#
#
# Indices 1 2 3 4 5 6 
#
# 1 0.011358 -0.004228 -0.003320 0.000000 0.000000 0.000000
# 2 -0.004228 0.013722 -0.005327 0.000000 0.000000 0.000000
# 3 -0.003320 -0.005327 0.018417 0.000000 0.000000 0.000000
# 4 0.000000 0.000000 0.000000 0.029433 0.000000 0.000000
# 5 0.000000 0.000000 0.000000 0.000000 0.028543 0.000000
# 6 0.000000 0.000000 0.000000 0.000000 0.000000 0.033111
#
#
# Mechanical properties :
#
#
# Convention : Reuss Voigt Hill
#
# Bulk Modulus (GPa) = 56.34612 60.06036 58.20324
# Shear Modulus (GPa) = 30.07548 31.04506 30.56027
#
# Velocity S-wave (km/s) = 3.86513 3.92693 3.89615
# Velocity P-wave (km/s) = 6.92151 7.09891 7.01077
#
# Compressibility (1/GPa) = 0.01774745
#
# Stress axis : x y z
#
# Youngs Moduli (GPa) = 88.04730 72.87539 54.29834
#
# Poissons Ratio (x) = 0.30808 0.18026
# Poissons Ratio (y) = 0.37222 0.28926
# Poissons Ratio (z) = 0.29229 0.38822
#
# Static dielectric constant tensor:
#      x y z
#    x 3.762870 0.000000 0.000000 
#    y 0.000000 3.988730 0.000000 
#    z 0.000000 0.000000 3.510500 
# 
# 
# High freq. dielectric constant tensor:
#      x y z
#    x 1.796790 0.000000 0.000000 
#    y 0.000000 1.796500 0.000000 
#    z 0.000000 0.000000 1.776910 
# 
# From -- ./inp_files/21630.got.cif
#   From: 2010.03.12/outbox.cif.g09.slc.cpg/sg59_11_cif.got.tgz:21630.got - 2010.04.16 16:29:54.
