data_PCOD8243267
_publ_section_title
;
Structure prediction by ZEFSAII (Michael W. Deem and Ramdas Pophale) SiO2 
 PCOD8243267
Probable space group: P M M N
;
_chemical_formula_sum "Si O2"
_cell_formula_units_Z 48
_cell_length_a 14.041151
_cell_length_b 9.108794
_cell_length_c 20.908704
_cell_angle_alpha 90.000000
_cell_angle_beta 90.000000
_cell_angle_gamma 90.000000
_cell_volume 2674.180420
_symmetry_space_group_name_H-M "P M M N"
_symmetry_group_IT_number 59
_space_group.IT_coordinate_system_code '2'
_symmetry_cell_setting 'orthorhombic'
loop_
_space_group_symop_operation_xyz
x,y,z
1/2-x,1/2-y,z
1/2+x,-y,-z
-x,1/2+y,-z
-x,-y,-z
1/2+x,1/2+y,-z
1/2-x,y,z
x,1/2-y,z
loop_
_atom_site_type_symbol
_atom_site_label
_atom_site_fract_x
_atom_site_fract_y
_atom_site_fract_z
Si Si1 0.508287 0.078650 0.399939
Si Si2 0.859119 0.580392 0.492152
Si Si3 0.490433 0.420914 0.732885
Si Si4 0.641069 0.418924 0.839999
Si Si5 0.140748 0.579887 0.826683
Si Si6 0.010122 0.421599 0.066997
O O1 0.522831 0.250000 0.387960
O O2 0.416612 0.043952 0.443467
O O3 0.602997 0.016448 0.433475
O O4 0.490373 0.999749 0.333461
O O5 0.750000 0.538905 0.505048
O O6 0.871661 0.750000 0.473012
O O7 0.473160 0.250000 0.720857
O O8 0.583157 0.452400 0.775634
O O9 0.396943 0.485567 0.767152
O O10 0.750000 0.459517 0.826099
O O11 0.628727 0.250000 0.860729
O O12 0.603987 0.518902 0.897772
O O13 0.250000 0.538485 0.839531
O O14 0.127993 0.750000 0.808698
O O15 0.082957 0.541128 0.890884
O O16 0.022257 0.250000 0.055365
O O17 0.000000 0.500000 0.000000
#
# Coordination Sequence:
#
# PCOD8243267 Si02
#       6
#     8   8   8   8   8   8
#     4  10  20  34  53  77 104 134 168 207 252 302
#     4   9  19  36  55  75 101 133 170 211 252 295
#     4  10  20  34  53  77 104 134 168 208 254 303
#     4   9  19  36  55  75 102 136 173 213 256 302
#     4   9  19  36  55  74  99 133 172 212 253 298
#     4  10  20  34  53  78 106 136 171 211 256 306
#
# _framework density 17.949425000000002
#
# number of rings (size 3 to 8) (size 9 to 14) (size 15 to 20)
#    0.000    2.500    0.000    1.500    0.000    5.000 
#    0.000    1.667    0.000    0.000    0.000    0.000 
#    0.000    0.000    0.000    0.000    0.000    0.000 
#
# Total GULP energy -595386.670080 kJ/mol
# GULP energy per Si atom -12403.888960 kJ/mol
# Density = 1.790857 g / cm^3
# Si number density = 17.949425 Si / 1000 Ang^3
#
#
#
# Elastic Constant Matrix: (Units=GPa)
#
#
# Indices 1 2 3 4 5 6 
#
# 1 131.6176 51.2039 54.8993 0.0000 0.0000 0.0000
# 2 51.2039 97.2301 74.5394 0.0000 0.0000 0.0000
# 3 54.8993 74.5394 136.5372 0.0000 0.0000 0.0000
# 4 0.0000 0.0000 0.0000 39.0705 0.0000 0.0000
# 5 0.0000 0.0000 0.0000 0.0000 13.5465 0.0000
# 6 0.0000 0.0000 0.0000 0.0000 0.0000 27.9906
#
#
#
# Elastic Compliance Matrix: (Units=1/GPa)
#
#
# Indices 1 2 3 4 5 6 
#
# 1 0.009845 -0.003698 -0.001940 0.000000 0.000000 0.000000
# 2 -0.003698 0.019076 -0.008927 0.000000 0.000000 0.000000
# 3 -0.001940 -0.008927 0.012978 0.000000 0.000000 0.000000
# 4 0.000000 0.000000 0.000000 0.025595 0.000000 0.000000
# 5 0.000000 0.000000 0.000000 0.000000 0.073820 0.000000
# 6 0.000000 0.000000 0.000000 0.000000 0.000000 0.035726
#
#
# Mechanical properties :
#
#
# Convention : Reuss Voigt Hill
#
# Bulk Modulus (GPa) = 78.31322 80.74111 79.52717
# Shear Modulus (GPa) = 23.76120 28.43767 26.09944
#
# Velocity S-wave (km/s) = 3.64233 3.98467 3.81734
# Velocity P-wave (km/s) = 7.83667 8.13943 7.98949
#
# Compressibility (1/GPa) = 0.01276924
#
# Stress axis : x y z
#
# Youngs Moduli (GPa) = 101.56938 52.42140 77.05428
#
# Poissons Ratio (x) = 0.19383 0.14949
# Poissons Ratio (y) = 0.37556 0.68790
# Poissons Ratio (z) = 0.19706 0.46799
#
# Static dielectric constant tensor:
#      x y z
#    x 3.401330 0.000000 0.000000 
#    y 0.000000 3.421300 0.000000 
#    z 0.000000 0.000000 3.284690 
# 
# 
# High freq. dielectric constant tensor:
#      x y z
#    x 1.695150 0.000000 0.000000 
#    y 0.000000 1.703270 0.000000 
#    z 0.000000 0.000000 1.695230 
# 
# From -- ./inp_files/25488.got.cif
#   From: 2010.03.12/outbox.cif.g09.slc.cpg/sg59_13_cif.got.tgz:25488.got - 2010.04.16 16:29:54.
