data_PCOD8243276
_publ_section_title
;
Structure prediction by ZEFSAII (Michael W. Deem and Ramdas Pophale) SiO2 
 PCOD8243276
Probable space group: P M M N
;
_chemical_formula_sum "Si O2"
_cell_formula_units_Z 56
_cell_length_a 24.107789
_cell_length_b 8.684376
_cell_length_c 13.973622
_cell_angle_alpha 90.000000
_cell_angle_beta 90.000000
_cell_angle_gamma 90.000000
_cell_volume 2925.532932
_symmetry_space_group_name_H-M "P M M N"
_symmetry_group_IT_number 59
_space_group.IT_coordinate_system_code '2'
_symmetry_cell_setting 'orthorhombic'
loop_
_space_group_symop_operation_xyz
x,y,z
1/2-x,1/2-y,z
1/2+x,-y,-z
-x,1/2+y,-z
-x,-y,-z
1/2+x,1/2+y,-z
1/2-x,y,z
x,1/2-y,z
loop_
_atom_site_type_symbol
_atom_site_label
_atom_site_fract_x
_atom_site_fract_y
_atom_site_fract_z
Si Si1 0.523167 0.068209 0.222530
Si Si2 0.812298 0.567786 0.514263
Si Si3 0.085431 0.430860 0.955725
Si Si4 0.619885 0.933115 0.333628
Si Si5 0.189691 0.430759 0.844759
Si Si6 0.915569 0.431413 0.838561
Si Si7 0.687421 0.430618 0.714984
O O1 0.517164 0.250000 0.227422
O O2 0.547293 0.019180 0.119730
O O3 0.560671 0.010461 0.311251
O O4 0.462756 0.990096 0.234550
O O5 0.750000 0.505779 0.492086
O O6 0.811663 0.750000 0.513320
O O7 0.855948 0.508281 0.434880
O O8 0.832248 0.510261 0.617287
O O9 0.073324 0.250000 0.944514
O O10 0.149769 0.471062 0.933559
O O11 0.072557 0.485172 0.061676
O O12 0.612215 0.750000 0.329936
O O13 0.663013 0.991993 0.253431
O O14 0.250000 0.508771 0.861063
O O15 0.197183 0.250000 0.835049
O O16 0.919711 0.250000 0.853396
O O17 0.855186 0.480030 0.798187
O O18 0.750000 0.482763 0.743764
O O19 0.684860 0.250000 0.697138
#
# Coordination Sequence:
#
# PCOD8243276 Si02
#       7
#     8   8   8   8   8   8   8
#     4  11  22  36  54  77 105 135 173 216 257 306
#     4   9  17  31  55  84 110 138 173 213 255 303
#     4  10  20  34  53  77 105 137 174 215 259 307
#     4   9  17  31  52  78 108 139 171 209 256 306
#     4   8  14  26  46  73 104 135 166 202 247 301
#     4  11  22  37  56  75 100 136 175 214 259 307
#     4   9  20  38  57  78 106 138 171 211 259 309
#
# _framework density 19.14181
#
# number of rings (size 3 to 8) (size 9 to 14) (size 15 to 20)
#    0.000    2.429    0.000    3.857    0.000    4.000 
#    0.000    0.714    0.000   13.714    0.000    0.000 
#    0.000    0.000    0.000    0.000    0.000    0.000 
#
# Total GULP energy -694280.187298 kJ/mol
# GULP energy per Si atom -12397.860487 kJ/mol
# Density = 1.909824 g / cm^3
# Si number density = 19.141810 Si / 1000 Ang^3
#
#
#
# Elastic Constant Matrix: (Units=GPa)
#
#
# Indices 1 2 3 4 5 6 
#
# 1 105.7531 16.5890 21.3955 0.0000 0.0000 0.0000
# 2 16.5890 29.1452 9.8628 0.0000 0.0000 0.0000
# 3 21.3955 9.8628 64.5261 0.0000 0.0000 0.0000
# 4 0.0000 0.0000 0.0000 28.2117 0.0000 0.0000
# 5 0.0000 0.0000 0.0000 0.0000 24.5605 0.0000
# 6 0.0000 0.0000 0.0000 0.0000 0.0000 20.5813
#
#
#
# Elastic Compliance Matrix: (Units=1/GPa)
#
#
# Indices 1 2 3 4 5 6 
#
# 1 0.010841 -0.005224 -0.002796 0.000000 0.000000 0.000000
# 2 -0.005224 0.038700 -0.004183 0.000000 0.000000 0.000000
# 3 -0.002796 -0.004183 0.017064 0.000000 0.000000 0.000000
# 4 0.000000 0.000000 0.000000 0.035446 0.000000 0.000000
# 5 0.000000 0.000000 0.000000 0.000000 0.040716 0.000000
# 6 0.000000 0.000000 0.000000 0.000000 0.000000 0.048588
#
#
# Mechanical properties :
#
#
# Convention : Reuss Voigt Hill
#
# Bulk Modulus (GPa) = 23.69762 32.79100 28.24431
# Shear Modulus (GPa) = 21.75534 24.77585 23.26560
#
# Velocity S-wave (km/s) = 3.37491 3.60159 3.49009
# Velocity P-wave (km/s) = 5.25296 5.87052 5.57030
#
# Compressibility (1/GPa) = 0.04219833
#
# Stress axis : x y z
#
# Youngs Moduli (GPa) = 92.24043 25.83967 58.60249
#
# Poissons Ratio (x) = 0.13500 0.16386
# Poissons Ratio (y) = 0.48190 0.24513
# Poissons Ratio (z) = 0.25792 0.10809
#
# Static dielectric constant tensor:
#      x y z
#    x 3.962990 0.000000 0.000000 
#    y 0.000000 3.277920 0.000000 
#    z 0.000000 0.000000 3.378080 
# 
# 
# High freq. dielectric constant tensor:
#      x y z
#    x 1.754270 0.000000 0.000000 
#    y 0.000000 1.727270 0.000000 
#    z 0.000000 0.000000 1.728100 
# 
# From -- ./inp_files/24248.got.cif
#   From: 2010.03.12/outbox.cif.g09.slc.cpg/sg59_13_cif.got.tgz:24248.got - 2010.04.16 16:29:54.
