data_PCOD8243432
_publ_section_title
;
Structure prediction by ZEFSAII (Michael W. Deem and Ramdas Pophale) SiO2 
 PCOD8243432
Probable space group: P M M N
;
_chemical_formula_sum "Si O2"
_cell_formula_units_Z 64
_cell_length_a 8.938650
_cell_length_b 19.822871
_cell_length_c 20.161695
_cell_angle_alpha 90.000000
_cell_angle_beta 90.000000
_cell_angle_gamma 90.000000
_cell_volume 3572.444807
_symmetry_space_group_name_H-M "P M M N"
_symmetry_group_IT_number 59
_space_group.IT_coordinate_system_code '2'
_symmetry_cell_setting 'orthorhombic'
loop_
_space_group_symop_operation_xyz
x,y,z
1/2-x,1/2-y,z
1/2+x,-y,-z
-x,1/2+y,-z
-x,-y,-z
1/2+x,1/2+y,-z
1/2-x,y,z
x,1/2-y,z
loop_
_atom_site_type_symbol
_atom_site_label
_atom_site_fract_x
_atom_site_fract_y
_atom_site_fract_z
Si Si1 0.076145 0.672588 0.824259
Si Si2 0.427316 0.573186 0.230504
Si Si3 0.572778 0.926991 0.723017
Si Si4 0.425626 0.941872 0.586474
Si Si5 0.425374 0.407902 0.545927
Si Si6 0.575287 0.172247 0.657408
Si Si7 0.423278 0.916763 0.944499
Si Si8 0.426022 0.554138 0.087331
O O1 0.250000 0.662527 0.806383
O O2 0.027278 0.750000 0.819563
O O3 0.044302 0.648778 0.899931
O O4 0.977051 0.630753 0.773388
O O5 0.250000 0.574375 0.233693
O O6 0.486369 0.499418 0.251545
O O7 0.489903 0.629896 0.280296
O O8 0.483964 0.589401 0.155300
O O9 0.750000 0.925727 0.715920
O O10 0.500378 0.911707 0.652003
O O11 0.250000 0.928994 0.588957
O O12 0.492897 0.901552 0.524429
O O13 0.465270 0.020987 0.580423
O O14 0.250000 0.399762 0.534296
O O15 0.485676 0.348053 0.591797
O O16 0.750000 0.157223 0.645491
O O17 0.545489 0.250000 0.673320
O O18 0.250000 0.936912 0.943041
O O19 0.512618 0.978713 0.914257
O O20 0.473450 0.903833 0.021391
O O21 0.250000 0.546651 0.091995
#
# Coordination Sequence:
#
# PCOD8243432 Si02
#       8
#     8   8   8   8   8   8   8   8
#     4  10  21  36  51  72 107 145 179 219 270 327
#     4   9  17  30  50  77 106 136 173 220 267 310
#     4  11  20  33  55  80 107 138 177 225 267 313
#     4  10  20  34  55  82 109 136 171 215 265 315
#     4  10  20  34  54  80 108 138 173 216 260 309
#     4  10  20  35  54  76 107 146 181 215 263 320
#     4   9  17  29  48  73 100 131 172 215 260 314
#     4   9  16  29  49  74 102 131 168 218 267 306
#
# _framework density 17.914902999999999
#
# number of rings (size 3 to 8) (size 9 to 14) (size 15 to 20)
#    0.000    2.250    2.500    1.125    0.000    1.500 
#    0.000    1.875    0.000    7.500    0.000    0.000 
#    0.000    3.000    0.000    0.000    0.000    0.000 
#
# Total GULP energy -793512.876810 kJ/mol
# GULP energy per Si atom -12398.638700 kJ/mol
# Density = 1.787413 g / cm^3
# Si number density = 17.914903 Si / 1000 Ang^3
#
#
#
# Elastic Constant Matrix: (Units=GPa)
#
#
# Indices 1 2 3 4 5 6 
#
# 1 51.6915 30.6441 44.7740 0.0000 0.0000 0.0000
# 2 30.6441 95.3817 65.6004 0.0000 0.0000 0.0000
# 3 44.7740 65.6004 164.1834 0.0000 0.0000 0.0000
# 4 0.0000 0.0000 0.0000 26.9802 0.0000 0.0000
# 5 0.0000 0.0000 0.0000 0.0000 24.3927 0.0000
# 6 0.0000 0.0000 0.0000 0.0000 0.0000 22.1648
#
#
#
# Elastic Compliance Matrix: (Units=1/GPa)
#
#
# Indices 1 2 3 4 5 6 
#
# 1 0.026933 -0.004966 -0.005361 0.000000 0.000000 0.000000
# 2 -0.004966 0.015373 -0.004788 0.000000 0.000000 0.000000
# 3 -0.005361 -0.004788 0.009466 0.000000 0.000000 0.000000
# 4 0.000000 0.000000 0.000000 0.037064 0.000000 0.000000
# 5 0.000000 0.000000 0.000000 0.000000 0.040996 0.000000
# 6 0.000000 0.000000 0.000000 0.000000 0.000000 0.045117
#
#
# Mechanical properties :
#
#
# Convention : Reuss Voigt Hill
#
# Bulk Modulus (GPa) = 46.42113 65.92153 56.17133
# Shear Modulus (GPa) = 23.54520 26.05675 24.80098
#
# Velocity S-wave (km/s) = 3.62923 3.81789 3.72476
# Velocity P-wave (km/s) = 6.59773 7.50413 7.06548
#
# Compressibility (1/GPa) = 0.02154192
#
# Stress axis : x y z
#
# Youngs Moduli (GPa) = 37.12951 65.05041 105.64511
#
# Poissons Ratio (x) = 0.32305 0.56631
# Poissons Ratio (y) = 0.18439 0.50582
# Poissons Ratio (z) = 0.19903 0.31146
#
# Static dielectric constant tensor:
#      x y z
#    x 3.174490 0.000000 0.000000 
#    y 0.000000 3.134840 0.000000 
#    z 0.000000 0.000000 3.734040 
# 
# 
# High freq. dielectric constant tensor:
#      x y z
#    x 1.682930 0.000000 0.000000 
#    y 0.000000 1.661010 0.000000 
#    z 0.000000 0.000000 1.713180 
# 
# From -- ./inp_files/29555.got.cif
#   From: 2010.03.12/outbox.cif.g09.slc.cpg/sg59_15_cif.got.tgz:29555.got - 2010.04.16 16:29:54.
