data_PCOD8243498
_publ_section_title
;
Structure prediction by ZEFSAII (Michael W. Deem and Ramdas Pophale) SiO2 
 PCOD8243498
Probable space group: P M M N
;
_chemical_formula_sum "Si O2"
_cell_formula_units_Z 64
_cell_length_a 8.840075
_cell_length_b 17.878080
_cell_length_c 21.625013
_cell_angle_alpha 90.000000
_cell_angle_beta 90.000000
_cell_angle_gamma 90.000000
_cell_volume 3417.694214
_symmetry_space_group_name_H-M "P M M N"
_symmetry_group_IT_number 59
_space_group.IT_coordinate_system_code '2'
_symmetry_cell_setting 'orthorhombic'
loop_
_space_group_symop_operation_xyz
x,y,z
1/2-x,1/2-y,z
1/2+x,-y,-z
-x,1/2+y,-z
-x,-y,-z
1/2+x,1/2+y,-z
1/2-x,y,z
x,1/2-y,z
loop_
_atom_site_type_symbol
_atom_site_label
_atom_site_fract_x
_atom_site_fract_y
_atom_site_fract_z
Si Si1 0.574895 0.552352 0.179597
Si Si2 0.923828 0.399688 0.249101
Si Si3 0.929553 0.666175 0.509604
Si Si4 0.428738 0.072557 0.373053
Si Si5 0.922520 0.162416 0.731501
Si Si6 0.429641 0.410639 0.615633
Si Si7 0.924243 0.666420 0.865604
Si Si8 0.572261 0.520200 0.935356
O O1 0.750000 0.567014 0.165512
O O2 0.552001 0.484678 0.227358
O O3 0.501035 0.625231 0.209356
O O4 0.491722 0.536387 0.115435
O O5 0.750000 0.382947 0.264238
O O6 0.022739 0.385772 0.310235
O O7 0.977701 0.343168 0.196109
O O8 0.750000 0.669879 0.508999
O O9 0.997336 0.750000 0.510047
O O10 0.986928 0.622731 0.570091
O O11 0.988301 0.622661 0.449213
O O12 0.250000 0.061127 0.374449
O O13 0.509087 0.993395 0.376876
O O14 0.750000 0.134238 0.726107
O O15 0.931325 0.250000 0.742680
O O16 0.010153 0.142733 0.669154
O O17 0.250000 0.412872 0.619788
O O18 0.750000 0.653866 0.847169
O O19 0.952066 0.750000 0.892099
O O20 0.971805 0.605766 0.917400
O O21 0.750000 0.509233 0.940031
O O22 0.500000 0.500000 0.000000
#
# Coordination Sequence:
#
# PCOD8243498 Si02
#       8
#     8   8   8   8   8   8   8   8
#     4  10  20  36  58  82 112 148 186 229 276 334
#     4  10  20  34  54  82 112 143 182 228 279 334
#     4   9  20  37  54  75 104 141 186 234 285 342
#     4  11  21  34  56  81 108 143 184 233 284 340
#     4  11  23  37  56  84 115 145 183 233 287 341
#     4  11  21  36  58  80 106 143 187 233 282 342
#     4   9  19  36  58  84 114 150 191 233 279 333
#     4  10  20  36  60  87 117 154 196 238 280 333
#
# _framework density 18.726075000000002
#
# number of rings (size 3 to 8) (size 9 to 14) (size 15 to 20)
#    0.000    1.875    1.250    3.000    0.000    3.750 
#    0.000    3.750    0.000    6.375    0.000    0.000 
#    0.000    0.000    0.000    0.000    0.000    0.000 
#
# Total GULP energy -793838.542687 kJ/mol
# GULP energy per Si atom -12403.727229 kJ/mol
# Density = 1.868345 g / cm^3
# Si number density = 18.726075 Si / 1000 Ang^3
#
#
#
# Elastic Constant Matrix: (Units=GPa)
#
#
# Indices 1 2 3 4 5 6 
#
# 1 89.2061 34.6708 56.4497 0.0000 0.0000 0.0000
# 2 34.6708 91.4232 56.2720 0.0000 0.0000 0.0000
# 3 56.4497 56.2720 158.2315 0.0000 0.0000 0.0000
# 4 0.0000 0.0000 0.0000 21.8137 0.0000 0.0000
# 5 0.0000 0.0000 0.0000 0.0000 32.2938 0.0000
# 6 0.0000 0.0000 0.0000 0.0000 0.0000 21.9565
#
#
#
# Elastic Compliance Matrix: (Units=1/GPa)
#
#
# Indices 1 2 3 4 5 6 
#
# 1 0.015132 -0.003093 -0.004299 0.000000 0.000000 0.000000
# 2 -0.003093 0.014636 -0.004101 0.000000 0.000000 0.000000
# 3 -0.004299 -0.004101 0.009312 0.000000 0.000000 0.000000
# 4 0.000000 0.000000 0.000000 0.045843 0.000000 0.000000
# 5 0.000000 0.000000 0.000000 0.000000 0.030966 0.000000
# 6 0.000000 0.000000 0.000000 0.000000 0.000000 0.045545
#
#
# Mechanical properties :
#
#
# Convention : Reuss Voigt Hill
#
# Bulk Modulus (GPa) = 62.13494 70.40509 66.27002
# Shear Modulus (GPa) = 26.34586 27.97735 27.16160
#
# Velocity S-wave (km/s) = 3.75495 3.86946 3.81263
# Velocity P-wave (km/s) = 7.21474 7.59228 7.40591
#
# Compressibility (1/GPa) = 0.01609400
#
# Stress axis : x y z
#
# Youngs Moduli (GPa) = 66.08429 68.32677 107.38833
#
# Poissons Ratio (x) = 0.21132 0.46162
# Poissons Ratio (y) = 0.20439 0.44045
# Poissons Ratio (z) = 0.28407 0.28024
#
# Static dielectric constant tensor:
#      x y z
#    x 3.474700 0.000000 0.000000 
#    y 0.000000 3.467620 0.000000 
#    z 0.000000 0.000000 3.500980 
# 
# 
# High freq. dielectric constant tensor:
#      x y z
#    x 1.729400 0.000000 0.000000 
#    y 0.000000 1.725420 0.000000 
#    z 0.000000 0.000000 1.727320 
# 
# From -- ./inp_files/29603.got.cif
#   From: 2010.03.12/outbox.cif.g09.slc.cpg/sg59_15_cif.got.tgz:29603.got - 2010.04.16 16:29:54.
