data_PCOD8243606
_publ_section_title
;
Structure prediction by ZEFSAII (Michael W. Deem and Ramdas Pophale) SiO2 
 PCOD8243606
Probable space group: P M M N
;
_chemical_formula_sum "Si O2"
_cell_formula_units_Z 64
_cell_length_a 14.471779
_cell_length_b 8.794361
_cell_length_c 24.544799
_cell_angle_alpha 90.000000
_cell_angle_beta 90.000000
_cell_angle_gamma 90.000000
_cell_volume 3123.817767
_symmetry_space_group_name_H-M "P M M N"
_symmetry_group_IT_number 59
_space_group.IT_coordinate_system_code '2'
_symmetry_cell_setting 'orthorhombic'
loop_
_space_group_symop_operation_xyz
x,y,z
1/2-x,1/2-y,z
1/2+x,-y,-z
-x,1/2+y,-z
-x,-y,-z
1/2+x,1/2+y,-z
1/2-x,y,z
x,1/2-y,z
loop_
_atom_site_type_symbol
_atom_site_label
_atom_site_fract_x
_atom_site_fract_y
_atom_site_fract_z
Si Si1 0.852818 0.080124 0.615204
Si Si2 0.355276 0.428497 0.079495
Si Si3 0.974654 0.928484 0.129019
Si Si4 0.150211 0.079972 0.274973
Si Si5 0.642347 0.075159 0.035669
Si Si6 0.855493 0.431073 0.347928
Si Si7 0.989720 0.074749 0.441776
Si Si8 0.547596 0.074908 0.237040
O O1 0.750000 0.069575 0.590558
O O2 0.892941 0.250000 0.605560
O O3 0.851482 0.047508 0.679015
O O4 0.912930 0.951277 0.586946
O O5 0.250000 0.465319 0.097264
O O6 0.369252 0.250000 0.070597
O O7 0.425414 0.489243 0.125335
O O8 0.381375 0.514618 0.024063
O O9 0.990202 0.750000 0.130594
O O10 0.911744 0.972963 0.078351
O O11 0.920701 0.981422 0.183998
O O12 0.250000 0.067431 0.243834
O O13 0.140958 0.250000 0.300704
O O14 0.063290 0.052547 0.236369
O O15 0.750000 0.057774 0.048360
O O16 0.610059 0.250000 0.040086
O O17 0.750000 0.490732 0.349326
O O18 0.859595 0.250000 0.348208
O O19 0.909156 0.492724 0.401896
O O20 0.905795 0.489936 0.292624
O O21 0.969983 0.250000 0.451401
O O22 0.000000 0.000000 0.500000
O O23 0.576612 0.250000 0.229541
#
# Coordination Sequence:
#
# PCOD8243606 Si02
#       8
#     8   8   8   8   8   8   8   8
#     4  10  20  34  55  83 114 148 186 231 284 343
#     4  10  21  39  63  89 119 157 200 248 302 360
#     4  12  25  38  56  86 124 161 198 247 302 358
#     4   9  17  32  56  83 109 140 182 233 288 346
#     4  10  21  39  63  88 116 154 201 252 304 360
#     4   9  19  38  63  87 114 152 197 242 290 348
#     4  11  22  38  60  89 120 154 194 241 297 353
#     4  10  20  37  58  83 113 152 202 246 293 352
#
# _framework density 20.487750999999999
#
# number of rings (size 3 to 8) (size 9 to 14) (size 15 to 20)
#    0.000    1.875    1.250    3.000    0.000    4.250 
#    0.000    3.750    0.000    2.625    0.000    0.000 
#    0.000    0.000    0.000    0.000    0.000    0.000 
#
# Total GULP energy -793360.008955 kJ/mol
# GULP energy per Si atom -12396.250140 kJ/mol
# Density = 2.044112 g / cm^3
# Si number density = 20.487751 Si / 1000 Ang^3
#
#
#
# Elastic Constant Matrix: (Units=GPa)
#
#
# Indices 1 2 3 4 5 6 
#
# 1 96.4084 29.1830 47.9021 0.0000 0.0000 0.0000
# 2 29.1830 61.3503 24.5709 0.0000 0.0000 0.0000
# 3 47.9021 24.5709 105.5519 0.0000 0.0000 0.0000
# 4 0.0000 0.0000 0.0000 31.1891 0.0000 0.0000
# 5 0.0000 0.0000 0.0000 0.0000 14.4183 0.0000
# 6 0.0000 0.0000 0.0000 0.0000 0.0000 24.6443
#
#
#
# Elastic Compliance Matrix: (Units=1/GPa)
#
#
# Indices 1 2 3 4 5 6 
#
# 1 0.014530 -0.004710 -0.005498 0.000000 0.000000 0.000000
# 2 -0.004710 0.019502 -0.002402 0.000000 0.000000 0.000000
# 3 -0.005498 -0.002402 0.012528 0.000000 0.000000 0.000000
# 4 0.000000 0.000000 0.000000 0.032062 0.000000 0.000000
# 5 0.000000 0.000000 0.000000 0.000000 0.069356 0.000000
# 6 0.000000 0.000000 0.000000 0.000000 0.000000 0.040577
#
#
# Mechanical properties :
#
#
# Convention : Reuss Voigt Hill
#
# Bulk Modulus (GPa) = 46.85869 51.84694 49.35282
# Shear Modulus (GPa) = 22.63575 24.82732 23.73154
#
# Velocity S-wave (km/s) = 3.32752 3.48489 3.40711
# Velocity P-wave (km/s) = 6.13877 6.44623 6.29437
#
# Compressibility (1/GPa) = 0.02134076
#
# Stress axis : x y z
#
# Youngs Moduli (GPa) = 68.82425 51.27596 79.81974
#
# Poissons Ratio (x) = 0.24149 0.43882
# Poissons Ratio (y) = 0.32414 0.19176
# Poissons Ratio (z) = 0.37837 0.12319
#
# Static dielectric constant tensor:
#      x y z
#    x 4.313110 0.000000 0.000000 
#    y 0.000000 3.554930 0.000000 
#    z 0.000000 0.000000 3.975440 
# 
# 
# High freq. dielectric constant tensor:
#      x y z
#    x 1.806370 0.000000 0.000000 
#    y 0.000000 1.786470 0.000000 
#    z 0.000000 0.000000 1.793330 
# 
# From -- ./inp_files/32117.got.cif
#   From: 2010.03.12/outbox.cif.g09.slc.cpg/sg59_17_cif.got.tgz:32117.got - 2010.04.16 16:29:54.
