data_PCOD8243291
_publ_section_title
;
Structure prediction by ZEFSAII (Michael W. Deem and Ramdas Pophale) SiO2 
 PCOD8243291
Probable space group: P M M N
;
_chemical_formula_sum "Si O2"
_cell_formula_units_Z 64
_cell_length_a 9.214030
_cell_length_b 13.884492
_cell_length_c 25.967858
_cell_angle_alpha 90.000000
_cell_angle_beta 90.000000
_cell_angle_gamma 90.000000
_cell_volume 3322.123277
_symmetry_space_group_name_H-M "P M M N"
_symmetry_group_IT_number 59
_space_group.IT_coordinate_system_code '2'
_symmetry_cell_setting 'orthorhombic'
loop_
_space_group_symop_operation_xyz
x,y,z
1/2-x,1/2-y,z
1/2+x,-y,-z
-x,1/2+y,-z
-x,-y,-z
1/2+x,1/2+y,-z
1/2-x,y,z
x,1/2-y,z
loop_
_atom_site_type_symbol
_atom_site_label
_atom_site_fract_x
_atom_site_fract_y
_atom_site_fract_z
Si Si1 0.917880 0.639117 0.925567
Si Si2 0.920128 0.638125 0.126679
Si Si3 0.081499 0.955745 0.629520
Si Si4 0.080125 0.023120 0.176083
Si Si5 0.085709 0.864467 0.024156
Si Si6 0.414896 0.636653 0.523989
Si Si7 0.081997 0.142886 0.575915
Si Si8 0.921666 0.859972 0.723653
O O1 0.750000 0.626822 0.939691
O O2 0.958319 0.750000 0.916887
O O3 0.960150 0.585794 0.873524
O O4 0.008499 0.593629 0.973016
O O5 0.750000 0.618046 0.121337
O O6 0.951373 0.750000 0.138168
O O7 0.988539 0.576182 0.173458
O O8 0.998940 0.602419 0.074632
O O9 0.250000 0.931209 0.639446
O O10 0.025151 0.908063 0.576751
O O11 0.988305 0.915380 0.675758
O O12 0.055346 0.071078 0.623992
O O13 0.250000 0.998149 0.178802
O O14 0.028869 0.084144 0.225197
O O15 0.250000 0.904223 0.028007
O O16 0.083310 0.750000 0.020738
O O17 0.250000 0.603626 0.515298
O O18 0.430656 0.750000 0.529298
O O19 0.505042 0.600199 0.474841
O O20 0.250000 0.146679 0.561778
O O21 0.024010 0.250000 0.590618
O O22 0.750000 0.861172 0.718015
O O23 0.978706 0.750000 0.726156
#
# Coordination Sequence:
#
# PCOD8243291 Si02
#       8
#     8   8   8   8   8   8   8   8
#     4   9  17  31  52  77 106 139 173 211 259 315
#     4  10  21  37  56  78 105 137 174 215 258 307
#     4  10  20  34  53  77 107 144 182 219 263 313
#     4  10  21  37  57  79 103 135 174 216 264 313
#     4   9  17  30  50  77 108 140 173 211 256 307
#     4   9  17  29  47  74 107 141 178 221 268 316
#     4   9  18  32  50  75 108 144 181 220 261 307
#     4  10  22  40  60  82 107 134 169 215 263 312
#
# _framework density 19.264787999999999
#
# number of rings (size 3 to 8) (size 9 to 14) (size 15 to 20)
#    0.000    2.500    0.000    1.875    0.000    7.000 
#    0.000    1.875    0.000    4.500    0.000    0.000 
#    0.000    0.000    0.000    0.000    0.000    0.000 
#
# Total GULP energy -793629.828138 kJ/mol
# GULP energy per Si atom -12400.466065 kJ/mol
# Density = 1.922094 g / cm^3
# Si number density = 19.264788 Si / 1000 Ang^3
#
#
#
# Elastic Constant Matrix: (Units=GPa)
#
#
# Indices 1 2 3 4 5 6 
#
# 1 67.8235 41.5949 53.5544 0.0000 0.0000 0.0000
# 2 41.5949 87.0362 76.0279 0.0000 0.0000 0.0000
# 3 53.5544 76.0279 126.4766 0.0000 0.0000 0.0000
# 4 0.0000 0.0000 0.0000 31.4213 0.0000 0.0000
# 5 0.0000 0.0000 0.0000 0.0000 35.1274 0.0000
# 6 0.0000 0.0000 0.0000 0.0000 0.0000 25.4292
#
#
#
# Elastic Compliance Matrix: (Units=1/GPa)
#
#
# Indices 1 2 3 4 5 6 
#
# 1 0.023251 -0.005289 -0.006666 0.000000 0.000000 0.000000
# 2 -0.005289 0.025396 -0.013027 0.000000 0.000000 0.000000
# 3 -0.006666 -0.013027 0.018560 0.000000 0.000000 0.000000
# 4 0.000000 0.000000 0.000000 0.031826 0.000000 0.000000
# 5 0.000000 0.000000 0.000000 0.000000 0.028468 0.000000
# 6 0.000000 0.000000 0.000000 0.000000 0.000000 0.039325
#
#
# Mechanical properties :
#
#
# Convention : Reuss Voigt Hill
#
# Bulk Modulus (GPa) = 57.99127 69.29898 63.64512
# Shear Modulus (GPa) = 22.46818 25.73954 24.10386
#
# Velocity S-wave (km/s) = 3.41879 3.65923 3.54105
# Velocity P-wave (km/s) = 6.76400 7.34188 7.05886
#
# Compressibility (1/GPa) = 0.01724398
#
# Stress axis : x y z
#
# Youngs Moduli (GPa) = 43.00812 39.37612 53.87965
#
# Poissons Ratio (x) = 0.20826 0.35917
# Poissons Ratio (y) = 0.22747 0.70187
# Poissons Ratio (z) = 0.28670 0.51294
#
# Static dielectric constant tensor:
#      x y z
#    x 3.491710 0.000000 0.000000 
#    y 0.000000 3.775410 0.000000 
#    z 0.000000 0.000000 3.416470 
# 
# 
# High freq. dielectric constant tensor:
#      x y z
#    x 1.740930 0.000000 0.000000 
#    y 0.000000 1.765190 0.000000 
#    z 0.000000 0.000000 1.731530 
# 
# From -- ./inp_files/31591.got.cif
#   From: 2010.03.12/outbox.cif.g09.slc.cpg/sg59_16_cif.got.tgz:31591.got - 2010.04.16 16:29:54.
