data_PCOD8243696
_publ_section_title
;
Structure prediction by ZEFSAII (Michael W. Deem and Ramdas Pophale) SiO2 
 PCOD8243696
Probable space group: P M M N
;
_chemical_formula_sum "Si O2"
_cell_formula_units_Z 56
_cell_length_a 19.955857
_cell_length_b 8.700435
_cell_length_c 15.327204
_cell_angle_alpha 90.000000
_cell_angle_beta 90.000000
_cell_angle_gamma 90.000000
_cell_volume 2661.180226
_symmetry_space_group_name_H-M "P M M N"
_symmetry_group_IT_number 59
_space_group.IT_coordinate_system_code '2'
_symmetry_cell_setting 'orthorhombic'
loop_
_space_group_symop_operation_xyz
x,y,z
1/2-x,1/2-y,z
1/2+x,-y,-z
-x,1/2+y,-z
-x,-y,-z
1/2+x,1/2+y,-z
1/2-x,y,z
x,1/2-y,z
loop_
_atom_site_type_symbol
_atom_site_label
_atom_site_fract_x
_atom_site_fract_y
_atom_site_fract_z
Si Si1 0.174894 0.424167 0.982561
Si Si2 0.006545 0.423335 0.234324
Si Si3 0.142411 0.576356 0.810603
Si Si4 0.326520 0.917829 0.622350
Si Si5 0.172760 0.428954 0.449575
Si Si6 0.463706 0.568110 0.413853
Si Si7 0.946948 0.071562 0.933088
O O1 0.250000 0.440863 0.019508
O O2 0.148754 0.250000 0.994932
O O3 0.175394 0.464227 0.880295
O O4 0.127731 0.543443 0.032010
O O5 0.031318 0.250000 0.253049
O O6 0.998463 0.511023 0.326561
O O7 0.055183 0.504861 0.165160
O O8 0.937235 0.423276 0.181422
O O9 0.170824 0.750000 0.821285
O O10 0.161604 0.508227 0.716378
O O11 0.250000 0.883386 0.606173
O O12 0.364299 0.750000 0.614113
O O13 0.349364 0.039059 0.549593
O O14 0.250000 0.483872 0.428700
O O15 0.166874 0.250000 0.429582
O O16 0.114472 0.518257 0.397360
O O17 0.500000 0.500000 0.500000
O O18 0.467525 0.750000 0.420660
O O19 0.962869 0.250000 0.927959
O O20 0.000000 0.000000 0.000000
#
# Coordination Sequence:
#
# PCOD8243696 Si02
#       7
#     8   8   8   8   8   8   8
#     4  11  24  40  61  91 127 166 210 264 322 379
#     4  11  23  40  64  95 127 164 210 262 320 385
#     4  10  20  34  56  85 119 160 202 250 312 383
#     4   9  17  30  50  79 116 157 202 250 306 377
#     4  10  21  38  60  86 119 162 211 264 324 386
#     4  12  25  42  65  95 131 170 216 272 325 382
#     4  12  24  42  67  94 126 167 213 262 313 375
#
# _framework density 21.043293999999999
#
# number of rings (size 3 to 8) (size 9 to 14) (size 15 to 20)
#    0.000    1.286    1.429    5.143    0.000    4.857 
#    0.000    2.143    0.000    4.286    0.000    0.000 
#    0.000    0.000    0.000    0.000    0.000    0.000 
#
# Total GULP energy -694156.482130 kJ/mol
# GULP energy per Si atom -12395.651467 kJ/mol
# Density = 2.099540 g / cm^3
# Si number density = 21.043294 Si / 1000 Ang^3
#
#
#
# Elastic Constant Matrix: (Units=GPa)
#
#
# Indices 1 2 3 4 5 6 
#
# 1 78.6017 35.8259 17.4225 0.0000 0.0000 0.0000
# 2 35.8259 125.1758 32.9709 0.0000 0.0000 0.0000
# 3 17.4225 32.9709 91.6845 0.0000 0.0000 0.0000
# 4 0.0000 0.0000 0.0000 27.0940 0.0000 0.0000
# 5 0.0000 0.0000 0.0000 0.0000 30.3019 0.0000
# 6 0.0000 0.0000 0.0000 0.0000 0.0000 29.7809
#
#
#
# Elastic Compliance Matrix: (Units=1/GPa)
#
#
# Indices 1 2 3 4 5 6 
#
# 1 0.014797 -0.003860 -0.001424 0.000000 0.000000 0.000000
# 2 -0.003860 0.009832 -0.002802 0.000000 0.000000 0.000000
# 3 -0.001424 -0.002802 0.012185 0.000000 0.000000 0.000000
# 4 0.000000 0.000000 0.000000 0.036909 0.000000 0.000000
# 5 0.000000 0.000000 0.000000 0.000000 0.033001 0.000000
# 6 0.000000 0.000000 0.000000 0.000000 0.000000 0.033579
#
#
# Mechanical properties :
#
#
# Convention : Reuss Voigt Hill
#
# Bulk Modulus (GPa) = 48.44405 51.98893 50.21649
# Shear Modulus (GPa) = 30.60821 31.38489 30.99655
#
# Velocity S-wave (km/s) = 3.81797 3.86611 3.84212
# Velocity P-wave (km/s) = 6.51974 6.68494 6.60286
#
# Compressibility (1/GPa) = 0.02064237
#
# Stress axis : x y z
#
# Youngs Moduli (GPa) = 67.57978 101.71310 82.06694
#
# Poissons Ratio (x) = 0.39262 0.11684
# Poissons Ratio (y) = 0.26086 0.22996
# Poissons Ratio (z) = 0.09622 0.28500
#
# Static dielectric constant tensor:
#      x y z
#    x 3.949700 0.000000 0.000000 
#    y 0.000000 3.761880 0.000000 
#    z 0.000000 0.000000 3.777840 
# 
# 
# High freq. dielectric constant tensor:
#      x y z
#    x 1.825550 0.000000 0.000000 
#    y 0.000000 1.823660 0.000000 
#    z 0.000000 0.000000 1.811500 
# 
# From -- ./inp_files/24241.got.cif
#   From: 2010.03.12/outbox.cif.g09.slc.cpg/sg59_13_cif.got.tgz:24241.got - 2010.04.16 16:29:54.
