data_PCOD8243610
_publ_section_title
;
Structure prediction by ZEFSAII (Michael W. Deem and Ramdas Pophale) SiO2 
 PCOD8243610
Probable space group: P M M N
;
_chemical_formula_sum "Si O2"
_cell_formula_units_Z 48
_cell_length_a 9.153500
_cell_length_b 30.299716
_cell_length_c 9.363941
_cell_angle_alpha 90.000000
_cell_angle_beta 90.000000
_cell_angle_gamma 90.000000
_cell_volume 2597.074526
_symmetry_space_group_name_H-M "P M M N"
_symmetry_group_IT_number 59
_space_group.IT_coordinate_system_code '2'
_symmetry_cell_setting 'orthorhombic'
loop_
_space_group_symop_operation_xyz
x,y,z
1/2-x,1/2-y,z
1/2+x,-y,-z
-x,1/2+y,-z
-x,-y,-z
1/2+x,1/2+y,-z
1/2-x,y,z
x,1/2-y,z
loop_
_atom_site_type_symbol
_atom_site_label
_atom_site_fract_x
_atom_site_fract_y
_atom_site_fract_z
Si Si1 0.583230 0.677239 0.345755
Si Si2 0.079313 0.499408 0.850803
Si Si3 0.419219 0.076501 0.640118
Si Si4 0.421745 0.919469 0.652070
Si Si5 0.579628 0.750000 0.872225
Si Si6 0.080708 0.168974 0.328443
Si Si7 0.422994 0.750000 0.171188
O O1 0.750000 0.691148 0.313215
O O2 0.556170 0.626290 0.305100
O O3 0.546013 0.685524 0.511684
O O4 0.476205 0.706259 0.251083
O O5 0.250000 0.496959 0.880525
O O6 0.026959 0.456484 0.762983
O O7 0.036372 0.543139 0.764932
O O8 0.000000 0.500000 0.000000
O O9 0.250000 0.068461 0.601277
O O10 0.511199 0.066758 0.499062
O O11 0.250000 0.914323 0.632395
O O12 0.486414 0.873732 0.711021
O O13 0.750000 0.750000 0.913313
O O14 0.538342 0.792847 0.780826
O O15 0.482491 0.750000 0.011721
O O16 0.250000 0.155542 0.318072
O O17 0.250000 0.750000 0.167096
#
# Coordination Sequence:
#
# PCOD8243610 Si02
#       7
#     8   8   8   8   4   8   4
#     4   9  18  36  60  81 102 133 179 227 261 304
#     4  10  22  37  53  78 111 145 180 218 263 315
#     4   9  19  37  59  80 103 138 184 224 258 308
#     4  10  20  34  55  84 113 138 170 218 272 319
#     4  10  21  38  58  78 104 142 183 220 260 310
#     4   9  19  37  61  83 102 134 181 224 263 312
#     4  12  25  36  50  78 114 146 173 210 268 326
#
# _framework density 18.482333000000001
#
# number of rings (size 3 to 8) (size 9 to 14) (size 15 to 20)
#    0.000    2.333    0.000    3.250    0.000    8.000 
#    0.000    5.833    0.000    0.000    0.000    0.000 
#    0.000    0.000    0.000    0.000    0.000    0.000 
#
# Total GULP energy -595353.592113 kJ/mol
# GULP energy per Si atom -12403.199836 kJ/mol
# Density = 1.844027 g / cm^3
# Si number density = 18.482333 Si / 1000 Ang^3
#
#
#
# Elastic Constant Matrix: (Units=GPa)
#
#
# Indices 1 2 3 4 5 6 
#
# 1 93.0883 79.0504 78.0709 0.0000 0.0000 0.0000
# 2 79.0504 144.0487 102.6238 0.0000 0.0000 0.0000
# 3 78.0709 102.6238 146.1682 0.0000 0.0000 0.0000
# 4 0.0000 0.0000 0.0000 -3.3753 0.0000 0.0000
# 5 0.0000 0.0000 0.0000 0.0000 33.3129 0.0000
# 6 0.0000 0.0000 0.0000 0.0000 0.0000 31.3919
#
#
#
# Elastic Compliance Matrix: (Units=1/GPa)
#
#
# Indices 1 2 3 4 5 6 
#
# 1 0.023132 -0.007787 -0.006888 0.000000 0.000000 0.000000
# 2 -0.007787 0.016511 -0.007433 0.000000 0.000000 0.000000
# 3 -0.006888 -0.007433 0.015739 0.000000 0.000000 0.000000
# 4 0.000000 0.000000 0.000000 -0.296269 0.000000 0.000000
# 5 0.000000 0.000000 0.000000 0.000000 0.030018 0.000000
# 6 0.000000 0.000000 0.000000 0.000000 0.000000 0.031855
#
#
# Mechanical properties :
#
#
# Convention : Reuss Voigt Hill
#
# Bulk Modulus (GPa) = 89.55818 100.31060 94.93439
# Shear Modulus (GPa) = -38.14595 20.50325 -8.82135
#
# Velocity S-wave (km/s) = -4.54796 3.33429 -2.18706
# Velocity P-wave (km/s) = 4.58069 8.31955 6.71557
#
# Compressibility (1/GPa) = 0.01116593
#
# Stress axis : x y z
#
# Youngs Moduli (GPa) = 43.23000 60.56587 63.53656
#
# Poissons Ratio (x) = 0.47164 0.43763
# Poissons Ratio (y) = 0.33664 0.47226
# Poissons Ratio (z) = 0.29776 0.45018
#
# Static dielectric constant tensor:
#      x y z
#    x 3.323760 0.000000 0.000000 
#    y 0.000000 3.608230 0.000000 
#    z 0.000000 0.000000 3.354880 
# 
# 
# High freq. dielectric constant tensor:
#      x y z
#    x 1.710490 0.000000 0.000000 
#    y 0.000000 1.732230 0.000000 
#    z 0.000000 0.000000 1.713630 
# 
# From -- ./inp_files/6345.got.cif
#   From: 2010.03.12/outbox.cif.g09.slc.cpg/sg59_4_cif.got.tgz:6345.got - 2010.04.16 16:29:54.
