data_PCOD8243408
_publ_section_title
;
Structure prediction by ZEFSAII (Michael W. Deem and Ramdas Pophale) SiO2 
 PCOD8243408
Probable space group: P M M N
;
_chemical_formula_sum "Si O2"
_cell_formula_units_Z 64
_cell_length_a 18.064058
_cell_length_b 14.389901
_cell_length_c 12.920421
_cell_angle_alpha 90.000000
_cell_angle_beta 90.000000
_cell_angle_gamma 90.000000
_cell_volume 3358.534316
_symmetry_space_group_name_H-M "P M M N"
_symmetry_group_IT_number 59
_space_group.IT_coordinate_system_code '2'
_symmetry_cell_setting 'orthorhombic'
loop_
_space_group_symop_operation_xyz
x,y,z
1/2-x,1/2-y,z
1/2+x,-y,-z
-x,1/2+y,-z
-x,-y,-z
1/2+x,1/2+y,-z
1/2-x,y,z
x,1/2-y,z
loop_
_atom_site_type_symbol
_atom_site_label
_atom_site_fract_x
_atom_site_fract_y
_atom_site_fract_z
Si Si1 0.666406 0.026542 0.553251
Si Si2 0.036611 0.640873 0.359355
Si Si3 0.330172 0.900209 0.676472
Si Si4 0.568897 0.640475 0.551832
Si Si5 0.533863 0.858313 0.144080
Si Si6 0.981864 0.350320 0.255858
Si Si7 0.332506 0.489020 0.875975
Si Si8 0.928773 0.140238 0.044124
O O1 0.750000 0.032652 0.596509
O O2 0.613460 0.085424 0.629020
O O3 0.660117 0.067223 0.439702
O O4 0.644160 0.917807 0.545284
O O5 0.055573 0.750000 0.352908
O O6 0.983419 0.617900 0.455137
O O7 0.995090 0.606630 0.255415
O O8 0.250000 0.849768 0.689119
O O9 0.397582 0.833150 0.704763
O O10 0.333123 0.988014 0.753964
O O11 0.586834 0.750000 0.557382
O O12 0.528485 0.598336 0.655036
O O13 0.551914 0.750000 0.147459
O O14 0.609377 0.906385 0.107175
O O15 0.469768 0.881356 0.061938
O O16 0.019339 0.250000 0.243462
O O17 0.980149 0.396686 0.141569
O O18 0.250000 0.457590 0.910466
O O19 0.354179 0.579093 0.946756
O O20 0.910346 0.250000 0.056718
#
# Coordination Sequence:
#
# PCOD8243408 Si02
#       8
#     8   8   8   8   8   8   8   8
#     4  11  22  34  52  77 109 148 177 216 271 319
#     4  10  21  36  57  82 107 141 183 223 263 316
#     4   9  18  30  47  76 110 138 168 214 275 323
#     4  10  20  34  54  79 104 136 180 223 264 314
#     4  10  21  37  57  79 107 147 186 220 260 316
#     4   9  17  30  51  77 100 131 171 216 264 310
#     4  10  20  34  55  84 112 140 176 227 279 318
#     4   9  19  35  56  81 107 139 178 218 268 321
#
# _framework density 19.055931000000001
#
# number of rings (size 3 to 8) (size 9 to 14) (size 15 to 20)
#    0.000    2.250    1.250    1.500    3.500    1.250 
#    0.000    4.375    0.000    6.750    0.000    3.500 
#    0.000    0.000    0.000    0.000    0.000    0.000 
#
# Total GULP energy -793070.463972 kJ/mol
# GULP energy per Si atom -12391.726000 kJ/mol
# Density = 1.901256 g / cm^3
# Si number density = 19.055931 Si / 1000 Ang^3
#
#
#
# Elastic Constant Matrix: (Units=GPa)
#
#
# Indices 1 2 3 4 5 6 
#
# 1 111.3026 52.3614 28.4564 0.0000 0.0000 0.0000
# 2 52.3614 60.0659 25.2032 0.0000 0.0000 0.0000
# 3 28.4564 25.2032 82.4836 0.0000 0.0000 0.0000
# 4 0.0000 0.0000 0.0000 17.0572 0.0000 0.0000
# 5 0.0000 0.0000 0.0000 0.0000 19.0504 0.0000
# 6 0.0000 0.0000 0.0000 0.0000 0.0000 22.3144
#
#
#
# Elastic Compliance Matrix: (Units=1/GPa)
#
#
# Indices 1 2 3 4 5 6 
#
# 1 0.015368 -0.012815 -0.001386 0.000000 0.000000 0.000000
# 2 -0.012815 0.029783 -0.004679 0.000000 0.000000 0.000000
# 3 -0.001386 -0.004679 0.014032 0.000000 0.000000 0.000000
# 4 0.000000 0.000000 0.000000 0.058626 0.000000 0.000000
# 5 0.000000 0.000000 0.000000 0.000000 0.052492 0.000000
# 6 0.000000 0.000000 0.000000 0.000000 0.000000 0.044814
#
#
# Mechanical properties :
#
#
# Convention : Reuss Voigt Hill
#
# Bulk Modulus (GPa) = 46.68165 51.76602 49.22384
# Shear Modulus (GPa) = 19.22962 21.53979 20.38471
#
# Velocity S-wave (km/s) = 3.18010 3.36571 3.27422
# Velocity P-wave (km/s) = 6.16721 6.50602 6.33888
#
# Compressibility (1/GPa) = 0.02142169
#
# Stress axis : x y z
#
# Youngs Moduli (GPa) = 65.07234 33.57636 71.26780
#
# Poissons Ratio (x) = 0.43027 0.09878
# Poissons Ratio (y) = 0.83389 0.33348
# Poissons Ratio (z) = 0.09020 0.15711
#
# Static dielectric constant tensor:
#      x y z
#    x 3.482140 0.000000 0.000000 
#    y 0.000000 3.367890 0.000000 
#    z 0.000000 0.000000 3.567020 
# 
# 
# High freq. dielectric constant tensor:
#      x y z
#    x 1.721630 0.000000 0.000000 
#    y 0.000000 1.737890 0.000000 
#    z 0.000000 0.000000 1.738030 
# 
# From -- ./inp_files/17229.got.cif
#   From: 2010.03.12/outbox.cif.g09.slc.cpg/sg59_9_cif.got.tgz:17229.got - 2010.04.16 16:29:54.
