data_PCOD8243014
_publ_section_title
;
Structure prediction by ZEFSAII (Michael W. Deem and Ramdas Pophale) SiO2 
 PCOD8243014
Probable space group: P M M N
;
_chemical_formula_sum "Si O2"
_cell_formula_units_Z 64
_cell_length_a 8.969145
_cell_length_b 19.222764
_cell_length_c 18.704533
_cell_angle_alpha 90.000000
_cell_angle_beta 90.000000
_cell_angle_gamma 90.000000
_cell_volume 3224.881410
_symmetry_space_group_name_H-M "P M M N"
_symmetry_group_IT_number 59
_space_group.IT_coordinate_system_code '2'
_symmetry_cell_setting 'orthorhombic'
loop_
_space_group_symop_operation_xyz
x,y,z
1/2-x,1/2-y,z
1/2+x,-y,-z
-x,1/2+y,-z
-x,-y,-z
1/2+x,1/2+y,-z
1/2-x,y,z
x,1/2-y,z
loop_
_atom_site_type_symbol
_atom_site_label
_atom_site_fract_x
_atom_site_fract_y
_atom_site_fract_z
Si Si1 0.074452 0.329656 0.411951
Si Si2 0.423691 0.169821 0.000380
Si Si3 0.075394 0.170909 0.697715
Si Si4 0.921552 0.544389 0.207821
Si Si5 0.078675 0.592017 0.713938
Si Si6 0.418939 0.669277 0.855768
Si Si7 0.426312 0.954915 0.062482
Si Si8 0.083218 0.667492 0.445167
O O1 0.250000 0.333411 0.419717
O O2 0.022891 0.250000 0.396200
O O3 0.023429 0.381125 0.349737
O O4 0.004930 0.358866 0.485328
O O5 0.250000 0.153595 0.990774
O O6 0.461301 0.250000 0.984929
O O7 0.471250 0.148376 0.080266
O O8 0.518739 0.124782 0.944711
O O9 0.250000 0.167442 0.681887
O O10 0.026236 0.250000 0.716869
O O11 0.032078 0.120837 0.763716
O O12 0.994932 0.141637 0.627148
O O13 0.750000 0.543614 0.182322
O O14 0.944114 0.490243 0.273203
O O15 0.021653 0.520520 0.140834
O O16 0.250000 0.610473 0.696205
O O17 0.025909 0.629586 0.786103
O O18 0.250000 0.647644 0.876920
O O19 0.429159 0.750000 0.838095
O O20 0.250000 0.960909 0.056149
O O21 0.500000 0.000000 0.000000
O O22 0.250000 0.637057 0.447820
O O23 0.083366 0.750000 0.445061
#
# Coordination Sequence:
#
# PCOD8243014 Si02
#       8
#     8   8   8   8   8   8   8   8
#     4  10  20  33  52  80 112 145 182 223 267 320
#     4  10  21  37  58  84 113 144 181 228 281 337
#     4   9  18  35  59  84 112 146 182 224 276 331
#     4  10  22  39  58  83 113 145 184 228 278 335
#     4  10  20  34  52  75 107 145 183 225 270 320
#     4   9  17  30  50  76 106 142 182 223 271 326
#     4  12  25  41  62  85 112 148 190 235 283 338
#     4   9  17  31  54  82 110 141 181 228 273 320
#
# _framework density 19.845690999999999
#
# number of rings (size 3 to 8) (size 9 to 14) (size 15 to 20)
#    0.000    2.125    0.000    3.375    0.000    6.500 
#    0.000    3.125    0.000    0.000    0.000    0.000 
#    0.000    0.000    0.000    0.000    0.000    0.000 
#
# Total GULP energy -793712.202263 kJ/mol
# GULP energy per Si atom -12401.753160 kJ/mol
# Density = 1.980052 g / cm^3
# Si number density = 19.845691 Si / 1000 Ang^3
#
#
#
# Elastic Constant Matrix: (Units=GPa)
#
#
# Indices 1 2 3 4 5 6 
#
# 1 103.1178 34.7709 54.5983 0.0000 0.0000 0.0000
# 2 34.7709 69.5281 44.1577 0.0000 0.0000 0.0000
# 3 54.5983 44.1577 101.7496 0.0000 0.0000 0.0000
# 4 0.0000 0.0000 0.0000 26.4902 0.0000 0.0000
# 5 0.0000 0.0000 0.0000 0.0000 38.1138 0.0000
# 6 0.0000 0.0000 0.0000 0.0000 0.0000 23.5986
#
#
#
# Elastic Compliance Matrix: (Units=1/GPa)
#
#
# Indices 1 2 3 4 5 6 
#
# 1 0.014009 -0.003081 -0.006180 0.000000 0.000000 0.000000
# 2 -0.003081 0.020533 -0.007258 0.000000 0.000000 0.000000
# 3 -0.006180 -0.007258 0.016294 0.000000 0.000000 0.000000
# 4 0.000000 0.000000 0.000000 0.037750 0.000000 0.000000
# 5 0.000000 0.000000 0.000000 0.000000 0.026237 0.000000
# 6 0.000000 0.000000 0.000000 0.000000 0.000000 0.042375
#
#
# Mechanical properties :
#
#
# Convention : Reuss Voigt Hill
#
# Bulk Modulus (GPa) = 56.18494 60.16104 58.17299
# Shear Modulus (GPa) = 25.48843 27.03177 26.26010
#
# Velocity S-wave (km/s) = 3.58764 3.69466 3.64155
# Velocity P-wave (km/s) = 6.74788 6.97000 6.85984
#
# Compressibility (1/GPa) = 0.01779836
#
# Stress axis : x y z
#
# Youngs Moduli (GPa) = 71.38483 48.70248 61.37263
#
# Poissons Ratio (x) = 0.15004 0.37928
# Poissons Ratio (y) = 0.21992 0.44543
# Poissons Ratio (z) = 0.44115 0.35347
#
# Static dielectric constant tensor:
#      x y z
#    x 3.610140 0.000000 0.000000 
#    y 0.000000 3.683100 0.000000 
#    z 0.000000 0.000000 3.572880 
# 
# 
# High freq. dielectric constant tensor:
#      x y z
#    x 1.769890 0.000000 0.000000 
#    y 0.000000 1.766400 0.000000 
#    z 0.000000 0.000000 1.770570 
# 
# From -- ./inp_files/26181.got.cif
#   From: 2010.03.12/outbox.cif.g09.slc.cpg/sg59_14_cif.got.tgz:26181.got - 2010.04.16 16:29:54.
