data_PCOD8243158
_publ_section_title
;
Structure prediction by ZEFSAII (Michael W. Deem and Ramdas Pophale) SiO2 
 PCOD8243158
Probable space group: P M M N
;
_chemical_formula_sum "Si O2"
_cell_formula_units_Z 56
_cell_length_a 13.433332
_cell_length_b 9.198225
_cell_length_c 23.551194
_cell_angle_alpha 90.000000
_cell_angle_beta 90.000000
_cell_angle_gamma 90.000000
_cell_volume 2910.051715
_symmetry_space_group_name_H-M "P M M N"
_symmetry_group_IT_number 59
_space_group.IT_coordinate_system_code '2'
_symmetry_cell_setting 'orthorhombic'
loop_
_space_group_symop_operation_xyz
x,y,z
1/2-x,1/2-y,z
1/2+x,-y,-z
-x,1/2+y,-z
-x,-y,-z
1/2+x,1/2+y,-z
1/2-x,y,z
x,1/2-y,z
loop_
_atom_site_type_symbol
_atom_site_label
_atom_site_fract_x
_atom_site_fract_y
_atom_site_fract_z
Si Si1 0.135059 0.920258 0.700690
Si Si2 0.362333 0.920793 0.464985
Si Si3 0.631122 0.585540 0.982943
Si Si4 0.866843 0.412187 0.090412
Si Si5 0.138217 0.915626 0.126937
Si Si6 0.550301 0.917934 0.194811
Si Si7 0.960429 0.080452 0.417697
O O1 0.250000 0.963831 0.707473
O O2 0.119551 0.750000 0.711870
O O3 0.099284 0.965569 0.638233
O O4 0.069083 0.009263 0.744826
O O5 0.250000 0.974202 0.454165
O O6 0.371976 0.750000 0.456017
O O7 0.392609 0.965236 0.528918
O O8 0.434042 0.998176 0.419679
O O9 0.750000 0.580926 0.985471
O O10 0.591522 0.750000 0.987692
O O11 0.596018 0.517372 0.923193
O O12 0.585715 0.492439 0.035313
O O13 0.750000 0.400368 0.081403
O O14 0.912813 0.250000 0.095731
O O15 0.885076 0.503721 0.146930
O O16 0.250000 0.960314 0.145255
O O17 0.136019 0.750000 0.104555
O O18 0.067073 0.935274 0.181223
O O19 0.582614 0.750000 0.196740
O O20 0.983998 0.250000 0.418242
#
# Coordination Sequence:
#
# PCOD8243158 Si02
#       7
#     8   8   8   8   8   8   8
#     4  10  21  38  58  78 104 140 177 212 255 309
#     4   9  17  31  53  82 115 148 181 220 266 312
#     4   9  17  30  51  78 103 127 161 208 258 307
#     4  10  20  34  52  74 103 138 170 203 252 314
#     4   9  19  37  56  72  95 129 167 207 256 315
#     4  11  23  36  53  77 102 131 171 218 262 303
#     4   9  18  33  54  80 110 145 185 223 260 308
#
# _framework density 19.243645000000001
#
# number of rings (size 3 to 8) (size 9 to 14) (size 15 to 20)
#    0.000    2.429    0.000    2.143    0.000    8.857 
#    0.000    0.714    0.000    5.143    0.000    0.000 
#    0.000    0.000    0.000    0.000    0.000    0.000 
#
# Total GULP energy -694551.159921 kJ/mol
# GULP energy per Si atom -12402.699284 kJ/mol
# Density = 1.919985 g / cm^3
# Si number density = 19.243645 Si / 1000 Ang^3
#
#
#
# Elastic Constant Matrix: (Units=GPa)
#
#
# Indices 1 2 3 4 5 6 
#
# 1 84.7079 41.2197 33.6588 0.0000 0.0000 0.0000
# 2 41.2197 96.9061 55.6279 0.0000 0.0000 0.0000
# 3 33.6588 55.6279 98.2792 0.0000 0.0000 0.0000
# 4 0.0000 0.0000 0.0000 35.0105 0.0000 0.0000
# 5 0.0000 0.0000 0.0000 0.0000 31.1905 0.0000
# 6 0.0000 0.0000 0.0000 0.0000 0.0000 26.4805
#
#
#
# Elastic Compliance Matrix: (Units=1/GPa)
#
#
# Indices 1 2 3 4 5 6 
#
# 1 0.015228 -0.005160 -0.002295 0.000000 0.000000 0.000000
# 2 -0.005160 0.017034 -0.007875 0.000000 0.000000 0.000000
# 3 -0.002295 -0.007875 0.015418 0.000000 0.000000 0.000000
# 4 0.000000 0.000000 0.000000 0.028563 0.000000 0.000000
# 5 0.000000 0.000000 0.000000 0.000000 0.032061 0.000000
# 6 0.000000 0.000000 0.000000 0.000000 0.000000 0.037764
#
#
# Mechanical properties :
#
#
# Convention : Reuss Voigt Hill
#
# Bulk Modulus (GPa) = 58.74757 60.10067 59.42412
# Shear Modulus (GPa) = 27.41217 28.49542 27.95379
#
# Velocity S-wave (km/s) = 3.77832 3.85225 3.81547
# Velocity P-wave (km/s) = 7.04478 7.14743 7.09629
#
# Compressibility (1/GPa) = 0.01702198
#
# Stress axis : x y z
#
# Youngs Moduli (GPa) = 65.66842 58.70440 64.85889
#
# Poissons Ratio (x) = 0.30293 0.14882
# Poissons Ratio (y) = 0.33886 0.51074
# Poissons Ratio (z) = 0.15068 0.46227
#
# Static dielectric constant tensor:
#      x y z
#    x 3.588840 0.000000 0.000000 
#    y 0.000000 3.604410 0.000000 
#    z 0.000000 0.000000 3.364610 
# 
# 
# High freq. dielectric constant tensor:
#      x y z
#    x 1.757740 0.000000 0.000000 
#    y 0.000000 1.751160 0.000000 
#    z 0.000000 0.000000 1.729460 
# 
# From -- ./inp_files/30362.got.cif
#   From: 2010.03.12/outbox.cif.g09.slc.cpg/sg59_16_cif.got.tgz:30362.got - 2010.04.16 16:29:54.
