data_PCOD8243693
_publ_section_title
;
Structure prediction by ZEFSAII (Michael W. Deem and Ramdas Pophale) SiO2 
 PCOD8243693
Probable space group: P M M N
;
_chemical_formula_sum "Si O2"
_cell_formula_units_Z 56
_cell_length_a 8.869204
_cell_length_b 18.894665
_cell_length_c 17.506307
_cell_angle_alpha 90.000000
_cell_angle_beta 90.000000
_cell_angle_gamma 90.000000
_cell_volume 2933.718103
_symmetry_space_group_name_H-M "P M M N"
_symmetry_group_IT_number 59
_space_group.IT_coordinate_system_code '2'
_symmetry_cell_setting 'orthorhombic'
loop_
_space_group_symop_operation_xyz
x,y,z
1/2-x,1/2-y,z
1/2+x,-y,-z
-x,1/2+y,-z
-x,-y,-z
1/2+x,1/2+y,-z
1/2-x,y,z
x,1/2-y,z
loop_
_atom_site_type_symbol
_atom_site_label
_atom_site_fract_x
_atom_site_fract_y
_atom_site_fract_z
Si Si1 0.073898 0.581812 0.875274
Si Si2 0.081203 0.668264 0.580813
Si Si3 0.427529 0.069652 0.534547
Si Si4 0.925930 0.332193 0.975761
Si Si5 0.076274 0.555931 0.308680
Si Si6 0.423149 0.392204 0.279369
Si Si7 0.926475 0.578260 0.152003
O O1 0.250000 0.592221 0.858732
O O2 0.032696 0.498741 0.883176
O O3 0.982405 0.616854 0.806370
O O4 0.022429 0.622659 0.951009
O O5 0.250000 0.635633 0.574588
O O6 0.086295 0.750000 0.561411
O O7 0.968282 0.634125 0.520320
O O8 0.020211 0.657952 0.666373
O O9 0.250000 0.059587 0.537986
O O10 0.489463 0.086937 0.618600
O O11 0.500000 0.000000 0.500000
O O12 0.750000 0.343618 0.959407
O O13 0.964392 0.250000 0.989538
O O14 0.018352 0.360288 0.903811
O O15 0.250000 0.577944 0.314084
O O16 0.055122 0.471872 0.308482
O O17 0.007718 0.590078 0.232649
O O18 0.250000 0.368642 0.282038
O O19 0.750000 0.585796 0.165551
#
# Coordination Sequence:
#
# PCOD8243693 Si02
#       7
#     8   8   8   8   8   8   8
#     4   9  19  35  56  82 114 149 189 234 283 343
#     4  11  24  40  58  82 117 159 197 237 290 349
#     4  12  23  37  61  89 118 152 193 241 287 339
#     4  10  21  37  56  79 110 150 192 235 288 348
#     4  10  20  36  59  87 115 147 188 236 286 340
#     4  10  20  34  56  85 115 148 186 234 286 341
#     4  10  20  35  57  84 113 146 187 239 289 338
#
# _framework density 19.088405000000002
#
# number of rings (size 3 to 8) (size 9 to 14) (size 15 to 20)
#    0.000    1.714    1.429    3.429    0.000    4.286 
#    0.000    2.143    0.000    4.286    0.000    0.000 
#    0.000    0.000    0.000    0.000    0.000    0.000 
#
# Total GULP energy -694697.433073 kJ/mol
# GULP energy per Si atom -12405.311305 kJ/mol
# Density = 1.904496 g / cm^3
# Si number density = 19.088405 Si / 1000 Ang^3
#
#
#
# Elastic Constant Matrix: (Units=GPa)
#
#
# Indices 1 2 3 4 5 6 
#
# 1 118.4958 32.8419 62.7788 0.0000 0.0000 0.0000
# 2 32.8419 60.1466 40.2946 0.0000 0.0000 0.0000
# 3 62.7788 40.2946 131.0506 0.0000 0.0000 0.0000
# 4 0.0000 0.0000 0.0000 24.9979 0.0000 0.0000
# 5 0.0000 0.0000 0.0000 0.0000 39.9076 0.0000
# 6 0.0000 0.0000 0.0000 0.0000 0.0000 25.4200
#
#
#
# Elastic Compliance Matrix: (Units=1/GPa)
#
#
# Indices 1 2 3 4 5 6 
#
# 1 0.011823 -0.003352 -0.004633 0.000000 0.000000 0.000000
# 2 -0.003352 0.021889 -0.005125 0.000000 0.000000 0.000000
# 3 -0.004633 -0.005125 0.011426 0.000000 0.000000 0.000000
# 4 0.000000 0.000000 0.000000 0.040003 0.000000 0.000000
# 5 0.000000 0.000000 0.000000 0.000000 0.025058 0.000000
# 6 0.000000 0.000000 0.000000 0.000000 0.000000 0.039339
#
#
# Mechanical properties :
#
#
# Convention : Reuss Voigt Hill
#
# Bulk Modulus (GPa) = 52.85728 64.61374 58.73551
# Shear Modulus (GPa) = 27.46295 29.65029 28.55662
#
# Velocity S-wave (km/s) = 3.79717 3.94549 3.87204
# Velocity P-wave (km/s) = 6.85387 7.39453 7.12933
#
# Compressibility (1/GPa) = 0.01891887
#
# Stress axis : x y z
#
# Youngs Moduli (GPa) = 84.58380 45.68404 87.52140
#
# Poissons Ratio (x) = 0.15312 0.40548
# Poissons Ratio (y) = 0.28350 0.44853
# Poissons Ratio (z) = 0.39187 0.23412
#
# Static dielectric constant tensor:
#      x y z
#    x 3.668990 0.000000 0.000000 
#    y 0.000000 3.371910 0.000000 
#    z 0.000000 0.000000 3.629320 
# 
# 
# High freq. dielectric constant tensor:
#      x y z
#    x 1.753200 0.000000 0.000000 
#    y 0.000000 1.719470 0.000000 
#    z 0.000000 0.000000 1.753160 
# 
# From -- ./inp_files/20973.got.cif
#   From: 2010.03.12/outbox.cif.g09.slc.cpg/sg59_11_cif.got.tgz:20973.got - 2010.04.16 16:29:54.
