data_PCOD8243619
_publ_section_title
;
Structure prediction by ZEFSAII (Michael W. Deem and Ramdas Pophale) SiO2 
 PCOD8243619
Probable space group: P M M N
;
_chemical_formula_sum "Si O2"
_cell_formula_units_Z 64
_cell_length_a 8.981082
_cell_length_b 18.206932
_cell_length_c 21.203610
_cell_angle_alpha 90.000000
_cell_angle_beta 90.000000
_cell_angle_gamma 90.000000
_cell_volume 3467.170824
_symmetry_space_group_name_H-M "P M M N"
_symmetry_group_IT_number 59
_space_group.IT_coordinate_system_code '2'
_symmetry_cell_setting 'orthorhombic'
loop_
_space_group_symop_operation_xyz
x,y,z
1/2-x,1/2-y,z
1/2+x,-y,-z
-x,1/2+y,-z
-x,-y,-z
1/2+x,1/2+y,-z
1/2-x,y,z
x,1/2-y,z
loop_
_atom_site_type_symbol
_atom_site_label
_atom_site_fract_x
_atom_site_fract_y
_atom_site_fract_z
Si Si1 0.923097 0.540595 0.817399
Si Si2 0.576842 0.108241 0.751408
Si Si3 0.580000 0.165751 0.253147
Si Si4 0.081362 0.834638 0.601093
Si Si5 0.922692 0.668793 0.130746
Si Si6 0.074667 0.421349 0.503159
Si Si7 0.924507 0.163873 0.616523
Si Si8 0.574221 0.976565 0.064445
O O1 0.750000 0.541122 0.835425
O O2 0.959859 0.476593 0.766952
O O3 0.967731 0.617988 0.787899
O O4 0.017473 0.529957 0.880681
O O5 0.750000 0.125398 0.755302
O O6 0.501871 0.161153 0.802212
O O7 0.518453 0.127759 0.681781
O O8 0.750000 0.142004 0.239931
O O9 0.555571 0.250000 0.233733
O O10 0.541321 0.154062 0.326115
O O11 0.250000 0.861505 0.587086
O O12 0.067137 0.750000 0.581693
O O13 0.962813 0.880419 0.561717
O O14 0.750000 0.657477 0.144432
O O15 0.957019 0.750000 0.103007
O O16 0.975862 0.607192 0.080763
O O17 0.250000 0.430678 0.509735
O O18 0.000000 0.500000 0.500000
O O19 0.014602 0.374325 0.561193
O O20 0.750000 0.149309 0.605825
O O21 0.960688 0.250000 0.617188
O O22 0.750000 0.984338 0.057798
O O23 0.500000 0.000000 0.000000
#
# Coordination Sequence:
#
# PCOD8243619 Si02
#       8
#     8   8   8   8   8   8   8   8
#     4  10  20  34  55  84 115 146 183 226 268 320
#     4   9  19  34  54  82 113 144 178 217 266 321
#     4   9  19  36  58  83 111 143 181 226 278 333
#     4   9  19  38  61  82 107 141 179 224 281 338
#     4   9  18  33  54  81 111 142 179 223 270 319
#     4  12  26  40  55  77 106 141 185 233 279 331
#     4  10  21  38  58  80 111 147 179 219 275 331
#     4  10  20  36  57  80 110 149 188 228 275 326
#
# _framework density 18.458853999999999
#
# number of rings (size 3 to 8) (size 9 to 14) (size 15 to 20)
#    0.000    2.250    0.000    3.375    1.750    5.000 
#    0.000    1.875    0.000    2.250    0.000    0.000 
#    0.000    0.000    0.000    0.000    0.000    0.000 
#
# Total GULP energy -793715.075363 kJ/mol
# GULP energy per Si atom -12401.798053 kJ/mol
# Density = 1.841684 g / cm^3
# Si number density = 18.458854 Si / 1000 Ang^3
#
#
#
# Elastic Constant Matrix: (Units=GPa)
#
#
# Indices 1 2 3 4 5 6 
#
# 1 79.5336 48.5393 48.3143 0.0000 0.0000 0.0000
# 2 48.5393 107.0333 64.2829 0.0000 0.0000 0.0000
# 3 48.3143 64.2829 102.4415 0.0000 0.0000 0.0000
# 4 0.0000 0.0000 0.0000 25.7403 0.0000 0.0000
# 5 0.0000 0.0000 0.0000 0.0000 31.7512 0.0000
# 6 0.0000 0.0000 0.0000 0.0000 0.0000 29.8493
#
#
#
# Elastic Compliance Matrix: (Units=1/GPa)
#
#
# Indices 1 2 3 4 5 6 
#
# 1 0.019317 -0.005277 -0.005799 0.000000 0.000000 0.000000
# 2 -0.005277 0.016435 -0.007824 0.000000 0.000000 0.000000
# 3 -0.005799 -0.007824 0.017406 0.000000 0.000000 0.000000
# 4 0.000000 0.000000 0.000000 0.038850 0.000000 0.000000
# 5 0.000000 0.000000 0.000000 0.000000 0.031495 0.000000
# 6 0.000000 0.000000 0.000000 0.000000 0.000000 0.033502
#
#
# Mechanical properties :
#
#
# Convention : Reuss Voigt Hill
#
# Bulk Modulus (GPa) = 65.11485 67.92016 66.51750
# Shear Modulus (GPa) = 25.00943 25.99294 25.50118
#
# Velocity S-wave (km/s) = 3.68486 3.75661 3.72091
# Velocity P-wave (km/s) = 7.31139 7.46267 7.38742
#
# Compressibility (1/GPa) = 0.01535748
#
# Stress axis : x y z
#
# Youngs Moduli (GPa) = 51.76889 60.84420 57.45041
#
# Poissons Ratio (x) = 0.32110 0.33313
# Poissons Ratio (y) = 0.27321 0.44951
# Poissons Ratio (z) = 0.30019 0.47607
#
# Static dielectric constant tensor:
#      x y z
#    x 3.340530 0.000000 0.000000 
#    y 0.000000 3.528780 0.000000 
#    z 0.000000 0.000000 3.525440 
# 
# 
# High freq. dielectric constant tensor:
#      x y z
#    x 1.714680 0.000000 0.000000 
#    y 0.000000 1.722640 0.000000 
#    z 0.000000 0.000000 1.710540 
# 
# From -- ./inp_files/29495.got.cif
#   From: 2010.03.12/outbox.cif.g09.slc.cpg/sg59_15_cif.got.tgz:29495.got - 2010.04.16 16:29:54.
