data_PCOD8243153
_publ_section_title
;
Structure prediction by ZEFSAII (Michael W. Deem and Ramdas Pophale) SiO2 
 PCOD8243153
Probable space group: P M M N
;
_chemical_formula_sum "Si O2"
_cell_formula_units_Z 64
_cell_length_a 17.870569
_cell_length_b 9.161008
_cell_length_c 20.620005
_cell_angle_alpha 90.000000
_cell_angle_beta 90.000000
_cell_angle_gamma 90.000000
_cell_volume 3375.751034
_symmetry_space_group_name_H-M "P M M N"
_symmetry_group_IT_number 59
_space_group.IT_coordinate_system_code '2'
_symmetry_cell_setting 'orthorhombic'
loop_
_space_group_symop_operation_xyz
x,y,z
1/2-x,1/2-y,z
1/2+x,-y,-z
-x,1/2+y,-z
-x,-y,-z
1/2+x,1/2+y,-z
1/2-x,y,z
x,1/2-y,z
loop_
_atom_site_type_symbol
_atom_site_label
_atom_site_fract_x
_atom_site_fract_y
_atom_site_fract_z
Si Si1 0.337619 0.579602 0.239568
Si Si2 0.665755 0.923166 0.241511
Si Si3 0.588642 0.580729 0.879582
Si Si4 0.338215 0.582547 0.003165
Si Si5 0.914564 0.417251 0.129019
Si Si6 0.838997 0.914541 0.632294
Si Si7 0.161125 0.087969 0.614931
Si Si8 0.660640 0.413988 0.507595
O O1 0.250000 0.551799 0.228258
O O2 0.355802 0.750000 0.244768
O O3 0.381916 0.511840 0.180285
O O4 0.366658 0.503125 0.305009
O O5 0.750000 0.980479 0.227537
O O6 0.664222 0.750000 0.236841
O O7 0.639189 0.971543 0.313675
O O8 0.608060 0.988381 0.190729
O O9 0.609250 0.750000 0.869216
O O10 0.626319 0.524661 0.944838
O O11 0.500752 0.556180 0.886818
O O12 0.250000 0.564517 0.005517
O O13 0.362112 0.750000 0.017493
O O14 0.366821 0.532211 0.932900
O O15 0.897561 0.250000 0.145911
O O16 0.750000 0.913258 0.630118
O O17 0.870616 0.750000 0.635376
O O18 0.870620 0.992918 0.568044
O O19 0.250000 0.096678 0.610457
O O20 0.127922 0.250000 0.603528
O O21 0.129112 0.981935 0.559302
O O22 0.750000 0.415089 0.507811
O O23 0.629902 0.250000 0.513719
#
# Coordination Sequence:
#
# PCOD8243153 Si02
#       8
#     8   8   8   8   8   8   8   8
#     4  10  20  34  52  74 101 134 172 214 260 309
#     4   9  18  32  51  76 104 135 174 218 261 306
#     4  11  23  37  54  78 106 136 172 211 252 302
#     4  10  21  38  59  81 105 135 170 208 254 305
#     4  10  22  38  55  77 106 139 172 208 253 305
#     4   9  16  26  42  65  95 131 168 209 258 307
#     4   8  14  25  40  61  93 130 166 207 255 303
#     4   9  15  22  35  60  94 130 168 209 254 304
#
# _framework density 18.958745
#
# number of rings (size 3 to 8) (size 9 to 14) (size 15 to 20)
#    0.000    2.500    0.000    3.375    0.000    8.250 
#    0.000    1.250    0.000    0.000    0.000    0.875 
#    0.000    0.000    0.000    0.000    0.000    0.000 
#
# Total GULP energy -793631.462917 kJ/mol
# GULP energy per Si atom -12400.491608 kJ/mol
# Density = 1.891559 g / cm^3
# Si number density = 18.958745 Si / 1000 Ang^3
#
#
#
# Elastic Constant Matrix: (Units=GPa)
#
#
# Indices 1 2 3 4 5 6 
#
# 1 45.9246 30.6070 42.8784 0.0000 0.0000 0.0000
# 2 30.6070 110.6890 73.2057 0.0000 0.0000 0.0000
# 3 42.8784 73.2057 170.2673 0.0000 0.0000 0.0000
# 4 0.0000 0.0000 0.0000 40.6061 0.0000 0.0000
# 5 0.0000 0.0000 0.0000 0.0000 38.2241 0.0000
# 6 0.0000 0.0000 0.0000 0.0000 0.0000 19.0915
#
#
#
# Elastic Compliance Matrix: (Units=1/GPa)
#
#
# Indices 1 2 3 4 5 6 
#
# 1 0.030069 -0.004620 -0.005586 0.000000 0.000000 0.000000
# 2 -0.004620 0.013334 -0.004569 0.000000 0.000000 0.000000
# 3 -0.005586 -0.004569 0.009244 0.000000 0.000000 0.000000
# 4 0.000000 0.000000 0.000000 0.024627 0.000000 0.000000
# 5 0.000000 0.000000 0.000000 0.000000 0.026162 0.000000
# 6 0.000000 0.000000 0.000000 0.000000 0.000000 0.052379
#
#
# Mechanical properties :
#
#
# Convention : Reuss Voigt Hill
#
# Bulk Modulus (GPa) = 43.29626 68.91811 56.10719
# Shear Modulus (GPa) = 25.89795 31.59698 28.74746
#
# Velocity S-wave (km/s) = 3.69997 4.08685 3.89822
# Velocity P-wave (km/s) = 6.41403 7.66162 7.06541
#
# Compressibility (1/GPa) = 0.02309668
#
# Stress axis : x y z
#
# Youngs Moduli (GPa) = 33.25630 74.99696 108.17381
#
# Poissons Ratio (x) = 0.34651 0.60425
# Poissons Ratio (y) = 0.15365 0.49428
# Poissons Ratio (z) = 0.18577 0.34268
#
# Static dielectric constant tensor:
#      x y z
#    x 3.075690 0.000000 0.000000 
#    y 0.000000 3.651320 0.000000 
#    z 0.000000 0.000000 3.759700 
# 
# 
# High freq. dielectric constant tensor:
#      x y z
#    x 1.691350 0.000000 0.000000 
#    y 0.000000 1.741730 0.000000 
#    z 0.000000 0.000000 1.754620 
# 
# From -- ./inp_files/30736.got.cif
#   From: 2010.03.12/outbox.cif.g09.slc.cpg/sg59_16_cif.got.tgz:30736.got - 2010.04.16 16:29:54.
