data_PCOD8243480
_publ_section_title
;
Structure prediction by ZEFSAII (Michael W. Deem and Ramdas Pophale) SiO2 
 PCOD8243480
Probable space group: P M M N
;
_chemical_formula_sum "Si O2"
_cell_formula_units_Z 56
_cell_length_a 8.987123
_cell_length_b 19.475041
_cell_length_c 17.301097
_cell_angle_alpha 90.000000
_cell_angle_beta 90.000000
_cell_angle_gamma 90.000000
_cell_volume 3028.117390
_symmetry_space_group_name_H-M "P M M N"
_symmetry_group_IT_number 59
_space_group.IT_coordinate_system_code '2'
_symmetry_cell_setting 'orthorhombic'
loop_
_space_group_symop_operation_xyz
x,y,z
1/2-x,1/2-y,z
1/2+x,-y,-z
-x,1/2+y,-z
-x,-y,-z
1/2+x,1/2+y,-z
1/2-x,y,z
x,1/2-y,z
loop_
_atom_site_type_symbol
_atom_site_label
_atom_site_fract_x
_atom_site_fract_y
_atom_site_fract_z
Si Si1 0.076872 0.957353 0.110506
Si Si2 0.076241 0.431193 0.734216
Si Si3 0.921006 0.330392 0.619926
Si Si4 0.923471 0.827471 0.825232
Si Si5 0.424264 0.584994 0.694601
Si Si6 0.926481 0.174005 0.446889
Si Si7 0.577693 0.093505 0.054464
O O1 0.250000 0.974522 0.121767
O O2 0.012565 0.920656 0.186078
O O3 0.052110 0.906759 0.037617
O O4 0.989504 0.027108 0.095986
O O5 0.250000 0.424146 0.751935
O O6 0.038943 0.504375 0.694852
O O7 0.026818 0.371600 0.676925
O O8 0.750000 0.353655 0.631026
O O9 0.937358 0.250000 0.637789
O O10 0.978044 0.346682 0.532994
O O11 0.750000 0.841392 0.832150
O O12 0.958564 0.750000 0.799215
O O13 0.991451 0.879870 0.764600
O O14 0.996851 0.840279 0.909381
O O15 0.250000 0.599350 0.704861
O O16 0.484536 0.617772 0.614427
O O17 0.750000 0.177431 0.446873
O O18 0.988796 0.250000 0.425083
O O19 0.750000 0.095362 0.076049
#
# Coordination Sequence:
#
# PCOD8243480 Si02
#       7
#     8   8   8   8   8   8   8
#     4  10  20  35  57  81 108 141 179 224 271 321
#     4  11  22  34  53  84 116 144 181 227 276 331
#     4   9  19  37  59  79 102 140 188 232 280 336
#     4  11  23  36  52  79 115 152 188 228 276 327
#     4  10  20  34  54  81 111 145 187 228 272 329
#     4   8  15  31  55  79 104 141 188 231 271 322
#     4  10  20  35  56  81 105 139 184 225 270 324
#
# _framework density 18.493337
#
# number of rings (size 3 to 8) (size 9 to 14) (size 15 to 20)
#    0.000    2.143    1.429    3.000    0.000    4.857 
#    0.000    1.429    0.000    1.714    0.000    0.000 
#    0.000    0.000    0.000    0.000    0.000    0.000 
#
# Total GULP energy -694428.090998 kJ/mol
# GULP energy per Si atom -12400.501625 kJ/mol
# Density = 1.845125 g / cm^3
# Si number density = 18.493337 Si / 1000 Ang^3
#
#
#
# Elastic Constant Matrix: (Units=GPa)
#
#
# Indices 1 2 3 4 5 6 
#
# 1 65.7351 37.9709 34.1862 0.0000 0.0000 0.0000
# 2 37.9709 74.1084 49.9208 0.0000 0.0000 0.0000
# 3 34.1862 49.9208 117.8143 0.0000 0.0000 0.0000
# 4 0.0000 0.0000 0.0000 27.3613 0.0000 0.0000
# 5 0.0000 0.0000 0.0000 0.0000 25.8833 0.0000
# 6 0.0000 0.0000 0.0000 0.0000 0.0000 25.1253
#
#
#
# Elastic Compliance Matrix: (Units=1/GPa)
#
#
# Indices 1 2 3 4 5 6 
#
# 1 0.022027 -0.009769 -0.002252 0.000000 0.000000 0.000000
# 2 -0.009769 0.023216 -0.007003 0.000000 0.000000 0.000000
# 3 -0.002252 -0.007003 0.012109 0.000000 0.000000 0.000000
# 4 0.000000 0.000000 0.000000 0.036548 0.000000 0.000000
# 5 0.000000 0.000000 0.000000 0.000000 0.038635 0.000000
# 6 0.000000 0.000000 0.000000 0.000000 0.000000 0.039801
#
#
# Mechanical properties :
#
#
# Convention : Reuss Voigt Hill
#
# Bulk Modulus (GPa) = 51.80204 55.75705 53.77954
# Shear Modulus (GPa) = 23.06099 24.71263 23.88681
#
# Velocity S-wave (km/s) = 3.53510 3.65951 3.59784
# Velocity P-wave (km/s) = 6.68839 6.93334 6.81197
#
# Compressibility (1/GPa) = 0.01930426
#
# Stress axis : x y z
#
# Youngs Moduli (GPa) = 45.39974 43.07382 82.58551
#
# Poissons Ratio (x) = 0.42077 0.18600
# Poissons Ratio (y) = 0.44349 0.57832
# Poissons Ratio (z) = 0.10225 0.30163
#
# Static dielectric constant tensor:
#      x y z
#    x 3.331380 0.000000 0.000000 
#    y 0.000000 3.421300 0.000000 
#    z 0.000000 0.000000 3.678740 
# 
# 
# High freq. dielectric constant tensor:
#      x y z
#    x 1.711050 0.000000 0.000000 
#    y 0.000000 1.703350 0.000000 
#    z 0.000000 0.000000 1.726340 
# 
# From -- ./inp_files/26073.got.cif
#   From: 2010.03.12/outbox.cif.g09.slc.cpg/sg59_14_cif.got.tgz:26073.got - 2010.04.16 16:29:54.
