data_PCOD8243342
_publ_section_title
;
Structure prediction by ZEFSAII (Michael W. Deem and Ramdas Pophale) SiO2 
 PCOD8243342
Probable space group: P M M N
;
_chemical_formula_sum "Si O2"
_cell_formula_units_Z 48
_cell_length_a 8.510703
_cell_length_b 18.681253
_cell_length_c 15.192852
_cell_angle_alpha 90.000000
_cell_angle_beta 90.000000
_cell_angle_gamma 90.000000
_cell_volume 2415.520594
_symmetry_space_group_name_H-M "P M M N"
_symmetry_group_IT_number 59
_space_group.IT_coordinate_system_code '2'
_symmetry_cell_setting 'orthorhombic'
loop_
_space_group_symop_operation_xyz
x,y,z
1/2-x,1/2-y,z
1/2+x,-y,-z
-x,1/2+y,-z
-x,-y,-z
1/2+x,1/2+y,-z
1/2-x,y,z
x,1/2-y,z
loop_
_atom_site_type_symbol
_atom_site_label
_atom_site_fract_x
_atom_site_fract_y
_atom_site_fract_z
Si Si1 0.068125 0.332738 0.499774
Si Si2 0.568304 0.427758 0.648674
Si Si3 0.935348 0.069313 0.148021
Si Si4 0.066453 0.832022 0.006431
Si Si5 0.065869 0.090511 0.832442
Si Si6 0.434032 0.919270 0.655116
O O1 0.250000 0.343678 0.523175
O O2 0.021128 0.250000 0.497392
O O3 0.962472 0.370492 0.572914
O O4 0.032890 0.365702 0.404513
O O5 0.750000 0.449304 0.648730
O O6 0.522372 0.392014 0.741646
O O7 0.466366 0.498452 0.629321
O O8 0.750000 0.075788 0.144220
O O9 0.991376 0.094395 0.244629
O O10 0.988341 0.987404 0.131500
O O11 0.007199 0.120131 0.072420
O O12 0.250000 0.847698 0.019968
O O13 0.034702 0.750000 0.981936
O O14 0.977891 0.849828 0.096620
O O15 0.250000 0.091382 0.812492
O O16 0.250000 0.904183 0.642842
#
# Coordination Sequence:
#
# PCOD8243342 Si02
#       6
#     8   8   8   8   8   8
#     4  11  24  40  57  81 115 151 186 228 278 329
#     4  11  22  38  61  85 110 143 186 232 279 332
#     4   8  17  34  56  81 107 140 182 226 269 317
#     4  10  20  34  53  79 111 145 181 222 270 325
#     4  10  20  36  57  80 108 142 183 229 275 324
#     4  10  20  37  61  87 114 145 186 231 277 330
#
# _framework density 19.871492
#
# number of rings (size 3 to 8) (size 9 to 14) (size 15 to 20)
#    0.000    2.000    0.000    5.000    0.000    3.000 
#    0.000    5.833    0.000    0.000    0.000    0.000 
#    0.000    0.000    0.000    0.000    0.000    0.000 
#
# Total GULP energy -595370.740574 kJ/mol
# GULP energy per Si atom -12403.557095 kJ/mol
# Density = 1.982626 g / cm^3
# Si number density = 19.871492 Si / 1000 Ang^3
#
#
#
# Elastic Constant Matrix: (Units=GPa)
#
#
# Indices 1 2 3 4 5 6 
#
# 1 48.8312 13.4354 17.3945 0.0000 0.0000 0.0000
# 2 13.4354 71.8418 38.6649 0.0000 0.0000 0.0000
# 3 17.3945 38.6649 97.6104 0.0000 0.0000 0.0000
# 4 0.0000 0.0000 0.0000 19.8793 0.0000 0.0000
# 5 0.0000 0.0000 0.0000 0.0000 29.0548 0.0000
# 6 0.0000 0.0000 0.0000 0.0000 0.0000 26.1370
#
#
#
# Elastic Compliance Matrix: (Units=1/GPa)
#
#
# Indices 1 2 3 4 5 6 
#
# 1 0.022235 -0.002575 -0.002943 0.000000 0.000000 0.000000
# 2 -0.002575 0.017989 -0.006667 0.000000 0.000000 0.000000
# 3 -0.002943 -0.006667 0.013410 0.000000 0.000000 0.000000
# 4 0.000000 0.000000 0.000000 0.050304 0.000000 0.000000
# 5 0.000000 0.000000 0.000000 0.000000 0.034418 0.000000
# 6 0.000000 0.000000 0.000000 0.000000 0.000000 0.038260
#
#
# Mechanical properties :
#
#
# Convention : Reuss Voigt Hill
#
# Bulk Modulus (GPa) = 34.16912 39.69698 36.93305
# Shear Modulus (GPa) = 23.72602 24.93348 24.32975
#
# Velocity S-wave (km/s) = 3.45914 3.54607 3.50287
# Velocity P-wave (km/s) = 5.76078 6.06518 5.91494
#
# Compressibility (1/GPa) = 0.02926619
#
# Stress axis : x y z
#
# Youngs Moduli (GPa) = 44.97357 55.58930 74.57092
#
# Poissons Ratio (x) = 0.14312 0.21943
# Poissons Ratio (y) = 0.11579 0.49716
# Poissons Ratio (z) = 0.13234 0.37061
#
# Static dielectric constant tensor:
#      x y z
#    x 3.433270 0.000000 0.000000 
#    y 0.000000 3.556670 0.000000 
#    z 0.000000 0.000000 3.796670 
# 
# 
# High freq. dielectric constant tensor:
#      x y z
#    x 1.764410 0.000000 0.000000 
#    y 0.000000 1.766160 0.000000 
#    z 0.000000 0.000000 1.786800 
# 
# From -- ./inp_files/20365.got.cif
#   From: 2010.03.12/outbox.cif.g09.slc.cpg/sg59_11_cif.got.tgz:20365.got - 2010.04.16 16:29:54.
