data_PCOD8243403
_publ_section_title
;
Structure prediction by ZEFSAII (Michael W. Deem and Ramdas Pophale) SiO2 
 PCOD8243403
Probable space group: P M M N
;
_chemical_formula_sum "Si O2"
_cell_formula_units_Z 64
_cell_length_a 9.238117
_cell_length_b 27.497774
_cell_length_c 13.849425
_cell_angle_alpha 90.000000
_cell_angle_beta 90.000000
_cell_angle_gamma 90.000000
_cell_volume 3518.136934
_symmetry_space_group_name_H-M "P M M N"
_symmetry_group_IT_number 59
_space_group.IT_coordinate_system_code '2'
_symmetry_cell_setting 'orthorhombic'
loop_
_space_group_symop_operation_xyz
x,y,z
1/2-x,1/2-y,z
1/2+x,-y,-z
-x,1/2+y,-z
-x,-y,-z
1/2+x,1/2+y,-z
1/2-x,y,z
x,1/2-y,z
loop_
_atom_site_type_symbol
_atom_site_label
_atom_site_fract_x
_atom_site_fract_y
_atom_site_fract_z
Si Si1 0.582522 0.305739 0.551324
Si Si2 0.418664 0.022259 0.200645
Si Si3 0.917345 0.613711 0.924254
Si Si4 0.080411 0.806403 0.823877
Si Si5 0.916970 0.387195 0.697563
Si Si6 0.912427 0.692311 0.634193
Si Si7 0.415971 0.985916 0.404947
Si Si8 0.080102 0.070146 0.868745
O O1 0.750000 0.311474 0.522060
O O2 0.543480 0.250000 0.574625
O O3 0.545225 0.336321 0.646656
O O4 0.488943 0.326807 0.462751
O O5 0.250000 0.009126 0.186519
O O6 0.455066 0.075340 0.160137
O O7 0.460135 0.020181 0.314138
O O8 0.508443 0.982589 0.141013
O O9 0.750000 0.629323 0.920010
O O10 0.015229 0.661651 0.910772
O O11 0.957126 0.590149 0.026002
O O12 0.250000 0.815689 0.813220
O O13 0.046880 0.750000 0.845633
O O14 0.003385 0.824860 0.726332
O O15 0.750000 0.389604 0.730307
O O16 0.950885 0.430364 0.622584
O O17 0.016142 0.391738 0.791725
O O18 0.750000 0.670743 0.640718
O O19 0.909019 0.750000 0.631104
O O20 0.250000 0.993233 0.430842
O O21 0.500000 0.000000 0.500000
O O22 0.250000 0.064860 0.851605
#
# Coordination Sequence:
#
# PCOD8243403 Si02
#       8
#     8   8   8   8   8   8   8   8
#     4   9  17  31  52  76 100 130 173 218 253 295
#     4   9  19  36  55  76 104 136 169 207 254 308
#     4  10  21  36  55  79 104 132 171 217 263 310
#     4  10  21  36  53  75 104 138 176 215 254 302
#     4   9  19  35  52  71 101 139 171 206 258 311
#     4   9  17  30  49  72 100 134 167 205 257 306
#     4   9  18  32  49  70  99 133 164 197 242 297
#     4  10  20  34  54  79 103 130 168 214 263 310
#
# _framework density 18.191445999999999
#
# number of rings (size 3 to 8) (size 9 to 14) (size 15 to 20)
#    0.000    2.625    0.000    2.250    0.000    7.250 
#    0.000    3.125    0.000    2.250    0.000    0.000 
#    0.000    0.000    0.000    0.000    0.000    0.000 
#
# Total GULP energy -793659.994986 kJ/mol
# GULP energy per Si atom -12400.937422 kJ/mol
# Density = 1.815004 g / cm^3
# Si number density = 18.191446 Si / 1000 Ang^3
#
#
#
# Elastic Constant Matrix: (Units=GPa)
#
#
# Indices 1 2 3 4 5 6 
#
# 1 94.0301 49.6615 62.6823 0.0000 0.0000 0.0000
# 2 49.6615 80.1613 57.8257 0.0000 0.0000 0.0000
# 3 62.6823 57.8257 117.0322 0.0000 0.0000 0.0000
# 4 0.0000 0.0000 0.0000 25.1682 0.0000 0.0000
# 5 0.0000 0.0000 0.0000 0.0000 34.4643 0.0000
# 6 0.0000 0.0000 0.0000 0.0000 0.0000 26.1817
#
#
#
# Elastic Compliance Matrix: (Units=1/GPa)
#
#
# Indices 1 2 3 4 5 6 
#
# 1 0.018627 -0.006748 -0.006642 0.000000 0.000000 0.000000
# 2 -0.006748 0.021829 -0.007171 0.000000 0.000000 0.000000
# 3 -0.006642 -0.007171 0.015645 0.000000 0.000000 0.000000
# 4 0.000000 0.000000 0.000000 0.039733 0.000000 0.000000
# 5 0.000000 0.000000 0.000000 0.000000 0.029016 0.000000
# 6 0.000000 0.000000 0.000000 0.000000 0.000000 0.038195
#
#
# Mechanical properties :
#
#
# Convention : Reuss Voigt Hill
#
# Bulk Modulus (GPa) = 66.76603 70.17362 68.46983
# Shear Modulus (GPa) = 23.90525 25.23312 24.56919
#
# Velocity S-wave (km/s) = 3.62897 3.72840 3.67902
# Velocity P-wave (km/s) = 7.37162 7.56264 7.46774
#
# Compressibility (1/GPa) = 0.01497768
#
# Stress axis : x y z
#
# Youngs Moduli (GPa) = 53.68641 45.81165 63.91622
#
# Poissons Ratio (x) = 0.30914 0.42454
# Poissons Ratio (y) = 0.36228 0.45835
# Poissons Ratio (z) = 0.35659 0.32852
#
# Static dielectric constant tensor:
#      x y z
#    x 3.402460 0.000000 0.000000 
#    y 0.000000 3.381710 0.000000 
#    z 0.000000 0.000000 3.352190 
# 
# 
# High freq. dielectric constant tensor:
#      x y z
#    x 1.707150 0.000000 0.000000 
#    y 0.000000 1.693550 0.000000 
#    z 0.000000 0.000000 1.702140 
# 
# From -- ./inp_files/14982.got.cif
#   From: 2010.03.12/outbox.cif.g09.slc.cpg/sg59_8_cif.got.tgz:14982.got - 2010.04.16 16:29:54.
