data_PCOD8243345
_publ_section_title
;
Structure prediction by ZEFSAII (Michael W. Deem and Ramdas Pophale) SiO2 
 PCOD8243345
Probable space group: P M M N
;
_chemical_formula_sum "Si O2"
_cell_formula_units_Z 56
_cell_length_a 9.214970
_cell_length_b 19.100810
_cell_length_c 16.160310
_cell_angle_alpha 90.000000
_cell_angle_beta 90.000000
_cell_angle_gamma 90.000000
_cell_volume 2844.430965
_symmetry_space_group_name_H-M "P M M N"
_symmetry_group_IT_number 59
_space_group.IT_coordinate_system_code '2'
_symmetry_cell_setting 'orthorhombic'
loop_
_space_group_symop_operation_xyz
x,y,z
1/2-x,1/2-y,z
1/2+x,-y,-z
-x,1/2+y,-z
-x,-y,-z
1/2+x,1/2+y,-z
1/2-x,y,z
x,1/2-y,z
loop_
_atom_site_type_symbol
_atom_site_label
_atom_site_fract_x
_atom_site_fract_y
_atom_site_fract_z
Si Si1 0.418713 0.169769 0.848252
Si Si2 0.081353 0.946837 0.244059
Si Si3 0.420291 0.830090 0.981046
Si Si4 0.584710 0.461055 0.571721
Si Si5 0.584399 0.172470 0.479003
Si Si6 0.083134 0.168319 0.320482
Si Si7 0.418692 0.410494 0.159528
O O1 0.250000 0.152415 0.862279
O O2 0.440203 0.250000 0.819877
O O3 0.484091 0.120075 0.777639
O O4 0.504483 0.154643 0.932146
O O5 0.250000 0.924190 0.248449
O O6 0.031892 0.976088 0.334467
O O7 0.058247 0.006940 0.175188
O O8 0.250000 0.844286 0.990698
O O9 0.450879 0.750000 0.952488
O O10 0.485667 0.885412 0.916990
O O11 0.500000 0.500000 0.500000
O O12 0.750000 0.484843 0.561755
O O13 0.565089 0.377521 0.557845
O O14 0.750000 0.176500 0.450209
O O15 0.525858 0.250000 0.502552
O O16 0.497589 0.140024 0.401535
O O17 0.250000 0.148744 0.332767
O O18 0.055309 0.250000 0.308520
O O19 0.022369 0.130385 0.239562
O O20 0.250000 0.392845 0.142374
#
# Coordination Sequence:
#
# PCOD8243345 Si02
#       7
#     8   8   8   8   8   8   8
#     4  10  22  41  63  85 110 142 182 228 278 330
#     4  10  22  38  57  83 112 146 187 228 275 329
#     4  10  21  37  59  86 113 144 182 222 268 323
#     4  10  21  37  57  80 108 144 184 226 273 325
#     4   9  18  32  50  74 103 135 175 223 272 320
#     4   9  17  30  50  76 107 144 182 220 265 316
#     4  10  20  34  53  79 112 147 184 224 267 322
#
# _framework density 19.687593
#
# number of rings (size 3 to 8) (size 9 to 14) (size 15 to 20)
#    0.000    2.286    0.000    2.143    0.000    6.857 
#    0.000    2.857    0.000    1.714    0.000    0.000 
#    0.000    0.000    0.000    0.000    0.000    0.000 
#
# Total GULP energy -694421.842780 kJ/mol
# GULP energy per Si atom -12400.390050 kJ/mol
# Density = 1.964278 g / cm^3
# Si number density = 19.687593 Si / 1000 Ang^3
#
#
#
# Elastic Constant Matrix: (Units=GPa)
#
#
# Indices 1 2 3 4 5 6 
#
# 1 90.2792 46.2843 57.3423 0.0000 0.0000 0.0000
# 2 46.2843 74.1455 51.5489 0.0000 0.0000 0.0000
# 3 57.3423 51.5489 103.9751 0.0000 0.0000 0.0000
# 4 0.0000 0.0000 0.0000 36.2417 0.0000 0.0000
# 5 0.0000 0.0000 0.0000 0.0000 35.8958 0.0000
# 6 0.0000 0.0000 0.0000 0.0000 0.0000 30.6273
#
#
#
# Elastic Compliance Matrix: (Units=1/GPa)
#
#
# Indices 1 2 3 4 5 6 
#
# 1 0.019196 -0.007054 -0.007089 0.000000 0.000000 0.000000
# 2 -0.007054 0.023173 -0.007598 0.000000 0.000000 0.000000
# 3 -0.007089 -0.007598 0.017295 0.000000 0.000000 0.000000
# 4 0.000000 0.000000 0.000000 0.027593 0.000000 0.000000
# 5 0.000000 0.000000 0.000000 0.000000 0.027858 0.000000
# 6 0.000000 0.000000 0.000000 0.000000 0.000000 0.032651
#
#
# Mechanical properties :
#
#
# Convention : Reuss Voigt Hill
#
# Bulk Modulus (GPa) = 61.80449 64.30564 63.05507
# Shear Modulus (GPa) = 25.42678 28.10124 26.76401
#
# Velocity S-wave (km/s) = 3.59766 3.78214 3.69105
# Velocity P-wave (km/s) = 6.97985 7.19769 7.08961
#
# Compressibility (1/GPa) = 0.01618005
#
# Stress axis : x y z
#
# Youngs Moduli (GPa) = 52.09357 43.15327 57.82122
#
# Poissons Ratio (x) = 0.30441 0.40992
# Poissons Ratio (y) = 0.36748 0.43935
# Poissons Ratio (z) = 0.36931 0.32790
#
# Static dielectric constant tensor:
#      x y z
#    x 3.527770 0.000000 0.000000 
#    y 0.000000 3.707970 0.000000 
#    z 0.000000 0.000000 3.541490 
# 
# 
# High freq. dielectric constant tensor:
#      x y z
#    x 1.759300 0.000000 0.000000 
#    y 0.000000 1.774790 0.000000 
#    z 0.000000 0.000000 1.761180 
# 
# From -- ./inp_files/20908.got.cif
#   From: 2010.03.12/outbox.cif.g09.slc.cpg/sg59_11_cif.got.tgz:20908.got - 2010.04.16 16:29:54.
