data_PCOD8243590
_publ_section_title
;
Structure prediction by ZEFSAII (Michael W. Deem and Ramdas Pophale) SiO2 
 PCOD8243590
Probable space group: P M M N
;
_chemical_formula_sum "Si O2"
_cell_formula_units_Z 48
_cell_length_a 9.157075
_cell_length_b 9.053226
_cell_length_c 30.812281
_cell_angle_alpha 90.000000
_cell_angle_beta 90.000000
_cell_angle_gamma 90.000000
_cell_volume 2554.371048
_symmetry_space_group_name_H-M "P M M N"
_symmetry_group_IT_number 59
_space_group.IT_coordinate_system_code '2'
_symmetry_cell_setting 'orthorhombic'
loop_
_space_group_symop_operation_xyz
x,y,z
1/2-x,1/2-y,z
1/2+x,-y,-z
-x,1/2+y,-z
-x,-y,-z
1/2+x,1/2+y,-z
1/2-x,y,z
x,1/2-y,z
loop_
_atom_site_type_symbol
_atom_site_label
_atom_site_fract_x
_atom_site_fract_y
_atom_site_fract_z
Si Si1 0.077071 0.086860 0.201877
Si Si2 0.078317 0.579158 0.117550
Si Si3 0.579808 0.579755 0.374322
Si Si4 0.578417 0.420763 0.460751
Si Si5 0.420222 0.923808 0.960225
Si Si6 0.079343 0.079559 0.298248
O O1 0.250000 0.096307 0.203816
O O2 0.015480 0.250000 0.189984
O O3 0.022358 0.039118 0.249712
O O4 0.027213 0.969348 0.165698
O O5 0.250000 0.549806 0.110408
O O6 0.039701 0.750000 0.111013
O O7 0.987916 0.482156 0.084148
O O8 0.750000 0.551482 0.367784
O O9 0.542862 0.750000 0.382462
O O10 0.521077 0.489601 0.415739
O O11 0.502103 0.526487 0.331065
O O12 0.500000 0.500000 0.500000
O O13 0.750000 0.446663 0.465914
O O14 0.535532 0.250000 0.461026
O O15 0.250000 0.964176 0.961883
O O16 0.446107 0.750000 0.963413
O O17 0.500000 0.000000 0.000000
O O18 0.250000 0.048430 0.302624
O O19 0.043431 0.250000 0.308635
#
# Coordination Sequence:
#
# PCOD8243590 Si02
#       6
#     8   8   8   8   8   8
#     4   8  15  30  52  77 106 140 177 217 261 308
#     4  10  20  34  55  83 111 140 176 216 261 313
#     4  10  21  36  53  75 105 140 176 214 259 311
#     4  10  21  37  57  79 103 134 172 213 260 313
#     4  11  24  40  58  81 108 139 177 218 261 312
#     4   9  18  33  54  80 107 137 177 221 262 308
#
# _framework density 18.791319000000001
#
# number of rings (size 3 to 8) (size 9 to 14) (size 15 to 20)
#    0.000    2.333    0.000    3.500    0.000    8.000 
#    0.000    2.500    0.000    1.000    0.000    0.000 
#    0.000    0.000    0.000    0.000    0.000    0.000 
#
# Total GULP energy -595229.661243 kJ/mol
# GULP energy per Si atom -12400.617943 kJ/mol
# Density = 1.874855 g / cm^3
# Si number density = 18.791319 Si / 1000 Ang^3
#
#
#
# Elastic Constant Matrix: (Units=GPa)
#
#
# Indices 1 2 3 4 5 6 
#
# 1 55.0993 54.6883 54.0766 0.0000 0.0000 0.0000
# 2 54.6883 105.4851 69.6361 0.0000 0.0000 0.0000
# 3 54.0766 69.6361 152.1439 0.0000 0.0000 0.0000
# 4 0.0000 0.0000 0.0000 43.0675 0.0000 0.0000
# 5 0.0000 0.0000 0.0000 0.0000 31.3816 0.0000
# 6 0.0000 0.0000 0.0000 0.0000 0.0000 28.9856
#
#
#
# Elastic Compliance Matrix: (Units=1/GPa)
#
#
# Indices 1 2 3 4 5 6 
#
# 1 0.042188 -0.017157 -0.007142 0.000000 0.000000 0.000000
# 2 -0.017157 0.020562 -0.003313 0.000000 0.000000 0.000000
# 3 -0.007142 -0.003313 0.010628 0.000000 0.000000 0.000000
# 4 0.000000 0.000000 0.000000 0.023219 0.000000 0.000000
# 5 0.000000 0.000000 0.000000 0.000000 0.031866 0.000000
# 6 0.000000 0.000000 0.000000 0.000000 0.000000 0.034500
#
#
# Mechanical properties :
#
#
# Convention : Reuss Voigt Hill
#
# Bulk Modulus (GPa) = 55.08754 74.39228 64.73991
# Shear Modulus (GPa) = 22.29772 29.64208 25.96990
#
# Velocity S-wave (km/s) = 3.44844 3.97600 3.72158
# Velocity P-wave (km/s) = 6.72567 7.79440 7.27968
#
# Compressibility (1/GPa) = 0.01815292
#
# Stress axis : x y z
#
# Youngs Moduli (GPa) = 23.70361 48.63278 94.09466
#
# Poissons Ratio (x) = 0.83440 0.67202
# Poissons Ratio (y) = 0.40669 0.31175
# Poissons Ratio (z) = 0.16929 0.16113
#
# Static dielectric constant tensor:
#      x y z
#    x 3.235190 0.000000 0.000000 
#    y 0.000000 2.968840 0.000000 
#    z 0.000000 0.000000 3.783200 
# 
# 
# High freq. dielectric constant tensor:
#      x y z
#    x 1.704600 0.000000 0.000000 
#    y 0.000000 1.738170 0.000000 
#    z 0.000000 0.000000 1.747590 
# 
# From -- ./inp_files/32837.got.cif
#   From: 2010.03.12/outbox.cif.g09.slc.cpg/sg59_17_cif.got.tgz:32837.got - 2010.04.16 16:29:54.
