data_PCOD8243162
_publ_section_title
;
Structure prediction by ZEFSAII (Michael W. Deem and Ramdas Pophale) SiO2 
 PCOD8243162
Probable space group: P M M N
;
_chemical_formula_sum "Si O2"
_cell_formula_units_Z 48
_cell_length_a 18.285553
_cell_length_b 9.014663
_cell_length_c 15.622951
_cell_angle_alpha 90.000000
_cell_angle_beta 90.000000
_cell_angle_gamma 90.000000
_cell_volume 2575.257529
_symmetry_space_group_name_H-M "P M M N"
_symmetry_group_IT_number 59
_space_group.IT_coordinate_system_code '2'
_symmetry_cell_setting 'orthorhombic'
loop_
_space_group_symop_operation_xyz
x,y,z
1/2-x,1/2-y,z
1/2+x,-y,-z
-x,1/2+y,-z
-x,-y,-z
1/2+x,1/2+y,-z
1/2-x,y,z
x,1/2-y,z
loop_
_atom_site_type_symbol
_atom_site_label
_atom_site_fract_x
_atom_site_fract_y
_atom_site_fract_z
Si Si1 0.078224 0.426484 0.493360
Si Si2 0.331350 0.426450 0.331500
Si Si3 0.837292 0.416375 0.020297
Si Si4 0.162988 0.416903 0.812880
Si Si5 0.836709 0.419799 0.356891
Si Si6 0.337092 0.415179 0.144321
O O1 0.071313 0.250000 0.496896
O O2 0.113595 0.482452 0.404340
O O3 0.129502 0.480085 0.569485
O O4 0.000000 0.500000 0.500000
O O5 0.250000 0.490758 0.350035
O O6 0.326788 0.250000 0.330674
O O7 0.360103 0.479407 0.237811
O O8 0.750000 0.419012 0.019931
O O9 0.866935 0.250000 0.030284
O O10 0.867698 0.512325 0.099552
O O11 0.868338 0.481712 0.931216
O O12 0.250000 0.415101 0.815130
O O13 0.132336 0.250000 0.803823
O O14 0.135547 0.516005 0.733635
O O15 0.750000 0.431021 0.364567
O O16 0.863518 0.250000 0.364650
O O17 0.250000 0.408887 0.140730
O O18 0.368913 0.250000 0.130569
#
# Coordination Sequence:
#
# PCOD8243162 Si02
#       6
#     8   8   8   8   8   8
#     4  11  22  36  53  73  99 131 168 208 252 301
#     4   8  15  29  50  73  95 124 164 206 245 288
#     4   9  15  22  34  58  94 129 156 188 234 282
#     4   9  16  26  42  65  93 127 164 198 235 282
#     4  10  20  34  52  75 102 130 163 206 253 298
#     4   8  13  23  40  62  88 119 156 195 234 279
#
# _framework density 18.638912999999999
#
# number of rings (size 3 to 8) (size 9 to 14) (size 15 to 20)
#    0.000    2.833    0.000    3.500    0.000    5.667 
#    0.000    1.667    0.000    4.000    0.000    1.167 
#    0.000    0.000    0.000    0.000    0.000    0.000 
#
# Total GULP energy -595024.090616 kJ/mol
# GULP energy per Si atom -12396.335221 kJ/mol
# Density = 1.859649 g / cm^3
# Si number density = 18.638913 Si / 1000 Ang^3
#
#
#
# Elastic Constant Matrix: (Units=GPa)
#
#
# Indices 1 2 3 4 5 6 
#
# 1 22.8292 22.4250 27.4158 0.0000 0.0000 0.0000
# 2 22.4250 107.0015 60.8853 0.0000 0.0000 0.0000
# 3 27.4158 60.8853 169.0707 0.0000 0.0000 0.0000
# 4 0.0000 0.0000 0.0000 26.5143 0.0000 0.0000
# 5 0.0000 0.0000 0.0000 0.0000 -0.0818 0.0000
# 6 0.0000 0.0000 0.0000 0.0000 0.0000 17.5421
#
#
#
# Elastic Compliance Matrix: (Units=1/GPa)
#
#
# Indices 1 2 3 4 5 6 
#
# 1 0.060490 -0.008925 -0.006595 0.000000 0.000000 0.000000
# 2 -0.008925 0.013071 -0.003260 0.000000 0.000000 0.000000
# 3 -0.006595 -0.003260 0.008158 0.000000 0.000000 0.000000
# 4 0.000000 0.000000 0.000000 0.037716 0.000000 0.000000
# 5 0.000000 0.000000 0.000000 0.000000-12.230244 0.000000
# 6 0.000000 0.000000 0.000000 0.000000 0.000000 0.057006
#
#
# Mechanical properties :
#
#
# Convention : Reuss Voigt Hill
#
# Bulk Modulus (GPa) = 22.64483 57.81707 40.23095
# Shear Modulus (GPa) = -0.41661 21.33995 10.46167
#
# Velocity S-wave (km/s) = -0.47329 3.38733 2.37171
# Velocity P-wave (km/s) = 3.44629 6.81069 5.39734
#
# Compressibility (1/GPa) = 0.04416018
#
# Stress axis : x y z
#
# Youngs Moduli (GPa) = 16.53159 76.50522 122.57859
#
# Poissons Ratio (x) = 0.68279 0.80839
# Poissons Ratio (y) = 0.14754 0.39959
# Poissons Ratio (z) = 0.10902 0.24940
#
# Static dielectric constant tensor:
#      x y z
#    x 2.801970 0.000000 0.000000 
#    y 0.000000 3.459670 0.000000 
#    z 0.000000 0.000000 3.879250 
# 
# 
# High freq. dielectric constant tensor:
#      x y z
#    x 1.655820 0.000000 0.000000 
#    y 0.000000 1.718010 0.000000 
#    z 0.000000 0.000000 1.746330 
# 
# From -- ./inp_files/20467.got.cif
#   From: 2010.03.12/outbox.cif.g09.slc.cpg/sg59_11_cif.got.tgz:20467.got - 2010.04.16 16:29:54.
