data_PCOD8243196
_publ_section_title
;
Structure prediction by ZEFSAII (Michael W. Deem and Ramdas Pophale) SiO2 
 PCOD8243196
Probable space group: P M M N
;
_chemical_formula_sum "Si O2"
_cell_formula_units_Z 56
_cell_length_a 25.309115
_cell_length_b 8.804910
_cell_length_c 14.252575
_cell_angle_alpha 90.000000
_cell_angle_beta 90.000000
_cell_angle_gamma 90.000000
_cell_volume 3176.107661
_symmetry_space_group_name_H-M "P M M N"
_symmetry_group_IT_number 59
_space_group.IT_coordinate_system_code '2'
_symmetry_cell_setting 'orthorhombic'
loop_
_space_group_symop_operation_xyz
x,y,z
1/2-x,1/2-y,z
1/2+x,-y,-z
-x,1/2+y,-z
-x,-y,-z
1/2+x,1/2+y,-z
1/2-x,y,z
x,1/2-y,z
loop_
_atom_site_type_symbol
_atom_site_label
_atom_site_fract_x
_atom_site_fract_y
_atom_site_fract_z
Si Si1 0.100902 0.071935 0.723275
Si Si2 0.000075 0.428826 0.602156
Si Si3 0.690287 0.575577 0.587969
Si Si4 0.946141 0.073240 0.104956
Si Si5 0.188688 0.574742 0.605213
Si Si6 0.594417 0.926533 0.716269
Si Si7 0.058241 0.574162 0.106772
O O1 0.099510 0.250000 0.743606
O O2 0.053187 0.020285 0.655623
O O3 0.097663 0.982084 0.821640
O O4 0.156223 0.027403 0.677209
O O5 0.997877 0.250000 0.590628
O O6 0.949748 0.482438 0.660182
O O7 0.000000 0.500000 0.500000
O O8 0.750000 0.541240 0.621406
O O9 0.683996 0.750000 0.555760
O O10 0.674095 0.471375 0.500643
O O11 0.651870 0.537133 0.673960
O O12 0.959700 0.250000 0.118343
O O13 0.924356 0.042093 0.000183
O O14 0.998276 0.976052 0.124141
O O15 0.250000 0.542755 0.625246
O O16 0.173838 0.750000 0.619234
O O17 0.580467 0.750000 0.710094
O O18 0.596347 0.980099 0.824350
O O19 0.062441 0.750000 0.132960
#
# Coordination Sequence:
#
# PCOD8243196 Si02
#       7
#     8   8   8   8   8   8   8
#     4  11  22  35  53  77 106 140 176 214 262 315
#     4  11  23  35  48  72 107 141 172 211 259 315
#     4   9  19  36  55  76 104 138 179 222 260 305
#     4  10  20  34  54  77 104 138 176 216 261 314
#     4  10  21  36  55  79 105 137 179 222 263 309
#     4  11  21  33  53  78 104 139 177 215 264 315
#     4  10  20  34  52  77 107 138 173 215 262 314
#
# _framework density 17.631644000000001
#
# number of rings (size 3 to 8) (size 9 to 14) (size 15 to 20)
#    0.000    1.714    1.429    3.429    0.000    8.857 
#    0.000    0.000    0.000    0.857    0.000    4.000 
#    0.000    0.000    0.000    0.000    0.000    0.000 
#
# Total GULP energy -694642.338868 kJ/mol
# GULP energy per Si atom -12404.327480 kJ/mol
# Density = 1.759151 g / cm^3
# Si number density = 17.631644 Si / 1000 Ang^3
#
#
#
# Elastic Constant Matrix: (Units=GPa)
#
#
# Indices 1 2 3 4 5 6 
#
# 1 78.1890 28.6790 53.0178 0.0000 0.0000 0.0000
# 2 28.6790 53.2600 39.5017 0.0000 0.0000 0.0000
# 3 53.0178 39.5017 123.8222 0.0000 0.0000 0.0000
# 4 0.0000 0.0000 0.0000 34.4425 0.0000 0.0000
# 5 0.0000 0.0000 0.0000 0.0000 26.7110 0.0000
# 6 0.0000 0.0000 0.0000 0.0000 0.0000 24.5242
#
#
#
# Elastic Compliance Matrix: (Units=1/GPa)
#
#
# Indices 1 2 3 4 5 6 
#
# 1 0.019200 -0.005556 -0.006449 0.000000 0.000000 0.000000
# 2 -0.005556 0.026203 -0.005980 0.000000 0.000000 0.000000
# 3 -0.006449 -0.005980 0.012745 0.000000 0.000000 0.000000
# 4 0.000000 0.000000 0.000000 0.029034 0.000000 0.000000
# 5 0.000000 0.000000 0.000000 0.000000 0.037438 0.000000
# 6 0.000000 0.000000 0.000000 0.000000 0.000000 0.040776
#
#
# Mechanical properties :
#
#
# Convention : Reuss Voigt Hill
#
# Bulk Modulus (GPa) = 45.08886 55.29646 50.19266
# Shear Modulus (GPa) = 23.95117 26.07373 25.01245
#
# Velocity S-wave (km/s) = 3.68967 3.84969 3.77053
# Velocity P-wave (km/s) = 6.61663 7.15474 6.89094
#
# Compressibility (1/GPa) = 0.02217843
#
# Stress axis : x y z
#
# Youngs Moduli (GPa) = 52.08349 38.16358 78.46175
#
# Poissons Ratio (x) = 0.21203 0.50596
# Poissons Ratio (y) = 0.28937 0.46923
# Poissons Ratio (z) = 0.33586 0.22823
#
# Static dielectric constant tensor:
#      x y z
#    x 3.159840 0.000000 0.000000 
#    y 0.000000 3.401380 0.000000 
#    z 0.000000 0.000000 3.573660 
# 
# 
# High freq. dielectric constant tensor:
#      x y z
#    x 1.660100 0.000000 0.000000 
#    y 0.000000 1.697510 0.000000 
#    z 0.000000 0.000000 1.684990 
# 
# From -- ./inp_files/24208.got.cif
#   From: 2010.03.12/outbox.cif.g09.slc.cpg/sg59_13_cif.got.tgz:24208.got - 2010.04.16 16:29:54.
