data_PCOD8243877
_publ_section_title
;
Structure prediction by ZEFSAII (Michael W. Deem and Ramdas Pophale) SiO2 
 PCOD8243877
Probable space group: P M M N
;
_chemical_formula_sum "Si O2"
_cell_formula_units_Z 40
_cell_length_a 8.935524
_cell_length_b 14.350225
_cell_length_c 17.283629
_cell_angle_alpha 90.000000
_cell_angle_beta 90.000000
_cell_angle_gamma 90.000000
_cell_volume 2216.224092
_symmetry_space_group_name_H-M "P M M N"
_symmetry_group_IT_number 59
_space_group.IT_coordinate_system_code '2'
_symmetry_cell_setting 'orthorhombic'
loop_
_space_group_symop_operation_xyz
x,y,z
1/2-x,1/2-y,z
1/2+x,-y,-z
-x,1/2+y,-z
-x,-y,-z
1/2+x,1/2+y,-z
1/2-x,y,z
x,1/2-y,z
loop_
_atom_site_type_symbol
_atom_site_label
_atom_site_fract_x
_atom_site_fract_y
_atom_site_fract_z
Si Si1 0.927375 0.250000 0.652194
Si Si2 0.072787 0.552845 0.288190
Si Si3 0.425779 0.750000 0.520107
Si Si4 0.074014 0.997741 0.116140
Si Si5 0.426721 0.644227 0.985168
Si Si6 0.427275 0.948907 0.572290
O O1 0.750000 0.250000 0.647917
O O2 0.982198 0.158519 0.697665
O O3 0.998042 0.250000 0.565948
O O4 0.250000 0.543406 0.300069
O O5 0.021598 0.524265 0.202711
O O6 0.990559 0.485227 0.347332
O O7 0.250000 0.750000 0.507448
O O8 0.475159 0.840726 0.567682
O O9 0.250000 0.012712 0.111143
O O10 0.996529 0.093358 0.089323
O O11 0.023797 0.910972 0.062452
O O12 0.250000 0.643860 0.975445
O O13 0.487523 0.750000 0.990480
O O14 0.250000 0.962969 0.568557
O O15 0.500000 0.000000 0.500000
#
# Coordination Sequence:
#
# PCOD8243877 Si02
#       6
#     4   8   4   8   8   8
#     4   9  16  30  54  78 103 132 169 213 262 312
#     4  10  20  35  55  80 106 136 173 218 265 312
#     4   9  18  34  54  74  97 136 179 211 256 312
#     4   9  19  34  54  80 108 135 172 219 266 310
#     4   9  18  34  56  80 105 138 178 214 255 314
#     4  11  21  36  56  77 105 140 178 217 261 311
#
# _framework density 18.048717
#
# number of rings (size 3 to 8) (size 9 to 14) (size 15 to 20)
#    0.000    2.400    2.000    0.600    1.400    1.200 
#    1.800    3.500    0.000    0.000    0.000    0.000 
#    0.000    0.000    0.000    0.000    0.000    0.000 
#
# Total GULP energy -495993.070226 kJ/mol
# GULP energy per Si atom -12399.826756 kJ/mol
# Density = 1.800764 g / cm^3
# Si number density = 18.048717 Si / 1000 Ang^3
#
#
#
# Elastic Constant Matrix: (Units=GPa)
#
#
# Indices 1 2 3 4 5 6 
#
# 1 35.2740 39.9172 39.6499 0.0000 0.0000 0.0000
# 2 39.9172 178.6731 92.9878 0.0000 0.0000 0.0000
# 3 39.6499 92.9878 162.4927 0.0000 0.0000 0.0000
# 4 0.0000 0.0000 0.0000 25.6863 0.0000 0.0000
# 5 0.0000 0.0000 0.0000 0.0000 30.3942 0.0000
# 6 0.0000 0.0000 0.0000 0.0000 0.0000 27.8984
#
#
#
# Elastic Compliance Matrix: (Units=1/GPa)
#
#
# Indices 1 2 3 4 5 6 
#
# 1 0.043041 -0.005910 -0.007120 0.000000 0.000000 0.000000
# 2 -0.005910 0.008782 -0.003584 0.000000 0.000000 0.000000
# 3 -0.007120 -0.003584 0.009942 0.000000 0.000000 0.000000
# 4 0.000000 0.000000 0.000000 0.038931 0.000000 0.000000
# 5 0.000000 0.000000 0.000000 0.000000 0.032901 0.000000
# 6 0.000000 0.000000 0.000000 0.000000 0.000000 0.035844
#
#
# Mechanical properties :
#
#
# Convention : Reuss Voigt Hill
#
# Bulk Modulus (GPa) = 35.04147 80.17217 57.60682
# Shear Modulus (GPa) = 23.56455 30.38809 26.97632
#
# Velocity S-wave (km/s) = 3.61724 4.10771 3.87025
# Velocity P-wave (km/s) = 6.07478 8.18621 7.20822
#
# Compressibility (1/GPa) = 0.02853762
#
# Stress axis : x y z
#
# Youngs Moduli (GPa) = 23.23353 113.86672 100.58035
#
# Poissons Ratio (x) = 0.67296 0.71617
# Poissons Ratio (y) = 0.13731 0.36044
# Poissons Ratio (z) = 0.16543 0.40805
#
# Static dielectric constant tensor:
#      x y z
#    x 3.104550 0.000000 0.000000 
#    y 0.000000 4.085670 0.000000 
#    z 0.000000 0.000000 3.417510 
# 
# 
# High freq. dielectric constant tensor:
#      x y z
#    x 1.675350 0.000000 0.000000 
#    y 0.000000 1.710050 0.000000 
#    z 0.000000 0.000000 1.699670 
# 
# From -- ./inp_files/19959.got.cif
#   From: 2010.03.12/outbox.cif.g09.slc.cpg/sg59_10_cif.got.tgz:19959.got - 2010.04.16 16:29:54.
