data_PCOD8243150
_publ_section_title
;
Structure prediction by ZEFSAII (Michael W. Deem and Ramdas Pophale) SiO2 
 PCOD8243150
Probable space group: P M M N
;
_chemical_formula_sum "Si O2"
_cell_formula_units_Z 64
_cell_length_a 22.359600
_cell_length_b 9.229566
_cell_length_c 16.386831
_cell_angle_alpha 90.000000
_cell_angle_beta 90.000000
_cell_angle_gamma 90.000000
_cell_volume 3381.740546
_symmetry_space_group_name_H-M "P M M N"
_symmetry_group_IT_number 59
_space_group.IT_coordinate_system_code '2'
_symmetry_cell_setting 'orthorhombic'
loop_
_space_group_symop_operation_xyz
x,y,z
1/2-x,1/2-y,z
1/2+x,-y,-z
-x,1/2+y,-z
-x,-y,-z
1/2+x,1/2+y,-z
1/2-x,y,z
x,1/2-y,z
loop_
_atom_site_type_symbol
_atom_site_label
_atom_site_fract_x
_atom_site_fract_y
_atom_site_fract_z
Si Si1 0.867530 0.078459 0.668245
Si Si2 0.181778 0.409361 0.473424
Si Si3 0.579373 0.916234 0.941961
Si Si4 0.819137 0.918193 0.822028
Si Si5 0.967362 0.580514 0.114338
Si Si6 0.909621 0.919618 0.280925
Si Si7 0.507523 0.081483 0.585306
Si Si8 0.179205 0.585284 0.625717
O O1 0.856947 0.250000 0.670390
O O2 0.932480 0.036125 0.633580
O O3 0.820267 0.001095 0.609254
O O4 0.855426 0.014548 0.757486
O O5 0.250000 0.384116 0.495857
O O6 0.150552 0.250000 0.466034
O O7 0.152647 0.501169 0.546758
O O8 0.560604 0.750000 0.931102
O O9 0.646629 0.942616 0.908360
O O10 0.532122 0.008128 0.890489
O O11 0.575050 0.959930 0.037411
O O12 0.750000 0.968318 0.831194
O O13 0.821930 0.750000 0.795418
O O14 0.979495 0.750000 0.121170
O O15 0.935512 0.523603 0.195546
O O16 0.894963 0.750000 0.277566
O O17 0.954311 0.959158 0.353972
O O18 0.848568 0.008262 0.295003
O O19 0.508831 0.250000 0.564598
O O20 0.500000 0.000000 0.500000
O O21 0.250000 0.576728 0.632856
O O22 0.157199 0.750000 0.618882
#
# Coordination Sequence:
#
# PCOD8243150 Si02
#       8
#     8   8   8   8   8   8   8   8
#     4  11  22  35  52  76 106 139 178 221 264 312
#     4  10  20  34  52  73  99 134 176 218 258 302
#     4   9  18  34  56  81 107 137 174 216 266 320
#     4  10  21  36  53  76 109 146 182 221 267 323
#     4   9  18  34  57  83 108 135 172 220 269 318
#     4  10  20  35  54  76 103 134 171 213 258 311
#     4  10  22  36  50  73 105 139 173 215 264 310
#     4  10  21  36  53  74 101 132 168 212 258 303
#
# _framework density 18.925166000000001
#
# number of rings (size 3 to 8) (size 9 to 14) (size 15 to 20)
#    0.000    2.125    0.000    3.000    0.000    8.750 
#    0.000    0.625    0.000    2.250    0.000    0.000 
#    0.000    0.000    0.000    0.000    0.000    0.000 
#
# Total GULP energy -793534.367775 kJ/mol
# GULP energy per Si atom -12398.974496 kJ/mol
# Density = 1.888209 g / cm^3
# Si number density = 18.925166 Si / 1000 Ang^3
#
#
#
# Elastic Constant Matrix: (Units=GPa)
#
#
# Indices 1 2 3 4 5 6 
#
# 1 73.1929 39.8230 49.4656 0.0000 0.0000 0.0000
# 2 39.8230 83.2835 48.4864 0.0000 0.0000 0.0000
# 3 49.4656 48.4864 120.5536 0.0000 0.0000 0.0000
# 4 0.0000 0.0000 0.0000 28.3139 0.0000 0.0000
# 5 0.0000 0.0000 0.0000 0.0000 30.7723 0.0000
# 6 0.0000 0.0000 0.0000 0.0000 0.0000 26.9950
#
#
#
# Elastic Compliance Matrix: (Units=1/GPa)
#
#
# Indices 1 2 3 4 5 6 
#
# 1 0.021427 -0.006695 -0.006099 0.000000 0.000000 0.000000
# 2 -0.006695 0.017770 -0.004400 0.000000 0.000000 0.000000
# 3 -0.006099 -0.004400 0.012567 0.000000 0.000000 0.000000
# 4 0.000000 0.000000 0.000000 0.035318 0.000000 0.000000
# 5 0.000000 0.000000 0.000000 0.000000 0.032497 0.000000
# 6 0.000000 0.000000 0.000000 0.000000 0.000000 0.037044
#
#
# Mechanical properties :
#
#
# Convention : Reuss Voigt Hill
#
# Bulk Modulus (GPa) = 57.54977 61.39779 59.47378
# Shear Modulus (GPa) = 25.40599 26.49991 25.95295
#
# Velocity S-wave (km/s) = 3.66791 3.74605 3.70719
# Velocity P-wave (km/s) = 6.95796 7.15705 7.05821
#
# Compressibility (1/GPa) = 0.01737626
#
# Stress axis : x y z
#
# Youngs Moduli (GPa) = 46.66988 56.27465 79.57047
#
# Poissons Ratio (x) = 0.37674 0.48533
# Poissons Ratio (y) = 0.31244 0.35012
# Poissons Ratio (z) = 0.28466 0.24761
#
# Static dielectric constant tensor:
#      x y z
#    x 3.425680 0.000000 0.000000 
#    y 0.000000 3.555250 0.000000 
#    z 0.000000 0.000000 3.539840 
# 
# 
# High freq. dielectric constant tensor:
#      x y z
#    x 1.730340 0.000000 0.000000 
#    y 0.000000 1.738000 0.000000 
#    z 0.000000 0.000000 1.732240 
# 
# From -- ./inp_files/24652.got.cif
#   From: 2010.03.12/outbox.cif.g09.slc.cpg/sg59_13_cif.got.tgz:24652.got - 2010.04.16 16:29:54.
