data_PCOD8243799
_publ_section_title
;
Structure prediction by ZEFSAII (Michael W. Deem and Ramdas Pophale) SiO2 
 PCOD8243799
Probable space group: P M M N
;
_chemical_formula_sum "Si O2"
_cell_formula_units_Z 56
_cell_length_a 9.561324
_cell_length_b 15.907657
_cell_length_c 18.700597
_cell_angle_alpha 90.000000
_cell_angle_beta 90.000000
_cell_angle_gamma 90.000000
_cell_volume 2844.328314
_symmetry_space_group_name_H-M "P M M N"
_symmetry_group_IT_number 59
_space_group.IT_coordinate_system_code '2'
_symmetry_cell_setting 'orthorhombic'
loop_
_space_group_symop_operation_xyz
x,y,z
1/2-x,1/2-y,z
1/2+x,-y,-z
-x,1/2+y,-z
-x,-y,-z
1/2+x,1/2+y,-z
1/2-x,y,z
x,1/2-y,z
loop_
_atom_site_type_symbol
_atom_site_label
_atom_site_fract_x
_atom_site_fract_y
_atom_site_fract_z
Si Si1 0.594543 0.844660 0.593653
Si Si2 0.410861 0.655447 0.173774
Si Si3 0.414158 0.997143 0.072084
Si Si4 0.407834 0.094008 0.702235
Si Si5 0.592622 0.095195 0.289798
Si Si6 0.091268 0.066266 0.543388
Si Si7 0.590479 0.656367 0.833708
O O1 0.750000 0.871031 0.620185
O O2 0.561094 0.750000 0.615638
O O3 0.479048 0.902772 0.631980
O O4 0.588515 0.852177 0.507681
O O5 0.250000 0.637732 0.192950
O O6 0.430689 0.750000 0.141980
O O7 0.461897 0.585224 0.117026
O O8 0.496179 0.651232 0.247698
O O9 0.250000 0.992602 0.054674
O O10 0.454161 0.083967 0.111393
O O11 0.500000 0.000000 0.000000
O O12 0.250000 0.130570 0.702255
O O13 0.468769 0.092115 0.621126
O O14 0.408838 0.000848 0.735965
O O15 0.750000 0.130275 0.294655
O O16 0.505708 0.152680 0.235962
O O17 0.250000 0.031573 0.554387
O O18 0.000000 0.000000 0.500000
O O19 0.750000 0.641511 0.809339
O O20 0.572499 0.750000 0.867843
#
# Coordination Sequence:
#
# PCOD8243799 Si02
#       7
#     8   8   8   8   8   8   8
#     4  10  21  35  52  76 107 147 191 233 285 349
#     4  10  22  41  64  89 117 154 198 238 283 340
#     4  10  22  40  62  89 121 153 186 230 277 332
#     4  10  21  36  57  85 114 148 193 243 293 344
#     4  11  21  34  55  84 115 147 188 237 289 339
#     4  10  20  35  54  77 106 145 191 240 292 347
#     4  10  21  38  60  86 116 153 193 228 274 339
#
# _framework density 19.688303999999999
#
# number of rings (size 3 to 8) (size 9 to 14) (size 15 to 20)
#    0.000    1.857    2.857    0.857    0.000    6.000 
#    0.000    1.429    0.000    0.000    0.000    0.000 
#    0.000    0.000    0.000    0.000    0.000    0.000 
#
# Total GULP energy -694258.481801 kJ/mol
# GULP energy per Si atom -12397.472889 kJ/mol
# Density = 1.964349 g / cm^3
# Si number density = 19.688304 Si / 1000 Ang^3
#
#
#
# Elastic Constant Matrix: (Units=GPa)
#
#
# Indices 1 2 3 4 5 6 
#
# 1 84.5558 36.7850 57.2008 0.0000 0.0000 0.0000
# 2 36.7850 104.9683 50.4260 0.0000 0.0000 0.0000
# 3 57.2008 50.4260 130.5634 0.0000 0.0000 0.0000
# 4 0.0000 0.0000 0.0000 20.5419 0.0000 0.0000
# 5 0.0000 0.0000 0.0000 0.0000 36.9870 0.0000
# 6 0.0000 0.0000 0.0000 0.0000 0.0000 18.3650
#
#
#
# Elastic Compliance Matrix: (Units=1/GPa)
#
#
# Indices 1 2 3 4 5 6 
#
# 1 0.017553 -0.003017 -0.006525 0.000000 0.000000 0.000000
# 2 -0.003017 0.012215 -0.003396 0.000000 0.000000 0.000000
# 3 -0.006525 -0.003396 0.011829 0.000000 0.000000 0.000000
# 4 0.000000 0.000000 0.000000 0.048681 0.000000 0.000000
# 5 0.000000 0.000000 0.000000 0.000000 0.027037 0.000000
# 6 0.000000 0.000000 0.000000 0.000000 0.000000 0.054452
#
#
# Mechanical properties :
#
#
# Convention : Reuss Voigt Hill
#
# Bulk Modulus (GPa) = 63.60489 67.65677 65.63083
# Shear Modulus (GPa) = 24.64473 26.89047 25.76760
#
# Velocity S-wave (km/s) = 3.54184 3.69970 3.62163
# Velocity P-wave (km/s) = 7.00730 7.25871 7.13411
#
# Compressibility (1/GPa) = 0.01572206
#
# Stress axis : x y z
#
# Youngs Moduli (GPa) = 56.97056 81.86426 84.53505
#
# Poissons Ratio (x) = 0.24696 0.55159
# Poissons Ratio (y) = 0.17186 0.28710
# Poissons Ratio (z) = 0.37173 0.27802
#
# Static dielectric constant tensor:
#      x y z
#    x 3.560000 0.000000 0.000000 
#    y 0.000000 3.648320 0.000000 
#    z 0.000000 0.000000 3.450580 
# 
# 
# High freq. dielectric constant tensor:
#      x y z
#    x 1.763480 0.000000 0.000000 
#    y 0.000000 1.767640 0.000000 
#    z 0.000000 0.000000 1.755850 
# 
# From -- ./inp_files/28965.got.cif
#   From: 2010.03.12/outbox.cif.g09.slc.cpg/sg59_15_cif.got.tgz:28965.got - 2010.04.16 16:29:54.
