data_PCOD8243607
_publ_section_title
;
Structure prediction by ZEFSAII (Michael W. Deem and Ramdas Pophale) SiO2 
 PCOD8243607
Probable space group: P M M N
;
_chemical_formula_sum "Si O2"
_cell_formula_units_Z 64
_cell_length_a 8.861159
_cell_length_b 19.664126
_cell_length_c 19.812489
_cell_angle_alpha 90.000000
_cell_angle_beta 90.000000
_cell_angle_gamma 90.000000
_cell_volume 3452.265722
_symmetry_space_group_name_H-M "P M M N"
_symmetry_group_IT_number 59
_space_group.IT_coordinate_system_code '2'
_symmetry_cell_setting 'orthorhombic'
loop_
_space_group_symop_operation_xyz
x,y,z
1/2-x,1/2-y,z
1/2+x,-y,-z
-x,1/2+y,-z
-x,-y,-z
1/2+x,1/2+y,-z
1/2-x,y,z
x,1/2-y,z
loop_
_atom_site_type_symbol
_atom_site_label
_atom_site_fract_x
_atom_site_fract_y
_atom_site_fract_z
Si Si1 0.424268 0.327920 0.045239
Si Si2 0.578768 0.545671 0.338061
Si Si3 0.076866 0.890354 0.691711
Si Si4 0.927873 0.578000 0.830264
Si Si5 0.578656 0.671443 0.569407
Si Si6 0.572879 0.068116 0.527911
Si Si7 0.927817 0.562924 0.186339
Si Si8 0.924729 0.170903 0.906448
O O1 0.250000 0.338851 0.025777
O O2 0.455406 0.250000 0.066088
O O3 0.473295 0.375463 0.106693
O O4 0.524243 0.349581 0.981402
O O5 0.750000 0.567847 0.353433
O O6 0.563308 0.464472 0.341556
O O7 0.471185 0.579116 0.393880
O O8 0.527215 0.572175 0.264715
O O9 0.250000 0.867837 0.698433
O O10 0.003674 0.888381 0.765252
O O11 0.989407 0.838139 0.643963
O O12 0.750000 0.575241 0.818826
O O13 0.988817 0.502465 0.844720
O O14 0.750000 0.644086 0.568891
O O15 0.572017 0.750000 0.550107
O O16 0.481672 0.632680 0.513824
O O17 0.750000 0.061591 0.520310
O O18 0.500000 0.000000 0.500000
O O19 0.750000 0.550418 0.179584
O O20 0.977700 0.630207 0.147776
O O21 0.750000 0.152384 0.897882
O O22 0.956742 0.250000 0.893133
#
# Coordination Sequence:
#
# PCOD8243607 Si02
#       8
#     8   8   8   8   8   8   8   8
#     4   9  19  36  56  78 107 147 192 232 276 335
#     4   9  19  36  57  83 111 142 185 230 273 328
#     4  10  20  35  56  81 112 149 186 227 277 338
#     4  10  20  34  55  83 116 150 187 234 281 328
#     4  11  24  40  58  82 114 151 192 238 285 335
#     4  12  23  36  60  87 113 148 189 233 281 338
#     4  10  21  37  58  83 113 147 186 232 280 336
#     4  10  21  37  58  83 110 142 184 234 287 343
#
# _framework density 18.538549
#
# number of rings (size 3 to 8) (size 9 to 14) (size 15 to 20)
#    0.000    1.875    1.250    3.750    0.000    6.250 
#    0.000    1.875    0.000    0.750    0.000    0.000 
#    0.000    0.000    0.000    0.000    0.000    0.000 
#
# Total GULP energy -793905.524187 kJ/mol
# GULP energy per Si atom -12404.773815 kJ/mol
# Density = 1.849635 g / cm^3
# Si number density = 18.538549 Si / 1000 Ang^3
#
#
#
# Elastic Constant Matrix: (Units=GPa)
#
#
# Indices 1 2 3 4 5 6 
#
# 1 116.4599 43.6470 57.7486 0.0000 0.0000 0.0000
# 2 43.6470 74.4643 59.3133 0.0000 0.0000 0.0000
# 3 57.7486 59.3133 116.5924 0.0000 0.0000 0.0000
# 4 0.0000 0.0000 0.0000 33.4020 0.0000 0.0000
# 5 0.0000 0.0000 0.0000 0.0000 36.7307 0.0000
# 6 0.0000 0.0000 0.0000 0.0000 0.0000 27.2881
#
#
#
# Elastic Compliance Matrix: (Units=1/GPa)
#
#
# Indices 1 2 3 4 5 6 
#
# 1 0.012011 -0.003869 -0.003980 0.000000 0.000000 0.000000
# 2 -0.003869 0.023825 -0.010204 0.000000 0.000000 0.000000
# 3 -0.003980 -0.010204 0.015739 0.000000 0.000000 0.000000
# 4 0.000000 0.000000 0.000000 0.029938 0.000000 0.000000
# 5 0.000000 0.000000 0.000000 0.000000 0.027225 0.000000
# 6 0.000000 0.000000 0.000000 0.000000 0.000000 0.036646
#
#
# Mechanical properties :
#
#
# Convention : Reuss Voigt Hill
#
# Bulk Modulus (GPa) = 64.65126 69.88160 67.26643
# Shear Modulus (GPa) = 26.78846 29.27132 28.02989
#
# Velocity S-wave (km/s) = 3.80546 3.97790 3.89264
# Velocity P-wave (km/s) = 7.36603 7.67303 7.52110
#
# Compressibility (1/GPa) = 0.01546760
#
# Stress axis : x y z
#
# Youngs Moduli (GPa) = 83.25977 41.97281 63.53519
#
# Poissons Ratio (x) = 0.16241 0.25290
# Poissons Ratio (y) = 0.32217 0.64830
# Poissons Ratio (z) = 0.33141 0.42828
#
# Static dielectric constant tensor:
#      x y z
#    x 3.547950 0.000000 0.000000 
#    y 0.000000 3.272310 0.000000 
#    z 0.000000 0.000000 3.491750 
# 
# 
# High freq. dielectric constant tensor:
#      x y z
#    x 1.732190 0.000000 0.000000 
#    y 0.000000 1.703600 0.000000 
#    z 0.000000 0.000000 1.726450 
# 
# From -- ./inp_files/29456.got.cif
#   From: 2010.03.12/outbox.cif.g09.slc.cpg/sg59_15_cif.got.tgz:29456.got - 2010.04.16 16:29:54.
