data_PCOD8243881
_publ_section_title
;
Structure prediction by ZEFSAII (Michael W. Deem and Ramdas Pophale) SiO2 
 PCOD8243881
Probable space group: P M M N
;
_chemical_formula_sum "Si O2"
_cell_formula_units_Z 48
_cell_length_a 8.677884
_cell_length_b 25.593600
_cell_length_c 11.727182
_cell_angle_alpha 90.000000
_cell_angle_beta 90.000000
_cell_angle_gamma 90.000000
_cell_volume 2604.587091
_symmetry_space_group_name_H-M "P M M N"
_symmetry_group_IT_number 59
_space_group.IT_coordinate_system_code '2'
_symmetry_cell_setting 'orthorhombic'
loop_
_space_group_symop_operation_xyz
x,y,z
1/2-x,1/2-y,z
1/2+x,-y,-z
-x,1/2+y,-z
-x,-y,-z
1/2+x,1/2+y,-z
1/2-x,y,z
x,1/2-y,z
loop_
_atom_site_type_symbol
_atom_site_label
_atom_site_fract_x
_atom_site_fract_y
_atom_site_fract_z
Si Si1 0.427608 0.597038 0.274045
Si Si2 0.067185 0.808052 0.126227
Si Si3 0.930365 0.557414 0.499964
Si Si4 0.572414 0.995616 0.876471
Si Si5 0.933156 0.307932 0.128535
Si Si6 0.567543 0.095132 0.272129
O O1 0.250000 0.603317 0.312162
O O2 0.495569 0.649377 0.215402
O O3 0.531006 0.587084 0.383979
O O4 0.444918 0.551133 0.183370
O O5 0.250000 0.812512 0.121942
O O6 0.016250 0.750000 0.166084
O O7 0.002911 0.819300 0.998927
O O8 0.750000 0.551068 0.515136
O O9 0.000000 0.500000 0.500000
O O10 0.994760 0.591609 0.603351
O O11 0.750000 0.978491 0.884914
O O12 0.478923 0.953704 0.804399
O O13 0.500000 0.000000 0.000000
O O14 0.750000 0.310466 0.125283
O O15 0.986890 0.250000 0.168524
O O16 0.996864 0.351613 0.214925
O O17 0.750000 0.095914 0.284211
#
# Coordination Sequence:
#
# PCOD8243881 Si02
#       6
#     8   8   8   8   8   8
#     4  10  20  35  55  80 109 143 183 227 274 325
#     4   8  14  28  53  83 112 141 177 223 271 318
#     4  12  24  39  57  77 105 146 188 229 277 333
#     4  11  22  34  52  79 113 146 181 227 277 334
#     4   8  15  30  54  84 114 144 179 222 273 326
#     4  11  21  35  57  83 111 143 183 231 279 330
#
# _framework density 18.429023999999998
#
# number of rings (size 3 to 8) (size 9 to 14) (size 15 to 20)
#    0.000    2.000    1.667    4.500    0.000    3.333 
#    0.000    0.833    0.000    7.500    0.000    4.667 
#    0.000    0.000    0.000    0.000    0.000    0.000 
#
# Total GULP energy -595183.188389 kJ/mol
# GULP energy per Si atom -12399.649758 kJ/mol
# Density = 1.838708 g / cm^3
# Si number density = 18.429024 Si / 1000 Ang^3
#
#
#
# Elastic Constant Matrix: (Units=GPa)
#
#
# Indices 1 2 3 4 5 6 
#
# 1 73.0745 33.4481 38.5580 0.0000 0.0000 0.0000
# 2 33.4481 140.9263 66.3024 0.0000 0.0000 0.0000
# 3 38.5580 66.3024 128.8427 0.0000 0.0000 0.0000
# 4 0.0000 0.0000 0.0000 25.3443 0.0000 0.0000
# 5 0.0000 0.0000 0.0000 0.0000 29.8218 0.0000
# 6 0.0000 0.0000 0.0000 0.0000 0.0000 18.4235
#
#
#
# Elastic Compliance Matrix: (Units=1/GPa)
#
#
# Indices 1 2 3 4 5 6 
#
# 1 0.016722 -0.002130 -0.003908 0.000000 0.000000 0.000000
# 2 -0.002130 0.009634 -0.004320 0.000000 0.000000 0.000000
# 3 -0.003908 -0.004320 0.011154 0.000000 0.000000 0.000000
# 4 0.000000 0.000000 0.000000 0.039457 0.000000 0.000000
# 5 0.000000 0.000000 0.000000 0.000000 0.033533 0.000000
# 6 0.000000 0.000000 0.000000 0.000000 0.000000 0.054278
#
#
# Mechanical properties :
#
#
# Convention : Reuss Voigt Hill
#
# Bulk Modulus (GPa) = 59.54820 68.82893 64.18856
# Shear Modulus (GPa) = 26.16540 28.35359 27.25949
#
# Velocity S-wave (km/s) = 3.77210 3.92666 3.85016
# Velocity P-wave (km/s) = 7.16617 7.61495 7.39397
#
# Compressibility (1/GPa) = 0.01679312
#
# Stress axis : x y z
#
# Youngs Moduli (GPa) = 59.80218 103.79860 89.65315
#
# Poissons Ratio (x) = 0.22111 0.35037
# Poissons Ratio (y) = 0.12739 0.38732
# Poissons Ratio (z) = 0.23371 0.44843
#
# Static dielectric constant tensor:
#      x y z
#    x 3.194590 0.000000 0.000000 
#    y 0.000000 3.727400 0.000000 
#    z 0.000000 0.000000 3.615350 
# 
# 
# High freq. dielectric constant tensor:
#      x y z
#    x 1.689180 0.000000 0.000000 
#    y 0.000000 1.720970 0.000000 
#    z 0.000000 0.000000 1.719120 
# 
# From -- ./inp_files/14372.got.cif
#   From: 2010.03.12/outbox.cif.g09.slc.cpg/sg59_8_cif.got.tgz:14372.got - 2010.04.16 16:29:54.
