data_PCOD8243918
_publ_section_title
;
Structure prediction by ZEFSAII (Michael W. Deem and Ramdas Pophale) SiO2 
 PCOD8243918
Probable space group: P M M N
;
_chemical_formula_sum "Si O2"
_cell_formula_units_Z 56
_cell_length_a 18.494168
_cell_length_b 8.995404
_cell_length_c 17.852859
_cell_angle_alpha 90.000000
_cell_angle_beta 90.000000
_cell_angle_gamma 90.000000
_cell_volume 2970.046484
_symmetry_space_group_name_H-M "P M M N"
_symmetry_group_IT_number 59
_space_group.IT_coordinate_system_code '2'
_symmetry_cell_setting 'orthorhombic'
loop_
_space_group_symop_operation_xyz
x,y,z
1/2-x,1/2-y,z
1/2+x,-y,-z
-x,1/2+y,-z
-x,-y,-z
1/2+x,1/2+y,-z
1/2-x,y,z
x,1/2-y,z
loop_
_atom_site_type_symbol
_atom_site_label
_atom_site_fract_x
_atom_site_fract_y
_atom_site_fract_z
Si Si1 0.165784 0.923158 0.569842
Si Si2 0.587242 0.920843 0.294440
Si Si3 0.926552 0.577063 0.864670
Si Si4 0.166278 0.078840 0.993239
Si Si5 0.582380 0.420546 0.713055
Si Si6 0.592937 0.076747 0.141742
Si Si7 0.165789 0.077593 0.418279
O O1 0.250000 0.956059 0.581904
O O2 0.148243 0.750000 0.566928
O O3 0.123055 0.995169 0.637276
O O4 0.138226 0.994218 0.492452
O O5 0.611370 0.750000 0.295236
O O6 0.501935 0.939467 0.302793
O O7 0.614798 0.992581 0.217450
O O8 0.914647 0.750000 0.846163
O O9 0.897978 0.482280 0.794853
O O10 0.010404 0.541915 0.881342
O O11 0.880486 0.525703 0.935976
O O12 0.250000 0.055393 0.012926
O O13 0.148997 0.250000 0.973942
O O14 0.145758 0.978575 0.922927
O O15 0.607106 0.250000 0.708226
O O16 0.624502 0.516212 0.652906
O O17 0.605626 0.250000 0.155276
O O18 0.250000 0.047965 0.405138
O O19 0.147924 0.250000 0.428275
#
# Coordination Sequence:
#
# PCOD8243918 Si02
#       7
#     8   8   8   8   8   8   8
#     4  10  21  37  57  81 109 141 179 224 271 317
#     4  10  21  37  57  81 109 142 180 220 266 322
#     4   9  19  36  56  78 106 141 179 218 264 319
#     4  10  21  36  54  78 108 140 175 217 265 318
#     4  10  21  36  56  83 111 140 178 224 270 315
#     4  10  20  35  56  79 105 139 178 221 266 313
#     4  10  21  37  57  80 108 145 184 219 263 321
#
# _framework density 18.854924
#
# number of rings (size 3 to 8) (size 9 to 14) (size 15 to 20)
#    0.000    2.143    0.000    2.571    0.000    6.571 
#    0.000    1.429    0.000    0.000    0.000    0.000 
#    0.000    0.000    0.000    0.000    0.000    0.000 
#
# Total GULP energy -694703.535989 kJ/mol
# GULP energy per Si atom -12405.420286 kJ/mol
# Density = 1.881201 g / cm^3
# Si number density = 18.854924 Si / 1000 Ang^3
#
#
#
# Elastic Constant Matrix: (Units=GPa)
#
#
# Indices 1 2 3 4 5 6 
#
# 1 40.4058 26.6897 39.7676 0.0000 0.0000 0.0000
# 2 26.6897 79.9361 49.5121 0.0000 0.0000 0.0000
# 3 39.7676 49.5121 123.9185 0.0000 0.0000 0.0000
# 4 0.0000 0.0000 0.0000 38.9470 0.0000 0.0000
# 5 0.0000 0.0000 0.0000 0.0000 80.8726 0.0000
# 6 0.0000 0.0000 0.0000 0.0000 0.0000 30.0440
#
#
#
# Elastic Compliance Matrix: (Units=1/GPa)
#
#
# Indices 1 2 3 4 5 6 
#
# 1 0.038904 -0.006985 -0.009694 0.000000 0.000000 0.000000
# 2 -0.006985 0.017878 -0.004902 0.000000 0.000000 0.000000
# 3 -0.009694 -0.004902 0.013139 0.000000 0.000000 0.000000
# 4 0.000000 0.000000 0.000000 0.025676 0.000000 0.000000
# 5 0.000000 0.000000 0.000000 0.000000 0.012365 0.000000
# 6 0.000000 0.000000 0.000000 0.000000 0.000000 0.033285
#
#
# Mechanical properties :
#
#
# Convention : Reuss Voigt Hill
#
# Bulk Modulus (GPa) = 37.36953 52.91103 45.14028
# Shear Modulus (GPa) = 25.86277 38.52547 32.19412
#
# Velocity S-wave (km/s) = 3.70763 4.52514 4.13663
# Velocity P-wave (km/s) = 6.17990 7.44484 6.84167
#
# Compressibility (1/GPa) = 0.02675977
#
# Stress axis : x y z
#
# Youngs Moduli (GPa) = 25.70456 55.93356 76.10776
#
# Poissons Ratio (x) = 0.39070 0.73778
# Poissons Ratio (y) = 0.17955 0.37306
# Poissons Ratio (z) = 0.24918 0.27417
#
# Static dielectric constant tensor:
#      x y z
#    x 3.379090 0.000000 0.000000 
#    y 0.000000 4.162990 0.000000 
#    z 0.000000 0.000000 3.560180 
# 
# 
# High freq. dielectric constant tensor:
#      x y z
#    x 1.723950 0.000000 0.000000 
#    y 0.000000 1.744290 0.000000 
#    z 0.000000 0.000000 1.743890 
# 
# From -- ./inp_files/21069.got.cif
#   From: 2010.03.12/outbox.cif.g09.slc.cpg/sg59_11_cif.got.tgz:21069.got - 2010.04.16 16:29:54.
