data_PCOD8243088
_publ_section_title
;
Structure prediction by ZEFSAII (Michael W. Deem and Ramdas Pophale) SiO2 
 PCOD8243088
Probable space group: P M M N
;
_chemical_formula_sum "Si O2"
_cell_formula_units_Z 48
_cell_length_a 9.132612
_cell_length_b 14.098820
_cell_length_c 20.033440
_cell_angle_alpha 90.000000
_cell_angle_beta 90.000000
_cell_angle_gamma 90.000000
_cell_volume 2579.486757
_symmetry_space_group_name_H-M "P M M N"
_symmetry_group_IT_number 59
_space_group.IT_coordinate_system_code '2'
_symmetry_cell_setting 'orthorhombic'
loop_
_space_group_symop_operation_xyz
x,y,z
1/2-x,1/2-y,z
1/2+x,-y,-z
-x,1/2+y,-z
-x,-y,-z
1/2+x,1/2+y,-z
1/2-x,y,z
x,1/2-y,z
loop_
_atom_site_type_symbol
_atom_site_label
_atom_site_fract_x
_atom_site_fract_y
_atom_site_fract_z
Si Si1 0.583884 0.549995 0.811749
Si Si2 0.576970 0.750000 0.361215
Si Si3 0.919332 0.052046 0.441565
Si Si4 0.582651 0.250000 0.498357
Si Si5 0.925279 0.750000 0.018922
Si Si6 0.418138 0.564254 0.052547
Si Si7 0.923969 0.750000 0.865358
Si Si8 0.922944 0.952321 0.308948
O O1 0.750000 0.559285 0.786078
O O2 0.576485 0.487109 0.877199
O O3 0.519479 0.655436 0.827349
O O4 0.490410 0.496060 0.757007
O O5 0.750000 0.750000 0.370047
O O6 0.514828 0.750000 0.435800
O O7 0.524903 0.656497 0.320865
O O8 0.750000 0.025844 0.447738
O O9 0.951165 0.162850 0.449524
O O10 0.979129 0.016197 0.370590
O O11 0.000000 0.000000 0.500000
O O12 0.750000 0.250000 0.523265
O O13 0.750000 0.750000 0.024961
O O14 0.992640 0.838701 0.057821
O O15 0.979133 0.750000 0.941923
O O16 0.250000 0.581579 0.030443
O O17 0.500000 0.500000 0.000000
O O18 0.750000 0.750000 0.868004
O O19 0.750000 0.956829 0.300973
#
# Coordination Sequence:
#
# PCOD8243088 Si02
#       8
#     8   4   8   4   4   8   4   8
#     4  10  22  40  61  84 118 156 194 241 291 350
#     4  10  20  37  58  81 113 153 190 234 287 341
#     4  10  20  35  56  83 114 146 187 237 285 337
#     4  10  20  33  56  88 115 145 187 236 287 339
#     4  11  21  38  63  90 123 159 196 250 305 350
#     4  11  22  38  61  91 121 155 201 249 297 356
#     4   9  18  38  61  83 113 153 193 236 295 348
#     4  10  22  38  57  84 118 152 192 239 288 346
#
# _framework density 18.608353999999999
#
# number of rings (size 3 to 8) (size 9 to 14) (size 15 to 20)
#    0.000    1.833    3.333    0.750    0.000    4.000 
#    0.000    2.917    0.000    0.000    0.000    0.000 
#    0.000    0.000    0.000    0.000    0.000    0.000 
#
# Total GULP energy -595188.426228 kJ/mol
# GULP energy per Si atom -12399.758880 kJ/mol
# Density = 1.856600 g / cm^3
# Si number density = 18.608354 Si / 1000 Ang^3
#
#
#
# Elastic Constant Matrix: (Units=GPa)
#
#
# Indices 1 2 3 4 5 6 
#
# 1 62.1113 46.3753 36.5348 0.0000 0.0000 0.0000
# 2 46.3753 168.0745 52.2689 0.0000 0.0000 0.0000
# 3 36.5348 52.2689 93.1649 0.0000 0.0000 0.0000
# 4 0.0000 0.0000 0.0000 28.8976 0.0000 0.0000
# 5 0.0000 0.0000 0.0000 0.0000 34.0977 0.0000
# 6 0.0000 0.0000 0.0000 0.0000 0.0000 27.7751
#
#
#
# Elastic Compliance Matrix: (Units=1/GPa)
#
#
# Indices 1 2 3 4 5 6 
#
# 1 0.023279 -0.004342 -0.006693 0.000000 0.000000 0.000000
# 2 -0.004342 0.008017 -0.002795 0.000000 0.000000 0.000000
# 3 -0.006693 -0.002795 0.014927 0.000000 0.000000 0.000000
# 4 0.000000 0.000000 0.000000 0.034605 0.000000 0.000000
# 5 0.000000 0.000000 0.000000 0.000000 0.029327 0.000000
# 6 0.000000 0.000000 0.000000 0.000000 0.000000 0.036003
#
#
# Mechanical properties :
#
#
# Convention : Reuss Voigt Hill
#
# Bulk Modulus (GPa) = 53.87196 65.96763 59.91979
# Shear Modulus (GPa) = 27.77693 30.69886 29.23790
#
# Velocity S-wave (km/s) = 3.86776 4.06610 3.96817
# Velocity P-wave (km/s) = 6.99709 7.58760 7.29832
#
# Compressibility (1/GPa) = 0.01856253
#
# Stress axis : x y z
#
# Youngs Moduli (GPa) = 42.95758 124.73527 66.99471
#
# Poissons Ratio (x) = 0.54156 0.44840
# Poissons Ratio (y) = 0.18651 0.18726
# Poissons Ratio (z) = 0.28751 0.34866
#
# Static dielectric constant tensor:
#      x y z
#    x 3.411790 0.000000 0.000000 
#    y 0.000000 3.674140 0.000000 
#    z 0.000000 0.000000 3.272650 
# 
# 
# High freq. dielectric constant tensor:
#      x y z
#    x 1.712560 0.000000 0.000000 
#    y 0.000000 1.744280 0.000000 
#    z 0.000000 0.000000 1.715830 
# 
# From -- ./inp_files/25710.got.cif
#   From: 2010.03.12/outbox.cif.g09.slc.cpg/sg59_13_cif.got.tgz:25710.got - 2010.04.16 16:29:54.
