data_PCOD8243979
_publ_section_title
;
Structure prediction by ZEFSAII (Michael W. Deem and Ramdas Pophale) SiO2 
 PCOD8243979
Probable space group: P M M N
;
_chemical_formula_sum "Si O2"
_cell_formula_units_Z 48
_cell_length_a 8.646711
_cell_length_b 18.056216
_cell_length_c 15.512458
_cell_angle_alpha 90.000000
_cell_angle_beta 90.000000
_cell_angle_gamma 90.000000
_cell_volume 2421.911692
_symmetry_space_group_name_H-M "P M M N"
_symmetry_group_IT_number 59
_space_group.IT_coordinate_system_code '2'
_symmetry_cell_setting 'orthorhombic'
loop_
_space_group_symop_operation_xyz
x,y,z
1/2-x,1/2-y,z
1/2+x,-y,-z
-x,1/2+y,-z
-x,-y,-z
1/2+x,1/2+y,-z
1/2-x,y,z
x,1/2-y,z
loop_
_atom_site_type_symbol
_atom_site_label
_atom_site_fract_x
_atom_site_fract_y
_atom_site_fract_z
Si Si1 0.576277 0.337956 0.989765
Si Si2 0.931243 0.423990 0.661355
Si Si3 0.072521 0.162736 0.814425
Si Si4 0.433542 0.832940 0.503652
Si Si5 0.568318 0.083565 0.326430
Si Si6 0.431670 0.334180 0.165830
O O1 0.750000 0.368190 0.978995
O O2 0.572512 0.250000 0.992487
O O3 0.506660 0.368067 0.079214
O O4 0.474151 0.365978 0.909451
O O5 0.750000 0.442733 0.654612
O O6 0.992036 0.377511 0.579543
O O7 0.961497 0.376694 0.746600
O O8 0.031051 0.497880 0.662834
O O9 0.250000 0.141359 0.797124
O O10 0.044552 0.250000 0.806080
O O11 0.250000 0.829721 0.503208
O O12 0.503084 0.750000 0.500891
O O13 0.493527 0.873294 0.589566
O O14 0.750000 0.095195 0.313381
O O15 0.479941 0.114763 0.244425
O O16 0.250000 0.336684 0.153177
O O17 0.488618 0.250000 0.182863
#
# Coordination Sequence:
#
# PCOD8243979 Si02
#       6
#     8   8   8   8   8   8
#     4   9  17  31  54  83 112 145 186 229 275 327
#     4  11  22  37  57  81 113 150 187 228 277 332
#     4  10  20  35  56  83 114 147 186 232 279 328
#     4   9  19  36  59  85 110 141 184 231 276 326
#     4  11  22  37  57  81 113 150 187 228 277 332
#     4  10  20  35  56  83 114 147 186 232 279 328
#
# _framework density 19.819054000000001
#
# number of rings (size 3 to 8) (size 9 to 14) (size 15 to 20)
#    0.000    2.000    0.000    4.000    0.000    5.333 
#    0.000    3.333    0.000    6.000    0.000    0.000 
#    0.000    0.000    0.000    0.000    0.000    0.000 
#
# Total GULP energy -595370.338209 kJ/mol
# GULP energy per Si atom -12403.548713 kJ/mol
# Density = 1.977395 g / cm^3
# Si number density = 19.819054 Si / 1000 Ang^3
#
#
#
# Elastic Constant Matrix: (Units=GPa)
#
#
# Indices 1 2 3 4 5 6 
#
# 1 49.6037 12.2888 14.4256 0.0000 0.0000 0.0000
# 2 12.2888 77.0756 44.6162 0.0000 0.0000 0.0000
# 3 14.4256 44.6162 149.4130 0.0000 0.0000 0.0000
# 4 0.0000 0.0000 0.0000 3.6574 0.0000 0.0000
# 5 0.0000 0.0000 0.0000 0.0000 24.2459 0.0000
# 6 0.0000 0.0000 0.0000 0.0000 0.0000 22.6477
#
#
#
# Elastic Compliance Matrix: (Units=1/GPa)
#
#
# Indices 1 2 3 4 5 6 
#
# 1 0.021181 -0.002652 -0.001253 0.000000 0.000000 0.000000
# 2 -0.002652 0.016018 -0.004527 0.000000 0.000000 0.000000
# 3 -0.001253 -0.004527 0.008166 0.000000 0.000000 0.000000
# 4 0.000000 0.000000 0.000000 0.273418 0.000000 0.000000
# 5 0.000000 0.000000 0.000000 0.000000 0.041244 0.000000
# 6 0.000000 0.000000 0.000000 0.000000 0.000000 0.044155
#
#
# Mechanical properties :
#
#
# Convention : Reuss Voigt Hill
#
# Bulk Modulus (GPa) = 35.08687 46.52816 40.80752
# Shear Modulus (GPa) = 11.61318 23.76096 17.68707
#
# Velocity S-wave (km/s) = 2.42329 3.46626 2.99059
# Velocity P-wave (km/s) = 5.05686 6.28867 5.70610
#
# Compressibility (1/GPa) = 0.02850069
#
# Stress axis : x y z
#
# Youngs Moduli (GPa) = 47.21175 62.43147 122.46409
#
# Poissons Ratio (x) = 0.16555 0.15347
# Poissons Ratio (y) = 0.12519 0.55439
# Poissons Ratio (z) = 0.05917 0.28263
#
# Static dielectric constant tensor:
#      x y z
#    x 3.475710 0.000000 0.000000 
#    y 0.000000 3.464570 0.000000 
#    z 0.000000 0.000000 3.823500 
# 
# 
# High freq. dielectric constant tensor:
#      x y z
#    x 1.767260 0.000000 0.000000 
#    y 0.000000 1.754300 0.000000 
#    z 0.000000 0.000000 1.791600 
# 
# From -- ./inp_files/20392.got.cif
#   From: 2010.03.12/outbox.cif.g09.slc.cpg/sg59_11_cif.got.tgz:20392.got - 2010.04.16 16:29:54.
