data_PCOD8243743
_publ_section_title
;
Structure prediction by ZEFSAII (Michael W. Deem and Ramdas Pophale) SiO2 
 PCOD8243743
Probable space group: P M M N
;
_chemical_formula_sum "Si O2"
_cell_formula_units_Z 56
_cell_length_a 9.154549
_cell_length_b 15.012754
_cell_length_c 22.000766
_cell_angle_alpha 90.000000
_cell_angle_beta 90.000000
_cell_angle_gamma 90.000000
_cell_volume 3023.675102
_symmetry_space_group_name_H-M "P M M N"
_symmetry_group_IT_number 59
_space_group.IT_coordinate_system_code '2'
_symmetry_cell_setting 'orthorhombic'
loop_
_space_group_symop_operation_xyz
x,y,z
1/2-x,1/2-y,z
1/2+x,-y,-z
-x,1/2+y,-z
-x,-y,-z
1/2+x,1/2+y,-z
1/2-x,y,z
x,1/2-y,z
loop_
_atom_site_type_symbol
_atom_site_label
_atom_site_fract_x
_atom_site_fract_y
_atom_site_fract_z
Si Si1 0.423175 0.484766 0.709522
Si Si2 0.078868 0.562259 0.166817
Si Si3 0.576856 0.347130 0.362351
Si Si4 0.914375 0.651339 0.392060
Si Si5 0.921604 0.250000 0.888771
Si Si6 0.079160 0.054316 0.052487
Si Si7 0.920727 0.750000 0.983549
Si Si8 0.423554 0.906403 0.505523
O O1 0.250000 0.482210 0.717818
O O2 0.495132 0.464076 0.773069
O O3 0.481550 0.580163 0.685440
O O4 0.476001 0.413228 0.659835
O O5 0.250000 0.559459 0.179957
O O6 0.029996 0.661664 0.147501
O O7 0.033542 0.489650 0.116277
O O8 0.750000 0.350797 0.362474
O O9 0.519401 0.250000 0.341668
O O10 0.523625 0.364629 0.430939
O O11 0.750000 0.621056 0.411030
O O12 0.912270 0.750000 0.364044
O O13 0.019175 0.653550 0.450365
O O14 0.750000 0.250000 0.900997
O O15 0.997217 0.250000 0.953307
O O16 0.250000 0.042178 0.040748
O O17 0.035830 0.159637 0.053108
O O18 0.000000 0.000000 0.000000
O O19 0.750000 0.750000 0.997685
O O20 0.250000 0.915332 0.501877
O O21 0.500000 0.000000 0.500000
#
# Coordination Sequence:
#
# PCOD8243743 Si02
#       8
#     8   8   8   8   4   8   4   8
#     4  10  21  38  57  78 107 146 187 226 273 328
#     4  10  22  38  55  80 114 148 182 225 276 326
#     4   9  18  35  58  79 103 138 183 232 278 327
#     4  10  21  37  55  80 113 144 179 229 282 331
#     4  10  20  36  58  84 114 146 179 224 277 328
#     4  10  20  36  58  83 114 146 180 226 276 325
#     4  10  20  34  58  90 114 142 185 228 273 330
#     4  11  20  34  57  83 112 144 182 229 286 341
#
# _framework density 18.520508
#
# number of rings (size 3 to 8) (size 9 to 14) (size 15 to 20)
#    0.000    2.000    2.857    0.857    1.000    2.571 
#    1.286    0.000    0.000    1.714    0.000    0.000 
#    0.000    0.000    0.000    0.000    0.000    0.000 
#
# Total GULP energy -694311.674585 kJ/mol
# GULP energy per Si atom -12398.422760 kJ/mol
# Density = 1.847835 g / cm^3
# Si number density = 18.520508 Si / 1000 Ang^3
#
#
#
# Elastic Constant Matrix: (Units=GPa)
#
#
# Indices 1 2 3 4 5 6 
#
# 1 39.7253 34.1944 43.2600 0.0000 0.0000 0.0000
# 2 34.1944 181.6971 87.8707 0.0000 0.0000 0.0000
# 3 43.2600 87.8707 150.2197 0.0000 0.0000 0.0000
# 4 0.0000 0.0000 0.0000 17.2196 0.0000 0.0000
# 5 0.0000 0.0000 0.0000 0.0000 34.8552 0.0000
# 6 0.0000 0.0000 0.0000 0.0000 0.0000 17.3292
#
#
#
# Elastic Compliance Matrix: (Units=1/GPa)
#
#
# Indices 1 2 3 4 5 6 
#
# 1 0.037508 -0.002559 -0.009305 0.000000 0.000000 0.000000
# 2 -0.002559 0.007849 -0.003855 0.000000 0.000000 0.000000
# 3 -0.009305 -0.003855 0.011591 0.000000 0.000000 0.000000
# 4 0.000000 0.000000 0.000000 0.058073 0.000000 0.000000
# 5 0.000000 0.000000 0.000000 0.000000 0.028690 0.000000
# 6 0.000000 0.000000 0.000000 0.000000 0.000000 0.057706
#
#
# Mechanical properties :
#
#
# Convention : Reuss Voigt Hill
#
# Bulk Modulus (GPa) = 39.19673 78.03248 58.61460
# Shear Modulus (GPa) = 20.71603 27.63524 24.17564
#
# Velocity S-wave (km/s) = 3.34809 3.86702 3.61687
# Velocity P-wave (km/s) = 6.01300 7.88435 7.01139
#
# Compressibility (1/GPa) = 0.02551233
#
# Stress axis : x y z
#
# Youngs Moduli (GPa) = 26.66081 127.39925 86.27265
#
# Poissons Ratio (x) = 0.32601 0.80274
# Poissons Ratio (y) = 0.06822 0.33254
# Poissons Ratio (z) = 0.24807 0.49106
#
# Static dielectric constant tensor:
#      x y z
#    x 3.301340 0.000000 0.000000 
#    y 0.000000 4.011160 0.000000 
#    z 0.000000 0.000000 3.497230 
# 
# 
# High freq. dielectric constant tensor:
#      x y z
#    x 1.698520 0.000000 0.000000 
#    y 0.000000 1.740670 0.000000 
#    z 0.000000 0.000000 1.710480 
# 
# From -- ./inp_files/29230.got.cif
#   From: 2010.03.12/outbox.cif.g09.slc.cpg/sg59_15_cif.got.tgz:29230.got - 2010.04.16 16:29:54.
