data_PCOD8243402
_publ_section_title
;
Structure prediction by ZEFSAII (Michael W. Deem and Ramdas Pophale) SiO2 
 PCOD8243402
Probable space group: P M M N
;
_chemical_formula_sum "Si O2"
_cell_formula_units_Z 64
_cell_length_a 19.399987
_cell_length_b 8.881696
_cell_length_c 21.794534
_cell_angle_alpha 90.000000
_cell_angle_beta 90.000000
_cell_angle_gamma 90.000000
_cell_volume 3755.302537
_symmetry_space_group_name_H-M "P M M N"
_symmetry_group_IT_number 59
_space_group.IT_coordinate_system_code '2'
_symmetry_cell_setting 'orthorhombic'
loop_
_space_group_symop_operation_xyz
x,y,z
1/2-x,1/2-y,z
1/2+x,-y,-z
-x,1/2+y,-z
-x,-y,-z
1/2+x,1/2+y,-z
1/2-x,y,z
x,1/2-y,z
loop_
_atom_site_type_symbol
_atom_site_label
_atom_site_fract_x
_atom_site_fract_y
_atom_site_fract_z
Si Si1 0.963652 0.923798 0.829947
Si Si2 0.893947 0.920863 0.526108
Si Si3 0.674299 0.072974 0.630632
Si Si4 0.021133 0.421937 0.581002
Si Si5 0.826242 0.579459 0.892804
Si Si6 0.458743 0.577004 0.295720
Si Si7 0.671837 0.425563 0.019033
Si Si8 0.538750 0.572040 0.057826
O O1 0.984604 0.750000 0.837459
O O2 0.881842 0.949540 0.839814
O O3 0.981171 0.977938 0.761894
O O4 0.005299 0.020995 0.878805
O O5 0.873373 0.750000 0.539415
O O6 0.904070 0.949376 0.452080
O O7 0.836367 0.020354 0.559919
O O8 0.968306 0.956192 0.554945
O O9 0.750000 0.017629 0.653236
O O10 0.670684 0.250000 0.629475
O O11 0.613358 0.013812 0.675209
O O12 0.996518 0.250000 0.565753
O O13 0.021183 0.439844 0.654904
O O14 0.750000 0.552453 0.864737
O O15 0.833249 0.750000 0.918586
O O16 0.840354 0.465136 0.947960
O O17 0.449503 0.750000 0.275089
O O18 0.750000 0.467204 0.038784
O O19 0.656960 0.250000 0.027915
O O20 0.618475 0.520018 0.059907
O O21 0.534114 0.750000 0.051375
O O22 0.500000 0.500000 0.000000
#
# Coordination Sequence:
#
# PCOD8243402 Si02
#       8
#     8   8   8   8   8   8   8   8
#     4  11  22  34  49  72 101 133 171 216 261 308
#     4   9  15  24  43  69  91 115 153 200 240 275
#     4   9  18  32  47  65  96 137 172 201 239 289
#     4   8  15  28  44  63  90 121 152 190 241 290
#     4   9  18  32  48  66  93 130 166 202 247 299
#     4   9  18  32  47  64  91 129 169 204 240 293
#     4  10  20  34  54  79 103 127 159 200 249 307
#     4  12  23  36  55  77 103 134 168 212 262 311
#
# _framework density 17.042566999999998
#
# number of rings (size 3 to 8) (size 9 to 14) (size 15 to 20)
#    0.000    2.375    1.250    3.000    0.000    4.500 
#    0.000    0.000    0.000    0.000    0.000    0.875 
#    0.000    5.000    0.000    0.000    0.000    0.000 
#
# Total GULP energy -793069.801664 kJ/mol
# GULP energy per Si atom -12391.715651 kJ/mol
# Density = 1.700378 g / cm^3
# Si number density = 17.042567 Si / 1000 Ang^3
#
#
#
# Elastic Constant Matrix: (Units=GPa)
#
#
# Indices 1 2 3 4 5 6 
#
# 1 57.7364 30.8095 40.4582 0.0000 0.0000 0.0000
# 2 30.8095 68.2443 36.1985 0.0000 0.0000 0.0000
# 3 40.4582 36.1985 101.3891 0.0000 0.0000 0.0000
# 4 0.0000 0.0000 0.0000 27.6985 0.0000 0.0000
# 5 0.0000 0.0000 0.0000 0.0000 19.4841 0.0000
# 6 0.0000 0.0000 0.0000 0.0000 0.0000 22.1066
#
#
#
# Elastic Compliance Matrix: (Units=1/GPa)
#
#
# Indices 1 2 3 4 5 6 
#
# 1 0.027210 -0.008049 -0.007984 0.000000 0.000000 0.000000
# 2 -0.008049 0.020458 -0.004092 0.000000 0.000000 0.000000
# 3 -0.007984 -0.004092 0.014510 0.000000 0.000000 0.000000
# 4 0.000000 0.000000 0.000000 0.036103 0.000000 0.000000
# 5 0.000000 0.000000 0.000000 0.000000 0.051324 0.000000
# 6 0.000000 0.000000 0.000000 0.000000 0.000000 0.045235
#
#
# Mechanical properties :
#
#
# Convention : Reuss Voigt Hill
#
# Bulk Modulus (GPa) = 45.60582 49.14470 47.37526
# Shear Modulus (GPa) = 20.62711 21.85143 21.23927
#
# Velocity S-wave (km/s) = 3.48275 3.58462 3.53405
# Velocity P-wave (km/s) = 6.55674 6.78467 6.67168
#
# Compressibility (1/GPa) = 0.02192702
#
# Stress axis : x y z
#
# Youngs Moduli (GPa) = 36.75099 48.88153 68.91861
#
# Poissons Ratio (x) = 0.39346 0.55025
# Poissons Ratio (y) = 0.29582 0.28201
# Poissons Ratio (z) = 0.29342 0.20002
#
# Static dielectric constant tensor:
#      x y z
#    x 3.381810 0.000000 0.000000 
#    y 0.000000 3.229070 0.000000 
#    z 0.000000 0.000000 3.105580 
# 
# 
# High freq. dielectric constant tensor:
#      x y z
#    x 1.634260 0.000000 0.000000 
#    y 0.000000 1.664790 0.000000 
#    z 0.000000 0.000000 1.635120 
# 
# From -- ./inp_files/31000.got.cif
#   From: 2010.03.12/outbox.cif.g09.slc.cpg/sg59_16_cif.got.tgz:31000.got - 2010.04.16 16:29:54.
