data_PCOD8243380
_publ_section_title
;
Structure prediction by ZEFSAII (Michael W. Deem and Ramdas Pophale) SiO2 
 PCOD8243380
Probable space group: P M M N
;
_chemical_formula_sum "Si O2"
_cell_formula_units_Z 48
_cell_length_a 10.117179
_cell_length_b 9.055789
_cell_length_c 28.808809
_cell_angle_alpha 90.000000
_cell_angle_beta 90.000000
_cell_angle_gamma 90.000000
_cell_volume 2639.435375
_symmetry_space_group_name_H-M "P M M N"
_symmetry_group_IT_number 59
_space_group.IT_coordinate_system_code '2'
_symmetry_cell_setting 'orthorhombic'
loop_
_space_group_symop_operation_xyz
x,y,z
1/2-x,1/2-y,z
1/2+x,-y,-z
-x,1/2+y,-z
-x,-y,-z
1/2+x,1/2+y,-z
1/2-x,y,z
x,1/2-y,z
loop_
_atom_site_type_symbol
_atom_site_label
_atom_site_fract_x
_atom_site_fract_y
_atom_site_fract_z
Si Si1 0.101262 0.421896 0.193128
Si Si2 0.598207 0.076727 0.464490
Si Si3 0.250000 0.424459 0.949225
Si Si4 0.750000 0.075829 0.952011
Si Si5 0.903643 0.920938 0.700761
Si Si6 0.001813 0.923676 0.107442
Si Si7 0.099042 0.421977 0.632113
O O1 0.250000 0.480526 0.184938
O O2 0.093664 0.250000 0.182269
O O3 0.059432 0.453558 0.245924
O O4 0.002874 0.505667 0.158554
O O5 0.750000 0.043842 0.478924
O O6 0.569100 0.250000 0.463693
O O7 0.500000 0.000000 0.500000
O O8 0.567550 0.012396 0.414083
O O9 0.250000 0.250000 0.956888
O O10 0.374523 0.479382 0.919952
O O11 0.250000 0.499058 0.998762
O O12 0.750000 0.250000 0.960120
O O13 0.624567 0.021781 0.922994
O O14 0.750000 0.959080 0.691088
O O15 0.930547 0.750000 0.688663
O O16 0.998004 0.025167 0.671164
O O17 0.001943 0.750000 0.114552
O O18 0.250000 0.450925 0.648452
O O19 0.075213 0.250000 0.621958
#
# Coordination Sequence:
#
# PCOD8243380 Si02
#       7
#     8   8   4   4   8   8   8
#     4   9  18  34  56  80 103 132 174 218 261 311
#     4  10  21  37  58  83 112 149 190 231 276 325
#     4  10  22  36  50  74 106 136 166 208 259 306
#     4  10  20  34  54  76  98 132 176 212 249 308
#     4   9  19  36  57  81 108 139 180 228 273 322
#     4  10  20  35  53  75 104 135 168 209 258 310
#     4  10  21  37  56  81 113 148 186 226 273 328
#
# _framework density 18.185708999999999
#
# number of rings (size 3 to 8) (size 9 to 14) (size 15 to 20)
#    0.000    2.333    0.833    2.500    0.000    5.000 
#    1.500    1.667    0.000    0.000    0.000    0.000 
#    0.000    0.000    0.000    0.000    0.000    0.000 
#
# Total GULP energy -595268.730915 kJ/mol
# GULP energy per Si atom -12401.431894 kJ/mol
# Density = 1.814432 g / cm^3
# Si number density = 18.185709 Si / 1000 Ang^3
#
#
#
# Elastic Constant Matrix: (Units=GPa)
#
#
# Indices 1 2 3 4 5 6 
#
# 1 117.4866 48.3910 73.0485 0.0000 0.0000 0.0000
# 2 48.3910 73.0064 59.6607 0.0000 0.0000 0.0000
# 3 73.0485 59.6607 124.8337 0.0000 0.0000 0.0000
# 4 0.0000 0.0000 0.0000 40.7708 0.0000 0.0000
# 5 0.0000 0.0000 0.0000 0.0000 21.2959 0.0000
# 6 0.0000 0.0000 0.0000 0.0000 0.0000 22.1226
#
#
#
# Elastic Compliance Matrix: (Units=1/GPa)
#
#
# Indices 1 2 3 4 5 6 
#
# 1 0.014153 -0.004288 -0.006233 0.000000 0.000000 0.000000
# 2 -0.004288 0.023774 -0.008853 0.000000 0.000000 0.000000
# 3 -0.006233 -0.008853 0.015889 0.000000 0.000000 0.000000
# 4 0.000000 0.000000 0.000000 0.024527 0.000000 0.000000
# 5 0.000000 0.000000 0.000000 0.000000 0.046957 0.000000
# 6 0.000000 0.000000 0.000000 0.000000 0.000000 0.045203
#
#
# Mechanical properties :
#
#
# Convention : Reuss Voigt Hill
#
# Bulk Modulus (GPa) = 66.36136 75.28081 70.82109
# Shear Modulus (GPa) = 23.33466 25.78627 24.56047
#
# Velocity S-wave (km/s) = 3.58597 3.76964 3.67895
# Velocity P-wave (km/s) = 7.32910 7.77383 7.55474
#
# Compressibility (1/GPa) = 0.01506901
#
# Stress axis : x y z
#
# Youngs Moduli (GPa) = 70.65731 42.06223 62.93701
#
# Poissons Ratio (x) = 0.18035 0.39226
# Poissons Ratio (y) = 0.30296 0.55720
# Poissons Ratio (z) = 0.44038 0.37239
#
# Static dielectric constant tensor:
#      x y z
#    x 3.409920 0.000000 0.000000 
#    y 0.000000 3.250530 0.000000 
#    z 0.000000 0.000000 3.341090 
# 
# 
# High freq. dielectric constant tensor:
#      x y z
#    x 1.703870 0.000000 0.000000 
#    y 0.000000 1.703700 0.000000 
#    z 0.000000 0.000000 1.710930 
# 
# From -- ./inp_files/32931.got.cif
#   From: 2010.03.12/outbox.cif.g09.slc.cpg/sg59_17_cif.got.tgz:32931.got - 2010.04.16 16:29:54.
