data_PCOD8243689
_publ_section_title
;
Structure prediction by ZEFSAII (Michael W. Deem and Ramdas Pophale) SiO2 
 PCOD8243689
Probable space group: P M M N
;
_chemical_formula_sum "Si O2"
_cell_formula_units_Z 64
_cell_length_a 18.245340
_cell_length_b 8.854583
_cell_length_c 21.301745
_cell_angle_alpha 90.000000
_cell_angle_beta 90.000000
_cell_angle_gamma 90.000000
_cell_volume 3441.400802
_symmetry_space_group_name_H-M "P M M N"
_symmetry_group_IT_number 59
_space_group.IT_coordinate_system_code '2'
_symmetry_cell_setting 'orthorhombic'
loop_
_space_group_symop_operation_xyz
x,y,z
1/2-x,1/2-y,z
1/2+x,-y,-z
-x,1/2+y,-z
-x,-y,-z
1/2+x,1/2+y,-z
1/2-x,y,z
x,1/2-y,z
loop_
_atom_site_type_symbol
_atom_site_label
_atom_site_fract_x
_atom_site_fract_y
_atom_site_fract_z
Si Si1 0.334408 0.574523 0.265520
Si Si2 0.334780 0.073549 0.618846
Si Si3 0.472811 0.574945 0.937249
Si Si4 0.336144 0.422208 0.395298
Si Si5 0.332173 0.575453 0.867470
Si Si6 0.097287 0.426488 0.752887
Si Si7 0.079114 0.572131 0.506090
Si Si8 0.957953 0.928142 0.806994
O O1 0.250000 0.545353 0.248205
O O2 0.350186 0.750000 0.277208
O O3 0.358104 0.483364 0.327205
O O4 0.382166 0.511980 0.208096
O O5 0.250000 0.024191 0.615937
O O6 0.343009 0.250000 0.603614
O O7 0.366590 0.033115 0.686740
O O8 0.380883 0.980851 0.568820
O O9 0.480479 0.750000 0.948894
O O10 0.388368 0.529232 0.922821
O O11 0.521782 0.524726 0.877934
O O12 0.500000 0.500000 0.000000
O O13 0.250000 0.433718 0.406217
O O14 0.363586 0.250000 0.401607
O O15 0.373510 0.526705 0.446329
O O16 0.250000 0.548818 0.892517
O O17 0.346258 0.750000 0.848628
O O18 0.345012 0.474979 0.806078
O O19 0.080414 0.250000 0.759098
O O20 0.021426 0.517027 0.759702
O O21 0.070205 0.750000 0.507990
O O22 0.000000 0.500000 0.500000
O O23 0.948262 0.750000 0.799543
#
# Coordination Sequence:
#
# PCOD8243689 Si02
#       8
#     8   8   8   8   8   8   8   8
#     4  10  21  37  59  87 115 145 186 234 282 334
#     4  10  22  40  59  81 113 148 181 224 280 337
#     4   9  19  35  55  80 110 148 189 230 278 330
#     4  10  21  39  62  84 109 144 183 228 285 342
#     4   9  18  34  55  80 112 147 185 229 278 334
#     4  10  20  34  56  85 115 146 183 227 276 330
#     4  12  26  41  58  80 109 145 188 235 282 334
#     4  10  21  37  57  82 115 151 187 229 279 331
#
# _framework density 18.597079000000001
#
# number of rings (size 3 to 8) (size 9 to 14) (size 15 to 20)
#    0.000    2.000    0.000    4.125    1.750    7.500 
#    0.000    0.625    0.000    2.250    0.000    0.000 
#    0.000    0.000    0.000    0.000    0.000    0.000 
#
# Total GULP energy -793780.267490 kJ/mol
# GULP energy per Si atom -12402.816680 kJ/mol
# Density = 1.855475 g / cm^3
# Si number density = 18.597079 Si / 1000 Ang^3
#
#
#
# Elastic Constant Matrix: (Units=GPa)
#
#
# Indices 1 2 3 4 5 6 
#
# 1 112.6210 58.8802 84.7024 0.0000 0.0000 0.0000
# 2 58.8802 87.6050 57.7307 0.0000 0.0000 0.0000
# 3 84.7024 57.7307 127.0443 0.0000 0.0000 0.0000
# 4 0.0000 0.0000 0.0000 34.7623 0.0000 0.0000
# 5 0.0000 0.0000 0.0000 0.0000 27.5337 0.0000
# 6 0.0000 0.0000 0.0000 0.0000 0.0000 32.8092
#
#
#
# Elastic Compliance Matrix: (Units=1/GPa)
#
#
# Indices 1 2 3 4 5 6 
#
# 1 0.020254 -0.006729 -0.010446 0.000000 0.000000 0.000000
# 2 -0.006729 0.018530 -0.003934 0.000000 0.000000 0.000000
# 3 -0.010446 -0.003934 0.016623 0.000000 0.000000 0.000000
# 4 0.000000 0.000000 0.000000 0.028767 0.000000 0.000000
# 5 0.000000 0.000000 0.000000 0.000000 0.036319 0.000000
# 6 0.000000 0.000000 0.000000 0.000000 0.000000 0.030479
#
#
# Mechanical properties :
#
#
# Convention : Reuss Voigt Hill
#
# Bulk Modulus (GPa) = 75.81773 81.09964 78.45868
# Shear Modulus (GPa) = 25.30551 27.41816 26.36184
#
# Velocity S-wave (km/s) = 3.69280 3.84386 3.76909
# Velocity P-wave (km/s) = 7.68372 7.96265 7.82443
#
# Compressibility (1/GPa) = 0.01318953
#
# Stress axis : x y z
#
# Youngs Moduli (GPa) = 49.37405 53.96663 60.15737
#
# Poissons Ratio (x) = 0.36315 0.62838
# Poissons Ratio (y) = 0.33225 0.23665
# Poissons Ratio (z) = 0.51574 0.21230
#
# Static dielectric constant tensor:
#      x y z
#    x 3.578580 0.000000 0.000000 
#    y 0.000000 3.528620 0.000000 
#    z 0.000000 0.000000 3.379720 
# 
# 
# High freq. dielectric constant tensor:
#      x y z
#    x 1.730950 0.000000 0.000000 
#    y 0.000000 1.729950 0.000000 
#    z 0.000000 0.000000 1.713860 
# 
# From -- ./inp_files/30695.got.cif
#   From: 2010.03.12/outbox.cif.g09.slc.cpg/sg59_16_cif.got.tgz:30695.got - 2010.04.16 16:29:54.
