data_PCOD8243729
_publ_section_title
;
Structure prediction by ZEFSAII (Michael W. Deem and Ramdas Pophale) SiO2 
 PCOD8243729
Probable space group: P M M N
;
_chemical_formula_sum "Si O2"
_cell_formula_units_Z 64
_cell_length_a 13.963420
_cell_length_b 23.747451
_cell_length_c 10.034627
_cell_angle_alpha 90.000000
_cell_angle_beta 90.000000
_cell_angle_gamma 90.000000
_cell_volume 3327.438484
_symmetry_space_group_name_H-M "P M M N"
_symmetry_group_IT_number 59
_space_group.IT_coordinate_system_code '2'
_symmetry_cell_setting 'orthorhombic'
loop_
_space_group_symop_operation_xyz
x,y,z
1/2-x,1/2-y,z
1/2+x,-y,-z
-x,1/2+y,-z
-x,-y,-z
1/2+x,1/2+y,-z
1/2-x,y,z
x,1/2-y,z
loop_
_atom_site_type_symbol
_atom_site_label
_atom_site_fract_x
_atom_site_fract_y
_atom_site_fract_z
Si Si1 0.359012 0.362969 0.863722
Si Si2 0.362470 0.683632 0.500358
Si Si3 0.502720 0.498531 0.656724
Si Si4 0.948326 0.120623 0.741749
Si Si5 0.643401 0.513221 0.128180
Si Si6 0.854924 0.814450 0.862221
Si Si7 0.018549 0.877357 0.727804
Si Si8 0.136919 0.900117 0.980954
O O1 0.250000 0.353027 0.807472
O O2 0.438726 0.360227 0.745985
O O3 0.366557 0.424796 0.933885
O O4 0.385540 0.320698 0.982593
O O5 0.250000 0.672399 0.524800
O O6 0.385598 0.750000 0.515331
O O7 0.390715 0.662760 0.352903
O O8 0.426083 0.646067 0.599349
O O9 0.500000 0.500000 0.500000
O O10 0.568823 0.445177 0.700134
O O11 0.400511 0.487166 0.723896
O O12 0.529941 0.561099 0.706468
O O13 0.908013 0.128681 0.890044
O O14 0.750000 0.494607 0.159229
O O15 0.604335 0.466453 0.023912
O O16 0.750000 0.842650 0.843983
O O17 0.849365 0.750000 0.826540
O O18 0.927629 0.839444 0.756876
O O19 0.093797 0.872249 0.848399
O O20 0.250000 0.890311 0.984203
#
# Coordination Sequence:
#
# PCOD8243729 Si02
#       8
#     8   8   8   8   8   8   8   8
#     4   9  18  34  57  84 116 153 190 231 290 356
#     4  11  25  44  63  84 118 164 204 242 298 359
#     4  10  20  35  56  84 118 153 190 233 295 358
#     4  11  21  38  60  89 124 154 191 252 299 350
#     4   8  17  31  52  79 114 151 186 227 283 349
#     4  10  21  37  58  86 117 150 194 246 296 346
#     4  11  21  40  64  85 118 158 199 246 295 358
#     4  10  20  34  57  91 121 151 194 244 296 350
#
# _framework density 19.234013999999998
#
# number of rings (size 3 to 8) (size 9 to 14) (size 15 to 20)
#    0.000    2.000    2.500    1.125    1.750    2.500 
#    0.000    1.875    0.000    3.000    0.000    0.000 
#    0.000    0.000    0.000    0.000    0.000    0.000 
#
# Total GULP energy -792928.324024 kJ/mol
# GULP energy per Si atom -12389.505063 kJ/mol
# Density = 1.919024 g / cm^3
# Si number density = 19.234014 Si / 1000 Ang^3
#
#
#
# Elastic Constant Matrix: (Units=GPa)
#
#
# Indices 1 2 3 4 5 6 
#
# 1 79.5187 33.9832 22.2004 0.0000 0.0000 0.0000
# 2 33.9832 71.3652 19.4029 0.0000 0.0000 0.0000
# 3 22.2004 19.4029 87.7578 0.0000 0.0000 0.0000
# 4 0.0000 0.0000 0.0000 25.9024 0.0000 0.0000
# 5 0.0000 0.0000 0.0000 0.0000 27.9569 0.0000
# 6 0.0000 0.0000 0.0000 0.0000 0.0000 27.0148
#
#
#
# Elastic Compliance Matrix: (Units=1/GPa)
#
#
# Indices 1 2 3 4 5 6 
#
# 1 0.016313 -0.007071 -0.002563 0.000000 0.000000 0.000000
# 2 -0.007071 0.017974 -0.002185 0.000000 0.000000 0.000000
# 3 -0.002563 -0.002185 0.012527 0.000000 0.000000 0.000000
# 4 0.000000 0.000000 0.000000 0.038606 0.000000 0.000000
# 5 0.000000 0.000000 0.000000 0.000000 0.035769 0.000000
# 6 0.000000 0.000000 0.000000 0.000000 0.000000 0.037017
#
#
# Mechanical properties :
#
#
# Convention : Reuss Voigt Hill
#
# Bulk Modulus (GPa) = 43.15151 43.31275 43.23213
# Shear Modulus (GPa) = 26.37544 27.04518 26.71031
#
# Velocity S-wave (km/s) = 3.70711 3.75388 3.73057
# Velocity P-wave (km/s) = 6.38806 6.43091 6.40952
#
# Compressibility (1/GPa) = 0.02317416
#
# Stress axis : x y z
#
# Youngs Moduli (GPa) = 61.29969 55.63669 79.83024
#
# Poissons Ratio (x) = 0.39342 0.20464
# Poissons Ratio (y) = 0.43347 0.17444
# Poissons Ratio (z) = 0.15714 0.12157
#
# Static dielectric constant tensor:
#      x y z
#    x 3.696660 0.000000 0.000000 
#    y 0.000000 3.739110 0.000000 
#    z 0.000000 0.000000 3.320560 
# 
# 
# High freq. dielectric constant tensor:
#      x y z
#    x 1.748920 0.000000 0.000000 
#    y 0.000000 1.748510 0.000000 
#    z 0.000000 0.000000 1.732630 
# 
# From -- ./inp_files/9614.got.cif
#   From: 2010.03.12/outbox.cif.g09.slc.cpg/sg59_5_cif.got.tgz:9614.got - 2010.04.16 16:29:54.
