data_PCOD8243188
_publ_section_title
;
Structure prediction by ZEFSAII (Michael W. Deem and Ramdas Pophale) SiO2 
 PCOD8243188
Probable space group: P M M N
;
_chemical_formula_sum "Si O2"
_cell_formula_units_Z 64
_cell_length_a 9.469457
_cell_length_b 22.052045
_cell_length_c 15.972071
_cell_angle_alpha 90.000000
_cell_angle_beta 90.000000
_cell_angle_gamma 90.000000
_cell_volume 3335.302112
_symmetry_space_group_name_H-M "P M M N"
_symmetry_group_IT_number 59
_space_group.IT_coordinate_system_code '2'
_symmetry_cell_setting 'orthorhombic'
loop_
_space_group_symop_operation_xyz
x,y,z
1/2-x,1/2-y,z
1/2+x,-y,-z
-x,1/2+y,-z
-x,-y,-z
1/2+x,1/2+y,-z
1/2-x,y,z
x,1/2-y,z
loop_
_atom_site_type_symbol
_atom_site_label
_atom_site_fract_x
_atom_site_fract_y
_atom_site_fract_z
Si Si1 0.593995 0.915318 0.494112
Si Si2 0.906319 0.316924 0.673647
Si Si3 0.408917 0.997881 0.784367
Si Si4 0.592276 0.481085 0.627660
Si Si5 0.085547 0.945238 0.956349
Si Si6 0.907997 0.315902 0.477500
Si Si7 0.085413 0.681150 0.040572
Si Si8 0.411130 0.133875 0.809815
O O1 0.750000 0.895214 0.464523
O O2 0.498615 0.925259 0.410259
O O3 0.522415 0.864377 0.554116
O O4 0.605231 0.973380 0.551325
O O5 0.750000 0.343453 0.690791
O O6 0.919104 0.250000 0.713421
O O7 0.934385 0.310951 0.575830
O O8 0.021338 0.359608 0.717696
O O9 0.250000 0.990234 0.748305
O O10 0.440811 0.948375 0.856140
O O11 0.517443 0.989331 0.708069
O O12 0.423376 0.062745 0.830780
O O13 0.750000 0.459016 0.652619
O O14 0.250000 0.956226 0.977778
O O15 0.040234 0.875954 0.981184
O O16 0.000000 0.000000 0.000000
O O17 0.750000 0.338579 0.456382
O O18 0.933680 0.250000 0.435891
O O19 0.250000 0.675435 0.062302
O O20 0.055265 0.750000 0.003703
O O21 0.997425 0.674457 0.125284
O O22 0.250000 0.156375 0.809479
#
# Coordination Sequence:
#
# PCOD8243188 Si02
#       8
#     8   8   8   8   8   8   8   8
#     4  10  20  34  52  76 107 138 174 220 270 321
#     4   9  18  31  44  62  94 134 173 210 251 306
#     4  10  21  35  52  77 106 135 173 221 271 318
#     4  10  21  35  53  78 105 139 178 217 268 325
#     4  10  20  37  58  80 108 140 178 224 270 318
#     4   9  18  32  50  72  98 133 177 218 259 316
#     4  10  21  36  55  78 104 139 179 216 263 323
#     4  11  21  31  46  72 104 134 170 214 259 311
#
# _framework density 19.188666000000001
#
# number of rings (size 3 to 8) (size 9 to 14) (size 15 to 20)
#    0.000    2.125    1.250    3.000    0.000    7.750 
#    0.000    1.250    0.000    0.750    0.000    1.750 
#    0.000    0.000    0.000    0.000    0.000    0.000 
#
# Total GULP energy -793049.791648 kJ/mol
# GULP energy per Si atom -12391.402995 kJ/mol
# Density = 1.914499 g / cm^3
# Si number density = 19.188666 Si / 1000 Ang^3
#
#
#
# Elastic Constant Matrix: (Units=GPa)
#
#
# Indices 1 2 3 4 5 6 
#
# 1 103.5760 25.3452 15.9384 0.0000 0.0000 0.0000
# 2 25.3452 79.7479 5.2130 0.0000 0.0000 0.0000
# 3 15.9384 5.2130 41.3690 0.0000 0.0000 0.0000
# 4 0.0000 0.0000 0.0000 15.5238 0.0000 0.0000
# 5 0.0000 0.0000 0.0000 0.0000 24.9172 0.0000
# 6 0.0000 0.0000 0.0000 0.0000 0.0000 25.9114
#
#
#
# Elastic Compliance Matrix: (Units=1/GPa)
#
#
# Indices 1 2 3 4 5 6 
#
# 1 0.011044 -0.003259 -0.003844 0.000000 0.000000 0.000000
# 2 -0.003259 0.013605 -0.000459 0.000000 0.000000 0.000000
# 3 -0.003844 -0.000459 0.025712 0.000000 0.000000 0.000000
# 4 0.000000 0.000000 0.000000 0.064417 0.000000 0.000000
# 5 0.000000 0.000000 0.000000 0.000000 0.040133 0.000000
# 6 0.000000 0.000000 0.000000 0.000000 0.000000 0.038593
#
#
# Mechanical properties :
#
#
# Convention : Reuss Voigt Hill
#
# Bulk Modulus (GPa) = 28.37934 35.29845 31.83890
# Shear Modulus (GPa) = 22.68883 25.15024 23.91954
#
# Velocity S-wave (km/s) = 3.44235 3.62426 3.53447
# Velocity P-wave (km/s) = 5.53366 5.99576 5.76934
#
# Compressibility (1/GPa) = 0.03523690
#
# Stress axis : x y z
#
# Youngs Moduli (GPa) = 90.54947 73.50154 38.89294
#
# Poissons Ratio (x) = 0.23951 0.14951
# Poissons Ratio (y) = 0.29506 0.01785
# Poissons Ratio (z) = 0.34809 0.03373
#
# Static dielectric constant tensor:
#      x y z
#    x 3.730290 0.000000 0.000000 
#    y 0.000000 4.355980 0.000000 
#    z 0.000000 0.000000 3.107800 
# 
# 
# High freq. dielectric constant tensor:
#      x y z
#    x 1.751050 0.000000 0.000000 
#    y 0.000000 1.753200 0.000000 
#    z 0.000000 0.000000 1.706460 
# 
# From -- ./inp_files/26544.got.cif
#   From: 2010.03.12/outbox.cif.g09.slc.cpg/sg59_14_cif.got.tgz:26544.got - 2010.04.16 16:29:54.
