data_PCOD8243374
_publ_section_title
;
Structure prediction by ZEFSAII (Michael W. Deem and Ramdas Pophale) SiO2 
 PCOD8243374
Probable space group: P M M N
;
_chemical_formula_sum "Si O2"
_cell_formula_units_Z 56
_cell_length_a 8.681459
_cell_length_b 20.690704
_cell_length_c 16.009834
_cell_angle_alpha 90.000000
_cell_angle_beta 90.000000
_cell_angle_gamma 90.000000
_cell_volume 2875.774412
_symmetry_space_group_name_H-M "P M M N"
_symmetry_group_IT_number 59
_space_group.IT_coordinate_system_code '2'
_symmetry_cell_setting 'orthorhombic'
loop_
_space_group_symop_operation_xyz
x,y,z
1/2-x,1/2-y,z
1/2+x,-y,-z
-x,1/2+y,-z
-x,-y,-z
1/2+x,1/2+y,-z
1/2-x,y,z
x,1/2-y,z
loop_
_atom_site_type_symbol
_atom_site_label
_atom_site_fract_x
_atom_site_fract_y
_atom_site_fract_z
Si Si1 0.071888 0.382544 0.179801
Si Si2 0.432466 0.750000 0.616171
Si Si3 0.926385 0.952910 0.654158
Si Si4 0.431485 0.873531 0.517639
Si Si5 0.067842 0.324189 0.647747
Si Si6 0.569526 0.501256 0.091234
Si Si7 0.933511 0.250000 0.195059
Si Si8 0.067344 0.924982 0.238797
O O1 0.250000 0.390550 0.153207
O O2 0.052346 0.394944 0.278927
O O3 0.966400 0.432500 0.131281
O O4 0.007808 0.312822 0.152860
O O5 0.250000 0.750000 0.614997
O O6 0.496130 0.812565 0.568961
O O7 0.492080 0.750000 0.709979
O O8 0.750000 0.960527 0.627009
O O9 0.022108 0.937443 0.569995
O O10 0.985882 0.019339 0.695843
O O11 0.250000 0.872843 0.504182
O O12 0.509376 0.869588 0.427428
O O13 0.250000 0.325307 0.651080
O O14 0.007569 0.250000 0.640031
O O15 0.000951 0.356157 0.732195
O O16 0.750000 0.513243 0.086560
O O17 0.495639 0.558577 0.146712
O O18 0.500000 0.500000 0.000000
O O19 0.750000 0.250000 0.185307
O O20 0.250000 0.921673 0.233670
#
# Coordination Sequence:
#
# PCOD8243374 Si02
#       8
#     8   4   8   8   8   8   4   8
#     4  10  20  34  53  83 119 156 194 233 282 342
#     4   9  18  29  45  75 110 147 198 243 281 329
#     4   9  19  34  52  79 114 149 190 238 287 340
#     4  11  20  33  53  78 110 153 201 247 288 334
#     4  11  24  40  58  82 112 151 199 247 293 344
#     4  11  22  40  67  94 119 148 184 230 283 346
#     4  11  19  31  51  81 118 157 196 239 289 345
#     4  10  22  41  63  88 116 149 189 236 291 349
#
# _framework density 19.473015
#
# number of rings (size 3 to 8) (size 9 to 14) (size 15 to 20)
#    0.000    1.714    2.143    4.071    0.000    4.286 
#    0.000    0.000    1.571    0.000    0.000    0.000 
#    0.000    0.000    0.000    0.000    0.000    0.000 
#
# Total GULP energy -694444.232844 kJ/mol
# GULP energy per Si atom -12400.789872 kJ/mol
# Density = 1.942869 g / cm^3
# Si number density = 19.473015 Si / 1000 Ang^3
#
#
#
# Elastic Constant Matrix: (Units=GPa)
#
#
# Indices 1 2 3 4 5 6 
#
# 1 96.1235 32.7289 41.0966 0.0000 0.0000 0.0000
# 2 32.7289 65.2746 37.8098 0.0000 0.0000 0.0000
# 3 41.0966 37.8098 111.7334 0.0000 0.0000 0.0000
# 4 0.0000 0.0000 0.0000 17.8081 0.0000 0.0000
# 5 0.0000 0.0000 0.0000 0.0000 32.4374 0.0000
# 6 0.0000 0.0000 0.0000 0.0000 0.0000 30.7351
#
#
#
# Elastic Compliance Matrix: (Units=1/GPa)
#
#
# Indices 1 2 3 4 5 6 
#
# 1 0.013467 -0.004830 -0.003319 0.000000 0.000000 0.000000
# 2 -0.004830 0.020787 -0.005258 0.000000 0.000000 0.000000
# 3 -0.003319 -0.005258 0.011950 0.000000 0.000000 0.000000
# 4 0.000000 0.000000 0.000000 0.056154 0.000000 0.000000
# 5 0.000000 0.000000 0.000000 0.000000 0.030829 0.000000
# 6 0.000000 0.000000 0.000000 0.000000 0.000000 0.032536
#
#
# Mechanical properties :
#
#
# Convention : Reuss Voigt Hill
#
# Bulk Modulus (GPa) = 51.57096 55.15581 53.36339
# Shear Modulus (GPa) = 25.12576 26.96253 26.04415
#
# Velocity S-wave (km/s) = 3.59595 3.72507 3.66108
# Velocity P-wave (km/s) = 6.61679 6.84743 6.73310
#
# Compressibility (1/GPa) = 0.01939076
#
# Stress axis : x y z
#
# Youngs Moduli (GPa) = 74.25721 48.10672 83.68381
#
# Poissons Ratio (x) = 0.23235 0.27773
# Poissons Ratio (y) = 0.35865 0.43999
# Poissons Ratio (z) = 0.24644 0.25293
#
# Static dielectric constant tensor:
#      x y z
#    x 3.439870 0.000000 0.000000 
#    y 0.000000 3.639310 0.000000 
#    z 0.000000 0.000000 3.430160 
# 
# 
# High freq. dielectric constant tensor:
#      x y z
#    x 1.761380 0.000000 0.000000 
#    y 0.000000 1.756770 0.000000 
#    z 0.000000 0.000000 1.737350 
# 
# From -- ./inp_files/21144.got.cif
#   From: 2010.03.12/outbox.cif.g09.slc.cpg/sg59_11_cif.got.tgz:21144.got - 2010.04.16 16:29:54.
