data_PCOD8243266
_publ_section_title
;
Structure prediction by ZEFSAII (Michael W. Deem and Ramdas Pophale) SiO2 
 PCOD8243266
Probable space group: P M M N
;
_chemical_formula_sum "Si O2"
_cell_formula_units_Z 64
_cell_length_a 13.974825
_cell_length_b 9.108761
_cell_length_c 27.563308
_cell_angle_alpha 90.000000
_cell_angle_beta 90.000000
_cell_angle_gamma 90.000000
_cell_volume 3508.625563
_symmetry_space_group_name_H-M "P M M N"
_symmetry_group_IT_number 59
_space_group.IT_coordinate_system_code '2'
_symmetry_cell_setting 'orthorhombic'
loop_
_space_group_symop_operation_xyz
x,y,z
1/2-x,1/2-y,z
1/2+x,-y,-z
-x,1/2+y,-z
-x,-y,-z
1/2+x,1/2+y,-z
1/2-x,y,z
x,1/2-y,z
loop_
_atom_site_type_symbol
_atom_site_label
_atom_site_fract_x
_atom_site_fract_y
_atom_site_fract_z
Si Si1 0.970443 0.421058 0.074700
Si Si2 0.359908 0.079915 0.735586
Si Si3 0.640922 0.918745 0.994339
Si Si4 0.508408 0.578917 0.174397
Si Si5 0.640335 0.579617 0.764112
Si Si6 0.859949 0.079838 0.485606
Si Si7 0.491108 0.078620 0.325784
Si Si8 0.509231 0.421220 0.575730
O O1 0.953911 0.250000 0.083675
O O2 0.074948 0.453971 0.052101
O O3 0.959686 0.504282 0.124960
O O4 0.887915 0.478799 0.039085
O O5 0.250000 0.032668 0.739235
O O6 0.371911 0.250000 0.721815
O O7 0.408048 0.045615 0.787172
O O8 0.408418 0.984998 0.693304
O O9 0.750000 0.952234 0.979371
O O10 0.627156 0.750000 0.010474
O O11 0.493372 0.750000 0.165398
O O12 0.408670 0.512254 0.193122
O O13 0.750000 0.531033 0.760669
O O14 0.629099 0.750000 0.777382
O O15 0.592226 0.543996 0.712610
O O16 0.750000 0.032894 0.488778
O O17 0.872555 0.250000 0.472046
O O18 0.907172 0.045047 0.537407
O O19 0.908887 0.984852 0.443524
O O20 0.503934 0.250000 0.335392
O O21 0.459856 0.000267 0.375060
O O22 0.496070 0.250000 0.585599
#
# Coordination Sequence:
#
# PCOD8243266 Si02
#       8
#     8   8   8   8   8   8   8   8
#     4  10  20  34  53  78 106 136 171 212 258 307
#     4   9  19  36  55  74  99 133 172 212 253 299
#     4   9  19  36  55  74 100 136 175 214 257 304
#     4  10  20  34  53  78 106 136 171 211 256 306
#     4   9  19  36  55  75 102 136 173 213 256 302
#     4   9  19  36  55  75 101 133 170 211 252 295
#     4  10  20  34  53  77 104 134 168 208 254 303
#     4  10  20  34  53  77 104 134 168 207 252 302
#
# _framework density 18.240760000000002
#
# number of rings (size 3 to 8) (size 9 to 14) (size 15 to 20)
#    0.000    2.500    0.000    1.500    0.000    5.000 
#    0.000    2.500    0.000    0.000    0.000    0.000 
#    0.000    0.000    0.000    0.000    0.000    0.000 
#
# Total GULP energy -793867.507170 kJ/mol
# GULP energy per Si atom -12404.179800 kJ/mol
# Density = 1.819924 g / cm^3
# Si number density = 18.240760 Si / 1000 Ang^3
#
#
#
# Elastic Constant Matrix: (Units=GPa)
#
#
# Indices 1 2 3 4 5 6 
#
# 1 80.8962 11.1699 -12.4697 0.0000 0.0000 0.0000
# 2 11.1699 64.5798 22.4385 0.0000 0.0000 0.0000
# 3 -12.4697 22.4385 52.2951 0.0000 0.0000 0.0000
# 4 0.0000 0.0000 0.0000 38.9515 0.0000 0.0000
# 5 0.0000 0.0000 0.0000 0.0000 13.5841 0.0000
# 6 0.0000 0.0000 0.0000 0.0000 0.0000 28.3120
#
#
#
# Elastic Compliance Matrix: (Units=1/GPa)
#
#
# Indices 1 2 3 4 5 6 
#
# 1 0.013707 -0.004121 0.005036 0.000000 0.000000 0.000000
# 2 -0.004121 0.019437 -0.009322 0.000000 0.000000 0.000000
# 3 0.005036 -0.009322 0.024323 0.000000 0.000000 0.000000
# 4 0.000000 0.000000 0.000000 0.025673 0.000000 0.000000
# 5 0.000000 0.000000 0.000000 0.000000 0.073616 0.000000
# 6 0.000000 0.000000 0.000000 0.000000 0.000000 0.035321
#
#
# Mechanical properties :
#
#
# Convention : Reuss Voigt Hill
#
# Bulk Modulus (GPa) = 24.59819 26.67208 25.63513
# Shear Modulus (GPa) = 22.47797 27.94502 25.21149
#
# Velocity S-wave (km/s) = 3.51421 3.91834 3.72176
# Velocity P-wave (km/s) = 5.47547 5.92665 5.70552
#
# Compressibility (1/GPa) = 0.04065339
#
# Stress axis : x y z
#
# Youngs Moduli (GPa) = 72.95630 51.44957 41.11313
#
# Poissons Ratio (x) = 0.21201 -0.20706
# Poissons Ratio (y) = 0.30063 0.38327
# Poissons Ratio (z) = -0.36744 0.47963
#
# Static dielectric constant tensor:
#      x y z
#    x 3.378050 0.000000 0.000000 
#    y 0.000000 3.423350 0.000000 
#    z 0.000000 0.000000 3.310130 
# 
# 
# High freq. dielectric constant tensor:
#      x y z
#    x 1.705030 0.000000 0.000000 
#    y 0.000000 1.713940 0.000000 
#    z 0.000000 0.000000 1.706670 
# 
# From -- ./inp_files/32157.got.cif
#   From: 2010.03.12/outbox.cif.g09.slc.cpg/sg59_17_cif.got.tgz:32157.got - 2010.04.16 16:29:54.
