data_PCOD8243667
_publ_section_title
;
Structure prediction by ZEFSAII (Michael W. Deem and Ramdas Pophale) SiO2 
 PCOD8243667
Probable space group: P M M N
;
_chemical_formula_sum "Si O2"
_cell_formula_units_Z 56
_cell_length_a 14.010220
_cell_length_b 17.965208
_cell_length_c 11.638933
_cell_angle_alpha 90.000000
_cell_angle_beta 90.000000
_cell_angle_gamma 90.000000
_cell_volume 2929.478891
_symmetry_space_group_name_H-M "P M M N"
_symmetry_group_IT_number 59
_space_group.IT_coordinate_system_code '2'
_symmetry_cell_setting 'orthorhombic'
loop_
_space_group_symop_operation_xyz
x,y,z
1/2-x,1/2-y,z
1/2+x,-y,-z
-x,1/2+y,-z
-x,-y,-z
1/2+x,1/2+y,-z
1/2-x,y,z
x,1/2-y,z
loop_
_atom_site_type_symbol
_atom_site_label
_atom_site_fract_x
_atom_site_fract_y
_atom_site_fract_z
Si Si1 0.361463 0.597118 0.896356
Si Si2 0.638555 0.168749 0.343414
Si Si3 0.362873 0.514085 0.566968
Si Si4 0.358644 0.332996 0.169167
Si Si5 0.038884 0.460734 0.786411
Si Si6 0.640067 0.972716 0.688053
Si Si7 0.989478 0.836458 0.045112
O O1 0.250000 0.583036 0.916247
O O2 0.381676 0.652442 0.790185
O O3 0.412541 0.518583 0.873744
O O4 0.404822 0.635580 0.009893
O O5 0.750000 0.174022 0.366877
O O6 0.592594 0.250000 0.374579
O O7 0.598125 0.099439 0.418552
O O8 0.250000 0.512422 0.586323
O O9 0.408413 0.461345 0.663689
O O10 0.392976 0.482675 0.443555
O O11 0.250000 0.338348 0.126762
O O12 0.384605 0.250000 0.211306
O O13 0.376425 0.386600 0.277937
O O14 0.421546 0.356915 0.061239
O O15 0.926353 0.477661 0.769622
O O16 0.047062 0.379196 0.841824
O O17 0.750000 0.997672 0.704980
O O18 0.989199 0.750000 0.076166
#
# Coordination Sequence:
#
# PCOD8243667 Si02
#       7
#     8   8   8   8   8   8   8
#     4  10  20  34  56  83 111 145 187 234 283 334
#     4   8  14  27  48  75 106 138 176 224 275 325
#     4   9  19  35  56  82 110 145 189 236 282 337
#     4   9  19  36  57  81 109 143 187 237 282 330
#     4  11  21  37  56  83 111 149 184 234 281 339
#     4  10  20  36  58  81 109 147 190 236 285 336
#     4  11  23  38  55  81 117 152 187 227 283 341
#
# _framework density 19.116028
#
# number of rings (size 3 to 8) (size 9 to 14) (size 15 to 20)
#    0.000    2.286    1.429    2.571    0.000    2.571 
#    0.000    1.429    0.000    1.714    0.000    0.000 
#    0.000    0.000    0.000    0.000    0.000    0.000 
#
# Total GULP energy -694272.366714 kJ/mol
# GULP energy per Si atom -12397.720834 kJ/mol
# Density = 1.907252 g / cm^3
# Si number density = 19.116028 Si / 1000 Ang^3
#
#
#
# Elastic Constant Matrix: (Units=GPa)
#
#
# Indices 1 2 3 4 5 6 
#
# 1 66.4110 49.7214 41.6099 0.0000 0.0000 0.0000
# 2 49.7214 137.2374 88.3150 0.0000 0.0000 0.0000
# 3 41.6099 88.3150 94.4303 0.0000 0.0000 0.0000
# 4 0.0000 0.0000 0.0000 28.8334 0.0000 0.0000
# 5 0.0000 0.0000 0.0000 0.0000 25.6255 0.0000
# 6 0.0000 0.0000 0.0000 0.0000 0.0000 19.3200
#
#
#
# Elastic Compliance Matrix: (Units=1/GPa)
#
#
# Indices 1 2 3 4 5 6 
#
# 1 0.021768 -0.004305 -0.005566 0.000000 0.000000 0.000000
# 2 -0.004305 0.019152 -0.016015 0.000000 0.000000 0.000000
# 3 -0.005566 -0.016015 0.028020 0.000000 0.000000 0.000000
# 4 0.000000 0.000000 0.000000 0.034682 0.000000 0.000000
# 5 0.000000 0.000000 0.000000 0.000000 0.039024 0.000000
# 6 0.000000 0.000000 0.000000 0.000000 0.000000 0.051760
#
#
# Mechanical properties :
#
#
# Convention : Reuss Voigt Hill
#
# Bulk Modulus (GPa) = 58.24418 73.04124 65.64271
# Shear Modulus (GPa) = 19.84907 22.65127 21.25017
#
# Velocity S-wave (km/s) = 3.22583 3.44602 3.33775
# Velocity P-wave (km/s) = 6.66405 7.35703 7.01910
#
# Compressibility (1/GPa) = 0.01716910
#
# Stress axis : x y z
#
# Youngs Moduli (GPa) = 45.93890 52.21273 35.68834
#
# Poissons Ratio (x) = 0.22477 0.19863
# Poissons Ratio (y) = 0.19776 0.57156
# Poissons Ratio (z) = 0.25568 0.83620
#
# Static dielectric constant tensor:
#      x y z
#    x 3.645220 0.000000 0.000000 
#    y 0.000000 3.599510 0.000000 
#    z 0.000000 0.000000 3.301660 
# 
# 
# High freq. dielectric constant tensor:
#      x y z
#    x 1.753830 0.000000 0.000000 
#    y 0.000000 1.734830 0.000000 
#    z 0.000000 0.000000 1.717670 
# 
# From -- ./inp_files/16958.got.cif
#   From: 2010.03.12/outbox.cif.g09.slc.cpg/sg59_9_cif.got.tgz:16958.got - 2010.04.16 16:29:54.
