data_PCOD8243175
_publ_section_title
;
Structure prediction by ZEFSAII (Michael W. Deem and Ramdas Pophale) SiO2 
 PCOD8243175
Probable space group: P M M N
;
_chemical_formula_sum "Si O2"
_cell_formula_units_Z 64
_cell_length_a 8.617570
_cell_length_b 23.079378
_cell_length_c 16.158842
_cell_angle_alpha 90.000000
_cell_angle_beta 90.000000
_cell_angle_gamma 90.000000
_cell_volume 3213.802280
_symmetry_space_group_name_H-M "P M M N"
_symmetry_group_IT_number 59
_space_group.IT_coordinate_system_code '2'
_symmetry_cell_setting 'orthorhombic'
loop_
_space_group_symop_operation_xyz
x,y,z
1/2-x,1/2-y,z
1/2+x,-y,-z
-x,1/2+y,-z
-x,-y,-z
1/2+x,1/2+y,-z
1/2-x,y,z
x,1/2-y,z
loop_
_atom_site_type_symbol
_atom_site_label
_atom_site_fract_x
_atom_site_fract_y
_atom_site_fract_z
Si Si1 0.567140 0.536249 0.606898
Si Si2 0.434387 0.816577 0.325257
Si Si3 0.928813 0.315175 0.165347
Si Si4 0.929395 0.575953 0.784713
Si Si5 0.566392 0.411662 0.546664
Si Si6 0.924710 0.815739 0.006202
Si Si7 0.068026 0.494448 0.908068
Si Si8 0.933226 0.119038 0.842369
O O1 0.750000 0.540974 0.596519
O O2 0.513249 0.547987 0.699699
O O3 0.506129 0.471474 0.587998
O O4 0.493557 0.585836 0.547615
O O5 0.250000 0.814096 0.326785
O O6 0.499567 0.750000 0.328720
O O7 0.496406 0.855063 0.403237
O O8 0.489298 0.850169 0.242351
O O9 0.750000 0.327320 0.184568
O O10 0.976415 0.250000 0.188102
O O11 0.038030 0.355476 0.221476
O O12 0.959506 0.327371 0.068831
O O13 0.750000 0.562572 0.801847
O O14 0.035248 0.554347 0.860901
O O15 0.750000 0.409513 0.548061
O O16 0.750000 0.833090 0.979232
O O17 0.932583 0.750000 0.036260
O O18 0.975971 0.853386 0.082549
O O19 0.250000 0.480925 0.913926
O O20 0.980072 0.448243 0.848573
O O21 0.000000 0.500000 0.000000
O O22 0.750000 0.126361 0.852786
#
# Coordination Sequence:
#
# PCOD8243175 Si02
#       8
#     8   8   8   8   8   8   8   8
#     4   9  19  35  56  82 110 141 176 220 275 330
#     4   9  18  33  55  83 114 149 187 229 281 340
#     4  10  21  37  56  78 105 138 178 222 267 316
#     4  11  22  38  59  82 110 142 179 222 271 327
#     4   9  17  33  57  82 108 138 178 223 267 324
#     4  10  20  34  52  75 105 142 185 229 272 319
#     4  12  25  40  57  80 113 150 189 233 284 336
#     4  11  21  35  55  79 110 147 189 232 277 333
#
# _framework density 19.914107000000001
#
# number of rings (size 3 to 8) (size 9 to 14) (size 15 to 20)
#    0.000    1.875    0.000    4.500    0.000    5.000 
#    0.000    4.375    0.000    4.125    0.000    0.000 
#    0.000    0.000    0.000    0.000    0.000    0.000 
#
# Total GULP energy -793483.151689 kJ/mol
# GULP energy per Si atom -12398.174245 kJ/mol
# Density = 1.986878 g / cm^3
# Si number density = 19.914107 Si / 1000 Ang^3
#
#
#
# Elastic Constant Matrix: (Units=GPa)
#
#
# Indices 1 2 3 4 5 6 
#
# 1 32.3876 18.7203 20.1531 0.0000 0.0000 0.0000
# 2 18.7203 112.3076 51.3907 0.0000 0.0000 0.0000
# 3 20.1531 51.3907 97.2392 0.0000 0.0000 0.0000
# 4 0.0000 0.0000 0.0000 36.6231 0.0000 0.0000
# 5 0.0000 0.0000 0.0000 0.0000 29.1988 0.0000
# 6 0.0000 0.0000 0.0000 0.0000 0.0000 30.3263
#
#
#
# Elastic Compliance Matrix: (Units=1/GPa)
#
#
# Indices 1 2 3 4 5 6 
#
# 1 0.036435 -0.003453 -0.005726 0.000000 0.000000 0.000000
# 2 -0.003453 0.012072 -0.005664 0.000000 0.000000 0.000000
# 3 -0.005726 -0.005664 0.014464 0.000000 0.000000 0.000000
# 4 0.000000 0.000000 0.000000 0.027305 0.000000 0.000000
# 5 0.000000 0.000000 0.000000 0.000000 0.034248 0.000000
# 6 0.000000 0.000000 0.000000 0.000000 0.000000 0.032975
#
#
# Mechanical properties :
#
#
# Convention : Reuss Voigt Hill
#
# Bulk Modulus (GPa) = 30.04456 46.94027 38.49241
# Shear Modulus (GPa) = 25.21682 29.34099 27.27891
#
# Velocity S-wave (km/s) = 3.56234 3.84262 3.70513
# Velocity P-wave (km/s) = 5.66041 6.58105 6.13801
#
# Compressibility (1/GPa) = 0.03328390
#
# Stress axis : x y z
#
# Youngs Moduli (GPa) = 27.44605 82.83951 69.13610
#
# Poissons Ratio (x) = 0.28604 0.39590
# Poissons Ratio (y) = 0.09477 0.39160
# Poissons Ratio (z) = 0.15717 0.46922
#
# Static dielectric constant tensor:
#      x y z
#    x 3.436570 0.000000 0.000000 
#    y 0.000000 4.132470 0.000000 
#    z 0.000000 0.000000 3.606850 
# 
# 
# High freq. dielectric constant tensor:
#      x y z
#    x 1.763080 0.000000 0.000000 
#    y 0.000000 1.786230 0.000000 
#    z 0.000000 0.000000 1.768270 
# 
# From -- ./inp_files/21575.got.cif
#   From: 2010.03.12/outbox.cif.g09.slc.cpg/sg59_11_cif.got.tgz:21575.got - 2010.04.16 16:29:54.
