data_PCOD8243974
_publ_section_title
;
Structure prediction by ZEFSAII (Michael W. Deem and Ramdas Pophale) SiO2 
 PCOD8243974
Probable space group: P M M N
;
_chemical_formula_sum "Si O2"
_cell_formula_units_Z 56
_cell_length_a 9.237360
_cell_length_b 13.364055
_cell_length_c 23.027063
_cell_angle_alpha 90.000000
_cell_angle_beta 90.000000
_cell_angle_gamma 90.000000
_cell_volume 2842.658392
_symmetry_space_group_name_H-M "P M M N"
_symmetry_group_IT_number 59
_space_group.IT_coordinate_system_code '2'
_symmetry_cell_setting 'orthorhombic'
loop_
_space_group_symop_operation_xyz
x,y,z
1/2-x,1/2-y,z
1/2+x,-y,-z
-x,1/2+y,-z
-x,-y,-z
1/2+x,1/2+y,-z
1/2-x,y,z
x,1/2-y,z
loop_
_atom_site_type_symbol
_atom_site_label
_atom_site_fract_x
_atom_site_fract_y
_atom_site_fract_z
Si Si1 0.580656 0.940568 0.706068
Si Si2 0.580864 0.102080 0.996242
Si Si3 0.082066 0.866063 0.221976
Si Si4 0.585263 0.861626 0.483399
Si Si5 0.914279 0.250000 0.098201
Si Si6 0.407259 0.140291 0.886284
Si Si7 0.920164 0.750000 0.782211
Si Si8 0.080832 0.948467 0.587232
O O1 0.750000 0.929837 0.693203
O O2 0.530106 0.851713 0.749516
O O3 0.495149 0.923204 0.647179
O O4 0.543930 0.053118 0.728268
O O5 0.750000 0.092763 0.982085
O O6 0.503706 0.156754 0.943222
O O7 0.554690 0.154541 0.057772
O O8 0.500000 0.000000 0.000000
O O9 0.250000 0.872207 0.205755
O O10 0.043222 0.750000 0.239738
O O11 0.996586 0.909877 0.166000
O O12 0.750000 0.880633 0.504363
O O13 0.564786 0.750000 0.458547
O O14 0.480356 0.875100 0.538037
O O15 0.545993 0.937275 0.431381
O O16 0.750000 0.250000 0.120523
O O17 0.016129 0.250000 0.153354
O O18 0.250000 0.085606 0.897614
O O19 0.372059 0.250000 0.863100
O O20 0.750000 0.750000 0.790068
O O21 0.250000 0.928253 0.594294
#
# Coordination Sequence:
#
# PCOD8243974 Si02
#       8
#     8   8   8   8   4   8   4   8
#     4  10  22  40  59  83 115 158 203 241 291 353
#     4  11  23  39  59  85 114 149 188 235 295 355
#     4   9  19  36  58  82 111 149 193 245 299 353
#     4   9  19  37  60  85 119 160 194 234 289 347
#     4  10  24  44  62  86 120 152 191 246 301 350
#     4  10  20  35  56  83 112 144 184 231 288 354
#     4  10  24  42  60  82 114 160 207 244 285 348
#     4  10  21  36  57  89 120 151 196 246 291 339
#
# _framework density 19.699869
#
# number of rings (size 3 to 8) (size 9 to 14) (size 15 to 20)
#    0.000    2.143    0.714    1.286    3.000    4.286 
#    0.000    0.000    0.000    0.000    0.000    0.000 
#    0.000    0.000    0.000    0.000    0.000    0.000 
#
# Total GULP energy -694006.756476 kJ/mol
# GULP energy per Si atom -12392.977794 kJ/mol
# Density = 1.965503 g / cm^3
# Si number density = 19.699869 Si / 1000 Ang^3
#
#
#
# Elastic Constant Matrix: (Units=GPa)
#
#
# Indices 1 2 3 4 5 6 
#
# 1 83.8026 30.5212 50.5266 0.0000 0.0000 0.0000
# 2 30.5212 106.9940 26.3509 0.0000 0.0000 0.0000
# 3 50.5266 26.3509 102.2880 0.0000 0.0000 0.0000
# 4 0.0000 0.0000 0.0000 15.7479 0.0000 0.0000
# 5 0.0000 0.0000 0.0000 0.0000 34.7083 0.0000
# 6 0.0000 0.0000 0.0000 0.0000 0.0000 22.0713
#
#
#
# Elastic Compliance Matrix: (Units=1/GPa)
#
#
# Indices 1 2 3 4 5 6 
#
# 1 0.017926 -0.003131 -0.008048 0.000000 0.000000 0.000000
# 2 -0.003131 0.010526 -0.001165 0.000000 0.000000 0.000000
# 3 -0.008048 -0.001165 0.014052 0.000000 0.000000 0.000000
# 4 0.000000 0.000000 0.000000 0.063501 0.000000 0.000000
# 5 0.000000 0.000000 0.000000 0.000000 0.028812 0.000000
# 6 0.000000 0.000000 0.000000 0.000000 0.000000 0.045308
#
#
# Mechanical properties :
#
#
# Convention : Reuss Voigt Hill
#
# Bulk Modulus (GPa) = 56.13146 56.43132 56.28139
# Shear Modulus (GPa) = 23.72471 26.88456 25.30464
#
# Velocity S-wave (km/s) = 3.47408 3.69820 3.58789
# Velocity P-wave (km/s) = 6.68188 6.85152 6.76723
#
# Compressibility (1/GPa) = 0.01781532
#
# Stress axis : x y z
#
# Youngs Moduli (GPa) = 55.78643 94.99840 71.16536
#
# Poissons Ratio (x) = 0.29748 0.57273
# Poissons Ratio (y) = 0.17469 0.08291
# Poissons Ratio (z) = 0.44896 0.11067
#
# Static dielectric constant tensor:
#      x y z
#    x 3.630910 0.000000 0.000000 
#    y 0.000000 3.725200 0.000000 
#    z 0.000000 0.000000 3.528690 
# 
# 
# High freq. dielectric constant tensor:
#      x y z
#    x 1.772790 0.000000 0.000000 
#    y 0.000000 1.772760 0.000000 
#    z 0.000000 0.000000 1.756990 
# 
# From -- ./inp_files/29195.got.cif
#   From: 2010.03.12/outbox.cif.g09.slc.cpg/sg59_15_cif.got.tgz:29195.got - 2010.04.16 16:29:54.
