data_PCOD8243806
_publ_section_title
;
Structure prediction by ZEFSAII (Michael W. Deem and Ramdas Pophale) SiO2 
 PCOD8243806
Probable space group: P M M N
;
_chemical_formula_sum "Si O2"
_cell_formula_units_Z 64
_cell_length_a 24.118776
_cell_length_b 8.516904
_cell_length_c 15.572124
_cell_angle_alpha 90.000000
_cell_angle_beta 90.000000
_cell_angle_gamma 90.000000
_cell_volume 3198.783664
_symmetry_space_group_name_H-M "P M M N"
_symmetry_group_IT_number 59
_space_group.IT_coordinate_system_code '2'
_symmetry_cell_setting 'orthorhombic'
loop_
_space_group_symop_operation_xyz
x,y,z
1/2-x,1/2-y,z
1/2+x,-y,-z
-x,1/2+y,-z
-x,-y,-z
1/2+x,1/2+y,-z
1/2-x,y,z
x,1/2-y,z
loop_
_atom_site_type_symbol
_atom_site_label
_atom_site_fract_x
_atom_site_fract_y
_atom_site_fract_z
Si Si1 0.860677 0.566793 0.406194
Si Si2 0.027023 0.929937 0.580797
Si Si3 0.377617 0.431219 0.273088
Si Si4 0.884066 0.565111 0.215333
Si Si5 0.687776 0.067927 0.568198
Si Si6 0.684476 0.426604 0.879620
Si Si7 0.313398 0.436088 0.942744
Si Si8 0.005336 0.929844 0.250019
O O1 0.876426 0.750000 0.415019
O O2 0.908125 0.446637 0.434386
O O3 0.850818 0.527711 0.304635
O O4 0.813663 0.524596 0.476167
O O5 0.010217 0.750000 0.601138
O O6 0.000000 0.000000 0.500000
O O7 0.005513 0.053110 0.650001
O O8 0.379421 0.250000 0.295953
O O9 0.358146 0.514710 0.361466
O O10 0.333971 0.464088 0.198255
O O11 0.437179 0.480427 0.232381
O O12 0.889401 0.750000 0.205816
O O13 0.848605 0.494808 0.136960
O O14 0.947831 0.498620 0.208959
O O15 0.750000 0.038802 0.605032
O O16 0.677637 0.250000 0.550050
O O17 0.750000 0.432491 0.882806
O O18 0.662474 0.250000 0.864603
O O19 0.661449 0.490612 0.970284
O O20 0.250000 0.488247 0.928282
O O21 0.318286 0.250000 0.949112
O O22 0.013846 0.750000 0.222867
#
# Coordination Sequence:
#
# PCOD8243806 Si02
#       8
#     8   8   8   8   8   8   8   8
#     4  10  20  35  54  78 108 144 185 225 269 321
#     4  11  20  32  50  73 102 137 180 227 272 318
#     4  12  24  38  58  83 109 142 187 234 283 336
#     4   8  17  34  57  84 114 149 186 226 272 323
#     4  11  24  40  56  78 111 149 187 230 283 340
#     4  10  21  38  59  84 113 144 180 224 277 335
#     4   9  17  33  59  88 114 141 178 224 272 324
#     4  10  20  36  55  77 109 147 187 229 275 329
#
# _framework density 20.007604000000001
#
# number of rings (size 3 to 8) (size 9 to 14) (size 15 to 20)
#    0.000    1.875    0.000    5.625    0.000    3.750 
#    0.000    5.625    0.000    1.500    0.000    0.000 
#    0.000    0.000    0.000    0.000    0.000    0.000 
#
# Total GULP energy -792880.530805 kJ/mol
# GULP energy per Si atom -12388.758294 kJ/mol
# Density = 1.996207 g / cm^3
# Si number density = 20.007604 Si / 1000 Ang^3
#
#
#
# Elastic Constant Matrix: (Units=GPa)
#
#
# Indices 1 2 3 4 5 6 
#
# 1 56.4726 21.5946 41.9013 0.0000 0.0000 0.0000
# 2 21.5946 72.3830 24.8011 0.0000 0.0000 0.0000
# 3 41.9013 24.8011 102.6048 0.0000 0.0000 0.0000
# 4 0.0000 0.0000 0.0000 25.8138 0.0000 0.0000
# 5 0.0000 0.0000 0.0000 0.0000 12.2743 0.0000
# 6 0.0000 0.0000 0.0000 0.0000 0.0000 25.7818
#
#
#
# Elastic Compliance Matrix: (Units=1/GPa)
#
#
# Indices 1 2 3 4 5 6 
#
# 1 0.026752 -0.004621 -0.009808 0.000000 0.000000 0.000000
# 2 -0.004621 0.015861 -0.001947 0.000000 0.000000 0.000000
# 3 -0.009808 -0.001947 0.014222 0.000000 0.000000 0.000000
# 4 0.000000 0.000000 0.000000 0.038739 0.000000 0.000000
# 5 0.000000 0.000000 0.000000 0.000000 0.081471 0.000000
# 6 0.000000 0.000000 0.000000 0.000000 0.000000 0.038787
#
#
# Mechanical properties :
#
#
# Convention : Reuss Voigt Hill
#
# Bulk Modulus (GPa) = 41.52125 45.33939 43.43032
# Shear Modulus (GPa) = 19.48477 22.31821 20.90149
#
# Velocity S-wave (km/s) = 3.12407 3.34351 3.23565
# Velocity P-wave (km/s) = 5.81471 6.13316 5.97606
#
# Compressibility (1/GPa) = 0.02408405
#
# Stress axis : x y z
#
# Youngs Moduli (GPa) = 37.38069 63.04790 70.31331
#
# Poissons Ratio (x) = 0.29131 0.68963
# Poissons Ratio (y) = 0.17272 0.13689
# Poissons Ratio (z) = 0.36663 0.12275
#
# Static dielectric constant tensor:
#      x y z
#    x 3.892110 0.000000 0.000000 
#    y 0.000000 3.976570 0.000000 
#    z 0.000000 0.000000 3.688950 
# 
# 
# High freq. dielectric constant tensor:
#      x y z
#    x 1.776790 0.000000 0.000000 
#    y 0.000000 1.772670 0.000000 
#    z 0.000000 0.000000 1.775680 
# 
# From -- ./inp_files/24765.got.cif
#   From: 2010.03.12/outbox.cif.g09.slc.cpg/sg59_13_cif.got.tgz:24765.got - 2010.04.16 16:29:54.
