data_PCOD8243721
_publ_section_title
;
Structure prediction by ZEFSAII (Michael W. Deem and Ramdas Pophale) SiO2 
 PCOD8243721
Probable space group: P M M N
;
_chemical_formula_sum "Si O2"
_cell_formula_units_Z 64
_cell_length_a 18.318343
_cell_length_b 15.973508
_cell_length_c 11.419937
_cell_angle_alpha 90.000000
_cell_angle_beta 90.000000
_cell_angle_gamma 90.000000
_cell_volume 3341.567192
_symmetry_space_group_name_H-M "P M M N"
_symmetry_group_IT_number 59
_space_group.IT_coordinate_system_code '2'
_symmetry_cell_setting 'orthorhombic'
loop_
_space_group_symop_operation_xyz
x,y,z
1/2-x,1/2-y,z
1/2+x,-y,-z
-x,1/2+y,-z
-x,-y,-z
1/2+x,1/2+y,-z
1/2-x,y,z
x,1/2-y,z
loop_
_atom_site_type_symbol
_atom_site_label
_atom_site_fract_x
_atom_site_fract_y
_atom_site_fract_z
Si Si1 0.071595 0.487257 0.154678
Si Si2 0.833352 0.446414 0.639771
Si Si3 0.092556 0.490152 0.890180
Si Si4 0.168049 0.121597 0.482935
Si Si5 0.833370 0.154336 0.206324
Si Si6 0.663891 0.844024 0.254965
Si Si7 0.544549 0.658701 0.680922
Si Si8 0.595833 0.155327 0.443715
O O1 0.123844 0.541579 0.238604
O O2 0.065110 0.393991 0.205275
O O3 0.991431 0.527261 0.142994
O O4 0.108333 0.482592 0.027970
O O5 0.750000 0.419150 0.667569
O O6 0.834426 0.525795 0.555289
O O7 0.877386 0.377658 0.567828
O O8 0.116073 0.584310 0.853812
O O9 0.136649 0.415059 0.832259
O O10 0.250000 0.158148 0.471487
O O11 0.138882 0.130361 0.614815
O O12 0.115100 0.173333 0.399550
O O13 0.750000 0.136207 0.172022
O O14 0.855472 0.250000 0.168416
O O15 0.840820 0.145544 0.346663
O O16 0.750000 0.844168 0.246727
O O17 0.634406 0.750000 0.224746
O O18 0.518206 0.750000 0.725721
O O19 0.479008 0.613421 0.607541
O O20 0.574905 0.250000 0.469612
#
# Coordination Sequence:
#
# PCOD8243721 Si02
#       8
#     8   8   8   8   8   8   8   8
#     4  10  24  39  57  81 111 154 198 235 279 342
#     4  10  21  37  56  81 113 149 185 232 288 345
#     4  11  22  40  59  82 114 154 200 243 285 328
#     4   9  19  34  55  84 116 150 186 225 282 352
#     4  10  20  36  62  91 115 146 191 243 297 348
#     4  10  21  36  57  86 117 149 187 234 284 335
#     4  10  20  35  58  85 116 150 185 235 291 342
#     4  10  20  34  57  88 116 144 183 234 292 354
#
# _framework density 19.15269
#
# number of rings (size 3 to 8) (size 9 to 14) (size 15 to 20)
#    0.000    2.000    1.250    1.875    1.750    5.000 
#    0.000    2.500    0.000    0.000    0.000    0.000 
#    0.000    0.000    0.000    0.000    0.000    0.000 
#
# Total GULP energy -793334.989778 kJ/mol
# GULP energy per Si atom -12395.859215 kJ/mol
# Density = 1.910910 g / cm^3
# Si number density = 19.152690 Si / 1000 Ang^3
#
#
#
# Elastic Constant Matrix: (Units=GPa)
#
#
# Indices 1 2 3 4 5 6 
#
# 1 77.2029 27.4010 41.0577 0.0000 0.0000 0.0000
# 2 27.4010 81.5283 57.4852 0.0000 0.0000 0.0000
# 3 41.0577 57.4852 138.4408 0.0000 0.0000 0.0000
# 4 0.0000 0.0000 0.0000 10.3251 0.0000 0.0000
# 5 0.0000 0.0000 0.0000 0.0000 31.1171 0.0000
# 6 0.0000 0.0000 0.0000 0.0000 0.0000 17.8718
#
#
#
# Elastic Compliance Matrix: (Units=1/GPa)
#
#
# Indices 1 2 3 4 5 6 
#
# 1 0.015831 -0.002842 -0.003515 0.000000 0.000000 0.000000
# 2 -0.002842 0.017854 -0.006571 0.000000 0.000000 0.000000
# 3 -0.003515 -0.006571 0.010994 0.000000 0.000000 0.000000
# 4 0.000000 0.000000 0.000000 0.096851 0.000000 0.000000
# 5 0.000000 0.000000 0.000000 0.000000 0.032137 0.000000
# 6 0.000000 0.000000 0.000000 0.000000 0.000000 0.055954
#
#
# Mechanical properties :
#
#
# Convention : Reuss Voigt Hill
#
# Bulk Modulus (GPa) = 53.12548 61.00666 57.06607
# Shear Modulus (GPa) = 19.10217 23.27802 21.19009
#
# Velocity S-wave (km/s) = 3.16153 3.49003 3.32983
# Velocity P-wave (km/s) = 6.41289 6.93991 6.68160
#
# Compressibility (1/GPa) = 0.01882336
#
# Stress axis : x y z
#
# Youngs Moduli (GPa) = 63.16761 56.01038 90.95882
#
# Poissons Ratio (x) = 0.15920 0.31970
# Poissons Ratio (y) = 0.17955 0.59765
# Poissons Ratio (z) = 0.22202 0.36802
#
# Static dielectric constant tensor:
#      x y z
#    x 3.642640 0.000000 0.000000 
#    y 0.000000 3.526630 0.000000 
#    z 0.000000 0.000000 3.385120 
# 
# 
# High freq. dielectric constant tensor:
#      x y z
#    x 1.753660 0.000000 0.000000 
#    y 0.000000 1.742420 0.000000 
#    z 0.000000 0.000000 1.728800 
# 
# From -- ./inp_files/17847.got.cif
#   From: 2010.03.12/outbox.cif.g09.slc.cpg/sg59_9_cif.got.tgz:17847.got - 2010.04.16 16:29:54.
