data_PCOD8243937
_publ_section_title
;
Structure prediction by ZEFSAII (Michael W. Deem and Ramdas Pophale) SiO2 
 PCOD8243937
Probable space group: P M M N
;
_chemical_formula_sum "Si O2"
_cell_formula_units_Z 48
_cell_length_a 19.174354
_cell_length_b 8.943752
_cell_length_c 15.210114
_cell_angle_alpha 90.000000
_cell_angle_beta 90.000000
_cell_angle_gamma 90.000000
_cell_volume 2608.392594
_symmetry_space_group_name_H-M "P M M N"
_symmetry_group_IT_number 59
_space_group.IT_coordinate_system_code '2'
_symmetry_cell_setting 'orthorhombic'
loop_
_space_group_symop_operation_xyz
x,y,z
1/2-x,1/2-y,z
1/2+x,-y,-z
-x,1/2+y,-z
-x,-y,-z
1/2+x,1/2+y,-z
1/2-x,y,z
x,1/2-y,z
loop_
_atom_site_type_symbol
_atom_site_label
_atom_site_fract_x
_atom_site_fract_y
_atom_site_fract_z
Si Si1 0.169541 0.074903 0.441867
Si Si2 0.909665 0.572142 0.728614
Si Si3 0.329121 0.927048 0.621342
Si Si4 0.569988 0.427167 0.035905
Si Si5 0.831456 0.924659 0.902242
Si Si6 0.936440 0.427279 0.235010
O O1 0.250000 0.038060 0.422370
O O2 0.157367 0.250000 0.454586
O O3 0.124949 0.010127 0.360578
O O4 0.143410 0.993642 0.529775
O O5 0.907785 0.750000 0.727114
O O6 0.865818 0.515631 0.812345
O O7 0.988175 0.509424 0.735904
O O8 0.250000 0.979755 0.640196
O O9 0.333994 0.750000 0.615022
O O10 0.377375 0.990780 0.699607
O O11 0.562804 0.250000 0.028139
O O12 0.581068 0.478739 0.136418
O O13 0.500000 0.500000 0.000000
O O14 0.636914 0.483886 0.983148
O O15 0.750000 0.958173 0.897834
O O16 0.847473 0.750000 0.916259
O O17 0.938258 0.250000 0.240364
#
# Coordination Sequence:
#
# PCOD8243937 Si02
#       6
#     8   8   8   8   8   8
#     4   9  17  30  50  74  99 130 167 209 256 305
#     4   9  16  30  52  76 101 133 173 211 253 313
#     4   9  18  33  51  71  98 133 171 210 253 305
#     4  11  21  36  57  79 107 142 179 221 268 319
#     4  10  20  35  56  81 108 140 179 221 266 319
#     4   9  18  32  53  75  97 133 175 212 255 313
#
# _framework density 18.402138000000001
#
# number of rings (size 3 to 8) (size 9 to 14) (size 15 to 20)
#    0.000    2.500    1.667    1.000    0.000    3.667 
#    0.000    4.167    0.000    4.000    0.000    0.000 
#    0.000    0.000    0.000    0.000    0.000    0.000 
#
# Total GULP energy -595227.661920 kJ/mol
# GULP energy per Si atom -12400.576290 kJ/mol
# Density = 1.836025 g / cm^3
# Si number density = 18.402138 Si / 1000 Ang^3
#
#
#
# Elastic Constant Matrix: (Units=GPa)
#
#
# Indices 1 2 3 4 5 6 
#
# 1 130.5986 27.4957 101.9784 0.0000 0.0000 0.0000
# 2 27.4957 28.4627 34.9871 0.0000 0.0000 0.0000
# 3 101.9784 34.9871 198.3303 0.0000 0.0000 0.0000
# 4 0.0000 0.0000 0.0000 29.7415 0.0000 0.0000
# 5 0.0000 0.0000 0.0000 0.0000 44.3516 0.0000
# 6 0.0000 0.0000 0.0000 0.0000 0.0000 21.4396
#
#
#
# Elastic Compliance Matrix: (Units=1/GPa)
#
#
# Indices 1 2 3 4 5 6 
#
# 1 0.013494 -0.005754 -0.005923 0.000000 0.000000 0.000000
# 2 -0.005754 0.047316 -0.005388 0.000000 0.000000 0.000000
# 3 -0.005923 -0.005388 0.009038 0.000000 0.000000 0.000000
# 4 0.000000 0.000000 0.000000 0.033623 0.000000 0.000000
# 5 0.000000 0.000000 0.000000 0.000000 0.022547 0.000000
# 6 0.000000 0.000000 0.000000 0.000000 0.000000 0.046643
#
#
# Mechanical properties :
#
#
# Convention : Reuss Voigt Hill
#
# Bulk Modulus (GPa) = 27.99832 76.25711 52.12772
# Shear Modulus (GPa) = 22.86270 31.96857 27.41564
#
# Velocity S-wave (km/s) = 3.52858 4.17252 3.86399
# Velocity P-wave (km/s) = 5.64349 8.04627 6.94951
#
# Compressibility (1/GPa) = 0.03571643
#
# Stress axis : x y z
#
# Youngs Moduli (GPa) = 74.10912 21.13464 110.64203
#
# Poissons Ratio (x) = 0.12162 0.65534
# Poissons Ratio (y) = 0.42645 0.59615
# Poissons Ratio (z) = 0.43896 0.11387
#
# Static dielectric constant tensor:
#      x y z
#    x 3.564560 0.000000 0.000000 
#    y 0.000000 3.506910 0.000000 
#    z 0.000000 0.000000 3.701730 
# 
# 
# High freq. dielectric constant tensor:
#      x y z
#    x 1.719020 0.000000 0.000000 
#    y 0.000000 1.674310 0.000000 
#    z 0.000000 0.000000 1.727240 
# 
# From -- ./inp_files/20443.got.cif
#   From: 2010.03.12/outbox.cif.g09.slc.cpg/sg59_11_cif.got.tgz:20443.got - 2010.04.16 16:29:54.
