data_PCOD8243313
_publ_section_title
;
Structure prediction by ZEFSAII (Michael W. Deem and Ramdas Pophale) SiO2 
 PCOD8243313
Probable space group: P M M N
;
_chemical_formula_sum "Si O2"
_cell_formula_units_Z 48
_cell_length_a 9.274308
_cell_length_b 8.999495
_cell_length_c 30.772929
_cell_angle_alpha 90.000000
_cell_angle_beta 90.000000
_cell_angle_gamma 90.000000
_cell_volume 2568.434469
_symmetry_space_group_name_H-M "P M M N"
_symmetry_group_IT_number 59
_space_group.IT_coordinate_system_code '2'
_symmetry_cell_setting 'orthorhombic'
loop_
_space_group_symop_operation_xyz
x,y,z
1/2-x,1/2-y,z
1/2+x,-y,-z
-x,1/2+y,-z
-x,-y,-z
1/2+x,1/2+y,-z
1/2-x,y,z
x,1/2-y,z
loop_
_atom_site_type_symbol
_atom_site_label
_atom_site_fract_x
_atom_site_fract_y
_atom_site_fract_z
Si Si1 0.080437 0.577393 0.539213
Si Si2 0.083052 0.924548 0.712726
Si Si3 0.921257 0.582624 0.374227
Si Si4 0.918874 0.422716 0.790273
Si Si5 0.089661 0.923000 0.963131
Si Si6 0.080646 0.578862 0.865461
O O1 0.250000 0.550595 0.533651
O O2 0.041156 0.750000 0.539952
O O3 0.021898 0.505636 0.583804
O O4 0.000000 0.500000 0.500000
O O5 0.250000 0.965222 0.721336
O O6 0.062459 0.750000 0.707144
O O7 0.023261 0.001915 0.669153
O O8 0.989363 0.981187 0.752476
O O9 0.750000 0.582502 0.374380
O O10 0.982722 0.750000 0.375375
O O11 0.750000 0.457027 0.791933
O O12 0.950286 0.250000 0.781777
O O13 0.988723 0.469606 0.835731
O O14 0.250000 0.988266 0.965858
O O15 0.089958 0.750000 0.972835
O O16 0.029163 0.953270 0.914751
O O17 0.000000 0.000000 0.000000
O O18 0.250000 0.545575 0.859888
O O19 0.049713 0.750000 0.852835
#
# Coordination Sequence:
#
# PCOD8243313 Si02
#       6
#     8   8   8   8   8   8
#     4  10  20  34  53  78 108 141 178 220 264 311
#     4  10  20  35  57  82 105 133 172 215 258 308
#     4   9  17  31  53  79 106 137 173 214 260 310
#     4  11  24  38  52  76 109 140 171 212 262 312
#     4   9  19  35  54  78 108 139 173 215 260 307
#     4   9  19  37  58  78 102 136 178 219 258 305
#
# _framework density 18.688427000000001
#
# number of rings (size 3 to 8) (size 9 to 14) (size 15 to 20)
#    0.000    2.333    0.000    3.500    0.000    9.333 
#    0.000    5.833    0.000    5.000    0.000    0.000 
#    0.000    0.000    0.000    0.000    0.000    0.000 
#
# Total GULP energy -595254.457535 kJ/mol
# GULP energy per Si atom -12401.134532 kJ/mol
# Density = 1.864589 g / cm^3
# Si number density = 18.688427 Si / 1000 Ang^3
#
#
#
# Elastic Constant Matrix: (Units=GPa)
#
#
# Indices 1 2 3 4 5 6 
#
# 1 56.3738 41.6799 49.4179 0.0000 0.0000 0.0000
# 2 41.6799 105.1260 65.2271 0.0000 0.0000 0.0000
# 3 49.4179 65.2271 148.1835 0.0000 0.0000 0.0000
# 4 0.0000 0.0000 0.0000 44.3269 0.0000 0.0000
# 5 0.0000 0.0000 0.0000 0.0000 32.6792 0.0000
# 6 0.0000 0.0000 0.0000 0.0000 0.0000 29.1418
#
#
#
# Elastic Compliance Matrix: (Units=1/GPa)
#
#
# Indices 1 2 3 4 5 6 
#
# 1 0.028821 -0.007516 -0.006303 0.000000 0.000000 0.000000
# 2 -0.007516 0.015047 -0.004117 0.000000 0.000000 0.000000
# 3 -0.006303 -0.004117 0.010663 0.000000 0.000000 0.000000
# 4 0.000000 0.000000 0.000000 0.022560 0.000000 0.000000
# 5 0.000000 0.000000 0.000000 0.000000 0.030601 0.000000
# 6 0.000000 0.000000 0.000000 0.000000 0.000000 0.034315
#
#
# Mechanical properties :
#
#
# Convention : Reuss Voigt Hill
#
# Bulk Modulus (GPa) = 53.59480 69.14811 61.37145
# Shear Modulus (GPa) = 27.15968 31.45346 29.30657
#
# Velocity S-wave (km/s) = 3.81634 4.10694 3.96430
# Velocity P-wave (km/s) = 6.93971 7.71817 7.33927
#
# Compressibility (1/GPa) = 0.01865853
#
# Stress axis : x y z
#
# Youngs Moduli (GPa) = 34.69681 66.46063 93.78642
#
# Poissons Ratio (x) = 0.49951 0.59116
# Poissons Ratio (y) = 0.26078 0.38609
# Poissons Ratio (z) = 0.21870 0.27360
#
# Static dielectric constant tensor:
#      x y z
#    x 3.576620 0.000000 0.000000 
#    y 0.000000 3.549030 0.000000 
#    z 0.000000 0.000000 3.588450 
# 
# 
# High freq. dielectric constant tensor:
#      x y z
#    x 1.698880 0.000000 0.000000 
#    y 0.000000 1.734440 0.000000 
#    z 0.000000 0.000000 1.743060 
# 
# From -- ./inp_files/32787.got.cif
#   From: 2010.03.12/outbox.cif.g09.slc.cpg/sg59_17_cif.got.tgz:32787.got - 2010.04.16 16:29:54.
