data_PCOD8243570
_publ_section_title
;
Structure prediction by ZEFSAII (Michael W. Deem and Ramdas Pophale) SiO2 
 PCOD8243570
Probable space group: P M M N
;
_chemical_formula_sum "Si O2"
_cell_formula_units_Z 40
_cell_length_a 9.280964
_cell_length_b 9.807157
_cell_length_c 23.912393
_cell_angle_alpha 90.000000
_cell_angle_beta 90.000000
_cell_angle_gamma 90.000000
_cell_volume 2176.502928
_symmetry_space_group_name_H-M "P M M N"
_symmetry_group_IT_number 59
_space_group.IT_coordinate_system_code '2'
_symmetry_cell_setting 'orthorhombic'
loop_
_space_group_symop_operation_xyz
x,y,z
1/2-x,1/2-y,z
1/2+x,-y,-z
-x,1/2+y,-z
-x,-y,-z
1/2+x,1/2+y,-z
1/2-x,y,z
x,1/2-y,z
loop_
_atom_site_type_symbol
_atom_site_label
_atom_site_fract_x
_atom_site_fract_y
_atom_site_fract_z
Si Si1 0.917137 0.509606 0.632533
Si Si2 0.083752 0.405648 0.150643
Si Si3 0.583380 0.091515 0.262011
Si Si4 0.586228 0.250000 0.560141
Si Si5 0.418604 0.590562 0.045316
Si Si6 0.919722 0.750000 0.554290
O O1 0.750000 0.531602 0.648134
O O2 0.948910 0.373496 0.600050
O O3 0.973909 0.622597 0.589824
O O4 0.007390 0.506231 0.689392
O O5 0.250000 0.415071 0.168505
O O6 0.048386 0.250000 0.130363
O O7 0.046797 0.517480 0.103902
O O8 0.987275 0.447244 0.203160
O O9 0.750000 0.051346 0.259254
O O10 0.559724 0.250000 0.275204
O O11 0.750000 0.250000 0.538671
O O12 0.487027 0.250000 0.506500
O O13 0.250000 0.583910 0.031606
O O14 0.469902 0.750000 0.046152
O O15 0.500000 0.500000 0.000000
O O16 0.750000 0.750000 0.545355
#
# Coordination Sequence:
#
# PCOD8243570 Si02
#       6
#     8   8   8   4   8   4
#     4  10  20  36  55  77 105 140 179 218 267 325
#     4   9  18  34  56  79 107 146 187 227 273 325
#     4  10  20  34  55  82 107 137 181 229 273 319
#     4  10  22  36  52  78 108 138 173 218 271 322
#     4  10  21  37  58  86 118 153 192 231 276 328
#     4  10  20  34  56  78 102 138 179 218 263 324
#
# _framework density 18.378105000000001
#
# number of rings (size 3 to 8) (size 9 to 14) (size 15 to 20)
#    0.000    2.200    1.000    1.800    0.000    4.400 
#    1.800    2.000    0.000    0.000    0.000    0.000 
#    0.000    0.000    0.000    0.000    0.000    0.000 
#
# Total GULP energy -495974.652143 kJ/mol
# GULP energy per Si atom -12399.366304 kJ/mol
# Density = 1.833628 g / cm^3
# Si number density = 18.378105 Si / 1000 Ang^3
#
#
#
# Elastic Constant Matrix: (Units=GPa)
#
#
# Indices 1 2 3 4 5 6 
#
# 1 79.1724 45.6740 76.1268 0.0000 0.0000 0.0000
# 2 45.6740 133.7854 72.3187 0.0000 0.0000 0.0000
# 3 76.1268 72.3187 142.4200 0.0000 0.0000 0.0000
# 4 0.0000 0.0000 0.0000 13.6598 0.0000 0.0000
# 5 0.0000 0.0000 0.0000 0.0000 40.8543 0.0000
# 6 0.0000 0.0000 0.0000 0.0000 0.0000 17.1177
#
#
#
# Elastic Compliance Matrix: (Units=1/GPa)
#
#
# Indices 1 2 3 4 5 6 
#
# 1 0.026334 -0.001904 -0.013109 0.000000 0.000000 0.000000
# 2 -0.001904 0.010440 -0.004284 0.000000 0.000000 0.000000
# 3 -0.013109 -0.004284 0.016204 0.000000 0.000000 0.000000
# 4 0.000000 0.000000 0.000000 0.073207 0.000000 0.000000
# 5 0.000000 0.000000 0.000000 0.000000 0.024477 0.000000
# 6 0.000000 0.000000 0.000000 0.000000 0.000000 0.058419
#
#
# Mechanical properties :
#
#
# Convention : Reuss Voigt Hill
#
# Bulk Modulus (GPa) = 69.52067 82.62409 76.07238
# Shear Modulus (GPa) = 19.80426 25.07693 22.44059
#
# Velocity S-wave (km/s) = 3.28624 3.69792 3.49814
# Velocity P-wave (km/s) = 7.23252 7.95540 7.60255
#
# Compressibility (1/GPa) = 0.01438421
#
# Stress axis : x y z
#
# Youngs Moduli (GPa) = 37.97336 95.78317 61.71339
#
# Poissons Ratio (x) = 0.18238 0.80903
# Poissons Ratio (y) = 0.07230 0.26436
# Poissons Ratio (z) = 0.49781 0.41030
#
# Static dielectric constant tensor:
#      x y z
#    x 3.333360 0.000000 0.000000 
#    y 0.000000 3.486470 0.000000 
#    z 0.000000 0.000000 3.328180 
# 
# 
# High freq. dielectric constant tensor:
#      x y z
#    x 1.707590 0.000000 0.000000 
#    y 0.000000 1.713200 0.000000 
#    z 0.000000 0.000000 1.720150 
# 
# From -- ./inp_files/32409.got.cif
#   From: 2010.03.12/outbox.cif.g09.slc.cpg/sg59_17_cif.got.tgz:32409.got - 2010.04.16 16:29:54.
