data_PCOD8243215
_publ_section_title
;
Structure prediction by ZEFSAII (Michael W. Deem and Ramdas Pophale) SiO2 
 PCOD8243215
Probable space group: P M M N
;
_chemical_formula_sum "Si O2"
_cell_formula_units_Z 64
_cell_length_a 8.943399
_cell_length_b 17.983312
_cell_length_c 21.440463
_cell_angle_alpha 90.000000
_cell_angle_beta 90.000000
_cell_angle_gamma 90.000000
_cell_volume 3448.311142
_symmetry_space_group_name_H-M "P M M N"
_symmetry_group_IT_number 59
_space_group.IT_coordinate_system_code '2'
_symmetry_cell_setting 'orthorhombic'
loop_
_space_group_symop_operation_xyz
x,y,z
1/2-x,1/2-y,z
1/2+x,-y,-z
-x,1/2+y,-z
-x,-y,-z
1/2+x,1/2+y,-z
1/2-x,y,z
x,1/2-y,z
loop_
_atom_site_type_symbol
_atom_site_label
_atom_site_fract_x
_atom_site_fract_y
_atom_site_fract_z
Si Si1 0.573712 0.082758 0.374000
Si Si2 0.926438 0.914347 0.387472
Si Si3 0.427306 0.665449 0.503253
Si Si4 0.575400 0.665224 0.879604
Si Si5 0.923922 0.836648 0.260313
Si Si6 0.922987 0.048243 0.822080
Si Si7 0.420514 0.399971 0.249403
Si Si8 0.572416 0.472618 0.063256
O O1 0.750000 0.084533 0.371118
O O2 0.513557 0.130188 0.432245
O O3 0.515812 0.119589 0.310238
O O4 0.515415 0.998470 0.380188
O O5 0.750000 0.910872 0.397925
O O6 0.975731 0.867858 0.327020
O O7 0.005165 0.880082 0.446864
O O8 0.250000 0.660386 0.499231
O O9 0.483859 0.750000 0.499968
O O10 0.750000 0.644204 0.887032
O O11 0.543149 0.750000 0.898922
O O12 0.527893 0.652677 0.807652
O O13 0.480036 0.611980 0.924221
O O14 0.750000 0.853946 0.249173
O O15 0.959896 0.750000 0.258476
O O16 0.017949 0.874301 0.205163
O O17 0.750000 0.055489 0.841361
O O18 0.946295 0.985568 0.769611
O O19 0.018189 0.027838 0.882721
O O20 0.250000 0.384188 0.266586
O O21 0.750000 0.474983 0.058422
O O22 0.500000 0.500000 0.000000
#
# Coordination Sequence:
#
# PCOD8243215 Si02
#       8
#     8   8   8   8   8   8   8   8
#     4  10  20  34  53  75 102 138 179 226 276 331
#     4  10  20  35  55  76 100 136 183 227 274 334
#     4  10  22  37  50  70 102 137 175 225 283 335
#     4   9  19  37  59  86 122 156 189 233 281 327
#     4  10  20  34  54  81 111 142 180 229 285 338
#     4  10  20  36  57  82 113 146 184 226 272 329
#     4   9  18  32  53  81 109 141 179 220 268 325
#     4  11  22  38  62  89 119 155 196 235 275 326
#
# _framework density 18.559811
#
# number of rings (size 3 to 8) (size 9 to 14) (size 15 to 20)
#    0.000    2.125    1.250    3.000    0.000    5.250 
#    0.000    0.625    0.000    3.750    0.000    0.000 
#    0.000    0.000    0.000    0.000    0.000    0.000 
#
# Total GULP energy -793780.736227 kJ/mol
# GULP energy per Si atom -12402.824004 kJ/mol
# Density = 1.851757 g / cm^3
# Si number density = 18.559811 Si / 1000 Ang^3
#
#
#
# Elastic Constant Matrix: (Units=GPa)
#
#
# Indices 1 2 3 4 5 6 
#
# 1 71.4297 36.9910 53.6273 0.0000 0.0000 0.0000
# 2 36.9910 72.1194 51.6525 0.0000 0.0000 0.0000
# 3 53.6273 51.6525 131.5168 0.0000 0.0000 0.0000
# 4 0.0000 0.0000 0.0000 22.0210 0.0000 0.0000
# 5 0.0000 0.0000 0.0000 0.0000 34.9378 0.0000
# 6 0.0000 0.0000 0.0000 0.0000 0.0000 24.5982
#
#
#
# Elastic Compliance Matrix: (Units=1/GPa)
#
#
# Indices 1 2 3 4 5 6 
#
# 1 0.022388 -0.006880 -0.006427 0.000000 0.000000 0.000000
# 2 -0.006880 0.021407 -0.005602 0.000000 0.000000 0.000000
# 3 -0.006427 -0.005602 0.012424 0.000000 0.000000 0.000000
# 4 0.000000 0.000000 0.000000 0.045411 0.000000 0.000000
# 5 0.000000 0.000000 0.000000 0.000000 0.028622 0.000000
# 6 0.000000 0.000000 0.000000 0.000000 0.000000 0.040653
#
#
# Mechanical properties :
#
#
# Convention : Reuss Voigt Hill
#
# Bulk Modulus (GPa) = 54.34386 62.17862 58.26124
# Shear Modulus (GPa) = 23.27123 25.16439 24.21781
#
# Velocity S-wave (km/s) = 3.54482 3.68619 3.61619
# Velocity P-wave (km/s) = 6.78957 7.18970 6.99250
#
# Compressibility (1/GPa) = 0.01840134
#
# Stress axis : x y z
#
# Youngs Moduli (GPa) = 44.66737 46.71367 80.48732
#
# Poissons Ratio (x) = 0.32139 0.51727
# Poissons Ratio (y) = 0.30732 0.45089
# Poissons Ratio (z) = 0.28706 0.26169
#
# Static dielectric constant tensor:
#      x y z
#    x 3.310370 0.000000 0.000000 
#    y 0.000000 3.512520 0.000000 
#    z 0.000000 0.000000 3.406710 
# 
# 
# High freq. dielectric constant tensor:
#      x y z
#    x 1.713640 0.000000 0.000000 
#    y 0.000000 1.720400 0.000000 
#    z 0.000000 0.000000 1.720860 
# 
# From -- ./inp_files/29385.got.cif
#   From: 2010.03.12/outbox.cif.g09.slc.cpg/sg59_15_cif.got.tgz:29385.got - 2010.04.16 16:29:54.
