data_PCOD8243618
_publ_section_title
;
Structure prediction by ZEFSAII (Michael W. Deem and Ramdas Pophale) SiO2 
 PCOD8243618
Probable space group: P M M N
;
_chemical_formula_sum "Si O2"
_cell_formula_units_Z 56
_cell_length_a 14.279799
_cell_length_b 8.959458
_cell_length_c 22.678349
_cell_angle_alpha 90.000000
_cell_angle_beta 90.000000
_cell_angle_gamma 90.000000
_cell_volume 2901.451175
_symmetry_space_group_name_H-M "P M M N"
_symmetry_group_IT_number 59
_space_group.IT_coordinate_system_code '2'
_symmetry_cell_setting 'orthorhombic'
loop_
_space_group_symop_operation_xyz
x,y,z
1/2-x,1/2-y,z
1/2+x,-y,-z
-x,1/2+y,-z
-x,-y,-z
1/2+x,1/2+y,-z
1/2-x,y,z
x,1/2-y,z
loop_
_atom_site_type_symbol
_atom_site_label
_atom_site_fract_x
_atom_site_fract_y
_atom_site_fract_z
Si Si1 0.857811 0.077212 0.532895
Si Si2 0.856360 0.575506 0.408137
Si Si3 0.350466 0.079384 0.907669
Si Si4 0.045843 0.577614 0.142372
Si Si5 0.595343 0.421953 0.985139
Si Si6 0.355727 0.426575 0.250574
Si Si7 0.470649 0.072659 0.364049
O O1 0.750000 0.060007 0.551547
O O2 0.888952 0.250000 0.533037
O O3 0.875326 0.009821 0.468823
O O4 0.919464 0.982487 0.577461
O O5 0.750000 0.549343 0.386221
O O6 0.876976 0.750000 0.417008
O O7 0.926889 0.504477 0.360107
O O8 0.250000 0.064517 0.873365
O O9 0.374644 0.250000 0.922471
O O10 0.439156 0.018050 0.870267
O O11 0.331535 0.997550 0.970418
O O12 0.043349 0.750000 0.161995
O O13 0.112973 0.556599 0.084896
O O14 0.089190 0.480364 0.193581
O O15 0.590780 0.250000 0.001411
O O16 0.500000 0.500000 0.000000
O O17 0.250000 0.492028 0.251782
O O18 0.352080 0.250000 0.249206
O O19 0.410734 0.482656 0.308202
O O20 0.481744 0.250000 0.365386
#
# Coordination Sequence:
#
# PCOD8243618 Si02
#       7
#     8   8   8   8   8   8   8
#     4  10  20  34  55  84 115 146 181 220 264 316
#     4  10  21  37  57  82 112 144 178 217 263 318
#     4   9  18  33  53  79 111 144 176 213 262 319
#     4   9  19  35  54  77 106 140 177 219 265 312
#     4   9  17  30  49  75 106 138 174 216 262 311
#     4  10  23  41  58  77 102 136 178 221 267 318
#     4  11  22  37  57  79 108 143 179 224 272 318
#
# _framework density 19.300685999999999
#
# number of rings (size 3 to 8) (size 9 to 14) (size 15 to 20)
#    0.000    2.286    0.000    3.429    0.000    7.429 
#    0.000    3.571    0.000    2.571    0.000    0.000 
#    0.000    0.000    0.000    0.000    0.000    0.000 
#
# Total GULP energy -694053.248229 kJ/mol
# GULP energy per Si atom -12393.808004 kJ/mol
# Density = 1.925676 g / cm^3
# Si number density = 19.300686 Si / 1000 Ang^3
#
#
#
# Elastic Constant Matrix: (Units=GPa)
#
#
# Indices 1 2 3 4 5 6 
#
# 1 137.8549 33.4005 60.9362 0.0000 0.0000 0.0000
# 2 33.4005 58.0408 25.4561 0.0000 0.0000 0.0000
# 3 60.9362 25.4561 74.5076 0.0000 0.0000 0.0000
# 4 0.0000 0.0000 0.0000 32.4264 0.0000 0.0000
# 5 0.0000 0.0000 0.0000 0.0000 24.7783 0.0000
# 6 0.0000 0.0000 0.0000 0.0000 0.0000 29.2000
#
#
#
# Elastic Compliance Matrix: (Units=1/GPa)
#
#
# Indices 1 2 3 4 5 6 
#
# 1 0.011791 -0.003006 -0.008616 0.000000 0.000000 0.000000
# 2 -0.003006 0.021033 -0.004727 0.000000 0.000000 0.000000
# 3 -0.008616 -0.004727 0.022083 0.000000 0.000000 0.000000
# 4 0.000000 0.000000 0.000000 0.030839 0.000000 0.000000
# 5 0.000000 0.000000 0.000000 0.000000 0.040358 0.000000
# 6 0.000000 0.000000 0.000000 0.000000 0.000000 0.034247
#
#
# Mechanical properties :
#
#
# Convention : Reuss Voigt Hill
#
# Bulk Modulus (GPa) = 45.02989 56.66544 50.84767
# Shear Modulus (GPa) = 24.94356 27.32163 26.13260
#
# Velocity S-wave (km/s) = 3.59885 3.76650 3.68363
# Velocity P-wave (km/s) = 6.37576 6.95258 6.67041
#
# Compressibility (1/GPa) = 0.02220747
#
# Stress axis : x y z
#
# Youngs Moduli (GPa) = 84.81014 47.54518 45.28307
#
# Poissons Ratio (x) = 0.14294 0.39017
# Poissons Ratio (y) = 0.25497 0.21406
# Poissons Ratio (z) = 0.73074 0.22475
#
# Static dielectric constant tensor:
#      x y z
#    x 4.005010 0.000000 0.000000 
#    y 0.000000 3.827120 0.000000 
#    z 0.000000 0.000000 3.510370 
# 
# 
# High freq. dielectric constant tensor:
#      x y z
#    x 1.765710 0.000000 0.000000 
#    y 0.000000 1.753790 0.000000 
#    z 0.000000 0.000000 1.726280 
# 
# From -- ./inp_files/30340.got.cif
#   From: 2010.03.12/outbox.cif.g09.slc.cpg/sg59_16_cif.got.tgz:30340.got - 2010.04.16 16:29:54.
