data_PCOD8243517
_publ_section_title
;
Structure prediction by ZEFSAII (Michael W. Deem and Ramdas Pophale) SiO2 
 PCOD8243517
Probable space group: P M M N
;
_chemical_formula_sum "Si O2"
_cell_formula_units_Z 48
_cell_length_a 8.322887
_cell_length_b 18.135427
_cell_length_c 15.980434
_cell_angle_alpha 90.000000
_cell_angle_beta 90.000000
_cell_angle_gamma 90.000000
_cell_volume 2412.072479
_symmetry_space_group_name_H-M "P M M N"
_symmetry_group_IT_number 59
_space_group.IT_coordinate_system_code '2'
_symmetry_cell_setting 'orthorhombic'
loop_
_space_group_symop_operation_xyz
x,y,z
1/2-x,1/2-y,z
1/2+x,-y,-z
-x,1/2+y,-z
-x,-y,-z
1/2+x,1/2+y,-z
1/2-x,y,z
x,1/2-y,z
loop_
_atom_site_type_symbol
_atom_site_label
_atom_site_fract_x
_atom_site_fract_y
_atom_site_fract_z
Si Si1 0.562952 0.250000 0.897345
Si Si2 0.058726 0.897709 0.031970
Si Si3 0.437528 0.164339 0.442546
Si Si4 0.061119 0.971474 0.866670
Si Si5 0.935119 0.750000 0.284253
Si Si6 0.441203 0.543880 0.679366
Si Si7 0.436904 0.887662 0.385294
O O1 0.750000 0.250000 0.914995
O O2 0.486007 0.180820 0.944151
O O3 0.538674 0.250000 0.798873
O O4 0.250000 0.903206 0.035164
O O5 0.993889 0.916766 0.938964
O O6 0.988765 0.947591 0.105630
O O7 0.250000 0.158203 0.464681
O O8 0.485464 0.250000 0.427070
O O9 0.478140 0.115700 0.361530
O O10 0.540682 0.129171 0.517095
O O11 0.250000 0.964954 0.861411
O O12 0.991949 0.954796 0.774705
O O13 0.750000 0.750000 0.259571
O O14 0.971977 0.676230 0.335438
O O15 0.250000 0.550636 0.674436
O O16 0.492811 0.468007 0.635028
O O17 0.250000 0.885909 0.362094
#
# Coordination Sequence:
#
# PCOD8243517 Si02
#       7
#     4   8   8   8   4   8   8
#     4  10  20  34  54  83 114 147 190 237 288 347
#     4   9  18  34  56  81 112 149 189 237 289 342
#     4  11  24  43  64  86 119 158 198 247 300 350
#     4   9  19  36  56  82 112 150 192 236 286 341
#     4  12  24  38  58  87 124 157 192 245 302 355
#     4  11  23  39  61  90 122 157 201 246 294 354
#     4  12  24  40  63  89 119 155 199 244 297 356
#
# _framework density 19.899899999999999
#
# number of rings (size 3 to 8) (size 9 to 14) (size 15 to 20)
#    0.000    1.500    0.833    4.750    0.000    5.667 
#    1.500    0.000    0.000    0.000    0.000    0.000 
#    0.000    0.000    0.000    0.000    0.000    0.000 
#
# Total GULP energy -595147.560109 kJ/mol
# GULP energy per Si atom -12398.907502 kJ/mol
# Density = 1.985461 g / cm^3
# Si number density = 19.899900 Si / 1000 Ang^3
#
#
#
# Elastic Constant Matrix: (Units=GPa)
#
#
# Indices 1 2 3 4 5 6 
#
# 1 30.4591 5.3685 5.5547 0.0000 0.0000 0.0000
# 2 5.3685 144.1468 87.1550 0.0000 0.0000 0.0000
# 3 5.5547 87.1550 137.1915 0.0000 0.0000 0.0000
# 4 0.0000 0.0000 0.0000 20.4735 0.0000 0.0000
# 5 0.0000 0.0000 0.0000 0.0000 16.8907 0.0000
# 6 0.0000 0.0000 0.0000 0.0000 0.0000 24.6710
#
#
#
# Elastic Compliance Matrix: (Units=1/GPa)
#
#
# Indices 1 2 3 4 5 6 
#
# 1 0.033117 -0.000686 -0.000905 0.000000 0.000000 0.000000
# 2 -0.000686 0.011278 -0.007137 0.000000 0.000000 0.000000
# 3 -0.000905 -0.007137 0.011860 0.000000 0.000000 0.000000
# 4 0.000000 0.000000 0.000000 0.048844 0.000000 0.000000
# 5 0.000000 0.000000 0.000000 0.000000 0.059204 0.000000
# 6 0.000000 0.000000 0.000000 0.000000 0.000000 0.040533
#
#
# Mechanical properties :
#
#
# Convention : Reuss Voigt Hill
#
# Bulk Modulus (GPa) = 25.77426 56.43934 41.10680
# Shear Modulus (GPa) = 21.25622 26.65497 23.95559
#
# Velocity S-wave (km/s) = 3.27181 3.66382 3.47335
# Velocity P-wave (km/s) = 5.22045 6.80598 6.06525
#
# Compressibility (1/GPa) = 0.03879839
#
# Stress axis : x y z
#
# Youngs Moduli (GPa) = 30.19612 88.66705 84.31911
#
# Poissons Ratio (x) = 0.06085 0.07630
# Poissons Ratio (y) = 0.02072 0.60179
# Poissons Ratio (z) = 0.02732 0.63282
#
# Static dielectric constant tensor:
#      x y z
#    x 3.536360 0.000000 0.000000 
#    y 0.000000 3.852120 0.000000 
#    z 0.000000 0.000000 3.901060 
# 
# 
# High freq. dielectric constant tensor:
#      x y z
#    x 1.773110 0.000000 0.000000 
#    y 0.000000 1.783550 0.000000 
#    z 0.000000 0.000000 1.785080 
# 
# From -- ./inp_files/20523.got.cif
#   From: 2010.03.12/outbox.cif.g09.slc.cpg/sg59_11_cif.got.tgz:20523.got - 2010.04.16 16:29:54.
