data_PCOD8243848
_publ_section_title
;
Structure prediction by ZEFSAII (Michael W. Deem and Ramdas Pophale) SiO2 
 PCOD8243848
Probable space group: P M M N
;
_chemical_formula_sum "Si O2"
_cell_formula_units_Z 40
_cell_length_a 9.124206
_cell_length_b 25.358192
_cell_length_c 9.153690
_cell_angle_alpha 90.000000
_cell_angle_beta 90.000000
_cell_angle_gamma 90.000000
_cell_volume 2117.920081
_symmetry_space_group_name_H-M "P M M N"
_symmetry_group_IT_number 59
_space_group.IT_coordinate_system_code '2'
_symmetry_cell_setting 'orthorhombic'
loop_
_space_group_symop_operation_xyz
x,y,z
1/2-x,1/2-y,z
1/2+x,-y,-z
-x,1/2+y,-z
-x,-y,-z
1/2+x,1/2+y,-z
1/2-x,y,z
x,1/2-y,z
loop_
_atom_site_type_symbol
_atom_site_label
_atom_site_fract_x
_atom_site_fract_y
_atom_site_fract_z
Si Si1 0.082115 0.688677 0.170654
Si Si2 0.576391 0.404624 0.350127
Si Si3 0.921145 0.997141 0.153120
Si Si4 0.575828 0.191843 0.157382
Si Si5 0.577413 0.602489 0.344867
O O1 0.250000 0.669652 0.187001
O O2 0.069261 0.750000 0.209960
O O3 0.981711 0.657630 0.284169
O O4 0.022894 0.677992 0.006593
O O5 0.750000 0.402669 0.376024
O O6 0.529117 0.453883 0.251841
O O7 0.518162 0.351489 0.271015
O O8 0.496278 0.410984 0.502392
O O9 0.750000 0.999775 0.122378
O O10 0.966707 0.943394 0.232780
O O11 0.000000 0.000000 0.000000
O O12 0.750000 0.192661 0.154143
O O13 0.517321 0.250000 0.203667
O O14 0.750000 0.606178 0.368240
#
# Coordination Sequence:
#
# PCOD8243848 Si02
#       5
#     8   8   8   8   8
#     4   9  18  35  59  82 104 138 183 223 262 315
#     4  10  20  35  55  78 106 142 182 221 263 317
#     4  10  22  38  57  80 105 139 183 227 271 321
#     4   8  15  30  54  81 103 127 171 227 268 302
#     4  11  23  36  51  78 114 144 174 219 274 324
#
# _framework density 18.886455000000002
#
# number of rings (size 3 to 8) (size 9 to 14) (size 15 to 20)
#    0.000    2.400    0.000    3.600    0.000    5.200 
#    0.000    3.000    0.000    1.200    0.000    0.000 
#    0.000    0.000    0.000    0.000    0.000    0.000 
#
# Total GULP energy -496057.716850 kJ/mol
# GULP energy per Si atom -12401.442921 kJ/mol
# Density = 1.884347 g / cm^3
# Si number density = 18.886455 Si / 1000 Ang^3
#
#
#
# Elastic Constant Matrix: (Units=GPa)
#
#
# Indices 1 2 3 4 5 6 
#
# 1 51.9340 44.5621 58.6722 0.0000 0.0000 0.0000
# 2 44.5621 109.1821 68.2549 0.0000 0.0000 0.0000
# 3 58.6722 68.2549 152.8554 0.0000 0.0000 0.0000
# 4 0.0000 0.0000 0.0000 19.0036 0.0000 0.0000
# 5 0.0000 0.0000 0.0000 0.0000 32.8096 0.0000
# 6 0.0000 0.0000 0.0000 0.0000 0.0000 22.2659
#
#
#
# Elastic Compliance Matrix: (Units=1/GPa)
#
#
# Indices 1 2 3 4 5 6 
#
# 1 0.039795 -0.009285 -0.011129 0.000000 0.000000 0.000000
# 2 -0.009285 0.014872 -0.003077 0.000000 0.000000 0.000000
# 3 -0.011129 -0.003077 0.012188 0.000000 0.000000 0.000000
# 4 0.000000 0.000000 0.000000 0.052622 0.000000 0.000000
# 5 0.000000 0.000000 0.000000 0.000000 0.030479 0.000000
# 6 0.000000 0.000000 0.000000 0.000000 0.000000 0.044912
#
#
# Mechanical properties :
#
#
# Convention : Reuss Voigt Hill
#
# Bulk Modulus (GPa) = 50.31861 72.99444 61.65652
# Shear Modulus (GPa) = 20.12288 24.31463 22.21875
#
# Velocity S-wave (km/s) = 3.26769 3.59194 3.43365
# Velocity P-wave (km/s) = 6.39825 7.47902 6.95965
#
# Compressibility (1/GPa) = 0.01987336
#
# Stress axis : x y z
#
# Youngs Moduli (GPa) = 25.12881 67.23978 82.04891
#
# Poissons Ratio (x) = 0.62431 0.91312
# Poissons Ratio (y) = 0.23332 0.25246
# Poissons Ratio (z) = 0.27966 0.20690
#
# Static dielectric constant tensor:
#      x y z
#    x 3.169730 0.000000 0.000000 
#    y 0.000000 3.798170 0.000000 
#    z 0.000000 0.000000 3.456140 
# 
# 
# High freq. dielectric constant tensor:
#      x y z
#    x 1.704750 0.000000 0.000000 
#    y 0.000000 1.750120 0.000000 
#    z 0.000000 0.000000 1.740110 
# 
# From -- ./inp_files/5632.got.cif
#   From: 2010.03.12/outbox.cif.g09.slc.cpg/sg59_3_cif.got.tgz:5632.got - 2010.04.16 16:29:54.
