data_PCOD8243000
_publ_section_title
;
Structure prediction by ZEFSAII (Michael W. Deem and Ramdas Pophale) SiO2 
 PCOD8243000
Probable space group: P M M N
;
_chemical_formula_sum "Si O2"
_cell_formula_units_Z 48
_cell_length_a 9.218900
_cell_length_b 9.891230
_cell_length_c 28.827990
_cell_angle_alpha 90.000000
_cell_angle_beta 90.000000
_cell_angle_gamma 90.000000
_cell_volume 2628.716599
_symmetry_space_group_name_H-M "P M M N"
_symmetry_group_IT_number 59
_space_group.IT_coordinate_system_code '2'
_symmetry_cell_setting 'orthorhombic'
loop_
_space_group_symop_operation_xyz
x,y,z
1/2-x,1/2-y,z
1/2+x,-y,-z
-x,1/2+y,-z
-x,-y,-z
1/2+x,1/2+y,-z
1/2-x,y,z
x,1/2-y,z
loop_
_atom_site_type_symbol
_atom_site_label
_atom_site_fract_x
_atom_site_fract_y
_atom_site_fract_z
Si Si1 0.415607 0.903097 0.796499
Si Si2 0.919961 0.592035 0.462916
Si Si3 0.921818 0.250000 0.035153
Si Si4 0.581687 0.488995 0.099462
Si Si5 0.077457 0.750000 0.070352
Si Si6 0.578363 0.098092 0.728778
Si Si7 0.410480 0.909987 0.373228
O O1 0.250000 0.934916 0.783602
O O2 0.456479 0.750000 0.783339
O O3 0.441861 0.921747 0.850861
O O4 0.515524 0.002862 0.767929
O O5 0.750000 0.563736 0.465523
O O6 0.955723 0.750000 0.472006
O O7 0.000000 0.500000 0.500000
O O8 0.975988 0.544758 0.412415
O O9 0.750000 0.250000 0.037998
O O10 0.978010 0.115649 0.060946
O O11 0.979209 0.250000 0.982657
O O12 0.750000 0.526434 0.091099
O O13 0.483781 0.621094 0.096901
O O14 0.250000 0.750000 0.073052
O O15 0.750000 0.098893 0.733302
O O16 0.517443 0.250000 0.736172
O O17 0.535083 0.041428 0.677545
O O18 0.250000 0.969649 0.384721
O O19 0.397928 0.750000 0.370982
#
# Coordination Sequence:
#
# PCOD8243000 Si02
#       7
#     8   8   4   8   4   8   8
#     4  10  21  37  56  77 102 137 180 218 257 311
#     4  10  20  33  52  79 109 142 182 225 268 314
#     4   9  18  37  61  79 103 141 179 215 258 311
#     4  10  20  38  59  77 103 142 179 213 259 315
#     4  11  23  35  53  85 113 133 169 221 266 307
#     4   9  19  35  56  82 109 137 170 214 268 321
#     4   8  15  31  53  75 103 140 178 215 262 317
#
# _framework density 18.259861999999998
#
# number of rings (size 3 to 8) (size 9 to 14) (size 15 to 20)
#    0.000    2.500    0.833    2.250    1.167    3.000 
#    0.000    3.750    0.000    1.000    0.000    0.000 
#    0.000    0.000    0.000    0.000    0.000    0.000 
#
# Total GULP energy -595151.911712 kJ/mol
# GULP energy per Si atom -12398.998161 kJ/mol
# Density = 1.821830 g / cm^3
# Si number density = 18.259862 Si / 1000 Ang^3
#
#
#
# Elastic Constant Matrix: (Units=GPa)
#
#
# Indices 1 2 3 4 5 6 
#
# 1 63.6379 33.7139 37.2403 0.0000 0.0000 0.0000
# 2 33.7139 81.6164 28.5125 0.0000 0.0000 0.0000
# 3 37.2403 28.5125 81.7789 0.0000 0.0000 0.0000
# 4 0.0000 0.0000 0.0000 30.2608 0.0000 0.0000
# 5 0.0000 0.0000 0.0000 0.0000 34.0516 0.0000
# 6 0.0000 0.0000 0.0000 0.0000 0.0000 19.1037
#
#
#
# Elastic Compliance Matrix: (Units=1/GPa)
#
#
# Indices 1 2 3 4 5 6 
#
# 1 0.024580 -0.007109 -0.008715 0.000000 0.000000 0.000000
# 2 -0.007109 0.016008 -0.002344 0.000000 0.000000 0.000000
# 3 -0.008715 -0.002344 0.017014 0.000000 0.000000 0.000000
# 4 0.000000 0.000000 0.000000 0.033046 0.000000 0.000000
# 5 0.000000 0.000000 0.000000 0.000000 0.029367 0.000000
# 6 0.000000 0.000000 0.000000 0.000000 0.000000 0.052346
#
#
# Mechanical properties :
#
#
# Convention : Reuss Voigt Hill
#
# Bulk Modulus (GPa) = 47.02231 47.32963 47.17597
# Shear Modulus (GPa) = 23.17132 25.18766 24.17949
#
# Velocity S-wave (km/s) = 3.56613 3.71806 3.64289
# Velocity P-wave (km/s) = 6.53942 6.66395 6.60198
#
# Compressibility (1/GPa) = 0.02126650
#
# Stress axis : x y z
#
# Youngs Moduli (GPa) = 40.68391 62.46941 58.77609
#
# Poissons Ratio (x) = 0.44409 0.51221
# Poissons Ratio (y) = 0.28922 0.13777
# Poissons Ratio (z) = 0.35454 0.14642
#
# Static dielectric constant tensor:
#      x y z
#    x 3.347620 0.000000 0.000000 
#    y 0.000000 3.273980 0.000000 
#    z 0.000000 0.000000 3.639650 
# 
# 
# High freq. dielectric constant tensor:
#      x y z
#    x 1.696560 0.000000 0.000000 
#    y 0.000000 1.694750 0.000000 
#    z 0.000000 0.000000 1.717920 
# 
# From -- ./inp_files/33028.got.cif
#   From: 2010.03.12/outbox.cif.g09.slc.cpg/sg59_17_cif.got.tgz:33028.got - 2010.04.16 16:29:54.
