data_PCOD8243890
_publ_section_title
;
Structure prediction by ZEFSAII (Michael W. Deem and Ramdas Pophale) SiO2 
 PCOD8243890
Probable space group: P M M N
;
_chemical_formula_sum "Si O2"
_cell_formula_units_Z 64
_cell_length_a 15.488953
_cell_length_b 8.836258
_cell_length_c 24.008391
_cell_angle_alpha 90.000000
_cell_angle_beta 90.000000
_cell_angle_gamma 90.000000
_cell_volume 3285.893666
_symmetry_space_group_name_H-M "P M M N"
_symmetry_group_IT_number 59
_space_group.IT_coordinate_system_code '2'
_symmetry_cell_setting 'orthorhombic'
loop_
_space_group_symop_operation_xyz
x,y,z
1/2-x,1/2-y,z
1/2+x,-y,-z
-x,1/2+y,-z
-x,-y,-z
1/2+x,1/2+y,-z
1/2-x,y,z
x,1/2-y,z
loop_
_atom_site_type_symbol
_atom_site_label
_atom_site_fract_x
_atom_site_fract_y
_atom_site_fract_z
Si Si1 0.155536 0.570322 0.381562
Si Si2 0.007368 0.071366 0.815352
Si Si3 0.406169 0.071604 0.000055
Si Si4 0.153158 0.576257 0.109796
Si Si5 0.653270 0.923865 0.389735
Si Si6 0.847438 0.424345 0.110234
Si Si7 0.906778 0.428547 0.499347
Si Si8 0.002431 0.069962 0.689774
O O1 0.250000 0.513120 0.361831
O O2 0.150731 0.750000 0.379062
O O3 0.141437 0.516584 0.444902
O O4 0.082193 0.502474 0.340978
O O5 0.023111 0.250000 0.817218
O O6 0.916396 0.027519 0.843820
O O7 0.004808 0.007771 0.752547
O O8 0.086920 0.992473 0.845427
O O9 0.415196 0.250000 0.995399
O O10 0.356111 0.028503 0.055994
O O11 0.500000 0.000000 0.000000
O O12 0.352489 0.011775 0.947898
O O13 0.250000 0.554938 0.134259
O O14 0.137423 0.750000 0.091898
O O15 0.750000 0.940856 0.365703
O O16 0.630837 0.750000 0.403589
O O17 0.587230 0.986692 0.343291
O O18 0.647130 0.017787 0.446325
O O19 0.750000 0.441844 0.133396
O O20 0.871430 0.250000 0.099856
O O21 0.915983 0.250000 0.497588
O O22 0.000000 0.500000 0.500000
O O23 0.998866 0.250000 0.690963
#
# Coordination Sequence:
#
# PCOD8243890 Si02
#       8
#     8   8   8   8   8   8   8   8
#     4   9  17  30  52  81 111 141 178 229 283 335
#     4  10  21  37  60  85 112 152 197 241 283 333
#     4  12  23  37  61  90 119 152 189 231 284 342
#     4  10  21  37  57  86 122 154 187 233 287 339
#     4  10  20  35  55  80 113 151 187 231 286 338
#     4  11  24  41  61  86 118 154 189 234 289 340
#     4  11  20  33  55  82 113 146 184 230 285 344
#     4   9  18  34  54  80 111 146 192 236 279 331
#
# _framework density 19.477197
#
# number of rings (size 3 to 8) (size 9 to 14) (size 15 to 20)
#    0.000    1.750    2.500    2.625    0.000    4.500 
#    0.000    4.375    0.000    0.000    0.000    0.000 
#    0.000    0.000    0.000    0.000    0.000    0.000 
#
# Total GULP energy -793673.555975 kJ/mol
# GULP energy per Si atom -12401.149312 kJ/mol
# Density = 1.943287 g / cm^3
# Si number density = 19.477197 Si / 1000 Ang^3
#
#
#
# Elastic Constant Matrix: (Units=GPa)
#
#
# Indices 1 2 3 4 5 6 
#
# 1 165.9592 37.5054 77.8334 0.0000 0.0000 0.0000
# 2 37.5054 67.4460 41.6758 0.0000 0.0000 0.0000
# 3 77.8334 41.6758 162.7730 0.0000 0.0000 0.0000
# 4 0.0000 0.0000 0.0000 24.8032 0.0000 0.0000
# 5 0.0000 0.0000 0.0000 0.0000 14.2899 0.0000
# 6 0.0000 0.0000 0.0000 0.0000 0.0000 23.0418
#
#
#
# Elastic Compliance Matrix: (Units=1/GPa)
#
#
# Indices 1 2 3 4 5 6 
#
# 1 0.008110 -0.002511 -0.003235 0.000000 0.000000 0.000000
# 2 -0.002511 0.018391 -0.003508 0.000000 0.000000 0.000000
# 3 -0.003235 -0.003508 0.008589 0.000000 0.000000 0.000000
# 4 0.000000 0.000000 0.000000 0.040317 0.000000 0.000000
# 5 0.000000 0.000000 0.000000 0.000000 0.069979 0.000000
# 6 0.000000 0.000000 0.000000 0.000000 0.000000 0.043399
#
#
# Mechanical properties :
#
#
# Convention : Reuss Voigt Hill
#
# Bulk Modulus (GPa) = 60.30891 78.91195 69.61043
# Shear Modulus (GPa) = 23.49390 28.37121 25.93256
#
# Velocity S-wave (km/s) = 3.47684 3.82073 3.65284
# Velocity P-wave (km/s) = 6.86651 7.75029 7.32175
#
# Compressibility (1/GPa) = 0.01658130
#
# Stress axis : x y z
#
# Youngs Moduli (GPa) = 123.29968 54.37565 116.43193
#
# Poissons Ratio (x) = 0.13653 0.37669
# Poissons Ratio (y) = 0.30959 0.40845
# Poissons Ratio (z) = 0.39890 0.19075
#
# Static dielectric constant tensor:
#      x y z
#    x 3.626560 0.000000 0.000000 
#    y 0.000000 3.378520 0.000000 
#    z 0.000000 0.000000 3.724370 
# 
# 
# High freq. dielectric constant tensor:
#      x y z
#    x 1.777650 0.000000 0.000000 
#    y 0.000000 1.729960 0.000000 
#    z 0.000000 0.000000 1.753700 
# 
# From -- ./inp_files/32155.got.cif
#   From: 2010.03.12/outbox.cif.g09.slc.cpg/sg59_17_cif.got.tgz:32155.got - 2010.04.16 16:29:54.
