data_PCOD8243711
_publ_section_title
;
Structure prediction by ZEFSAII (Michael W. Deem and Ramdas Pophale) SiO2 
 PCOD8243711
Probable space group: P M M N
;
_chemical_formula_sum "Si O2"
_cell_formula_units_Z 48
_cell_length_a 9.070159
_cell_length_b 18.781252
_cell_length_c 14.669795
_cell_angle_alpha 90.000000
_cell_angle_beta 90.000000
_cell_angle_gamma 90.000000
_cell_volume 2498.984056
_symmetry_space_group_name_H-M "P M M N"
_symmetry_group_IT_number 59
_space_group.IT_coordinate_system_code '2'
_symmetry_cell_setting 'orthorhombic'
loop_
_space_group_symop_operation_xyz
x,y,z
1/2-x,1/2-y,z
1/2+x,-y,-z
-x,1/2+y,-z
-x,-y,-z
1/2+x,1/2+y,-z
1/2-x,y,z
x,1/2-y,z
loop_
_atom_site_type_symbol
_atom_site_label
_atom_site_fract_x
_atom_site_fract_y
_atom_site_fract_z
Si Si1 0.579649 0.403337 0.064008
Si Si2 0.081106 0.330510 0.208595
Si Si3 0.420918 0.956547 0.129384
Si Si4 0.581376 0.929181 0.308687
Si Si5 0.078463 0.913816 0.634922
Si Si6 0.078736 0.168035 0.524962
O O1 0.750000 0.397769 0.090463
O O2 0.491474 0.337360 0.108110
O O3 0.517097 0.474137 0.110884
O O4 0.556650 0.402360 0.955141
O O5 0.250000 0.354340 0.203663
O O6 0.066208 0.250000 0.243535
O O7 0.996575 0.382002 0.276164
O O8 0.250000 0.978092 0.138758
O O9 0.476282 0.919209 0.221486
O O10 0.750000 0.929178 0.274652
O O11 0.549776 0.862490 0.374304
O O12 0.547912 0.001679 0.364434
O O13 0.250000 0.895686 0.637808
O O14 0.012253 0.879259 0.544936
O O15 0.250000 0.161841 0.498208
O O16 0.026219 0.250000 0.522183
#
# Coordination Sequence:
#
# PCOD8243711 Si02
#       6
#     8   8   8   8   8   8
#     4  10  20  35  55  82 114 148 187 230 280 335
#     4  11  23  37  55  82 116 154 194 236 285 341
#     4  10  20  34  57  85 112 145 185 231 280 330
#     4  10  21  37  58  85 114 147 190 237 283 336
#     4  11  22  36  57  85 113 146 189 237 288 339
#     4  10  22  40  59  80 111 151 191 233 284 341
#
# _framework density 19.207806000000001
#
# number of rings (size 3 to 8) (size 9 to 14) (size 15 to 20)
#    0.000    1.667    1.667    3.000    0.000    7.000 
#    0.000    0.833    0.000    3.000    0.000    0.000 
#    0.000    0.000    0.000    0.000    0.000    0.000 
#
# Total GULP energy -595315.372038 kJ/mol
# GULP energy per Si atom -12402.403584 kJ/mol
# Density = 1.916409 g / cm^3
# Si number density = 19.207806 Si / 1000 Ang^3
#
#
#
# Elastic Constant Matrix: (Units=GPa)
#
#
# Indices 1 2 3 4 5 6 
#
# 1 95.7187 28.0876 52.7614 0.0000 0.0000 0.0000
# 2 28.0876 55.2516 26.6473 0.0000 0.0000 0.0000
# 3 52.7614 26.6473 103.0190 0.0000 0.0000 0.0000
# 4 0.0000 0.0000 0.0000 18.3231 0.0000 0.0000
# 5 0.0000 0.0000 0.0000 0.0000 39.6079 0.0000
# 6 0.0000 0.0000 0.0000 0.0000 0.0000 25.0979
#
#
#
# Elastic Compliance Matrix: (Units=1/GPa)
#
#
# Indices 1 2 3 4 5 6 
#
# 1 0.015532 -0.004638 -0.006755 0.000000 0.000000 0.000000
# 2 -0.004638 0.022064 -0.003332 0.000000 0.000000 0.000000
# 3 -0.006755 -0.003332 0.014028 0.000000 0.000000 0.000000
# 4 0.000000 0.000000 0.000000 0.054576 0.000000 0.000000
# 5 0.000000 0.000000 0.000000 0.000000 0.025248 0.000000
# 6 0.000000 0.000000 0.000000 0.000000 0.000000 0.039844
#
#
# Mechanical properties :
#
#
# Convention : Reuss Voigt Hill
#
# Bulk Modulus (GPa) = 45.09691 52.10912 48.60301
# Shear Modulus (GPa) = 24.02328 26.37195 25.19762
#
# Velocity S-wave (km/s) = 3.54037 3.70940 3.62587
# Velocity P-wave (km/s) = 6.34363 6.74790 6.54889
#
# Compressibility (1/GPa) = 0.02217447
#
# Stress axis : x y z
#
# Youngs Moduli (GPa) = 64.38492 45.32355 71.28439
#
# Poissons Ratio (x) = 0.21020 0.48152
# Poissons Ratio (y) = 0.29860 0.23751
# Poissons Ratio (z) = 0.43491 0.15101
#
# Static dielectric constant tensor:
#      x y z
#    x 3.624710 0.000000 0.000000 
#    y 0.000000 3.414170 0.000000 
#    z 0.000000 0.000000 3.681330 
# 
# 
# High freq. dielectric constant tensor:
#      x y z
#    x 1.757670 0.000000 0.000000 
#    y 0.000000 1.729330 0.000000 
#    z 0.000000 0.000000 1.754310 
# 
# From -- ./inp_files/20295.got.cif
#   From: 2010.03.12/outbox.cif.g09.slc.cpg/sg59_11_cif.got.tgz:20295.got - 2010.04.16 16:29:54.
