data_PCOD8243469
_publ_section_title
;
Structure prediction by ZEFSAII (Michael W. Deem and Ramdas Pophale) SiO2 
 PCOD8243469
Probable space group: P M M N
;
_chemical_formula_sum "Si O2"
_cell_formula_units_Z 48
_cell_length_a 12.573647
_cell_length_b 12.880155
_cell_length_c 16.313728
_cell_angle_alpha 90.000000
_cell_angle_beta 90.000000
_cell_angle_gamma 90.000000
_cell_volume 2642.016770
_symmetry_space_group_name_H-M "P M M N"
_symmetry_group_IT_number 59
_space_group.IT_coordinate_system_code '2'
_symmetry_cell_setting 'orthorhombic'
loop_
_space_group_symop_operation_xyz
x,y,z
1/2-x,1/2-y,z
1/2+x,-y,-z
-x,1/2+y,-z
-x,-y,-z
1/2+x,1/2+y,-z
1/2-x,y,z
x,1/2-y,z
loop_
_atom_site_type_symbol
_atom_site_label
_atom_site_fract_x
_atom_site_fract_y
_atom_site_fract_z
Si Si1 0.991609 0.133755 0.425660
Si Si2 0.374552 0.628304 0.994274
Si Si3 0.014614 0.005743 0.130449
Si Si4 0.373027 0.431809 0.574515
Si Si5 0.371141 0.370497 0.269021
Si Si6 0.871347 0.870087 0.246127
O O1 0.946600 0.250000 0.413839
O O2 0.063371 0.131731 0.506574
O O3 0.061115 0.097928 0.348225
O O4 0.893020 0.055312 0.433932
O O5 0.250000 0.608041 0.977809
O O6 0.397233 0.750000 0.008192
O O7 0.442652 0.588993 0.917265
O O8 0.410821 0.563976 0.073287
O O9 0.937500 0.931160 0.179701
O O10 0.092341 0.066747 0.190156
O O11 0.250000 0.407328 0.561460
O O12 0.413596 0.391860 0.662428
O O13 0.250000 0.399506 0.288949
O O14 0.384463 0.250000 0.248449
O O15 0.750000 0.908120 0.239753
O O16 0.882666 0.750000 0.224947
#
# Coordination Sequence:
#
# PCOD8243469 Si02
#       6
#     8   8   8   8   8   8
#     4  10  20  35  55  80 111 148 184 220 262 310
#     4  10  22  38  56  78 106 140 176 218 270 330
#     4  11  20  36  57  80 106 138 179 220 270 321
#     4  10  20  35  55  80 111 148 184 220 262 310
#     4  10  20  34  54  81 110 140 178 222 266 314
#     4  10  20  34  54  81 110 140 178 222 266 314
#
# _framework density 18.167937999999999
#
# number of rings (size 3 to 8) (size 9 to 14) (size 15 to 20)
#    0.000    1.833    1.667    3.000    0.000    2.000 
#    0.000    0.000    0.000    8.000    0.000    0.000 
#    0.000    0.000    0.000    0.000    0.000    0.000 
#
# Total GULP energy -595326.560055 kJ/mol
# GULP energy per Si atom -12402.636668 kJ/mol
# Density = 1.812659 g / cm^3
# Si number density = 18.167938 Si / 1000 Ang^3
#
#
#
# Elastic Constant Matrix: (Units=GPa)
#
#
# Indices 1 2 3 4 5 6 
#
# 1 34.9343 21.6191 1.0121 0.0000 0.0000 0.0000
# 2 21.6191 67.5993 16.4520 0.0000 0.0000 0.0000
# 3 1.0121 16.4520 69.8064 0.0000 0.0000 0.0000
# 4 0.0000 0.0000 0.0000 20.7209 0.0000 0.0000
# 5 0.0000 0.0000 0.0000 0.0000 25.1915 0.0000
# 6 0.0000 0.0000 0.0000 0.0000 0.0000 38.0660
#
#
#
# Elastic Compliance Matrix: (Units=1/GPa)
#
#
# Indices 1 2 3 4 5 6 
#
# 1 0.036041 -0.012093 0.002328 0.000000 0.000000 0.000000
# 2 -0.012093 0.019751 -0.004480 0.000000 0.000000 0.000000
# 3 0.002328 -0.004480 0.015347 0.000000 0.000000 0.000000
# 4 0.000000 0.000000 0.000000 0.048260 0.000000 0.000000
# 5 0.000000 0.000000 0.000000 0.000000 0.039696 0.000000
# 6 0.000000 0.000000 0.000000 0.000000 0.000000 0.026270
#
#
# Mechanical properties :
#
#
# Convention : Reuss Voigt Hill
#
# Bulk Modulus (GPa) = 23.44691 27.83407 25.64049
# Shear Modulus (GPa) = 21.92285 25.67946 23.80115
#
# Velocity S-wave (km/s) = 3.47750 3.76367 3.62341
# Velocity P-wave (km/s) = 5.39051 5.85155 5.62575
#
# Compressibility (1/GPa) = 0.04264955
#
# Stress axis : x y z
#
# Youngs Moduli (GPa) = 27.74580 50.63098 65.15788
#
# Poissons Ratio (x) = 0.61228 -0.15166
# Poissons Ratio (y) = 0.33553 0.29188
# Poissons Ratio (z) = -0.06458 0.22680
#
# Static dielectric constant tensor:
#      x y z
#    x 3.279050 0.000000 0.000000 
#    y 0.000000 3.360460 0.000000 
#    z 0.000000 0.000000 3.447050 
# 
# 
# High freq. dielectric constant tensor:
#      x y z
#    x 1.699350 0.000000 0.000000 
#    y 0.000000 1.712980 0.000000 
#    z 0.000000 0.000000 1.715950 
# 
# From -- ./inp_files/23153.got.cif
#   From: 2010.03.12/outbox.cif.g09.slc.cpg/sg59_12_cif.got.tgz:23153.got - 2010.04.16 16:29:54.
