data_PCOD8243652
_publ_section_title
;
Structure prediction by ZEFSAII (Michael W. Deem and Ramdas Pophale) SiO2 
 PCOD8243652
Probable space group: P M M N
;
_chemical_formula_sum "Si O2"
_cell_formula_units_Z 40
_cell_length_a 28.697105
_cell_length_b 8.837695
_cell_length_c 7.736811
_cell_angle_alpha 90.000000
_cell_angle_beta 90.000000
_cell_angle_gamma 90.000000
_cell_volume 1962.181081
_symmetry_space_group_name_H-M "P M M N"
_symmetry_group_IT_number 59
_space_group.IT_coordinate_system_code '2'
_symmetry_cell_setting 'orthorhombic'
loop_
_space_group_symop_operation_xyz
x,y,z
1/2-x,1/2-y,z
1/2+x,-y,-z
-x,1/2+y,-z
-x,-y,-z
1/2+x,1/2+y,-z
1/2-x,y,z
x,1/2-y,z
loop_
_atom_site_type_symbol
_atom_site_label
_atom_site_fract_x
_atom_site_fract_y
_atom_site_fract_z
Si Si1 0.949722 0.427665 0.509995
Si Si2 0.198733 0.422318 0.329305
Si Si3 0.397744 0.423077 0.180698
Si Si4 0.302487 0.925596 0.688108
Si Si5 0.391957 0.074563 0.794023
O O1 0.955421 0.250000 0.501663
O O2 0.925839 0.469954 0.690859
O O3 0.919311 0.479422 0.347704
O O4 0.000000 0.500000 0.500000
O O5 0.250000 0.451281 0.245090
O O6 0.195532 0.250000 0.398913
O O7 0.157925 0.453963 0.191818
O O8 0.190864 0.535393 0.487364
O O9 0.408890 0.250000 0.231078
O O10 0.413397 0.456224 0.984003
O O11 0.250000 0.964041 0.748933
O O12 0.314077 0.750000 0.713622
O O13 0.338046 0.024631 0.800177
O O14 0.395377 0.250000 0.744431
#
# Coordination Sequence:
#
# PCOD8243652 Si02
#       5
#     8   8   8   8   8
#     4  12  26  45  69  92 121 159 201 255 314 372
#     4   9  17  32  57  87 121 163 207 251 298 352
#     4  10  22  40  64  94 127 162 206 255 304 364
#     4  10  20  34  55  87 126 168 211 253 301 356
#     4  11  23  40  64  94 128 164 205 252 305 369
#
# _framework density 20.385477000000002
#
# number of rings (size 3 to 8) (size 9 to 14) (size 15 to 20)
#    0.000    1.600    2.000    3.000    0.000    4.400 
#    0.000    2.000    0.000    2.400    0.000    0.000 
#    0.000    0.000    0.000    0.000    0.000    0.000 
#
# Total GULP energy -496007.696472 kJ/mol
# GULP energy per Si atom -12400.192412 kJ/mol
# Density = 2.033908 g / cm^3
# Si number density = 20.385477 Si / 1000 Ang^3
#
#
#
# Elastic Constant Matrix: (Units=GPa)
#
#
# Indices 1 2 3 4 5 6 
#
# 1 118.2950 56.1351 46.6382 0.0000 0.0000 0.0000
# 2 56.1351 123.1947 53.1061 0.0000 0.0000 0.0000
# 3 46.6382 53.1061 101.2645 0.0000 0.0000 0.0000
# 4 0.0000 0.0000 0.0000 16.0671 0.0000 0.0000
# 5 0.0000 0.0000 0.0000 0.0000 8.6438 0.0000
# 6 0.0000 0.0000 0.0000 0.0000 0.0000 36.1835
#
#
#
# Elastic Compliance Matrix: (Units=1/GPa)
#
#
# Indices 1 2 3 4 5 6 
#
# 1 0.011589 -0.003850 -0.003318 0.000000 0.000000 0.000000
# 2 -0.003850 0.011767 -0.004398 0.000000 0.000000 0.000000
# 3 -0.003318 -0.004398 0.013710 0.000000 0.000000 0.000000
# 4 0.000000 0.000000 0.000000 0.062239 0.000000 0.000000
# 5 0.000000 0.000000 0.000000 0.000000 0.115690 0.000000
# 6 0.000000 0.000000 0.000000 0.000000 0.000000 0.027637
#
#
# Mechanical properties :
#
#
# Convention : Reuss Voigt Hill
#
# Bulk Modulus (GPa) = 71.77023 72.72367 72.24695
# Shear Modulus (GPa) = 18.49054 24.63721 21.56387
#
# Velocity S-wave (km/s) = 3.01499 3.48022 3.25592
# Velocity P-wave (km/s) = 6.88500 7.20423 7.04642
#
# Compressibility (1/GPa) = 0.01393335
#
# Stress axis : x y z
#
# Youngs Moduli (GPa) = 86.29134 84.98016 72.94081
#
# Poissons Ratio (x) = 0.32719 0.24203
# Poissons Ratio (y) = 0.33223 0.32079
# Poissons Ratio (z) = 0.28633 0.37374
#
# Static dielectric constant tensor:
#      x y z
#    x 3.849900 0.000000 0.000000 
#    y 0.000000 3.706660 0.000000 
#    z 0.000000 0.000000 3.483320 
# 
# 
# High freq. dielectric constant tensor:
#      x y z
#    x 1.803160 0.000000 0.000000 
#    y 0.000000 1.798840 0.000000 
#    z 0.000000 0.000000 1.783400 
# 
# From -- ./inp_files/6032.got.cif
#   From: 2010.03.12/outbox.cif.g09.slc.cpg/sg59_4_cif.got.tgz:6032.got - 2010.04.16 16:29:54.
