data_PCOD8243341
_publ_section_title
;
Structure prediction by ZEFSAII (Michael W. Deem and Ramdas Pophale) SiO2 
 PCOD8243341
Probable space group: P M M N
;
_chemical_formula_sum "Si O2"
_cell_formula_units_Z 48
_cell_length_a 15.313634
_cell_length_b 9.113350
_cell_length_c 17.206230
_cell_angle_alpha 90.000000
_cell_angle_beta 90.000000
_cell_angle_gamma 90.000000
_cell_volume 2401.275760
_symmetry_space_group_name_H-M "P M M N"
_symmetry_group_IT_number 59
_space_group.IT_coordinate_system_code '2'
_symmetry_cell_setting 'orthorhombic'
loop_
_space_group_symop_operation_xyz
x,y,z
1/2-x,1/2-y,z
1/2+x,-y,-z
-x,1/2+y,-z
-x,-y,-z
1/2+x,1/2+y,-z
1/2-x,y,z
x,1/2-y,z
loop_
_atom_site_type_symbol
_atom_site_label
_atom_site_fract_x
_atom_site_fract_y
_atom_site_fract_z
Si Si1 0.750000 0.574427 0.085043
Si Si2 0.405387 0.422268 0.199844
Si Si3 0.607331 0.422942 0.186231
Si Si4 0.086837 0.911069 0.350857
Si Si5 0.383752 0.412199 0.662578
Si Si6 0.750000 0.923410 0.908065
Si Si7 0.348622 0.415679 0.492294
O O1 0.750000 0.750000 0.093944
O O2 0.661687 0.508384 0.121107
O O3 0.750000 0.520887 0.996020
O O4 0.397665 0.250000 0.213433
O O5 0.504767 0.463110 0.175771
O O6 0.373290 0.494676 0.280548
O O7 0.338517 0.479908 0.134021
O O8 0.623764 0.250000 0.178918
O O9 0.644736 0.476769 0.269494
O O10 0.131276 0.750000 0.352921
O O11 0.986110 0.894537 0.334560
O O12 0.095393 0.986719 0.434367
O O13 0.341236 0.250000 0.675320
O O14 0.353334 0.478754 0.579961
O O15 0.750000 0.750000 0.905993
O O16 0.250000 0.418722 0.461873
O O17 0.386468 0.250000 0.492290
#
# Coordination Sequence:
#
# PCOD8243341 Si02
#       7
#     4   8   8   8   8   4   8
#     4  11  23  39  61  86 115 150 189 231 280 345
#     4   9  19  38  62  85 114 151 192 234 279 340
#     4  10  21  37  59  88 118 149 187 235 289 338
#     4  10  20  34  53  79 111 144 184 233 284 332
#     4   9  19  36  56  78 106 146 191 232 277 333
#     4   9  20  39  63  88 111 148 193 229 276 343
#     4  10  21  34  50  75 106 145 191 230 272 328
#
# _framework density 19.989374000000002
#
# number of rings (size 3 to 8) (size 9 to 14) (size 15 to 20)
#    0.000    2.333    0.000    1.750    2.333    3.000 
#    0.000    1.667    0.000    0.000    0.000    0.000 
#    0.000    0.000    0.000    0.000    0.000    0.000 
#
# Total GULP energy -595084.848183 kJ/mol
# GULP energy per Si atom -12397.601004 kJ/mol
# Density = 1.994388 g / cm^3
# Si number density = 19.989374 Si / 1000 Ang^3
#
#
#
# Elastic Constant Matrix: (Units=GPa)
#
#
# Indices 1 2 3 4 5 6 
#
# 1 77.0551 36.9865 57.7034 0.0000 0.0000 0.0000
# 2 36.9865 90.7533 63.3291 0.0000 0.0000 0.0000
# 3 57.7034 63.3291 166.9775 0.0000 0.0000 0.0000
# 4 0.0000 0.0000 0.0000 23.6755 0.0000 0.0000
# 5 0.0000 0.0000 0.0000 0.0000 32.1865 0.0000
# 6 0.0000 0.0000 0.0000 0.0000 0.0000 9.4929
#
#
#
# Elastic Compliance Matrix: (Units=1/GPa)
#
#
# Indices 1 2 3 4 5 6 
#
# 1 0.018623 -0.004214 -0.004837 0.000000 0.000000 0.000000
# 2 -0.004214 0.015938 -0.004589 0.000000 0.000000 0.000000
# 3 -0.004837 -0.004589 0.009401 0.000000 0.000000 0.000000
# 4 0.000000 0.000000 0.000000 0.042238 0.000000 0.000000
# 5 0.000000 0.000000 0.000000 0.000000 0.031069 0.000000
# 6 0.000000 0.000000 0.000000 0.000000 0.000000 0.105342
#
#
# Mechanical properties :
#
#
# Convention : Reuss Voigt Hill
#
# Bulk Modulus (GPa) = 59.94515 72.31376 66.12946
# Shear Modulus (GPa) = 19.57315 24.85543 22.21429
#
# Velocity S-wave (km/s) = 3.13258 3.53006 3.33724
# Velocity P-wave (km/s) = 6.56793 7.27116 6.92847
#
# Compressibility (1/GPa) = 0.01668192
#
# Stress axis : x y z
#
# Youngs Moduli (GPa) = 53.69684 62.74165 106.37392
#
# Poissons Ratio (x) = 0.26441 0.51457
# Poissons Ratio (y) = 0.22629 0.48810
# Poissons Ratio (z) = 0.25975 0.28789
#
# Static dielectric constant tensor:
#      x y z
#    x 3.624380 0.000000 0.000000 
#    y 0.000000 3.781460 0.000000 
#    z 0.000000 0.000000 3.735160 
# 
# 
# High freq. dielectric constant tensor:
#      x y z
#    x 1.781150 0.000000 0.000000 
#    y 0.000000 1.769030 0.000000 
#    z 0.000000 0.000000 1.778850 
# 
# From -- ./inp_files/23753.got.cif
#   From: 2010.03.12/outbox.cif.g09.slc.cpg/sg59_12_cif.got.tgz:23753.got - 2010.04.16 16:29:54.
