data_PCOD8243603
_publ_section_title
;
Structure prediction by ZEFSAII (Michael W. Deem and Ramdas Pophale) SiO2 
 PCOD8243603
Probable space group: P M M N
;
_chemical_formula_sum "Si O2"
_cell_formula_units_Z 48
_cell_length_a 30.739741
_cell_length_b 9.035666
_cell_length_c 8.971053
_cell_angle_alpha 90.000000
_cell_angle_beta 90.000000
_cell_angle_gamma 90.000000
_cell_volume 2491.746147
_symmetry_space_group_name_H-M "P M M N"
_symmetry_group_IT_number 59
_space_group.IT_coordinate_system_code '2'
_symmetry_cell_setting 'orthorhombic'
loop_
_space_group_symop_operation_xyz
x,y,z
1/2-x,1/2-y,z
1/2+x,-y,-z
-x,1/2+y,-z
-x,-y,-z
1/2+x,1/2+y,-z
1/2-x,y,z
x,1/2-y,z
loop_
_atom_site_type_symbol
_atom_site_label
_atom_site_fract_x
_atom_site_fract_y
_atom_site_fract_z
Si Si1 0.593234 0.918813 0.338759
Si Si2 0.750000 0.420574 0.657218
Si Si3 0.086164 0.077392 0.313742
Si Si4 0.003042 0.920376 0.344023
Si Si5 0.170322 0.921968 0.812425
Si Si6 0.250000 0.425075 0.653800
Si Si7 0.164236 0.919922 0.158254
O O1 0.609495 0.750000 0.319116
O O2 0.594302 0.961981 0.513274
O O3 0.544629 0.936183 0.268887
O O4 0.623569 0.030304 0.249374
O O5 0.750000 0.250000 0.604746
O O6 0.750000 0.527426 0.517109
O O7 0.791928 0.457771 0.754957
O O8 0.079304 0.250000 0.290115
O O9 0.042250 0.997145 0.252501
O O10 0.126441 0.024811 0.216522
O O11 0.014914 0.750000 0.369399
O O12 0.000000 0.000000 0.500000
O O13 0.177796 0.750000 0.777356
O O14 0.207223 0.014896 0.732319
O O15 0.172836 0.955426 0.986606
O O16 0.250000 0.250000 0.663143
O O17 0.150289 0.750000 0.181704
#
# Coordination Sequence:
#
# PCOD8243603 Si02
#       7
#     8   4   8   8   8   4   8
#     4   9  19  35  55  83 114 144 183 230 277 326
#     4  10  21  40  64  84 106 140 181 226 272 320
#     4  10  20  34  55  83 113 146 187 231 276 329
#     4   9  17  31  53  80 111 145 185 233 279 324
#     4  11  23  39  59  83 112 147 186 225 271 329
#     4  12  25  40  60  86 114 142 179 226 272 324
#     4  10  22  39  58  82 112 145 183 227 274 326
#
# _framework density 19.263601000000001
#
# number of rings (size 3 to 8) (size 9 to 14) (size 15 to 20)
#    0.000    2.000    0.000    4.750    0.000   10.000 
#    0.000    1.667    0.000    0.000    0.000    0.000 
#    0.000    0.000    0.000    0.000    0.000    0.000 
#
# Total GULP energy -595234.018467 kJ/mol
# GULP energy per Si atom -12400.708718 kJ/mol
# Density = 1.921976 g / cm^3
# Si number density = 19.263601 Si / 1000 Ang^3
#
#
#
# Elastic Constant Matrix: (Units=GPa)
#
#
# Indices 1 2 3 4 5 6 
#
# 1 148.1797 81.2618 57.0757 0.0000 0.0000 0.0000
# 2 81.2618 134.2300 64.5104 0.0000 0.0000 0.0000
# 3 57.0757 64.5104 94.4064 0.0000 0.0000 0.0000
# 4 0.0000 0.0000 0.0000 23.8002 0.0000 0.0000
# 5 0.0000 0.0000 0.0000 0.0000 -195.7265 0.0000
# 6 0.0000 0.0000 0.0000 0.0000 0.0000 37.7092
#
#
#
# Elastic Compliance Matrix: (Units=1/GPa)
#
#
# Indices 1 2 3 4 5 6 
#
# 1 0.010654 -0.004994 -0.003028 0.000000 0.000000 0.000000
# 2 -0.004994 0.013434 -0.006160 0.000000 0.000000 0.000000
# 3 -0.003028 -0.006160 0.016633 0.000000 0.000000 0.000000
# 4 0.000000 0.000000 0.000000 0.042016 0.000000 0.000000
# 5 0.000000 0.000000 0.000000 0.000000 -0.005109 0.000000
# 6 0.000000 0.000000 0.000000 0.000000 0.000000 0.026519
#
#
# Mechanical properties :
#
#
# Convention : Reuss Voigt Hill
#
# Bulk Modulus (GPa) = 80.94046 86.94575 83.94310
# Shear Modulus (GPa) = 36.59480 -15.24554 10.67463
#
# Velocity S-wave (km/s) = 4.36327 -2.81627 2.35656
# Velocity P-wave (km/s) = 8.21539 5.88707 7.14669
#
# Compressibility (1/GPa) = 0.01235476
#
# Stress axis : x y z
#
# Youngs Moduli (GPa) = 93.86190 74.43707 60.12183
#
# Poissons Ratio (x) = 0.37177 0.18207
# Poissons Ratio (y) = 0.46879 0.37037
# Poissons Ratio (z) = 0.28424 0.45856
#
# Static dielectric constant tensor:
#      x y z
#    x 3.847600 0.000000 0.000000 
#    y 0.000000 3.645310 0.000000 
#    z 0.000000 0.000000 3.337250 
# 
# 
# High freq. dielectric constant tensor:
#      x y z
#    x 1.770450 0.000000 0.000000 
#    y 0.000000 1.757880 0.000000 
#    z 0.000000 0.000000 1.725780 
# 
# From -- ./inp_files/13026.got.cif
#   From: 2010.03.12/outbox.cif.g09.slc.cpg/sg59_7_cif.got.tgz:13026.got - 2010.04.16 16:29:54.
