data_PCOD8243327
_publ_section_title
;
Structure prediction by ZEFSAII (Michael W. Deem and Ramdas Pophale) SiO2 
 PCOD8243327
Probable space group: P M M N
;
_chemical_formula_sum "Si O2"
_cell_formula_units_Z 40
_cell_length_a 8.803424
_cell_length_b 14.506692
_cell_length_c 16.624800
_cell_angle_alpha 90.000000
_cell_angle_beta 90.000000
_cell_angle_gamma 90.000000
_cell_volume 2123.129277
_symmetry_space_group_name_H-M "P M M N"
_symmetry_group_IT_number 59
_space_group.IT_coordinate_system_code '2'
_symmetry_cell_setting 'orthorhombic'
loop_
_space_group_symop_operation_xyz
x,y,z
1/2-x,1/2-y,z
1/2+x,-y,-z
-x,1/2+y,-z
-x,-y,-z
1/2+x,1/2+y,-z
1/2-x,y,z
x,1/2-y,z
loop_
_atom_site_type_symbol
_atom_site_label
_atom_site_fract_x
_atom_site_fract_y
_atom_site_fract_z
Si Si1 0.071932 0.750000 0.700605
Si Si2 0.927819 0.892828 0.586060
Si Si3 0.424097 0.250000 0.129454
Si Si4 0.571874 0.103801 0.578432
Si Si5 0.068746 0.750000 0.115297
Si Si6 0.428387 0.398892 0.996314
Si Si7 0.429449 0.750000 0.295587
O O1 0.250000 0.750000 0.689473
O O2 0.005054 0.840881 0.659628
O O3 0.033284 0.750000 0.794495
O O4 0.750000 0.874960 0.590596
O O5 0.988036 0.856754 0.500337
O O6 0.972900 0.999089 0.595898
O O7 0.250000 0.250000 0.158459
O O8 0.458542 0.342324 0.078310
O O9 0.750000 0.116372 0.562914
O O10 0.515274 0.160055 0.655934
O O11 0.250000 0.750000 0.109971
O O12 0.003926 0.750000 0.206117
O O13 0.005928 0.656970 0.075753
O O14 0.250000 0.406952 0.979098
O O15 0.500000 0.500000 0.000000
O O16 0.250000 0.750000 0.288832
#
# Coordination Sequence:
#
# PCOD8243327 Si02
#       7
#     4   8   4   8   4   8   4
#     4  12  24  36  54  79 108 143 184 231 278 323
#     4  10  20  34  53  78 109 145 184 226 274 324
#     4   9  21  40  58  80 111 143 179 224 275 332
#     4   9  18  34  55  78 107 144 185 225 266 319
#     4  10  20  35  56  84 114 144 184 228 273 330
#     4  10  21  39  62  85 111 145 181 222 275 331
#     4   9  18  33  54  79 107 142 179 217 266 321
#
# _framework density 18.840116999999999
#
# number of rings (size 3 to 8) (size 9 to 14) (size 15 to 20)
#    0.000    2.200    0.000    3.600    0.000    5.600 
#    0.000    6.000    0.000    0.000    0.000    0.000 
#    0.000    0.000    0.000    0.000    0.000    0.000 
#
# Total GULP energy -496051.562181 kJ/mol
# GULP energy per Si atom -12401.289055 kJ/mol
# Density = 1.879724 g / cm^3
# Si number density = 18.840117 Si / 1000 Ang^3
#
#
#
# Elastic Constant Matrix: (Units=GPa)
#
#
# Indices 1 2 3 4 5 6 
#
# 1 90.6659 47.2204 54.7812 0.0000 0.0000 0.0000
# 2 47.2204 138.5710 71.6330 0.0000 0.0000 0.0000
# 3 54.7812 71.6330 154.0231 0.0000 0.0000 0.0000
# 4 0.0000 0.0000 0.0000 35.3692 0.0000 0.0000
# 5 0.0000 0.0000 0.0000 0.0000 33.5882 0.0000
# 6 0.0000 0.0000 0.0000 0.0000 0.0000 30.2988
#
#
#
# Elastic Compliance Matrix: (Units=1/GPa)
#
#
# Indices 1 2 3 4 5 6 
#
# 1 0.014995 -0.003097 -0.003893 0.000000 0.000000 0.000000
# 2 -0.003097 0.010140 -0.003614 0.000000 0.000000 0.000000
# 3 -0.003893 -0.003614 0.009558 0.000000 0.000000 0.000000
# 4 0.000000 0.000000 0.000000 0.028273 0.000000 0.000000
# 5 0.000000 0.000000 0.000000 0.000000 0.029772 0.000000
# 6 0.000000 0.000000 0.000000 0.000000 0.000000 0.033005
#
#
# Mechanical properties :
#
#
# Convention : Reuss Voigt Hill
#
# Bulk Modulus (GPa) = 74.16100 81.16989 77.66544
# Shear Modulus (GPa) = 33.01488 33.82629 33.42058
#
# Velocity S-wave (km/s) = 4.19067 4.24186 4.21634
# Velocity P-wave (km/s) = 7.92871 8.19562 8.06327
#
# Compressibility (1/GPa) = 0.01348418
#
# Stress axis : x y z
#
# Youngs Moduli (GPa) = 66.69057 98.61462 104.62435
#
# Poissons Ratio (x) = 0.30545 0.40726
# Poissons Ratio (y) = 0.20657 0.37816
# Poissons Ratio (z) = 0.25960 0.35644
#
# Static dielectric constant tensor:
#      x y z
#    x 3.442840 0.000000 0.000000 
#    y 0.000000 3.464580 0.000000 
#    z 0.000000 0.000000 3.568660 
# 
# 
# High freq. dielectric constant tensor:
#      x y z
#    x 1.730210 0.000000 0.000000 
#    y 0.000000 1.742940 0.000000 
#    z 0.000000 0.000000 1.731760 
# 
# From -- ./inp_files/20038.got.cif
#   From: 2010.03.12/outbox.cif.g09.slc.cpg/sg59_11_cif.got.tgz:20038.got - 2010.04.16 16:29:54.
