data_PCOD8243344
_publ_section_title
;
Structure prediction by ZEFSAII (Michael W. Deem and Ramdas Pophale) SiO2 
 PCOD8243344
Probable space group: P M M N
;
_chemical_formula_sum "Si O2"
_cell_formula_units_Z 32
_cell_length_a 26.530874
_cell_length_b 8.993038
_cell_length_c 7.794189
_cell_angle_alpha 90.000000
_cell_angle_beta 90.000000
_cell_angle_gamma 90.000000
_cell_volume 1859.640168
_symmetry_space_group_name_H-M "P M M N"
_symmetry_group_IT_number 59
_space_group.IT_coordinate_system_code '2'
_symmetry_cell_setting 'orthorhombic'
loop_
_space_group_symop_operation_xyz
x,y,z
1/2-x,1/2-y,z
1/2+x,-y,-z
-x,1/2+y,-z
-x,-y,-z
1/2+x,1/2+y,-z
1/2-x,y,z
x,1/2-y,z
loop_
_atom_site_type_symbol
_atom_site_label
_atom_site_fract_x
_atom_site_fract_y
_atom_site_fract_z
Si Si1 0.448120 0.082036 0.970303
Si Si2 0.146099 0.082165 0.167204
Si Si3 0.641888 0.425446 0.163811
Si Si4 0.808812 0.921019 0.479270
O O1 0.458877 0.250000 0.908541
O O2 0.415140 0.080998 0.147086
O O3 0.500000 0.000000 0.000000
O O4 0.414408 0.997930 0.825263
O O5 0.167275 0.250000 0.145958
O O6 0.161902 0.019789 0.352158
O O7 0.169039 0.981448 0.012654
O O8 0.636908 0.250000 0.162737
O O9 0.675257 0.476116 0.322764
O O10 0.750000 0.940026 0.514040
O O11 0.822918 0.750000 0.438821
#
# Coordination Sequence:
#
# PCOD8243344 Si02
#       4
#     8   8   8   8
#     4   9  17  33  56  80 106 139 179 219 266 316
#     4   8  18  35  54  77 106 138 178 223 262 311
#     4  10  20  34  53  79 112 142 173 215 266 318
#     4  10  20  36  57  78 103 139 181 221 263 312
#
# _framework density 17.207629000000001
#
# number of rings (size 3 to 8) (size 9 to 14) (size 15 to 20)
#    1.500    1.250    0.000    2.250    0.000    2.500 
#    0.000    3.750    0.000    0.000    0.000    0.000 
#    0.000    0.000    0.000    0.000    0.000    0.000 
#
# Total GULP energy -396458.662120 kJ/mol
# GULP energy per Si atom -12389.333191 kJ/mol
# Density = 1.716846 g / cm^3
# Si number density = 17.207629 Si / 1000 Ang^3
#
#
#
# Elastic Constant Matrix: (Units=GPa)
#
#
# Indices 1 2 3 4 5 6 
#
# 1 68.8387 34.1737 27.0097 0.0000 0.0000 0.0000
# 2 34.1737 125.3910 50.4797 0.0000 0.0000 0.0000
# 3 27.0097 50.4797 96.9739 0.0000 0.0000 0.0000
# 4 0.0000 0.0000 0.0000 9.5305 0.0000 0.0000
# 5 0.0000 0.0000 0.0000 0.0000 26.0525 0.0000
# 6 0.0000 0.0000 0.0000 0.0000 0.0000 27.4521
#
#
#
# Elastic Compliance Matrix: (Units=1/GPa)
#
#
# Indices 1 2 3 4 5 6 
#
# 1 0.017472 -0.003546 -0.003021 0.000000 0.000000 0.000000
# 2 -0.003546 0.010809 -0.004639 0.000000 0.000000 0.000000
# 3 -0.003021 -0.004639 0.013568 0.000000 0.000000 0.000000
# 4 0.000000 0.000000 0.000000 0.104926 0.000000 0.000000
# 5 0.000000 0.000000 0.000000 0.000000 0.038384 0.000000
# 6 0.000000 0.000000 0.000000 0.000000 0.000000 0.036427
#
#
# Mechanical properties :
#
#
# Convention : Reuss Voigt Hill
#
# Bulk Modulus (GPa) = 51.44454 57.17000 54.30727
# Shear Modulus (GPa) = 19.96194 24.57640 22.26917
#
# Velocity S-wave (km/s) = 3.40967 3.78329 3.60133
# Velocity P-wave (km/s) = 6.74258 7.23741 6.99437
#
# Compressibility (1/GPa) = 0.01943841
#
# Stress axis : x y z
#
# Youngs Moduli (GPa) = 57.23400 92.51578 73.70156
#
# Poissons Ratio (x) = 0.32804 0.22263
# Poissons Ratio (y) = 0.20294 0.34190
# Poissons Ratio (z) = 0.17289 0.42918
#
# Static dielectric constant tensor:
#      x y z
#    x 3.035230 0.000000 0.000000 
#    y 0.000000 3.182520 0.000000 
#    z 0.000000 0.000000 3.059010 
# 
# 
# High freq. dielectric constant tensor:
#      x y z
#    x 1.649590 0.000000 0.000000 
#    y 0.000000 1.666980 0.000000 
#    z 0.000000 0.000000 1.645050 
# 
# From -- ./inp_files/575.got.cif
#   From: 2010.03.12/outbox.cif.g09.slc.cpg/sg59_1_cif.got.tgz:575.got - 2010.04.16 16:29:54.
