data_PCOD8243805
_publ_section_title
;
Structure prediction by ZEFSAII (Michael W. Deem and Ramdas Pophale) SiO2 
 PCOD8243805
Probable space group: P M M N
;
_chemical_formula_sum "Si O2"
_cell_formula_units_Z 64
_cell_length_a 24.219492
_cell_length_b 9.040907
_cell_length_c 15.398721
_cell_angle_alpha 90.000000
_cell_angle_beta 90.000000
_cell_angle_gamma 90.000000
_cell_volume 3371.799034
_symmetry_space_group_name_H-M "P M M N"
_symmetry_group_IT_number 59
_space_group.IT_coordinate_system_code '2'
_symmetry_cell_setting 'orthorhombic'
loop_
_space_group_symop_operation_xyz
x,y,z
1/2-x,1/2-y,z
1/2+x,-y,-z
-x,1/2+y,-z
-x,-y,-z
1/2+x,1/2+y,-z
1/2-x,y,z
x,1/2-y,z
loop_
_atom_site_type_symbol
_atom_site_label
_atom_site_fract_x
_atom_site_fract_y
_atom_site_fract_z
Si Si1 0.186456 0.925706 0.017237
Si Si2 0.110155 0.575820 0.170370
Si Si3 0.187129 0.575347 0.704021
Si Si4 0.003322 0.076082 0.908052
Si Si5 0.627320 0.417952 0.458030
Si Si6 0.374714 0.424491 0.857517
Si Si7 0.591401 0.075067 0.642306
Si Si8 0.991431 0.418991 0.410653
O O1 0.250000 0.974680 0.023004
O O2 0.180970 0.750000 0.007444
O O3 0.156043 0.986938 0.104145
O O4 0.158341 0.999242 0.934895
O O5 0.109981 0.750000 0.160532
O O6 0.125593 0.533692 0.270449
O O7 0.048717 0.517033 0.147892
O O8 0.250000 0.539954 0.727977
O O9 0.174343 0.750000 0.712688
O O10 0.176173 0.520974 0.603820
O O11 0.148089 0.483870 0.767064
O O12 0.999760 0.250000 0.923338
O O13 0.060599 0.032987 0.861251
O O14 0.000000 0.000000 0.000000
O O15 0.640376 0.250000 0.481713
O O16 0.620010 0.492979 0.554171
O O17 0.573992 0.431163 0.394070
O O18 0.365454 0.250000 0.863760
O O19 0.582772 0.250000 0.632934
O O20 0.530441 0.004373 0.657545
O O21 0.010878 0.250000 0.416032
O O22 0.000000 0.500000 0.500000
#
# Coordination Sequence:
#
# PCOD8243805 Si02
#       8
#     8   8   8   8   8   8   8   8
#     4  10  20  36  58  79 102 140 184 220 259 313
#     4   9  18  33  53  78 110 141 172 215 260 312
#     4  10  21  37  55  74 101 141 183 219 263 320
#     4  10  20  35  54  78 108 142 177 214 267 322
#     4   8  16  31  49  72  99 128 167 212 255 297
#     4  11  23  36  54  81 108 136 174 221 274 323
#     4   9  17  31  52  74 103 138 168 207 261 311
#     4   9  16  28  46  70  99 130 165 207 253 305
#
# _framework density 18.980964
#
# number of rings (size 3 to 8) (size 9 to 14) (size 15 to 20)
#    0.000    2.500    1.250    1.875    1.750    2.500 
#    0.000    4.375    0.000    3.750    0.000    0.000 
#    0.000    6.000    0.000    0.000    0.000    0.000 
#
# Total GULP energy -792890.058416 kJ/mol
# GULP energy per Si atom -12388.907163 kJ/mol
# Density = 1.893776 g / cm^3
# Si number density = 18.980964 Si / 1000 Ang^3
#
#
#
# Elastic Constant Matrix: (Units=GPa)
#
#
# Indices 1 2 3 4 5 6 
#
# 1 107.5660 21.8816 51.8222 0.0000 0.0000 0.0000
# 2 21.8816 33.1948 15.3179 0.0000 0.0000 0.0000
# 3 51.8222 15.3179 129.3653 0.0000 0.0000 0.0000
# 4 0.0000 0.0000 0.0000 17.1795 0.0000 0.0000
# 5 0.0000 0.0000 0.0000 0.0000 27.1473 0.0000
# 6 0.0000 0.0000 0.0000 0.0000 0.0000 21.2852
#
#
#
# Elastic Compliance Matrix: (Units=1/GPa)
#
#
# Indices 1 2 3 4 5 6 
#
# 1 0.012673 -0.006359 -0.004324 0.000000 0.000000 0.000000
# 2 -0.006359 0.035057 -0.001604 0.000000 0.000000 0.000000
# 3 -0.004324 -0.001604 0.009652 0.000000 0.000000 0.000000
# 4 0.000000 0.000000 0.000000 0.058209 0.000000 0.000000
# 5 0.000000 0.000000 0.000000 0.000000 0.036836 0.000000
# 6 0.000000 0.000000 0.000000 0.000000 0.000000 0.046981
#
#
# Mechanical properties :
#
#
# Convention : Reuss Voigt Hill
#
# Bulk Modulus (GPa) = 30.47910 49.79661 40.13786
# Shear Modulus (GPa) = 21.28408 25.19602 23.24005
#
# Velocity S-wave (km/s) = 3.35227 3.64735 3.50292
# Velocity P-wave (km/s) = 5.57460 6.63548 6.12804
#
# Compressibility (1/GPa) = 0.03280937
#
# Stress axis : x y z
#
# Youngs Moduli (GPa) = 78.90644 28.52510 103.60530
#
# Poissons Ratio (x) = 0.18139 0.44797
# Poissons Ratio (y) = 0.50175 0.16616
# Poissons Ratio (z) = 0.34118 0.04575
#
# Static dielectric constant tensor:
#      x y z
#    x 3.957740 0.000000 0.000000 
#    y 0.000000 3.461330 0.000000 
#    z 0.000000 0.000000 3.595230 
# 
# 
# High freq. dielectric constant tensor:
#      x y z
#    x 1.730550 0.000000 0.000000 
#    y 0.000000 1.705530 0.000000 
#    z 0.000000 0.000000 1.745260 
# 
# From -- ./inp_files/24666.got.cif
#   From: 2010.03.12/outbox.cif.g09.slc.cpg/sg59_13_cif.got.tgz:24666.got - 2010.04.16 16:29:54.
