data_PCOD8243995
_publ_section_title
;
Structure prediction by ZEFSAII (Michael W. Deem and Ramdas Pophale) SiO2 
 PCOD8243995
Probable space group: P M M N
;
_chemical_formula_sum "Si O2"
_cell_formula_units_Z 56
_cell_length_a 15.648095
_cell_length_b 8.977269
_cell_length_c 20.825351
_cell_angle_alpha 90.000000
_cell_angle_beta 90.000000
_cell_angle_gamma 90.000000
_cell_volume 2925.486126
_symmetry_space_group_name_H-M "P M M N"
_symmetry_group_IT_number 59
_space_group.IT_coordinate_system_code '2'
_symmetry_cell_setting 'orthorhombic'
loop_
_space_group_symop_operation_xyz
x,y,z
1/2-x,1/2-y,z
1/2+x,-y,-z
-x,1/2+y,-z
-x,-y,-z
1/2+x,1/2+y,-z
1/2-x,y,z
x,1/2-y,z
loop_
_atom_site_type_symbol
_atom_site_label
_atom_site_fract_x
_atom_site_fract_y
_atom_site_fract_z
Si Si1 0.408368 0.075916 0.807535
Si Si2 0.653478 0.917441 0.865583
Si Si3 0.750000 0.426922 0.404849
Si Si4 0.555890 0.917729 0.741229
Si Si5 0.906208 0.424838 0.494818
Si Si6 0.654181 0.581506 0.615590
Si Si7 0.006939 0.923162 0.067813
Si Si8 0.750000 0.426094 0.257302
O O1 0.387237 0.250000 0.803521
O O2 0.433707 0.028527 0.880676
O O3 0.485811 0.038917 0.759936
O O4 0.329470 0.981274 0.783691
O O5 0.750000 0.963179 0.878175
O O6 0.634240 0.750000 0.890846
O O7 0.635242 0.925917 0.789853
O O8 0.598566 0.036222 0.903996
O O9 0.750000 0.250000 0.407730
O O10 0.839420 0.481793 0.438936
O O11 0.750000 0.486371 0.331055
O O12 0.516626 0.750000 0.741733
O O13 0.588414 0.960667 0.671229
O O14 0.921632 0.250000 0.487033
O O15 0.857415 0.461519 0.560105
O O16 0.000000 0.500000 0.500000
O O17 0.750000 0.569617 0.642640
O O18 0.636264 0.750000 0.590613
O O19 0.001612 0.750000 0.055763
O O20 0.000000 0.000000 0.000000
O O21 0.750000 0.250000 0.259130
#
# Coordination Sequence:
#
# PCOD8243995 Si02
#       8
#     8   8   4   8   8   8   8   4
#     4  10  22  40  59  87 120 150 189 244 294 341
#     4   9  17  32  55  83 113 147 186 225 272 330
#     4   9  22  43  63  83 117 156 199 252 307 359
#     4   9  18  33  56  83 114 151 188 229 278 343
#     4  11  23  41  60  83 114 152 196 248 304 365
#     4  10  20  35  56  84 116 149 189 237 288 346
#     4  10  21  38  60  84 117 154 189 231 283 337
#     4  11  23  41  65  87 111 154 203 248 297 355
#
# _framework density 19.142116999999999
#
# number of rings (size 3 to 8) (size 9 to 14) (size 15 to 20)
#    0.000    2.143    0.714    1.929    2.000    4.286 
#    1.286    2.143    0.000    2.571    0.000    0.000 
#    0.000    0.000    0.000    0.000    0.000    0.000 
#
# Total GULP energy -694096.979304 kJ/mol
# GULP energy per Si atom -12394.588916 kJ/mol
# Density = 1.909855 g / cm^3
# Si number density = 19.142117 Si / 1000 Ang^3
#
#
#
# Elastic Constant Matrix: (Units=GPa)
#
#
# Indices 1 2 3 4 5 6 
#
# 1 123.4659 42.1238 62.8932 0.0000 0.0000 0.0000
# 2 42.1238 59.2931 49.4304 0.0000 0.0000 0.0000
# 3 62.8932 49.4304 135.4757 0.0000 0.0000 0.0000
# 4 0.0000 0.0000 0.0000 31.1415 0.0000 0.0000
# 5 0.0000 0.0000 0.0000 0.0000 19.8663 0.0000
# 6 0.0000 0.0000 0.0000 0.0000 0.0000 30.1818
#
#
#
# Elastic Compliance Matrix: (Units=1/GPa)
#
#
# Indices 1 2 3 4 5 6 
#
# 1 0.011716 -0.005445 -0.003452 0.000000 0.000000 0.000000
# 2 -0.005445 0.026769 -0.007239 0.000000 0.000000 0.000000
# 3 -0.003452 -0.007239 0.011625 0.000000 0.000000 0.000000
# 4 0.000000 0.000000 0.000000 0.032111 0.000000 0.000000
# 5 0.000000 0.000000 0.000000 0.000000 0.050337 0.000000
# 6 0.000000 0.000000 0.000000 0.000000 0.000000 0.033133
#
#
# Mechanical properties :
#
#
# Convention : Reuss Voigt Hill
#
# Bulk Modulus (GPa) = 56.06377 69.68106 62.87241
# Shear Modulus (GPa) = 24.52071 27.15706 25.83889
#
# Velocity S-wave (km/s) = 3.58296 3.77066 3.67801
# Velocity P-wave (km/s) = 6.81679 7.44568 7.13816
#
# Compressibility (1/GPa) = 0.01783683
#
# Stress axis : x y z
#
# Youngs Moduli (GPa) = 85.35531 37.35678 86.01950
#
# Poissons Ratio (x) = 0.20342 0.29695
# Poissons Ratio (y) = 0.46479 0.62270
# Poissons Ratio (z) = 0.29465 0.27043
#
# Static dielectric constant tensor:
#      x y z
#    x 4.383590 0.000000 0.000000 
#    y 0.000000 3.638980 0.000000 
#    z 0.000000 0.000000 3.662080 
# 
# 
# High freq. dielectric constant tensor:
#      x y z
#    x 1.749360 0.000000 0.000000 
#    y 0.000000 1.735670 0.000000 
#    z 0.000000 0.000000 1.744640 
# 
# From -- ./inp_files/30453.got.cif
#   From: 2010.03.12/outbox.cif.g09.slc.cpg/sg59_16_cif.got.tgz:30453.got - 2010.04.16 16:29:54.
