data_PCOD8243256
_publ_section_title
;
Structure prediction by ZEFSAII (Michael W. Deem and Ramdas Pophale) SiO2 
 PCOD8243256
Probable space group: P M M N
;
_chemical_formula_sum "Si O2"
_cell_formula_units_Z 64
_cell_length_a 14.159080
_cell_length_b 9.068814
_cell_length_c 25.518325
_cell_angle_alpha 90.000000
_cell_angle_beta 90.000000
_cell_angle_gamma 90.000000
_cell_volume 3276.707646
_symmetry_space_group_name_H-M "P M M N"
_symmetry_group_IT_number 59
_space_group.IT_coordinate_system_code '2'
_symmetry_cell_setting 'orthorhombic'
loop_
_space_group_symop_operation_xyz
x,y,z
1/2-x,1/2-y,z
1/2+x,-y,-z
-x,1/2+y,-z
-x,-y,-z
1/2+x,1/2+y,-z
1/2-x,y,z
x,1/2-y,z
loop_
_atom_site_type_symbol
_atom_site_label
_atom_site_fract_x
_atom_site_fract_y
_atom_site_fract_z
Si Si1 0.543574 0.080278 0.271812
Si Si2 0.969387 0.576695 0.075774
Si Si3 0.353084 0.590767 0.419939
Si Si4 0.903312 0.924766 0.484423
Si Si5 0.641695 0.083942 0.379242
Si Si6 0.857255 0.924878 0.177128
Si Si7 0.141224 0.076501 0.028586
Si Si8 0.856801 0.920168 0.678685
O O1 0.566603 0.250000 0.258395
O O2 0.582845 0.036569 0.328651
O O3 0.429783 0.051668 0.273401
O O4 0.591543 0.977627 0.229319
O O5 0.987705 0.750000 0.077942
O O6 0.917682 0.517250 0.127782
O O7 0.072226 0.500149 0.070915
O O8 0.898730 0.534702 0.028586
O O9 0.250000 0.626281 0.398302
O O10 0.405327 0.750000 0.430453
O O11 0.335359 0.494321 0.472061
O O12 0.401374 0.502109 0.372389
O O13 0.903343 0.750000 0.489152
O O14 0.876103 0.969412 0.425902
O O15 0.000000 0.000000 0.500000
O O16 0.750000 0.076306 0.362371
O O17 0.614608 0.250000 0.397631
O O18 0.750000 0.986680 0.174205
O O19 0.854718 0.750000 0.177051
O O20 0.250000 0.020325 0.033787
O O21 0.137396 0.250000 0.038296
O O22 0.750000 0.968839 0.694908
O O23 0.857351 0.750000 0.662694
#
# Coordination Sequence:
#
# PCOD8243256 Si02
#       8
#     8   8   8   8   8   8   8   8
#     4  10  21  37  57  80 106 138 178 224 271 317
#     4   9  18  33  53  79 112 149 188 228 272 322
#     4  10  20  34  53  77 103 129 160 202 253 311
#     4  12  24  36  52  74 101 133 170 211 258 315
#     4  10  21  37  55  76 105 139 174 216 268 321
#     4  10  21  37  57  80 107 141 181 225 272 322
#     4   9  17  31  53  81 114 151 189 229 273 320
#     4   9  18  34  56  80 106 138 176 217 263 317
#
# _framework density 19.531801000000002
#
# number of rings (size 3 to 8) (size 9 to 14) (size 15 to 20)
#    0.000    2.125    0.000    3.375    0.000    7.500 
#    0.000    0.625    0.000    4.500    0.000    0.000 
#    0.000    0.000    0.000    0.000    0.000    0.000 
#
# Total GULP energy -793141.767478 kJ/mol
# GULP energy per Si atom -12392.840117 kJ/mol
# Density = 1.948735 g / cm^3
# Si number density = 19.531801 Si / 1000 Ang^3
#
#
#
# Elastic Constant Matrix: (Units=GPa)
#
#
# Indices 1 2 3 4 5 6 
#
# 1 140.3994 38.5532 59.1111 0.0000 0.0000 0.0000
# 2 38.5532 78.0636 38.8715 0.0000 0.0000 0.0000
# 3 59.1111 38.8715 94.4530 0.0000 0.0000 0.0000
# 4 0.0000 0.0000 0.0000 32.1161 0.0000 0.0000
# 5 0.0000 0.0000 0.0000 0.0000 29.4082 0.0000
# 6 0.0000 0.0000 0.0000 0.0000 0.0000 26.0359
#
#
#
# Elastic Compliance Matrix: (Units=1/GPa)
#
#
# Indices 1 2 3 4 5 6 
#
# 1 0.009985 -0.002289 -0.005307 0.000000 0.000000 0.000000
# 2 -0.002289 0.016636 -0.005414 0.000000 0.000000 0.000000
# 3 -0.005307 -0.005414 0.016137 0.000000 0.000000 0.000000
# 4 0.000000 0.000000 0.000000 0.031137 0.000000 0.000000
# 5 0.000000 0.000000 0.000000 0.000000 0.034004 0.000000
# 6 0.000000 0.000000 0.000000 0.000000 0.000000 0.038409
#
#
# Mechanical properties :
#
#
# Convention : Reuss Voigt Hill
#
# Bulk Modulus (GPa) = 59.74333 65.10975 62.42654
# Shear Modulus (GPa) = 28.10434 29.27071 28.68753
#
# Velocity S-wave (km/s) = 3.79740 3.87540 3.83660
# Velocity P-wave (km/s) = 7.06266 7.30976 7.18727
#
# Compressibility (1/GPa) = 0.01673827
#
# Stress axis : x y z
#
# Youngs Moduli (GPa) = 100.14525 60.10898 61.96981
#
# Poissons Ratio (x) = 0.13758 0.32889
# Poissons Ratio (y) = 0.22921 0.33552
# Poissons Ratio (z) = 0.53150 0.32544
#
# Static dielectric constant tensor:
#      x y z
#    x 3.836880 0.000000 0.000000 
#    y 0.000000 3.668890 0.000000 
#    z 0.000000 0.000000 1.741330 
# 
# 
# High freq. dielectric constant tensor:
#      x y z
#    x 1.777670 0.000000 0.000000 
#    y 0.000000 1.753880 0.000000 
#    z 0.000000 0.000000 1.737980 
# 
# From -- ./inp_files/32138.got.cif
#   From: 2010.03.12/outbox.cif.g09.slc.cpg/sg59_17_cif.got.tgz:32138.got - 2010.04.16 16:29:54.
