data_PCOD8243406
_publ_section_title
;
Structure prediction by ZEFSAII (Michael W. Deem and Ramdas Pophale) SiO2 
 PCOD8243406
Probable space group: P M M N
;
_chemical_formula_sum "Si O2"
_cell_formula_units_Z 48
_cell_length_a 9.716535
_cell_length_b 9.271669
_cell_length_c 28.694847
_cell_angle_alpha 90.000000
_cell_angle_beta 90.000000
_cell_angle_gamma 90.000000
_cell_volume 2585.075619
_symmetry_space_group_name_H-M "P M M N"
_symmetry_group_IT_number 59
_space_group.IT_coordinate_system_code '2'
_symmetry_cell_setting 'orthorhombic'
loop_
_space_group_symop_operation_xyz
x,y,z
1/2-x,1/2-y,z
1/2+x,-y,-z
-x,1/2+y,-z
-x,-y,-z
1/2+x,1/2+y,-z
1/2-x,y,z
x,1/2-y,z
loop_
_atom_site_type_symbol
_atom_site_label
_atom_site_fract_x
_atom_site_fract_y
_atom_site_fract_z
Si Si1 0.906512 0.421489 0.282594
Si Si2 0.090530 0.917782 0.462568
Si Si3 0.250000 0.417912 0.935154
Si Si4 0.407952 0.082823 0.368272
Si Si5 0.750000 0.417433 0.968666
Si Si6 0.404712 0.415863 0.199833
Si Si7 0.533018 0.417853 0.892802
O O1 0.750000 0.481997 0.283464
O O2 0.906336 0.250000 0.281310
O O3 0.989919 0.473087 0.328005
O O4 0.986692 0.480619 0.237067
O O5 0.250000 0.939063 0.475729
O O6 0.049936 0.750000 0.461609
O O7 0.057889 0.985691 0.412588
O O8 0.000000 0.000000 0.500000
O O9 0.250000 0.250000 0.947405
O O10 0.377524 0.462356 0.903186
O O11 0.250000 0.497387 0.983805
O O12 0.250000 0.061913 0.351917
O O13 0.435735 0.250000 0.380787
O O14 0.750000 0.250000 0.981413
O O15 0.617225 0.461531 0.938723
O O16 0.250000 0.432088 0.220089
O O17 0.439532 0.250000 0.189789
O O18 0.413364 0.498496 0.151602
O O19 0.552189 0.250000 0.881853
#
# Coordination Sequence:
#
# PCOD8243406 Si02
#       7
#     8   8   4   8   4   8   8
#     4   9  18  32  52  79 108 136 172 221 271 317
#     4  10  21  36  55  81 113 149 190 234 278 327
#     4  10  22  36  54  78 106 136 168 210 259 306
#     4   9  17  32  54  77 105 143 183 223 271 325
#     4  10  20  36  56  76 102 136 174 210 251 308
#     4  10  20  34  54  79 104 135 177 219 257 307
#     4  10  21  37  54  76 106 138 169 208 259 312
#
# _framework density 18.568121999999999
#
# number of rings (size 3 to 8) (size 9 to 14) (size 15 to 20)
#    0.000    2.333    0.833    1.500    1.167    5.000 
#    0.000    2.500    0.000    3.000    0.000    0.000 
#    0.000    0.000    0.000    0.000    0.000    0.000 
#
# Total GULP energy -595232.866840 kJ/mol
# GULP energy per Si atom -12400.684726 kJ/mol
# Density = 1.852586 g / cm^3
# Si number density = 18.568122 Si / 1000 Ang^3
#
#
#
# Elastic Constant Matrix: (Units=GPa)
#
#
# Indices 1 2 3 4 5 6 
#
# 1 120.2095 35.2259 54.4647 0.0000 0.0000 0.0000
# 2 35.2259 60.8285 48.7357 0.0000 0.0000 0.0000
# 3 54.4647 48.7357 110.8620 0.0000 0.0000 0.0000
# 4 0.0000 0.0000 0.0000 24.8330 0.0000 0.0000
# 5 0.0000 0.0000 0.0000 0.0000 -2.0245 0.0000
# 6 0.0000 0.0000 0.0000 0.0000 0.0000 8.5599
#
#
#
# Elastic Compliance Matrix: (Units=1/GPa)
#
#
# Indices 1 2 3 4 5 6 
#
# 1 0.011084 -0.003174 -0.004050 0.000000 0.000000 0.000000
# 2 -0.003174 0.026287 -0.009997 0.000000 0.000000 0.000000
# 3 -0.004050 -0.009997 0.015405 0.000000 0.000000 0.000000
# 4 0.000000 0.000000 0.000000 0.040269 0.000000 0.000000
# 5 0.000000 0.000000 0.000000 0.000000 -0.493941 0.000000
# 6 0.000000 0.000000 0.000000 0.000000 0.000000 0.116824
#
#
# Mechanical properties :
#
#
# Convention : Reuss Voigt Hill
#
# Bulk Modulus (GPa) = 54.54269 63.19474 58.86871
# Shear Modulus (GPa) = -20.53222 16.50523 -2.01349
#
# Velocity S-wave (km/s) = -3.32893 2.98468 -1.04247
# Velocity P-wave (km/s) = 3.82915 6.78127 5.50673
#
# Compressibility (1/GPa) = 0.01833426
#
# Stress axis : x y z
#
# Youngs Moduli (GPa) = 90.22117 38.04169 64.91555
#
# Poissons Ratio (x) = 0.12073 0.26292
# Poissons Ratio (y) = 0.28634 0.64894
# Poissons Ratio (z) = 0.36541 0.38029
#
# Static dielectric constant tensor:
#      x y z
#    x 3.712850 0.000000 0.000000 
#    y 0.000000 3.202000 0.000000 
#    z 0.000000 0.000000 3.357750 
# 
# 
# High freq. dielectric constant tensor:
#      x y z
#    x 1.734500 0.000000 0.000000 
#    y 0.000000 1.696940 0.000000 
#    z 0.000000 0.000000 1.724160 
# 
# From -- ./inp_files/33021.got.cif
#   From: 2010.03.12/outbox.cif.g09.slc.cpg/sg59_17_cif.got.tgz:33021.got - 2010.04.16 16:29:54.
