data_PCOD8243801
_publ_section_title
;
Structure prediction by ZEFSAII (Michael W. Deem and Ramdas Pophale) SiO2 
 PCOD8243801
Probable space group: P M M N
;
_chemical_formula_sum "Si O2"
_cell_formula_units_Z 64
_cell_length_a 9.281023
_cell_length_b 19.137465
_cell_length_c 19.947464
_cell_angle_alpha 90.000000
_cell_angle_beta 90.000000
_cell_angle_gamma 90.000000
_cell_volume 3542.973862
_symmetry_space_group_name_H-M "P M M N"
_symmetry_group_IT_number 59
_space_group.IT_coordinate_system_code '2'
_symmetry_cell_setting 'orthorhombic'
loop_
_space_group_symop_operation_xyz
x,y,z
1/2-x,1/2-y,z
1/2+x,-y,-z
-x,1/2+y,-z
-x,-y,-z
1/2+x,1/2+y,-z
1/2-x,y,z
x,1/2-y,z
loop_
_atom_site_type_symbol
_atom_site_label
_atom_site_fract_x
_atom_site_fract_y
_atom_site_fract_z
Si Si1 0.918760 0.329505 0.604285
Si Si2 0.578656 0.439644 0.241103
Si Si3 0.921254 0.419919 0.731740
Si Si4 0.090690 0.167012 0.477932
Si Si5 0.084545 0.169894 0.837245
Si Si6 0.414633 0.404303 0.968256
Si Si7 0.417432 0.168144 0.328602
Si Si8 0.417159 0.554005 0.911963
O O1 0.750000 0.331771 0.593921
O O2 0.971449 0.250000 0.617690
O O3 0.967683 0.376610 0.666277
O O4 0.986488 0.361137 0.536206
O O5 0.750000 0.448454 0.249148
O O6 0.498822 0.505833 0.273388
O O7 0.523301 0.370715 0.277942
O O8 0.533163 0.431424 0.163636
O O9 0.750000 0.429780 0.736894
O O10 0.975881 0.377949 0.796153
O O11 0.250000 0.137743 0.493033
O O12 0.092961 0.250000 0.477912
O O13 0.041037 0.142809 0.403915
O O14 0.250000 0.148474 0.820551
O O15 0.054528 0.250000 0.819273
O O16 0.056138 0.158749 0.916505
O O17 0.250000 0.407695 0.990776
O O18 0.460685 0.474896 0.929714
O O19 0.504611 0.393403 0.036362
O O20 0.250000 0.150559 0.314038
O O21 0.445963 0.250000 0.319492
O O22 0.250000 0.567973 0.920387
#
# Coordination Sequence:
#
# PCOD8243801 Si02
#       8
#     8   8   8   8   8   8   8   8
#     4   9  18  32  50  75 107 140 177 222 265 309
#     4  11  22  37  56  80 110 141 178 221 267 320
#     4  11  22  35  52  76 109 146 184 223 266 315
#     4   8  15  30  53  78 103 134 173 216 262 316
#     4  10  20  35  54  77 109 145 179 221 270 318
#     4   9  17  32  52  75 101 131 173 217 259 312
#     4   9  19  37  59  83 109 135 170 218 270 324
#     4   9  18  33  52  74 101 132 170 217 261 307
#
# _framework density 18.063921000000001
#
# number of rings (size 3 to 8) (size 9 to 14) (size 15 to 20)
#    0.000    2.500    1.250    1.875    0.000    4.000 
#    0.000    3.750    0.000    2.250    0.000    0.000 
#    0.000    0.000    0.000    0.000    0.000    0.000 
#
# Total GULP energy -793527.201724 kJ/mol
# GULP energy per Si atom -12398.862527 kJ/mol
# Density = 1.802281 g / cm^3
# Si number density = 18.063921 Si / 1000 Ang^3
#
#
#
# Elastic Constant Matrix: (Units=GPa)
#
#
# Indices 1 2 3 4 5 6 
#
# 1 65.6680 36.5455 58.6915 0.0000 0.0000 0.0000
# 2 36.5455 60.8080 42.4275 0.0000 0.0000 0.0000
# 3 58.6915 42.4275 135.5553 0.0000 0.0000 0.0000
# 4 0.0000 0.0000 0.0000 26.7182 0.0000 0.0000
# 5 0.0000 0.0000 0.0000 0.0000 38.1633 0.0000
# 6 0.0000 0.0000 0.0000 0.0000 0.0000 24.8088
#
#
#
# Elastic Compliance Matrix: (Units=1/GPa)
#
#
# Indices 1 2 3 4 5 6 
#
# 1 0.030025 -0.011482 -0.009406 0.000000 0.000000 0.000000
# 2 -0.011482 0.025431 -0.002988 0.000000 0.000000 0.000000
# 3 -0.009406 -0.002988 0.012385 0.000000 0.000000 0.000000
# 4 0.000000 0.000000 0.000000 0.037428 0.000000 0.000000
# 5 0.000000 0.000000 0.000000 0.000000 0.026203 0.000000
# 6 0.000000 0.000000 0.000000 0.000000 0.000000 0.040308
#
#
# Mechanical properties :
#
#
# Convention : Reuss Voigt Hill
#
# Bulk Modulus (GPa) = 49.78113 59.70669 54.74391
# Shear Modulus (GPa) = 22.10154 26.22918 24.16536
#
# Velocity S-wave (km/s) = 3.50168 3.81467 3.66152
# Velocity P-wave (km/s) = 6.63077 7.24756 6.94601
#
# Compressibility (1/GPa) = 0.02008793
#
# Stress axis : x y z
#
# Youngs Moduli (GPa) = 33.30560 39.32238 80.74312
#
# Poissons Ratio (x) = 0.45150 0.75949
# Poissons Ratio (y) = 0.38241 0.24128
# Poissons Ratio (z) = 0.31328 0.11750
#
# Static dielectric constant tensor:
#      x y z
#    x 3.364020 0.000000 0.000000 
#    y 0.000000 3.140830 0.000000 
#    z 0.000000 0.000000 3.526860 
# 
# 
# High freq. dielectric constant tensor:
#      x y z
#    x 1.697930 0.000000 0.000000 
#    y 0.000000 1.672450 0.000000 
#    z 0.000000 0.000000 1.708270 
# 
# From -- ./inp_files/26348.got.cif
#   From: 2010.03.12/outbox.cif.g09.slc.cpg/sg59_14_cif.got.tgz:26348.got - 2010.04.16 16:29:54.
