data_PCOD8243837
_publ_section_title
;
Structure prediction by ZEFSAII (Michael W. Deem and Ramdas Pophale) SiO2 
 PCOD8243837
Probable space group: P M M N
;
_chemical_formula_sum "Si O2"
_cell_formula_units_Z 56
_cell_length_a 14.180964
_cell_length_b 9.068281
_cell_length_c 22.887539
_cell_angle_alpha 90.000000
_cell_angle_beta 90.000000
_cell_angle_gamma 90.000000
_cell_volume 2943.268084
_symmetry_space_group_name_H-M "P M M N"
_symmetry_group_IT_number 59
_space_group.IT_coordinate_system_code '2'
_symmetry_cell_setting 'orthorhombic'
loop_
_space_group_symop_operation_xyz
x,y,z
1/2-x,1/2-y,z
1/2+x,-y,-z
-x,1/2+y,-z
-x,-y,-z
1/2+x,1/2+y,-z
1/2-x,y,z
x,1/2-y,z
loop_
_atom_site_type_symbol
_atom_site_label
_atom_site_fract_x
_atom_site_fract_y
_atom_site_fract_z
Si Si1 0.039120 0.078067 0.353252
Si Si2 0.640729 0.082596 0.965526
Si Si3 0.147624 0.924284 0.903435
Si Si4 0.645117 0.078728 0.413884
Si Si5 0.640460 0.919903 0.530016
Si Si6 0.858370 0.424218 0.751782
Si Si7 0.951395 0.923665 0.861022
O O1 0.061009 0.250000 0.341548
O O2 0.088091 0.021765 0.412495
O O3 0.926691 0.048811 0.360371
O O4 0.077095 0.984012 0.299974
O O5 0.750000 0.080826 0.948349
O O6 0.601688 0.250000 0.958394
O O7 0.586613 0.969539 0.924029
O O8 0.625806 0.019638 0.030981
O O9 0.250000 0.986402 0.881515
O O10 0.155126 0.750000 0.908447
O O11 0.063074 0.967354 0.859285
O O12 0.750000 0.019275 0.397188
O O13 0.648927 0.250000 0.428267
O O14 0.605046 0.004173 0.472533
O O15 0.750000 0.949831 0.540322
O O16 0.616887 0.750000 0.519768
O O17 0.750000 0.472679 0.742038
O O18 0.867831 0.250000 0.754478
O O19 0.895411 0.488955 0.812081
O O20 0.936909 0.750000 0.851338
#
# Coordination Sequence:
#
# PCOD8243837 Si02
#       7
#     8   8   8   8   8   8   8
#     4  10  20  35  55  77 103 137 175 216 258 297
#     4   9  17  31  52  77 108 143 172 204 252 306
#     4   8  16  32  53  78 107 138 172 208 250 303
#     4   9  18  32  51  78 110 140 171 207 249 302
#     4   9  17  29  48  76 107 137 170 211 259 304
#     4  11  25  42  57  74  99 133 171 211 258 312
#     4  11  21  33  54  80 104 135 174 215 256 298
#
# _framework density 19.026468999999999
#
# number of rings (size 3 to 8) (size 9 to 14) (size 15 to 20)
#    0.000    2.429    0.000    3.429    0.000    4.857 
#    0.000    2.857    0.000    7.714    0.000    0.000 
#    0.000    0.000    0.000    0.000    0.000    0.000 
#
# Total GULP energy -694234.175377 kJ/mol
# GULP energy per Si atom -12397.038846 kJ/mol
# Density = 1.898316 g / cm^3
# Si number density = 19.026469 Si / 1000 Ang^3
#
#
#
# Elastic Constant Matrix: (Units=GPa)
#
#
# Indices 1 2 3 4 5 6 
#
# 1 85.7140 31.2998 40.9938 0.0000 0.0000 0.0000
# 2 31.2998 45.6485 28.0670 0.0000 0.0000 0.0000
# 3 40.9938 28.0670 57.4219 0.0000 0.0000 0.0000
# 4 0.0000 0.0000 0.0000 30.1740 0.0000 0.0000
# 5 0.0000 0.0000 0.0000 0.0000 29.5260 0.0000
# 6 0.0000 0.0000 0.0000 0.0000 0.0000 21.4221
#
#
#
# Elastic Compliance Matrix: (Units=1/GPa)
#
#
# Indices 1 2 3 4 5 6 
#
# 1 0.019056 -0.006722 -0.010319 0.000000 0.000000 0.000000
# 2 -0.006722 0.033690 -0.011668 0.000000 0.000000 0.000000
# 3 -0.010319 -0.011668 0.030485 0.000000 0.000000 0.000000
# 4 0.000000 0.000000 0.000000 0.033141 0.000000 0.000000
# 5 0.000000 0.000000 0.000000 0.000000 0.033868 0.000000
# 6 0.000000 0.000000 0.000000 0.000000 0.000000 0.046681
#
#
# Mechanical properties :
#
#
# Convention : Reuss Voigt Hill
#
# Bulk Modulus (GPa) = 38.74014 43.27839 41.00926
# Shear Modulus (GPa) = 19.01545 22.11934 20.56739
#
# Velocity S-wave (km/s) = 3.16479 3.41333 3.29141
# Velocity P-wave (km/s) = 5.81033 6.19114 6.00375
#
# Compressibility (1/GPa) = 0.02581302
#
# Stress axis : x y z
#
# Youngs Moduli (GPa) = 52.47563 29.68262 32.80300
#
# Poissons Ratio (x) = 0.19952 0.33849
# Poissons Ratio (y) = 0.35273 0.38275
# Poissons Ratio (z) = 0.54149 0.34635
#
# Static dielectric constant tensor:
#      x y z
#    x 4.003500 0.000000 0.000000 
#    y 0.000000 3.306060 0.000000 
#    z 0.000000 0.000000 3.370670 
# 
# 
# High freq. dielectric constant tensor:
#      x y z
#    x 1.757840 0.000000 0.000000 
#    y 0.000000 1.720840 0.000000 
#    z 0.000000 0.000000 1.720050 
# 
# From -- ./inp_files/29183.got.cif
#   From: 2010.03.12/outbox.cif.g09.slc.cpg/sg59_15_cif.got.tgz:29183.got - 2010.04.16 16:29:54.
