data_PCOD8243530
_publ_section_title
;
Structure prediction by ZEFSAII (Michael W. Deem and Ramdas Pophale) SiO2 
 PCOD8243530
Probable space group: P M M N
;
_chemical_formula_sum "Si O2"
_cell_formula_units_Z 64
_cell_length_a 9.102186
_cell_length_b 14.121786
_cell_length_c 26.091255
_cell_angle_alpha 90.000000
_cell_angle_beta 90.000000
_cell_angle_gamma 90.000000
_cell_volume 3353.747031
_symmetry_space_group_name_H-M "P M M N"
_symmetry_group_IT_number 59
_space_group.IT_coordinate_system_code '2'
_symmetry_cell_setting 'orthorhombic'
loop_
_space_group_symop_operation_xyz
x,y,z
1/2-x,1/2-y,z
1/2+x,-y,-z
-x,1/2+y,-z
-x,-y,-z
1/2+x,1/2+y,-z
1/2-x,y,z
x,1/2-y,z
loop_
_atom_site_type_symbol
_atom_site_label
_atom_site_fract_x
_atom_site_fract_y
_atom_site_fract_z
Si Si1 0.083197 0.362235 0.103837
Si Si2 0.579446 0.488633 0.446564
Si Si3 0.421981 0.989442 0.820501
Si Si4 0.915305 0.137296 0.004117
Si Si5 0.081066 0.141130 0.637600
Si Si6 0.419525 0.142246 0.904292
Si Si7 0.921167 0.488266 0.713533
Si Si8 0.919589 0.641382 0.629622
O O1 0.250000 0.399145 0.104019
O O2 0.076793 0.250000 0.105862
O O3 0.999028 0.399410 0.153717
O O4 0.004567 0.402032 0.052803
O O5 0.500000 0.500000 0.500000
O O6 0.750000 0.470782 0.456392
O O7 0.550237 0.584044 0.414468
O O8 0.516290 0.397751 0.416936
O O9 0.250000 0.968671 0.815939
O O10 0.455471 0.082660 0.853837
O O11 0.487910 0.005561 0.765095
O O12 0.750000 0.098270 0.007734
O O13 0.919239 0.250000 0.004375
O O14 0.988909 0.100081 0.951898
O O15 0.250000 0.128354 0.654940
O O16 0.042090 0.250000 0.626838
O O17 0.976785 0.103144 0.682520
O O18 0.250000 0.135578 0.920117
O O19 0.465293 0.250000 0.892013
O O20 0.750000 0.475735 0.725934
O O21 0.952571 0.583510 0.681397
O O22 0.750000 0.630502 0.613697
O O23 0.962375 0.750000 0.640074
#
# Coordination Sequence:
#
# PCOD8243530 Si02
#       8
#     8   8   8   8   8   8   8   8
#     4  10  21  37  56  77 104 139 176 216 265 321
#     4  10  20  34  54  84 120 153 186 227 272 317
#     4  11  23  37  55  80 108 140 178 221 270 322
#     4   9  17  31  53  79 105 133 168 213 263 317
#     4   9  19  37  59  80 106 146 191 229 270 322
#     4   9  19  36  55  75 102 137 175 213 258 317
#     4  10  21  37  56  80 109 139 177 228 279 326
#     4   9  19  37  59  80 106 145 188 227 272 325
#
# _framework density 19.083133
#
# number of rings (size 3 to 8) (size 9 to 14) (size 15 to 20)
#    0.000    2.375    0.000    1.875    0.000    6.750 
#    0.000    3.750    0.000    0.000    0.000    0.000 
#    0.000    0.000    0.000    0.000    0.000    0.000 
#
# Total GULP energy -793834.776155 kJ/mol
# GULP energy per Si atom -12403.668377 kJ/mol
# Density = 1.903970 g / cm^3
# Si number density = 19.083133 Si / 1000 Ang^3
#
#
#
# Elastic Constant Matrix: (Units=GPa)
#
#
# Indices 1 2 3 4 5 6 
#
# 1 130.0515 46.4756 81.5233 0.0000 0.0000 0.0000
# 2 46.4756 92.4126 43.3073 0.0000 0.0000 0.0000
# 3 81.5233 43.3073 142.0951 0.0000 0.0000 0.0000
# 4 0.0000 0.0000 0.0000 20.7470 0.0000 0.0000
# 5 0.0000 0.0000 0.0000 0.0000 42.2651 0.0000
# 6 0.0000 0.0000 0.0000 0.0000 0.0000 26.7809
#
#
#
# Elastic Compliance Matrix: (Units=1/GPa)
#
#
# Indices 1 2 3 4 5 6 
#
# 1 0.012924 -0.003529 -0.006339 0.000000 0.000000 0.000000
# 2 -0.003529 0.013588 -0.002117 0.000000 0.000000 0.000000
# 3 -0.006339 -0.002117 0.011320 0.000000 0.000000 0.000000
# 4 0.000000 0.000000 0.000000 0.048200 0.000000 0.000000
# 5 0.000000 0.000000 0.000000 0.000000 0.023660 0.000000
# 6 0.000000 0.000000 0.000000 0.000000 0.000000 0.037340
#
#
# Mechanical properties :
#
#
# Convention : Reuss Voigt Hill
#
# Bulk Modulus (GPa) = 72.14086 78.57463 75.35775
# Shear Modulus (GPa) = 28.47021 30.84212 29.65616
#
# Velocity S-wave (km/s) = 3.86671 4.02456 3.94642
# Velocity P-wave (km/s) = 7.60400 7.92845 7.76792
#
# Compressibility (1/GPa) = 0.01386177
#
# Stress axis : x y z
#
# Youngs Moduli (GPa) = 77.37381 73.59605 88.34163
#
# Poissons Ratio (x) = 0.25972 0.56003
# Poissons Ratio (y) = 0.27305 0.18698
# Poissons Ratio (z) = 0.49050 0.15577
#
# Static dielectric constant tensor:
#      x y z
#    x 3.651490 0.000000 0.000000 
#    y 0.000000 3.526760 0.000000 
#    z 0.000000 0.000000 3.433560 
# 
# 
# High freq. dielectric constant tensor:
#      x y z
#    x 1.751890 0.000000 0.000000 
#    y 0.000000 1.742450 0.000000 
#    z 0.000000 0.000000 1.738390 
# 
# From -- ./inp_files/31616.got.cif
#   From: 2010.03.12/outbox.cif.g09.slc.cpg/sg59_16_cif.got.tgz:31616.got - 2010.04.16 16:29:54.
