data_PCOD8243413
_publ_section_title
;
Structure prediction by ZEFSAII (Michael W. Deem and Ramdas Pophale) SiO2 
 PCOD8243413
Probable space group: P M M N
;
_chemical_formula_sum "Si O2"
_cell_formula_units_Z 40
_cell_length_a 8.943180
_cell_length_b 14.476362
_cell_length_c 16.582024
_cell_angle_alpha 90.000000
_cell_angle_beta 90.000000
_cell_angle_gamma 90.000000
_cell_volume 2146.786947
_symmetry_space_group_name_H-M "P M M N"
_symmetry_group_IT_number 59
_space_group.IT_coordinate_system_code '2'
_symmetry_cell_setting 'orthorhombic'
loop_
_space_group_symop_operation_xyz
x,y,z
1/2-x,1/2-y,z
1/2+x,-y,-z
-x,1/2+y,-z
-x,-y,-z
1/2+x,1/2+y,-z
1/2-x,y,z
x,1/2-y,z
loop_
_atom_site_type_symbol
_atom_site_label
_atom_site_fract_x
_atom_site_fract_y
_atom_site_fract_z
Si Si1 0.076384 0.750000 0.195452
Si Si2 0.424564 0.392224 0.915325
Si Si3 0.574820 0.250000 0.206429
Si Si4 0.075570 0.604571 0.921452
Si Si5 0.578794 0.750000 0.623694
Si Si6 0.926838 0.899600 0.492407
Si Si7 0.425132 0.750000 0.384643
O O1 0.250000 0.750000 0.174673
O O2 0.046115 0.750000 0.289985
O O3 0.002887 0.658986 0.158224
O O4 0.250000 0.371053 0.912806
O O5 0.463485 0.499107 0.903678
O O6 0.487532 0.357414 0.000926
O O7 0.750000 0.250000 0.216189
O O8 0.521464 0.339926 0.157100
O O9 0.512433 0.250000 0.295197
O O10 0.250000 0.620173 0.939075
O O11 0.750000 0.750000 0.648273
O O12 0.539276 0.657960 0.573495
O O13 0.750000 0.909045 0.477088
O O14 0.999261 0.843159 0.418662
O O15 0.000000 0.000000 0.500000
O O16 0.250000 0.750000 0.406638
#
# Coordination Sequence:
#
# PCOD8243413 Si02
#       7
#     4   8   4   8   4   8   4
#     4  11  23  37  54  77 109 146 181 227 282 325
#     4  10  20  34  54  79 106 142 187 227 268 322
#     4  10  20  34  54  79 108 143 178 215 264 319
#     4   9  19  35  53  77 110 144 180 223 269 318
#     4   9  21  38  54  80 113 139 173 220 267 320
#     4  10  21  39  62  85 111 145 181 223 276 330
#     4  10  22  39  58  84 114 146 186 226 271 330
#
# _framework density 18.632497999999998
#
# number of rings (size 3 to 8) (size 9 to 14) (size 15 to 20)
#    0.000    2.200    0.000    3.000    0.000    8.000 
#    0.000    4.000    0.000    0.000    0.000    0.000 
#    0.000    0.000    0.000    0.000    0.000    0.000 
#
# Total GULP energy -496067.215753 kJ/mol
# GULP energy per Si atom -12401.680394 kJ/mol
# Density = 1.859009 g / cm^3
# Si number density = 18.632498 Si / 1000 Ang^3
#
#
#
# Elastic Constant Matrix: (Units=GPa)
#
#
# Indices 1 2 3 4 5 6 
#
# 1 101.6960 62.0072 71.5729 0.0000 0.0000 0.0000
# 2 62.0072 140.4665 71.1059 0.0000 0.0000 0.0000
# 3 71.5729 71.1059 139.5888 0.0000 0.0000 0.0000
# 4 0.0000 0.0000 0.0000 24.3146 0.0000 0.0000
# 5 0.0000 0.0000 0.0000 0.0000 37.3988 0.0000
# 6 0.0000 0.0000 0.0000 0.0000 0.0000 32.4782
#
#
#
# Elastic Compliance Matrix: (Units=1/GPa)
#
#
# Indices 1 2 3 4 5 6 
#
# 1 0.017025 -0.004173 -0.006604 0.000000 0.000000 0.000000
# 2 -0.004173 0.010615 -0.003268 0.000000 0.000000 0.000000
# 3 -0.006604 -0.003268 0.012215 0.000000 0.000000 0.000000
# 4 0.000000 0.000000 0.000000 0.041127 0.000000 0.000000
# 5 0.000000 0.000000 0.000000 0.000000 0.026739 0.000000
# 6 0.000000 0.000000 0.000000 0.000000 0.000000 0.030790
#
#
# Mechanical properties :
#
#
# Convention : Reuss Voigt Hill
#
# Bulk Modulus (GPa) = 84.98921 87.90258 86.44590
# Shear Modulus (GPa) = 29.32160 30.64268 29.98214
#
# Velocity S-wave (km/s) = 3.97127 4.05975 4.01575
# Velocity P-wave (km/s) = 8.16948 8.32195 8.24607
#
# Compressibility (1/GPa) = 0.01176620
#
# Stress axis : x y z
#
# Youngs Moduli (GPa) = 58.73633 94.20330 81.86809
#
# Poissons Ratio (x) = 0.39307 0.54066
# Poissons Ratio (y) = 0.24508 0.26754
# Poissons Ratio (z) = 0.38790 0.30785
#
# Static dielectric constant tensor:
#      x y z
#    x 3.598630 0.000000 0.000000 
#    y 0.000000 3.621120 0.000000 
#    z 0.000000 0.000000 3.418720 
# 
# 
# High freq. dielectric constant tensor:
#      x y z
#    x 1.731570 0.000000 0.000000 
#    y 0.000000 1.735050 0.000000 
#    z 0.000000 0.000000 1.721070 
# 
# From -- ./inp_files/20070.got.cif
#   From: 2010.03.12/outbox.cif.g09.slc.cpg/sg59_11_cif.got.tgz:20070.got - 2010.04.16 16:29:54.
