data_PCOD8243487
_publ_section_title
;
Structure prediction by ZEFSAII (Michael W. Deem and Ramdas Pophale) SiO2 
 PCOD8243487
Probable space group: P M M N
;
_chemical_formula_sum "Si O2"
_cell_formula_units_Z 48
_cell_length_a 9.373872
_cell_length_b 9.347596
_cell_length_c 28.530904
_cell_angle_alpha 90.000000
_cell_angle_beta 90.000000
_cell_angle_gamma 90.000000
_cell_volume 2499.968206
_symmetry_space_group_name_H-M "P M M N"
_symmetry_group_IT_number 59
_space_group.IT_coordinate_system_code '2'
_symmetry_cell_setting 'orthorhombic'
loop_
_space_group_symop_operation_xyz
x,y,z
1/2-x,1/2-y,z
1/2+x,-y,-z
-x,1/2+y,-z
-x,-y,-z
1/2+x,1/2+y,-z
1/2-x,y,z
x,1/2-y,z
loop_
_atom_site_type_symbol
_atom_site_label
_atom_site_fract_x
_atom_site_fract_y
_atom_site_fract_z
Si Si1 0.080824 0.587778 0.132293
Si Si2 0.419197 0.250000 0.425872
Si Si3 0.081372 0.250000 0.531461
Si Si4 0.418466 0.417369 0.040528
Si Si5 0.085965 0.487180 0.602140
Si Si6 0.412033 0.090910 0.707084
Si Si7 0.918627 0.914212 0.778029
O O1 0.250000 0.593848 0.133823
O O2 0.018993 0.750000 0.129069
O O3 0.030833 0.492680 0.088412
O O4 0.022973 0.508956 0.178730
O O5 0.250000 0.250000 0.425065
O O6 0.481364 0.250000 0.479003
O O7 0.478791 0.382013 0.397046
O O8 0.250000 0.250000 0.530064
O O9 0.029931 0.388603 0.559744
O O10 0.250000 0.434794 0.032749
O O11 0.461509 0.250000 0.041659
O O12 0.500000 0.500000 0.000000
O O13 0.250000 0.535362 0.594239
O O14 0.069408 0.407083 0.651259
O O15 0.250000 0.052379 0.720597
O O16 0.451738 0.250000 0.725144
O O17 0.513493 0.973748 0.730443
O O18 0.750000 0.927120 0.773313
O O19 0.964741 0.750000 0.785714
#
# Coordination Sequence:
#
# PCOD8243487 Si02
#       7
#     8   4   4   8   8   8   8
#     4   9  17  32  55  80 108 146 188 225 269 329
#     4  11  23  35  53  85 117 139 171 225 274 313
#     4   9  18  37  61  81 105 141 185 225 262 315
#     4  10  20  34  54  81 113 149 190 235 280 328
#     4  10  20  38  60  79 104 145 185 217 263 327
#     4  10  21  38  59  80 103 138 184 226 265 318
#     4  10  21  36  56  83 113 143 175 219 274 328
#
# _framework density 19.200244000000001
#
# number of rings (size 3 to 8) (size 9 to 14) (size 15 to 20)
#    0.000    2.167    0.833    2.250    1.167    5.000 
#    0.000    2.083    0.000    5.000    0.000    0.000 
#    0.000    0.000    0.000    0.000    0.000    0.000 
#
# Total GULP energy -595189.213452 kJ/mol
# GULP energy per Si atom -12399.775280 kJ/mol
# Density = 1.915654 g / cm^3
# Si number density = 19.200244 Si / 1000 Ang^3
#
#
#
# Elastic Constant Matrix: (Units=GPa)
#
#
# Indices 1 2 3 4 5 6 
#
# 1 41.9141 42.6845 28.1483 0.0000 0.0000 0.0000
# 2 42.6845 154.7120 46.1874 0.0000 0.0000 0.0000
# 3 28.1483 46.1874 88.4670 0.0000 0.0000 0.0000
# 4 0.0000 0.0000 0.0000 38.3819 0.0000 0.0000
# 5 0.0000 0.0000 0.0000 0.0000 30.1641 0.0000
# 6 0.0000 0.0000 0.0000 0.0000 0.0000 17.3372
#
#
#
# Elastic Compliance Matrix: (Units=1/GPa)
#
#
# Indices 1 2 3 4 5 6 
#
# 1 0.037092 -0.007949 -0.007652 0.000000 0.000000 0.000000
# 2 -0.007949 0.009361 -0.002358 0.000000 0.000000 0.000000
# 3 -0.007652 -0.002358 0.014969 0.000000 0.000000 0.000000
# 4 0.000000 0.000000 0.000000 0.026054 0.000000 0.000000
# 5 0.000000 0.000000 0.000000 0.000000 0.033152 0.000000
# 6 0.000000 0.000000 0.000000 0.000000 0.000000 0.057679
#
#
# Mechanical properties :
#
#
# Convention : Reuss Voigt Hill
#
# Bulk Modulus (GPa) = 39.20860 57.68149 48.44505
# Shear Modulus (GPa) = 22.44901 28.38151 25.41526
#
# Velocity S-wave (km/s) = 3.42307 3.84889 3.64221
# Velocity P-wave (km/s) = 6.00737 7.06110 6.55544
#
# Compressibility (1/GPa) = 0.02550461
#
# Stress axis : x y z
#
# Youngs Moduli (GPa) = 26.95968 106.82949 66.80362
#
# Poissons Ratio (x) = 0.84922 0.51117
# Poissons Ratio (y) = 0.21431 0.15751
# Poissons Ratio (z) = 0.20629 0.25188
#
# Static dielectric constant tensor:
#      x y z
#    x 3.172700 0.000000 0.000000 
#    y 0.000000 3.749690 0.000000 
#    z 0.000000 0.000000 3.620690 
# 
# 
# High freq. dielectric constant tensor:
#      x y z
#    x 1.711520 0.000000 0.000000 
#    y 0.000000 1.762960 0.000000 
#    z 0.000000 0.000000 1.755000 
# 
# From -- ./inp_files/32984.got.cif
#   From: 2010.03.12/outbox.cif.g09.slc.cpg/sg59_17_cif.got.tgz:32984.got - 2010.04.16 16:29:54.
