data_PCOD8243224
_publ_section_title
;
Structure prediction by ZEFSAII (Michael W. Deem and Ramdas Pophale) SiO2 
 PCOD8243224
Probable space group: P M M N
;
_chemical_formula_sum "Si O2"
_cell_formula_units_Z 48
_cell_length_a 9.195885
_cell_length_b 10.188842
_cell_length_c 28.984920
_cell_angle_alpha 90.000000
_cell_angle_beta 90.000000
_cell_angle_gamma 90.000000
_cell_volume 2715.754233
_symmetry_space_group_name_H-M "P M M N"
_symmetry_group_IT_number 59
_space_group.IT_coordinate_system_code '2'
_symmetry_cell_setting 'orthorhombic'
loop_
_space_group_symop_operation_xyz
x,y,z
1/2-x,1/2-y,z
1/2+x,-y,-z
-x,1/2+y,-z
-x,-y,-z
1/2+x,1/2+y,-z
1/2-x,y,z
x,1/2-y,z
loop_
_atom_site_type_symbol
_atom_site_label
_atom_site_fract_x
_atom_site_fract_y
_atom_site_fract_z
Si Si1 0.579172 0.250000 0.955639
Si Si2 0.080581 0.097720 0.805791
Si Si3 0.077361 0.104618 0.363115
Si Si4 0.920404 0.599990 0.533167
Si Si5 0.081926 0.250000 0.051631
Si Si6 0.579929 0.009007 0.893308
Si Si7 0.920638 0.099386 0.712438
O O1 0.750000 0.250000 0.963637
O O2 0.527522 0.123476 0.927362
O O3 0.507338 0.250000 0.005124
O O4 0.250000 0.065041 0.802300
O O5 0.051455 0.250000 0.816552
O O6 0.009490 0.012492 0.846113
O O7 0.005297 0.056991 0.758176
O O8 0.250000 0.103789 0.363286
O O9 0.022493 0.250000 0.347867
O O10 0.022819 0.073501 0.414810
O O11 0.018783 0.993469 0.328353
O O12 0.750000 0.572999 0.529670
O O13 0.956013 0.750000 0.518915
O O14 0.000000 0.500000 0.500000
O O15 0.250000 0.250000 0.037728
O O16 0.040248 0.374495 0.082000
O O17 0.750000 0.022418 0.881497
O O18 0.750000 0.078280 0.721288
O O19 0.954319 0.250000 0.698900
#
# Coordination Sequence:
#
# PCOD8243224 Si02
#       7
#     4   8   8   8   4   8   8
#     4  10  20  34  56  78 100 134 170 202 241 290
#     4  10  20  34  53  76 100 130 167 206 250 298
#     4   8  15  30  50  72  99 131 168 209 253 302
#     4   9  18  32  50  74 105 139 177 219 260 308
#     4  10  22  36  52  78 108 132 162 204 247 292
#     4  10  20  36  55  76 102 133 168 205 243 291
#     4   9  17  30  51  75  96 123 163 209 251 297
#
# _framework density 17.674648000000001
#
# number of rings (size 3 to 8) (size 9 to 14) (size 15 to 20)
#    0.000    2.667    0.833    2.000    0.000    3.000 
#    1.500    2.500    0.000    3.000    0.000    0.000 
#    0.000    0.000    0.000    0.000    0.000    0.000 
#
# Total GULP energy -595208.286861 kJ/mol
# GULP energy per Si atom -12400.172643 kJ/mol
# Density = 1.763442 g / cm^3
# Si number density = 17.674648 Si / 1000 Ang^3
#
#
#
# Elastic Constant Matrix: (Units=GPa)
#
#
# Indices 1 2 3 4 5 6 
#
# 1 50.0868 43.0616 56.1356 0.0000 0.0000 0.0000
# 2 43.0616 134.6033 95.1675 0.0000 0.0000 0.0000
# 3 56.1356 95.1675 156.7855 0.0000 0.0000 0.0000
# 4 0.0000 0.0000 0.0000 25.5174 0.0000 0.0000
# 5 0.0000 0.0000 0.0000 0.0000 30.5985 0.0000
# 6 0.0000 0.0000 0.0000 0.0000 0.0000 5.2354
#
#
#
# Elastic Compliance Matrix: (Units=1/GPa)
#
#
# Indices 1 2 3 4 5 6 
#
# 1 0.034558 -0.004042 -0.009920 0.000000 0.000000 0.000000
# 2 -0.004042 0.013487 -0.006739 0.000000 0.000000 0.000000
# 3 -0.009920 -0.006739 0.014021 0.000000 0.000000 0.000000
# 4 0.000000 0.000000 0.000000 0.039189 0.000000 0.000000
# 5 0.000000 0.000000 0.000000 0.000000 0.032681 0.000000
# 6 0.000000 0.000000 0.000000 0.000000 0.000000 0.191009
#
#
# Mechanical properties :
#
#
# Convention : Reuss Voigt Hill
#
# Bulk Modulus (GPa) = 48.39454 81.13388 64.76421
# Shear Modulus (GPa) = 13.39636 22.07766 17.73701
#
# Velocity S-wave (km/s) = 2.75606 3.53812 3.17129
# Velocity P-wave (km/s) = 6.12928 7.91800 7.08035
#
# Compressibility (1/GPa) = 0.02066349
#
# Stress axis : x y z
#
# Youngs Moduli (GPa) = 28.93666 74.14369 71.32409
#
# Poissons Ratio (x) = 0.29971 0.70751
# Poissons Ratio (y) = 0.11697 0.48068
# Poissons Ratio (z) = 0.28704 0.49968
#
# Static dielectric constant tensor:
#      x y z
#    x 3.042700 0.000000 0.000000 
#    y 0.000000 3.407370 0.000000 
#    z 0.000000 0.000000 3.368390 
# 
# 
# High freq. dielectric constant tensor:
#      x y z
#    x 1.661480 0.000000 0.000000 
#    y 0.000000 1.684890 0.000000 
#    z 0.000000 0.000000 1.690040 
# 
# From -- ./inp_files/32957.got.cif
#   From: 2010.03.12/outbox.cif.g09.slc.cpg/sg59_17_cif.got.tgz:32957.got - 2010.04.16 16:29:54.
