data_PCOD8243192
_publ_section_title
;
Structure prediction by ZEFSAII (Michael W. Deem and Ramdas Pophale) SiO2 
 PCOD8243192
Probable space group: P M M N
;
_chemical_formula_sum "Si O2"
_cell_formula_units_Z 48
_cell_length_a 8.720451
_cell_length_b 18.193732
_cell_length_c 15.937613
_cell_angle_alpha 90.000000
_cell_angle_beta 90.000000
_cell_angle_gamma 90.000000
_cell_volume 2528.622606
_symmetry_space_group_name_H-M "P M M N"
_symmetry_group_IT_number 59
_space_group.IT_coordinate_system_code '2'
_symmetry_cell_setting 'orthorhombic'
loop_
_space_group_symop_operation_xyz
x,y,z
1/2-x,1/2-y,z
1/2+x,-y,-z
-x,1/2+y,-z
-x,-y,-z
1/2+x,1/2+y,-z
1/2-x,y,z
x,1/2-y,z
loop_
_atom_site_type_symbol
_atom_site_label
_atom_site_fract_x
_atom_site_fract_y
_atom_site_fract_z
Si Si1 0.567828 0.616856 0.881570
Si Si2 0.926392 0.598276 0.531419
Si Si3 0.067041 0.035293 0.820255
Si Si4 0.929219 0.250000 0.218938
Si Si5 0.576510 0.750000 0.606888
Si Si6 0.930387 0.977896 0.366797
Si Si7 0.931875 0.667628 0.064475
O O1 0.750000 0.614809 0.874269
O O2 0.502438 0.536335 0.863963
O O3 0.504654 0.676108 0.816284
O O4 0.511521 0.641394 0.973411
O O5 0.750000 0.573703 0.538249
O O6 0.951385 0.683601 0.543755
O O7 0.991093 0.577890 0.438870
O O8 0.017658 0.558991 0.606412
O O9 0.250000 0.028600 0.824512
O O10 0.008122 0.108893 0.867188
O O11 0.003608 0.041579 0.724957
O O12 0.750000 0.250000 0.198824
O O13 0.955593 0.250000 0.318354
O O14 0.750000 0.750000 0.643861
O O15 0.750000 0.974956 0.359833
O O16 0.750000 0.670225 0.066074
O O17 0.996446 0.750000 0.083407
#
# Coordination Sequence:
#
# PCOD8243192 Si02
#       7
#     8   8   8   4   4   8   8
#     4  11  21  36  57  79 109 145 182 220 268 325
#     4   9  18  33  52  73 102 138 172 210 259 314
#     4  10  20  34  55  83 110 139 183 229 268 315
#     4  12  24  36  54  81 112 140 176 227 276 320
#     4  10  20  34  52  77 106 136 174 215 262 322
#     4   9  18  33  51  75 104 135 172 216 259 305
#     4   9  18  35  56  78 108 145 181 221 269 319
#
# _framework density 18.982666999999999
#
# number of rings (size 3 to 8) (size 9 to 14) (size 15 to 20)
#    0.000    2.167    0.833    2.750    0.000    4.000 
#    1.500    0.833    0.000    0.000    0.000    0.000 
#    0.000    0.000    0.000    0.000    0.000    0.000 
#
# Total GULP energy -595119.631391 kJ/mol
# GULP energy per Si atom -12398.325654 kJ/mol
# Density = 1.893946 g / cm^3
# Si number density = 18.982667 Si / 1000 Ang^3
#
#
#
# Elastic Constant Matrix: (Units=GPa)
#
#
# Indices 1 2 3 4 5 6 
#
# 1 28.0073 25.3693 20.8374 0.0000 0.0000 0.0000
# 2 25.3693 172.3751 83.8691 0.0000 0.0000 0.0000
# 3 20.8374 83.8691 120.6192 0.0000 0.0000 0.0000
# 4 0.0000 0.0000 0.0000 25.3705 0.0000 0.0000
# 5 0.0000 0.0000 0.0000 0.0000 20.7392 0.0000
# 6 0.0000 0.0000 0.0000 0.0000 0.0000 23.3934
#
#
#
# Elastic Compliance Matrix: (Units=1/GPa)
#
#
# Indices 1 2 3 4 5 6 
#
# 1 0.042791 -0.004082 -0.004554 0.000000 0.000000 0.000000
# 2 -0.004082 0.009157 -0.005662 0.000000 0.000000 0.000000
# 3 -0.004554 -0.005662 0.013014 0.000000 0.000000 0.000000
# 4 0.000000 0.000000 0.000000 0.039416 0.000000 0.000000
# 5 0.000000 0.000000 0.000000 0.000000 0.048218 0.000000
# 6 0.000000 0.000000 0.000000 0.000000 0.000000 0.042747
#
#
# Mechanical properties :
#
#
# Convention : Reuss Voigt Hill
#
# Bulk Modulus (GPa) = 27.49813 64.57257 46.03535
# Shear Modulus (GPa) = 21.18107 26.62898 23.90503
#
# Velocity S-wave (km/s) = 3.34400 3.74947 3.55252
# Velocity P-wave (km/s) = 5.42468 7.26878 6.41336
#
# Compressibility (1/GPa) = 0.03636611
#
# Stress axis : x y z
#
# Youngs Moduli (GPa) = 23.36957 109.20869 76.84044
#
# Poissons Ratio (x) = 0.44579 0.34993
# Poissons Ratio (y) = 0.09539 0.43505
# Poissons Ratio (z) = 0.10642 0.61831
#
# Static dielectric constant tensor:
#      x y z
#    x 3.274590 0.000000 0.000000 
#    y 0.000000 3.672520 0.000000 
#    z 0.000000 0.000000 3.785570 
# 
# 
# High freq. dielectric constant tensor:
#      x y z
#    x 1.713300 0.000000 0.000000 
#    y 0.000000 1.744570 0.000000 
#    z 0.000000 0.000000 1.745490 
# 
# From -- ./inp_files/20510.got.cif
#   From: 2010.03.12/outbox.cif.g09.slc.cpg/sg59_11_cif.got.tgz:20510.got - 2010.04.16 16:29:54.
