data_PCOD8243301
_publ_section_title
;
Structure prediction by ZEFSAII (Michael W. Deem and Ramdas Pophale) SiO2 
 PCOD8243301
Probable space group: P M M N
;
_chemical_formula_sum "Si O2"
_cell_formula_units_Z 56
_cell_length_a 19.291304
_cell_length_b 8.748651
_cell_length_c 17.547690
_cell_angle_alpha 90.000000
_cell_angle_beta 90.000000
_cell_angle_gamma 90.000000
_cell_volume 2961.574284
_symmetry_space_group_name_H-M "P M M N"
_symmetry_group_IT_number 59
_space_group.IT_coordinate_system_code '2'
_symmetry_cell_setting 'orthorhombic'
loop_
_space_group_symop_operation_xyz
x,y,z
1/2-x,1/2-y,z
1/2+x,-y,-z
-x,1/2+y,-z
-x,-y,-z
1/2+x,1/2+y,-z
1/2-x,y,z
x,1/2-y,z
loop_
_atom_site_type_symbol
_atom_site_label
_atom_site_fract_x
_atom_site_fract_y
_atom_site_fract_z
Si Si1 0.576454 0.072381 0.294165
Si Si2 0.830450 0.575038 0.590140
Si Si3 0.171490 0.931622 0.998728
Si Si4 0.830996 0.924220 0.416185
Si Si5 0.913254 0.569519 0.133821
Si Si6 0.568938 0.430070 0.873803
Si Si7 0.567212 0.428307 0.703110
O O1 0.576831 0.250000 0.273703
O O2 0.628771 0.041270 0.362880
O O3 0.600999 0.977626 0.220667
O O4 0.500389 0.022070 0.321665
O O5 0.750000 0.541811 0.602997
O O6 0.848133 0.750000 0.610523
O O7 0.851374 0.539751 0.503296
O O8 0.871383 0.461948 0.645091
O O9 0.250000 0.990362 0.010923
O O10 0.169352 0.750000 0.998978
O O11 0.123228 0.002064 0.066069
O O12 0.143867 0.989594 0.918072
O O13 0.750000 0.950279 0.403642
O O14 0.851284 0.750000 0.396116
O O15 0.905676 0.750000 0.126429
O O16 0.990446 0.513496 0.109226
O O17 0.571537 0.250000 0.882379
O O18 0.590518 0.478474 0.788254
O O19 0.548239 0.250000 0.701896
#
# Coordination Sequence:
#
# PCOD8243301 Si02
#       7
#     8   8   8   8   8   8   8
#     4  11  22  36  56  81 108 138 176 222 270 319
#     4   9  19  36  56  79 109 144 180 219 267 319
#     4  10  20  34  53  78 107 136 170 214 261 309
#     4   9  19  37  58  78 105 142 180 220 268 319
#     4  10  20  36  56  76 103 138 176 216 259 313
#     4   8  17  34  54  76 102 136 176 216 259 306
#     4  10  20  35  56  82 110 141 181 223 265 316
#
# _framework density 18.908861999999999
#
# number of rings (size 3 to 8) (size 9 to 14) (size 15 to 20)
#    0.000    2.429    0.000    4.286    0.000    3.143 
#    0.000    6.429    0.000    0.000    0.000    0.000 
#    0.000    0.000    0.000    0.000    0.000    0.000 
#
# Total GULP energy -694463.164495 kJ/mol
# GULP energy per Si atom -12401.127937 kJ/mol
# Density = 1.886582 g / cm^3
# Si number density = 18.908862 Si / 1000 Ang^3
#
#
#
# Elastic Constant Matrix: (Units=GPa)
#
#
# Indices 1 2 3 4 5 6 
#
# 1 92.4221 30.1484 60.7854 0.0000 0.0000 0.0000
# 2 30.1484 32.2017 19.7002 0.0000 0.0000 0.0000
# 3 60.7854 19.7002 95.7386 0.0000 0.0000 0.0000
# 4 0.0000 0.0000 0.0000 28.1623 0.0000 0.0000
# 5 0.0000 0.0000 0.0000 0.0000 31.6437 0.0000
# 6 0.0000 0.0000 0.0000 0.0000 0.0000 28.6730
#
#
#
# Elastic Compliance Matrix: (Units=1/GPa)
#
#
# Indices 1 2 3 4 5 6 
#
# 1 0.023379 -0.014652 -0.011829 0.000000 0.000000 0.000000
# 2 -0.014652 0.044709 0.000103 0.000000 0.000000 0.000000
# 3 -0.011829 0.000103 0.017934 0.000000 0.000000 0.000000
# 4 0.000000 0.000000 0.000000 0.035508 0.000000 0.000000
# 5 0.000000 0.000000 0.000000 0.000000 0.031602 0.000000
# 6 0.000000 0.000000 0.000000 0.000000 0.000000 0.034876
#
#
# Mechanical properties :
#
#
# Convention : Reuss Voigt Hill
#
# Bulk Modulus (GPa) = 30.06011 49.07005 39.56508
# Shear Modulus (GPa) = 19.85289 25.01103 22.43196
#
# Velocity S-wave (km/s) = 3.24377 3.64086 3.44804
# Velocity P-wave (km/s) = 5.47369 6.60921 6.06807
#
# Compressibility (1/GPa) = 0.03326667
#
# Stress axis : x y z
#
# Youngs Moduli (GPa) = 42.77348 22.36691 55.75975
#
# Poissons Ratio (x) = 0.32771 0.65956
# Poissons Ratio (y) = 0.62671 -0.00573
# Poissons Ratio (z) = 0.50595 -0.00230
#
# Static dielectric constant tensor:
#      x y z
#    x 3.517210 0.000000 0.000000 
#    y 0.000000 3.260620 0.000000 
#    z 0.000000 0.000000 3.512290 
# 
# 
# High freq. dielectric constant tensor:
#      x y z
#    x 1.732520 0.000000 0.000000 
#    y 0.000000 1.720280 0.000000 
#    z 0.000000 0.000000 1.741030 
# 
# From -- ./inp_files/24250.got.cif
#   From: 2010.03.12/outbox.cif.g09.slc.cpg/sg59_13_cif.got.tgz:24250.got - 2010.04.16 16:29:54.
