data_PCOD8243496
_publ_section_title
;
Structure prediction by ZEFSAII (Michael W. Deem and Ramdas Pophale) SiO2 
 PCOD8243496
Probable space group: P M M N
;
_chemical_formula_sum "Si O2"
_cell_formula_units_Z 48
_cell_length_a 9.850892
_cell_length_b 8.812452
_cell_length_c 29.072692
_cell_angle_alpha 90.000000
_cell_angle_beta 90.000000
_cell_angle_gamma 90.000000
_cell_volume 2523.815304
_symmetry_space_group_name_H-M "P M M N"
_symmetry_group_IT_number 59
_space_group.IT_coordinate_system_code '2'
_symmetry_cell_setting 'orthorhombic'
loop_
_space_group_symop_operation_xyz
x,y,z
1/2-x,1/2-y,z
1/2+x,-y,-z
-x,1/2+y,-z
-x,-y,-z
1/2+x,1/2+y,-z
1/2-x,y,z
x,1/2-y,z
loop_
_atom_site_type_symbol
_atom_site_label
_atom_site_fract_x
_atom_site_fract_y
_atom_site_fract_z
Si Si1 0.750000 0.430772 0.963216
Si Si2 0.593115 0.071072 0.461187
Si Si3 0.410965 0.420387 0.632660
Si Si4 0.402958 0.575053 0.198345
Si Si5 0.535439 0.929813 0.897766
Si Si6 0.750000 0.428720 0.066873
Si Si7 0.091276 0.572418 0.726081
O O1 0.750000 0.250000 0.960262
O O2 0.883288 0.494460 0.939046
O O3 0.750000 0.494650 0.015229
O O4 0.750000 0.024669 0.469684
O O5 0.575351 0.250000 0.461155
O O6 0.500000 0.000000 0.500000
O O7 0.538885 0.008145 0.412571
O O8 0.250000 0.417482 0.633285
O O9 0.470568 0.250000 0.632347
O O10 0.463604 0.507351 0.677754
O O11 0.250000 0.557224 0.217831
O O12 0.439409 0.750000 0.189954
O O13 0.410746 0.486962 0.150676
O O14 0.509715 0.506117 0.233472
O O15 0.553989 0.750000 0.900206
O O16 0.380169 0.982221 0.904242
O O17 0.750000 0.250000 0.061773
O O18 0.250000 0.536352 0.733105
O O19 0.062493 0.750000 0.726949
#
# Coordination Sequence:
#
# PCOD8243496 Si02
#       7
#     4   8   8   8   8   4   8
#     4  11  21  39  61  85 117 151 185 227 276 333
#     4  10  20  34  54  81 114 152 194 239 287 339
#     4   9  17  32  55  82 113 149 188 232 284 339
#     4  11  24  41  59  82 114 149 186 231 283 337
#     4  11  22  39  61  85 113 149 188 229 278 334
#     4   9  22  39  59  87 117 145 185 235 278 323
#     4  10  21  37  60  88 115 145 185 233 281 335
#
# _framework density 19.018823999999999
#
# number of rings (size 3 to 8) (size 9 to 14) (size 15 to 20)
#    0.000    1.833    0.833    3.250    1.167    5.000 
#    0.000    4.583    0.000    5.000    0.000    0.000 
#    0.000    0.000    0.000    0.000    0.000    0.000 
#
# Total GULP energy -595304.458324 kJ/mol
# GULP energy per Si atom -12402.176215 kJ/mol
# Density = 1.897554 g / cm^3
# Si number density = 19.018824 Si / 1000 Ang^3
#
#
#
# Elastic Constant Matrix: (Units=GPa)
#
#
# Indices 1 2 3 4 5 6 
#
# 1 77.1488 56.6380 37.8484 0.0000 0.0000 0.0000
# 2 56.6380 80.9418 39.5910 0.0000 0.0000 0.0000
# 3 37.8484 39.5910 113.0974 0.0000 0.0000 0.0000
# 4 0.0000 0.0000 0.0000 35.8328 0.0000 0.0000
# 5 0.0000 0.0000 0.0000 0.0000 33.4479 0.0000
# 6 0.0000 0.0000 0.0000 0.0000 0.0000 29.6000
#
#
#
# Elastic Compliance Matrix: (Units=1/GPa)
#
#
# Indices 1 2 3 4 5 6 
#
# 1 0.027458 -0.017760 -0.002972 0.000000 0.000000 0.000000
# 2 -0.017760 0.026394 -0.003296 0.000000 0.000000 0.000000
# 3 -0.002972 -0.003296 0.010990 0.000000 0.000000 0.000000
# 4 0.000000 0.000000 0.000000 0.027907 0.000000 0.000000
# 5 0.000000 0.000000 0.000000 0.000000 0.029897 0.000000
# 6 0.000000 0.000000 0.000000 0.000000 0.000000 0.033784
#
#
# Mechanical properties :
#
#
# Convention : Reuss Voigt Hill
#
# Bulk Modulus (GPa) = 59.57090 59.92698 59.74894
# Shear Modulus (GPa) = 23.80020 28.91686 26.35853
#
# Velocity S-wave (km/s) = 3.54135 3.90350 3.72683
# Velocity P-wave (km/s) = 6.93626 7.20376 7.07127
#
# Compressibility (1/GPa) = 0.01678672
#
# Stress axis : x y z
#
# Youngs Moduli (GPa) = 36.41904 37.88740 90.98894
#
# Poissons Ratio (x) = 0.67287 0.27041
# Poissons Ratio (y) = 0.64680 0.29991
# Poissons Ratio (z) = 0.10824 0.12488
#
# Static dielectric constant tensor:
#      x y z
#    x 3.451890 0.000000 0.000000 
#    y 0.000000 3.618800 0.000000 
#    z 0.000000 0.000000 3.650900 
# 
# 
# High freq. dielectric constant tensor:
#      x y z
#    x 1.726420 0.000000 0.000000 
#    y 0.000000 1.750740 0.000000 
#    z 0.000000 0.000000 1.749560 
# 
# From -- ./inp_files/33089.got.cif
#   From: 2010.03.12/outbox.cif.g09.slc.cpg/sg59_17_cif.got.tgz:33089.got - 2010.04.16 16:29:54.
