data_PCOD8243718
_publ_section_title
;
Structure prediction by ZEFSAII (Michael W. Deem and Ramdas Pophale) SiO2 
 PCOD8243718
Probable space group: P M M N
;
_chemical_formula_sum "Si O2"
_cell_formula_units_Z 64
_cell_length_a 14.494954
_cell_length_b 8.756038
_cell_length_c 24.339106
_cell_angle_alpha 90.000000
_cell_angle_beta 90.000000
_cell_angle_gamma 90.000000
_cell_volume 3089.079613
_symmetry_space_group_name_H-M "P M M N"
_symmetry_group_IT_number 59
_space_group.IT_coordinate_system_code '2'
_symmetry_cell_setting 'orthorhombic'
loop_
_space_group_symop_operation_xyz
x,y,z
1/2-x,1/2-y,z
1/2+x,-y,-z
-x,1/2+y,-z
-x,-y,-z
1/2+x,1/2+y,-z
1/2-x,y,z
x,1/2-y,z
loop_
_atom_site_type_symbol
_atom_site_label
_atom_site_fract_x
_atom_site_fract_y
_atom_site_fract_z
Si Si1 0.856155 0.926344 0.968914
Si Si2 0.150715 0.419610 0.630512
Si Si3 0.856202 0.569989 0.650596
Si Si4 0.028711 0.926828 0.126257
Si Si5 0.647835 0.425334 0.258960
Si Si6 0.521303 0.073408 0.557993
Si Si7 0.855228 0.429841 0.082919
Si Si8 0.038927 0.923915 0.247443
O O1 0.750000 0.957559 0.954811
O O2 0.875240 0.750000 0.982313
O O3 0.913830 0.974727 0.916373
O O4 0.886862 0.024691 0.021533
O O5 0.250000 0.422491 0.600353
O O6 0.133612 0.250000 0.656599
O O7 0.148996 0.550894 0.675801
O O8 0.074379 0.458031 0.587116
O O9 0.750000 0.516144 0.656167
O O10 0.863466 0.750000 0.645605
O O11 0.897505 0.500715 0.594476
O O12 0.911039 0.522440 0.705835
O O13 0.028582 0.750000 0.109286
O O14 0.078575 0.947612 0.185879
O O15 0.922995 0.988680 0.126361
O O16 0.750000 0.466565 0.234706
O O17 0.624038 0.250000 0.245589
O O18 0.568001 0.534294 0.236946
O O19 0.546102 0.250000 0.550621
O O20 0.500000 0.000000 0.500000
O O21 0.750000 0.484497 0.093828
O O22 0.863975 0.250000 0.090422
O O23 0.047853 0.750000 0.267141
#
# Coordination Sequence:
#
# PCOD8243718 Si02
#       8
#     8   8   8   8   8   8   8   8
#     4  10  21  38  61  87 117 155 200 251 307 366
#     4   9  18  34  57  84 115 151 190 233 285 347
#     4  11  25  45  68  92 122 163 209 257 308 361
#     4  11  24  39  58  86 121 159 202 252 304 361
#     4  10  20  34  57  87 116 149 190 237 290 351
#     4  11  23  39  63  94 128 165 202 246 299 355
#     4  10  21  38  61  88 120 159 201 248 304 364
#     4  11  24  41  61  87 120 162 206 250 303 363
#
# _framework density 20.718146000000001
#
# number of rings (size 3 to 8) (size 9 to 14) (size 15 to 20)
#    0.000    1.625    1.250    3.000    0.000    7.250 
#    0.000    6.250    0.000    0.000    0.000    0.000 
#    0.000    0.000    0.000    0.000    0.000    0.000 
#
# Total GULP energy -793306.475687 kJ/mol
# GULP energy per Si atom -12395.413683 kJ/mol
# Density = 2.067099 g / cm^3
# Si number density = 20.718146 Si / 1000 Ang^3
#
#
#
# Elastic Constant Matrix: (Units=GPa)
#
#
# Indices 1 2 3 4 5 6 
#
# 1 95.2601 27.9547 38.4747 0.0000 0.0000 0.0000
# 2 27.9547 67.4319 23.9108 0.0000 0.0000 0.0000
# 3 38.4747 23.9108 97.5576 0.0000 0.0000 0.0000
# 4 0.0000 0.0000 0.0000 31.6276 0.0000 0.0000
# 5 0.0000 0.0000 0.0000 0.0000 12.8510 0.0000
# 6 0.0000 0.0000 0.0000 0.0000 0.0000 32.9093
#
#
#
# Elastic Compliance Matrix: (Units=1/GPa)
#
#
# Indices 1 2 3 4 5 6 
#
# 1 0.013420 -0.004038 -0.004303 0.000000 0.000000 0.000000
# 2 -0.004038 0.017456 -0.002686 0.000000 0.000000 0.000000
# 3 -0.004303 -0.002686 0.012606 0.000000 0.000000 0.000000
# 4 0.000000 0.000000 0.000000 0.031618 0.000000 0.000000
# 5 0.000000 0.000000 0.000000 0.000000 0.077815 0.000000
# 6 0.000000 0.000000 0.000000 0.000000 0.000000 0.030387
#
#
# Mechanical properties :
#
#
# Convention : Reuss Voigt Hill
#
# Bulk Modulus (GPa) = 46.66663 48.99220 47.82941
# Shear Modulus (GPa) = 23.52959 26.80487 25.16723
#
# Velocity S-wave (km/s) = 3.37367 3.60083 3.48910
# Velocity P-wave (km/s) = 6.14402 6.40205 6.27436
#
# Compressibility (1/GPa) = 0.02142859
#
# Stress axis : x y z
#
# Youngs Moduli (GPa) = 74.51300 57.28651 79.32905
#
# Poissons Ratio (x) = 0.23131 0.34136
# Poissons Ratio (y) = 0.30087 0.21308
# Poissons Ratio (z) = 0.32064 0.15387
#
# Static dielectric constant tensor:
#      x y z
#    x 4.708040 0.000000 0.000000 
#    y 0.000000 3.930120 0.000000 
#    z 0.000000 0.000000 3.748560 
# 
# 
# High freq. dielectric constant tensor:
#      x y z
#    x 1.817030 0.000000 0.000000 
#    y 0.000000 1.817290 0.000000 
#    z 0.000000 0.000000 1.806740 
# 
# From -- ./inp_files/32208.got.cif
#   From: 2010.03.12/outbox.cif.g09.slc.cpg/sg59_17_cif.got.tgz:32208.got - 2010.04.16 16:29:54.
