data_PCOD8243544
_publ_section_title
;
Structure prediction by ZEFSAII (Michael W. Deem and Ramdas Pophale) SiO2 
 PCOD8243544
Probable space group: P M M N
;
_chemical_formula_sum "Si O2"
_cell_formula_units_Z 56
_cell_length_a 8.553634
_cell_length_b 23.971006
_cell_length_c 14.937064
_cell_angle_alpha 90.000000
_cell_angle_beta 90.000000
_cell_angle_gamma 90.000000
_cell_volume 3062.683831
_symmetry_space_group_name_H-M "P M M N"
_symmetry_group_IT_number 59
_space_group.IT_coordinate_system_code '2'
_symmetry_cell_setting 'orthorhombic'
loop_
_space_group_symop_operation_xyz
x,y,z
1/2-x,1/2-y,z
1/2+x,-y,-z
-x,1/2+y,-z
-x,-y,-z
1/2+x,1/2+y,-z
1/2-x,y,z
x,1/2-y,z
loop_
_atom_site_type_symbol
_atom_site_label
_atom_site_fract_x
_atom_site_fract_y
_atom_site_fract_z
Si Si1 0.927812 0.353225 0.785129
Si Si2 0.427532 0.250000 0.700419
Si Si3 0.933149 0.867753 0.528311
Si Si4 0.933130 0.250000 0.509500
Si Si5 0.431188 0.927766 0.057845
Si Si6 0.430349 0.938987 0.368586
Si Si7 0.434199 0.555021 0.673399
Si Si8 0.067927 0.961420 0.869982
O O1 0.750000 0.332443 0.771672
O O2 0.958777 0.370213 0.888682
O O3 0.960485 0.407190 0.724323
O O4 0.045161 0.304013 0.761254
O O5 0.250000 0.250000 0.665661
O O6 0.542320 0.250000 0.616249
O O7 0.750000 0.870128 0.508538
O O8 0.988576 0.804024 0.534583
O O9 0.023469 0.898390 0.448788
O O10 0.973389 0.896913 0.621762
O O11 0.750000 0.250000 0.489112
O O12 0.250000 0.945703 0.061585
O O13 0.527951 0.975328 0.107038
O O14 0.484928 0.921861 0.953613
O O15 0.250000 0.955969 0.379655
O O16 0.533232 0.994824 0.371077
O O17 0.250000 0.566896 0.667763
O O18 0.505006 0.556814 0.774742
O O19 0.250000 0.957321 0.854457
#
# Coordination Sequence:
#
# PCOD8243544 Si02
#       8
#     8   4   8   4   8   8   8   8
#     4  10  20  34  55  79 111 148 183 222 270 326
#     4  12  24  36  56  81 110 143 184 227 270 324
#     4  12  25  40  58  80 108 145 187 231 276 327
#     4  12  24  42  62  81 106 139 182 229 278 328
#     4   9  17  32  53  79 108 141 178 218 266 321
#     4  11  21  35  55  81 113 150 184 224 273 329
#     4  11  22  36  54  81 116 151 186 229 277 329
#     4   9  18  31  52  80 110 141 177 220 267 320
#
# _framework density 18.284617000000001
#
# number of rings (size 3 to 8) (size 9 to 14) (size 15 to 20)
#    0.000    1.429    2.857    3.857    0.000    1.714 
#    0.000    0.000    0.000    0.857    0.000    3.000 
#    0.000    0.000    0.000    0.000    0.000    0.000 
#
# Total GULP energy -694431.800716 kJ/mol
# GULP energy per Si atom -12400.567870 kJ/mol
# Density = 1.824300 g / cm^3
# Si number density = 18.284617 Si / 1000 Ang^3
#
#
#
# Elastic Constant Matrix: (Units=GPa)
#
#
# Indices 1 2 3 4 5 6 
#
# 1 46.0468 18.4176 19.9890 0.0000 0.0000 0.0000
# 2 18.4176 97.1433 43.2187 0.0000 0.0000 0.0000
# 3 19.9890 43.2187 107.0949 0.0000 0.0000 0.0000
# 4 0.0000 0.0000 0.0000 18.7053 0.0000 0.0000
# 5 0.0000 0.0000 0.0000 0.0000 19.8772 0.0000
# 6 0.0000 0.0000 0.0000 0.0000 0.0000 28.6309
#
#
#
# Elastic Compliance Matrix: (Units=1/GPa)
#
#
# Indices 1 2 3 4 5 6 
#
# 1 0.024407 -0.003170 -0.003276 0.000000 0.000000 0.000000
# 2 -0.003170 0.012958 -0.004638 0.000000 0.000000 0.000000
# 3 -0.003276 -0.004638 0.011821 0.000000 0.000000 0.000000
# 4 0.000000 0.000000 0.000000 0.053461 0.000000 0.000000
# 5 0.000000 0.000000 0.000000 0.000000 0.050309 0.000000
# 6 0.000000 0.000000 0.000000 0.000000 0.000000 0.034927
#
#
# Mechanical properties :
#
#
# Convention : Reuss Voigt Hill
#
# Bulk Modulus (GPa) = 37.01193 45.94841 41.48017
# Shear Modulus (GPa) = 22.82511 24.68667 23.75589
#
# Velocity S-wave (km/s) = 3.53699 3.67840 3.60839
# Velocity P-wave (km/s) = 6.08001 6.57457 6.33212
#
# Compressibility (1/GPa) = 0.02701831
#
# Stress axis : x y z
#
# Youngs Moduli (GPa) = 40.97167 77.17024 84.59787
#
# Poissons Ratio (x) = 0.24461 0.27717
# Poissons Ratio (y) = 0.12987 0.39235
# Poissons Ratio (z) = 0.13424 0.35790
#
# Static dielectric constant tensor:
#      x y z
#    x 3.349730 0.000000 0.000000 
#    y 0.000000 3.215570 0.000000 
#    z 0.000000 0.000000 3.727710 
# 
# 
# High freq. dielectric constant tensor:
#      x y z
#    x 1.712120 0.000000 0.000000 
#    y 0.000000 1.686420 0.000000 
#    z 0.000000 0.000000 1.712530 
# 
# From -- ./inp_files/21200.got.cif
#   From: 2010.03.12/outbox.cif.g09.slc.cpg/sg59_11_cif.got.tgz:21200.got - 2010.04.16 16:29:54.
