data_PCOD8243966
_publ_section_title
;
Structure prediction by ZEFSAII (Michael W. Deem and Ramdas Pophale) SiO2 
 PCOD8243966
Probable space group: P M M N
;
_chemical_formula_sum "Si O2"
_cell_formula_units_Z 64
_cell_length_a 28.296885
_cell_length_b 9.099495
_cell_length_c 12.458149
_cell_angle_alpha 90.000000
_cell_angle_beta 90.000000
_cell_angle_gamma 90.000000
_cell_volume 3207.815941
_symmetry_space_group_name_H-M "P M M N"
_symmetry_group_IT_number 59
_space_group.IT_coordinate_system_code '2'
_symmetry_cell_setting 'orthorhombic'
loop_
_space_group_symop_operation_xyz
x,y,z
1/2-x,1/2-y,z
1/2+x,-y,-z
-x,1/2+y,-z
-x,-y,-z
1/2+x,1/2+y,-z
1/2-x,y,z
x,1/2-y,z
loop_
_atom_site_type_symbol
_atom_site_label
_atom_site_fract_x
_atom_site_fract_y
_atom_site_fract_z
Si Si1 0.136166 0.424033 0.613099
Si Si2 0.194898 0.412397 0.225010
Si Si3 0.564209 0.917195 0.991128
Si Si4 0.327737 0.081181 0.990215
Si Si5 0.302848 0.580348 0.785501
Si Si6 0.694145 0.419364 0.569527
Si Si7 0.491971 0.923346 0.170559
Si Si8 0.473317 0.424118 0.598128
O O1 0.140956 0.250000 0.618976
O O2 0.158027 0.488980 0.721658
O O3 0.166538 0.484271 0.515592
O O4 0.081627 0.471659 0.600366
O O5 0.250000 0.394262 0.241125
O O6 0.171048 0.250000 0.237548
O O7 0.176057 0.525039 0.314555
O O8 0.183730 0.479000 0.108705
O O9 0.551176 0.750000 0.964871
O O10 0.617085 0.934590 0.031013
O O11 0.533846 0.976646 0.091470
O O12 0.555496 0.006580 0.880156
O O13 0.310556 0.250000 0.978911
O O14 0.300379 0.979886 0.906459
O O15 0.250000 0.563019 0.735622
O O16 0.318031 0.750000 0.785102
O O17 0.750000 0.441421 0.553380
O O18 0.679870 0.250000 0.556023
O O19 0.486763 0.750000 0.171652
O O20 0.502307 0.978911 0.291161
O O21 0.500000 0.500000 0.500000
O O22 0.477890 0.250000 0.585014
#
# Coordination Sequence:
#
# PCOD8243966 Si02
#       8
#     8   8   8   8   8   8   8   8
#     4  11  23  40  62  85 112 149 193 238 286 345
#     4   9  18  33  53  77 106 142 183 225 272 329
#     4   9  18  33  55  81 107 138 178 224 269 316
#     4  10  20  35  56  82 113 148 187 230 275 328
#     4  11  24  39  57  86 122 155 190 236 288 342
#     4  10  21  37  57  82 113 148 189 239 292 344
#     4   9  18  35  55  76 106 140 176 219 269 325
#     4  10  23  41  60  84 114 148 187 234 287 343
#
# _framework density 19.951270000000001
#
# number of rings (size 3 to 8) (size 9 to 14) (size 15 to 20)
#    0.000    2.125    0.000    2.625    0.000    9.250 
#    0.000    7.500    0.000    0.000    0.000    0.000 
#    0.000    0.000    0.000    0.000    0.000    0.000 
#
# Total GULP energy -793575.538629 kJ/mol
# GULP energy per Si atom -12399.617791 kJ/mol
# Density = 1.990586 g / cm^3
# Si number density = 19.951270 Si / 1000 Ang^3
#
#
#
# Elastic Constant Matrix: (Units=GPa)
#
#
# Indices 1 2 3 4 5 6 
#
# 1 65.8590 39.2764 38.0602 0.0000 0.0000 0.0000
# 2 39.2764 78.5373 51.7354 0.0000 0.0000 0.0000
# 3 38.0602 51.7354 145.7253 0.0000 0.0000 0.0000
# 4 0.0000 0.0000 0.0000 32.4650 0.0000 0.0000
# 5 0.0000 0.0000 0.0000 0.0000 25.8341 0.0000
# 6 0.0000 0.0000 0.0000 0.0000 0.0000 25.6634
#
#
#
# Elastic Compliance Matrix: (Units=1/GPa)
#
#
# Indices 1 2 3 4 5 6 
#
# 1 0.022278 -0.009539 -0.002432 0.000000 0.000000 0.000000
# 2 -0.009539 0.020704 -0.004859 0.000000 0.000000 0.000000
# 3 -0.002432 -0.004859 0.009222 0.000000 0.000000 0.000000
# 4 0.000000 0.000000 0.000000 0.030802 0.000000 0.000000
# 5 0.000000 0.000000 0.000000 0.000000 0.038709 0.000000
# 6 0.000000 0.000000 0.000000 0.000000 0.000000 0.038966
#
#
# Mechanical properties :
#
#
# Convention : Reuss Voigt Hill
#
# Bulk Modulus (GPa) = 53.92441 60.91842 57.42141
# Shear Modulus (GPa) = 24.93468 27.52915 26.23192
#
# Velocity S-wave (km/s) = 3.53906 3.71862 3.62995
# Velocity P-wave (km/s) = 6.61715 7.00267 6.81264
#
# Compressibility (1/GPa) = 0.01854448
#
# Stress axis : x y z
#
# Youngs Moduli (GPa) = 44.88652 48.29933 108.43144
#
# Poissons Ratio (x) = 0.46075 0.26370
# Poissons Ratio (y) = 0.42819 0.52686
# Poissons Ratio (z) = 0.10916 0.23468
#
# Static dielectric constant tensor:
#      x y z
#    x 3.603850 0.000000 0.000000 
#    y 0.000000 3.670110 0.000000 
#    z 0.000000 0.000000 3.784020 
# 
# 
# High freq. dielectric constant tensor:
#      x y z
#    x 1.772340 0.000000 0.000000 
#    y 0.000000 1.771510 0.000000 
#    z 0.000000 0.000000 1.789080 
# 
# From -- ./inp_files/19299.got.cif
#   From: 2010.03.12/outbox.cif.g09.slc.cpg/sg59_10_cif.got.tgz:19299.got - 2010.04.16 16:29:54.
