data_PCOD8243483
_publ_section_title
;
Structure prediction by ZEFSAII (Michael W. Deem and Ramdas Pophale) SiO2 
 PCOD8243483
Probable space group: P M M N
;
_chemical_formula_sum "Si O2"
_cell_formula_units_Z 40
_cell_length_a 8.835791
_cell_length_b 14.890315
_cell_length_c 15.257779
_cell_angle_alpha 90.000000
_cell_angle_beta 90.000000
_cell_angle_gamma 90.000000
_cell_volume 2007.431062
_symmetry_space_group_name_H-M "P M M N"
_symmetry_group_IT_number 59
_space_group.IT_coordinate_system_code '2'
_symmetry_cell_setting 'orthorhombic'
loop_
_space_group_symop_operation_xyz
x,y,z
1/2-x,1/2-y,z
1/2+x,-y,-z
-x,1/2+y,-z
-x,-y,-z
1/2+x,1/2+y,-z
1/2-x,y,z
x,1/2-y,z
loop_
_atom_site_type_symbol
_atom_site_label
_atom_site_fract_x
_atom_site_fract_y
_atom_site_fract_z
Si Si1 0.426533 0.939877 0.731798
Si Si2 0.571179 0.109153 0.659535
Si Si3 0.071896 0.250000 0.535996
Si Si4 0.425016 0.750000 0.648746
Si Si5 0.071595 0.750000 0.199645
Si Si6 0.929950 0.250000 0.994566
Si Si7 0.929135 0.065153 0.070471
O O1 0.250000 0.960699 0.722824
O O2 0.461990 0.837314 0.706839
O O3 0.483203 0.957247 0.831161
O O4 0.514671 0.006839 0.666567
O O5 0.750000 0.111076 0.645547
O O6 0.497246 0.159206 0.577000
O O7 0.520036 0.161345 0.747703
O O8 0.250000 0.250000 0.550980
O O9 0.034285 0.250000 0.433985
O O10 0.250000 0.750000 0.618431
O O11 0.250000 0.750000 0.190926
O O12 0.997643 0.750000 0.103326
O O13 0.750000 0.250000 0.987602
O O14 0.988193 0.164288 0.047501
O O15 0.750000 0.059300 0.063166
O O16 0.000000 0.000000 0.000000
#
# Coordination Sequence:
#
# PCOD8243483 Si02
#       7
#     8   8   4   4   4   4   8
#     4  10  21  37  57  82 112 149 192 239 287 333
#     4  10  20  36  59  85 114 148 186 229 282 343
#     4  11  23  40  62  89 116 141 177 228 283 340
#     4  10  22  41  61  81 112 151 192 235 280 337
#     4   8  15  28  49  78 107 140 183 226 270 324
#     4   9  16  29  50  74 105 146 186 223 269 327
#     4  10  20  34  54  81 112 148 191 235 279 329
#
# _framework density 19.925964
#
# number of rings (size 3 to 8) (size 9 to 14) (size 15 to 20)
#    0.000    2.200    0.000    3.900    0.000    6.400 
#    0.000    0.500    0.000    6.000    0.000    0.000 
#    0.000    0.000    0.000    0.000    0.000    0.000 
#
# Total GULP energy -496032.860059 kJ/mol
# GULP energy per Si atom -12400.821501 kJ/mol
# Density = 1.988061 g / cm^3
# Si number density = 19.925964 Si / 1000 Ang^3
#
#
#
# Elastic Constant Matrix: (Units=GPa)
#
#
# Indices 1 2 3 4 5 6 
#
# 1 70.9094 45.1763 41.5945 0.0000 0.0000 0.0000
# 2 45.1763 148.3176 43.9706 0.0000 0.0000 0.0000
# 3 41.5945 43.9706 111.4419 0.0000 0.0000 0.0000
# 4 0.0000 0.0000 0.0000 21.1548 0.0000 0.0000
# 5 0.0000 0.0000 0.0000 0.0000 27.6147 0.0000
# 6 0.0000 0.0000 0.0000 0.0000 0.0000 29.6327
#
#
#
# Elastic Compliance Matrix: (Units=1/GPa)
#
#
# Indices 1 2 3 4 5 6 
#
# 1 0.020380 -0.004476 -0.005841 0.000000 0.000000 0.000000
# 2 -0.004476 0.008619 -0.001730 0.000000 0.000000 0.000000
# 3 -0.005841 -0.001730 0.011836 0.000000 0.000000 0.000000
# 4 0.000000 0.000000 0.000000 0.047271 0.000000 0.000000
# 5 0.000000 0.000000 0.000000 0.000000 0.036213 0.000000
# 6 0.000000 0.000000 0.000000 0.000000 0.000000 0.033746
#
#
# Mechanical properties :
#
#
# Convention : Reuss Voigt Hill
#
# Bulk Modulus (GPa) = 59.73239 65.79466 62.76353
# Shear Modulus (GPa) = 26.63289 29.00896 27.82092
#
# Velocity S-wave (km/s) = 3.65991 3.81968 3.74065
# Velocity P-wave (km/s) = 6.92114 7.24876 7.08684
#
# Compressibility (1/GPa) = 0.01674134
#
# Stress axis : x y z
#
# Youngs Moduli (GPa) = 49.06711 116.02919 84.48973
#
# Poissons Ratio (x) = 0.51936 0.49347
# Poissons Ratio (y) = 0.21963 0.14616
# Poissons Ratio (z) = 0.28658 0.20071
#
# Static dielectric constant tensor:
#      x y z
#    x 3.331920 0.000000 0.000000 
#    y 0.000000 3.782540 0.000000 
#    z 0.000000 0.000000 3.736620 
# 
# 
# High freq. dielectric constant tensor:
#      x y z
#    x 1.749990 0.000000 0.000000 
#    y 0.000000 1.788000 0.000000 
#    z 0.000000 0.000000 1.781700 
# 
# From -- ./inp_files/20051.got.cif
#   From: 2010.03.12/outbox.cif.g09.slc.cpg/sg59_11_cif.got.tgz:20051.got - 2010.04.16 16:29:54.
