data_PCOD8243985
_publ_section_title
;
Structure prediction by ZEFSAII (Michael W. Deem and Ramdas Pophale) SiO2 
 PCOD8243985
Probable space group: P M M N
;
_chemical_formula_sum "Si O2"
_cell_formula_units_Z 64
_cell_length_a 27.295194
_cell_length_b 9.263632
_cell_length_c 13.116764
_cell_angle_alpha 90.000000
_cell_angle_beta 90.000000
_cell_angle_gamma 90.000000
_cell_volume 3316.608308
_symmetry_space_group_name_H-M "P M M N"
_symmetry_group_IT_number 59
_space_group.IT_coordinate_system_code '2'
_symmetry_cell_setting 'orthorhombic'
loop_
_space_group_symop_operation_xyz
x,y,z
1/2-x,1/2-y,z
1/2+x,-y,-z
-x,1/2+y,-z
-x,-y,-z
1/2+x,1/2+y,-z
1/2-x,y,z
x,1/2-y,z
loop_
_atom_site_type_symbol
_atom_site_label
_atom_site_fract_x
_atom_site_fract_y
_atom_site_fract_z
Si Si1 0.375302 0.581311 0.371862
Si Si2 0.807159 0.581474 0.029465
Si Si3 0.693764 0.415854 0.440799
Si Si4 0.024235 0.079496 0.406906
Si Si5 0.153540 0.419168 0.752723
Si Si6 0.867465 0.081343 0.858359
Si Si7 0.458807 0.407320 0.731750
Si Si8 0.473998 0.594893 0.081114
O O1 0.390615 0.750000 0.378551
O O2 0.336674 0.537673 0.459071
O O3 0.422181 0.482309 0.388402
O O4 0.353068 0.548511 0.259579
O O5 0.750000 0.548090 0.022651
O O6 0.819008 0.750000 0.019681
O O7 0.826497 0.522781 0.138613
O O8 0.832582 0.503387 0.934803
O O9 0.750000 0.442648 0.469319
O O10 0.683143 0.250000 0.414170
O O11 0.680717 0.506813 0.341306
O O12 0.027176 0.250000 0.422480
O O13 0.000000 0.000000 0.500000
O O14 0.987614 0.040547 0.316393
O O15 0.164091 0.250000 0.743850
O O16 0.096600 0.458008 0.746810
O O17 0.861427 0.250000 0.880924
O O18 0.923672 0.028173 0.874349
O O19 0.460230 0.250000 0.672739
O O20 0.484351 0.379796 0.837335
O O21 0.460702 0.750000 0.032093
O O22 0.500000 0.500000 0.000000
#
# Coordination Sequence:
#
# PCOD8243985 Si02
#       8
#     8   8   8   8   8   8   8   8
#     4  10  21  41  63  85 120 158 198 246 297 355
#     4  10  22  40  61  86 118 157 200 248 303 356
#     4  10  22  39  61  88 116 151 195 247 303 355
#     4  12  24  37  57  85 118 156 196 238 289 350
#     4  10  21  38  62  88 117 156 198 245 300 358
#     4  10  21  38  61  87 118 156 198 246 297 352
#     4  10  20  37  58  83 116 151 192 237 288 345
#     4  10  20  35  56  83 116 153 191 236 287 343
#
# _framework density 19.296823
#
# number of rings (size 3 to 8) (size 9 to 14) (size 15 to 20)
#    0.000    1.750    1.250    3.000    0.000    7.500 
#    0.000    1.250    0.000    0.000    0.000    0.000 
#    0.000    0.000    0.000    0.000    0.000    0.000 
#
# Total GULP energy -793318.082337 kJ/mol
# GULP energy per Si atom -12395.595037 kJ/mol
# Density = 1.925290 g / cm^3
# Si number density = 19.296823 Si / 1000 Ang^3
#
#
#
# Elastic Constant Matrix: (Units=GPa)
#
#
# Indices 1 2 3 4 5 6 
#
# 1 116.9067 51.0380 63.5819 0.0000 0.0000 0.0000
# 2 51.0380 87.5929 64.9781 0.0000 0.0000 0.0000
# 3 63.5819 64.9781 148.9349 0.0000 0.0000 0.0000
# 4 0.0000 0.0000 0.0000 33.4997 0.0000 0.0000
# 5 0.0000 0.0000 0.0000 0.0000 37.9070 0.0000
# 6 0.0000 0.0000 0.0000 0.0000 0.0000 70.0067
#
#
#
# Elastic Compliance Matrix: (Units=1/GPa)
#
#
# Indices 1 2 3 4 5 6 
#
# 1 0.012407 -0.004879 -0.003168 0.000000 0.000000 0.000000
# 2 -0.004879 0.018798 -0.006118 0.000000 0.000000 0.000000
# 3 -0.003168 -0.006118 0.010736 0.000000 0.000000 0.000000
# 4 0.000000 0.000000 0.000000 0.029851 0.000000 0.000000
# 5 0.000000 0.000000 0.000000 0.000000 0.026380 0.000000
# 6 0.000000 0.000000 0.000000 0.000000 0.000000 0.014284
#
#
# Mechanical properties :
#
#
# Convention : Reuss Voigt Hill
#
# Bulk Modulus (GPa) = 73.47417 79.18118 76.32768
# Shear Modulus (GPa) = 34.40578 39.87179 37.13878
#
# Velocity S-wave (km/s) = 4.22711 4.55052 4.39179
# Velocity P-wave (km/s) = 7.87293 8.29047 8.08440
#
# Compressibility (1/GPa) = 0.01361023
#
# Stress axis : x y z
#
# Youngs Moduli (GPa) = 80.60066 53.19680 93.14333
#
# Poissons Ratio (x) = 0.25955 0.29507
# Poissons Ratio (y) = 0.39326 0.56989
# Poissons Ratio (z) = 0.25534 0.32548
#
# Static dielectric constant tensor:
#      x y z
#    x 3.587300 0.000000 0.000000 
#    y 0.000000 4.251130 0.000000 
#    z 0.000000 0.000000 3.682140 
# 
# 
# High freq. dielectric constant tensor:
#      x y z
#    x 1.759310 0.000000 0.000000 
#    y 0.000000 1.743350 0.000000 
#    z 0.000000 0.000000 1.759220 
# 
# From -- ./inp_files/19272.got.cif
#   From: 2010.03.12/outbox.cif.g09.slc.cpg/sg59_10_cif.got.tgz:19272.got - 2010.04.16 16:29:54.
