data_PCOD8243935
_publ_section_title
;
Structure prediction by ZEFSAII (Michael W. Deem and Ramdas Pophale) SiO2 
 PCOD8243935
Probable space group: P M M N
;
_chemical_formula_sum "Si O2"
_cell_formula_units_Z 40
_cell_length_a 18.705652
_cell_length_b 13.219891
_cell_length_c 8.287183
_cell_angle_alpha 90.000000
_cell_angle_beta 90.000000
_cell_angle_gamma 90.000000
_cell_volume 2049.309975
_symmetry_space_group_name_H-M "P M M N"
_symmetry_group_IT_number 59
_space_group.IT_coordinate_system_code '2'
_symmetry_cell_setting 'orthorhombic'
loop_
_space_group_symop_operation_xyz
x,y,z
1/2-x,1/2-y,z
1/2+x,-y,-z
-x,1/2+y,-z
-x,-y,-z
1/2+x,1/2+y,-z
1/2-x,y,z
x,1/2-y,z
loop_
_atom_site_type_symbol
_atom_site_label
_atom_site_fract_x
_atom_site_fract_y
_atom_site_fract_z
Si Si1 0.598446 0.633760 0.877640
Si Si2 0.960988 0.361171 0.921780
Si Si3 0.331944 0.537747 0.928790
Si Si4 0.438369 0.982965 0.373266
Si Si5 0.168031 0.633481 0.589584
O O1 0.624537 0.750000 0.867696
O O2 0.600825 0.584188 0.697481
O O3 0.516233 0.624251 0.932639
O O4 0.647134 0.575337 0.010426
O O5 0.965447 0.250000 0.849951
O O6 0.980652 0.434973 0.776759
O O7 0.880363 0.381283 0.979101
O O8 0.250000 0.559098 0.974366
O O9 0.344269 0.556367 0.738506
O O10 0.378948 0.906889 0.441651
O O11 0.500000 0.000000 0.500000
O O12 0.250000 0.630049 0.533686
O O13 0.146665 0.750000 0.633450
#
# Coordination Sequence:
#
# PCOD8243935 Si02
#       5
#     8   8   8   8   8
#     4  10  22  39  57  78 109 150 191 228 265 315
#     4  10  20  35  56  81 107 138 180 228 275 323
#     4  10  20  36  58  81 107 141 182 226 270 321
#     4  11  21  34  54  82 113 144 179 221 271 329
#     4  10  21  37  57  83 114 143 173 220 284 340
#
# _framework density 19.518764999999998
#
# number of rings (size 3 to 8) (size 9 to 14) (size 15 to 20)
#    0.000    1.800    0.000    6.000    0.000    8.000 
#    0.000    1.000    0.000    1.200    0.000    0.000 
#    0.000    0.000    0.000    0.000    0.000    0.000 
#
# Total GULP energy -495800.835216 kJ/mol
# GULP energy per Si atom -12395.020880 kJ/mol
# Density = 1.947434 g / cm^3
# Si number density = 19.518765 Si / 1000 Ang^3
#
#
#
# Elastic Constant Matrix: (Units=GPa)
#
#
# Indices 1 2 3 4 5 6 
#
# 1 84.1341 30.0453 23.9414 0.0000 0.0000 0.0000
# 2 30.0453 119.1960 47.0802 0.0000 0.0000 0.0000
# 3 23.9414 47.0802 75.1372 0.0000 0.0000 0.0000
# 4 0.0000 0.0000 0.0000 24.5161 0.0000 0.0000
# 5 0.0000 0.0000 0.0000 0.0000 31.0639 0.0000
# 6 0.0000 0.0000 0.0000 0.0000 0.0000 26.7673
#
#
#
# Elastic Compliance Matrix: (Units=1/GPa)
#
#
# Indices 1 2 3 4 5 6 
#
# 1 0.013517 -0.002267 -0.002886 0.000000 0.000000 0.000000
# 2 -0.002267 0.011529 -0.006502 0.000000 0.000000 0.000000
# 3 -0.002886 -0.006502 0.018303 0.000000 0.000000 0.000000
# 4 0.000000 0.000000 0.000000 0.040790 0.000000 0.000000
# 5 0.000000 0.000000 0.000000 0.000000 0.032192 0.000000
# 6 0.000000 0.000000 0.000000 0.000000 0.000000 0.037359
#
#
# Mechanical properties :
#
#
# Convention : Reuss Voigt Hill
#
# Bulk Modulus (GPa) = 49.90474 53.40013 51.65244
# Shear Modulus (GPa) = 27.22154 28.29615 27.75885
#
# Velocity S-wave (km/s) = 3.73853 3.81161 3.77525
# Velocity P-wave (km/s) = 6.65271 6.84024 6.74713
#
# Compressibility (1/GPa) = 0.02003818
#
# Stress axis : x y z
#
# Youngs Moduli (GPa) = 73.98232 86.73783 54.63724
#
# Poissons Ratio (x) = 0.19664 0.15771
# Poissons Ratio (y) = 0.16772 0.35523
# Poissons Ratio (z) = 0.21354 0.56393
#
# Static dielectric constant tensor:
#      x y z
#    x 3.580420 0.000000 0.000000 
#    y 0.000000 3.787630 0.000000 
#    z 0.000000 0.000000 3.745870 
# 
# 
# High freq. dielectric constant tensor:
#      x y z
#    x 1.755500 0.000000 0.000000 
#    y 0.000000 1.765010 0.000000 
#    z 0.000000 0.000000 1.756530 
# 
# From -- ./inp_files/8818.got.cif
#   From: 2010.03.12/outbox.cif.g09.slc.cpg/sg59_5_cif.got.tgz:8818.got - 2010.04.16 16:29:54.
