data_PCOD8243672
_publ_section_title
;
Structure prediction by ZEFSAII (Michael W. Deem and Ramdas Pophale) SiO2 
 PCOD8243672
Probable space group: P M M N
;
_chemical_formula_sum "Si O2"
_cell_formula_units_Z 64
_cell_length_a 9.026186
_cell_length_b 18.347971
_cell_length_c 20.277955
_cell_angle_alpha 90.000000
_cell_angle_beta 90.000000
_cell_angle_gamma 90.000000
_cell_volume 3358.276718
_symmetry_space_group_name_H-M "P M M N"
_symmetry_group_IT_number 59
_space_group.IT_coordinate_system_code '2'
_symmetry_cell_setting 'orthorhombic'
loop_
_space_group_symop_operation_xyz
x,y,z
1/2-x,1/2-y,z
1/2+x,-y,-z
-x,1/2+y,-z
-x,-y,-z
1/2+x,1/2+y,-z
1/2-x,y,z
x,1/2-y,z
loop_
_atom_site_type_symbol
_atom_site_label
_atom_site_fract_x
_atom_site_fract_y
_atom_site_fract_z
Si Si1 0.921513 0.580532 0.119492
Si Si2 0.425180 0.332013 0.005078
Si Si3 0.925684 0.921529 0.494175
Si Si4 0.080974 0.911861 0.879946
Si Si5 0.578672 0.334919 0.391713
Si Si6 0.579420 0.422192 0.746697
Si Si7 0.079410 0.665834 0.381653
Si Si8 0.921804 0.069931 0.266922
O O1 0.750000 0.599190 0.130275
O O2 0.989460 0.624138 0.057579
O O3 0.946182 0.496118 0.103773
O O4 0.004034 0.604338 0.185938
O O5 0.250000 0.336948 0.005054
O O6 0.482944 0.250000 0.998737
O O7 0.478644 0.363915 0.073993
O O8 0.750000 0.931435 0.494310
O O9 0.973847 0.871196 0.554666
O O10 0.974692 0.883151 0.426868
O O11 0.000000 0.000000 0.500000
O O12 0.250000 0.889399 0.892926
O O13 0.035159 0.896706 0.804146
O O14 0.750000 0.348100 0.411031
O O15 0.541176 0.250000 0.387753
O O16 0.541534 0.369500 0.321015
O O17 0.750000 0.437390 0.761424
O O18 0.556724 0.358296 0.693711
O O19 0.511305 0.496599 0.717777
O O20 0.250000 0.654743 0.403570
O O21 0.032714 0.750000 0.388504
O O22 0.750000 0.047253 0.266330
#
# Coordination Sequence:
#
# PCOD8243672 Si02
#       8
#     8   8   8   8   8   8   8   8
#     4   9  19  36  55  75 104 141 179 220 266 319
#     4  10  21  35  51  75 107 140 174 216 269 324
#     4  12  25  40  60  85 112 145 188 233 274 322
#     4   9  18  33  54  78 103 136 179 222 261 308
#     4  10  21  38  60  85 115 150 184 223 274 327
#     4  10  20  34  56  84 109 138 180 226 269 316
#     4  10  22  40  59  82 116 151 180 219 274 330
#     4   9  19  36  57  81 109 143 182 221 266 323
#
# _framework density 19.057393000000001
#
# number of rings (size 3 to 8) (size 9 to 14) (size 15 to 20)
#    0.000    2.125    0.000    3.750    0.000    9.250 
#    0.000    1.250    0.000    0.000    0.000    0.000 
#    0.000    0.000    0.000    0.000    0.000    0.000 
#
# Total GULP energy -793808.386126 kJ/mol
# GULP energy per Si atom -12403.256033 kJ/mol
# Density = 1.901402 g / cm^3
# Si number density = 19.057393 Si / 1000 Ang^3
#
#
#
# Elastic Constant Matrix: (Units=GPa)
#
#
# Indices 1 2 3 4 5 6 
#
# 1 77.0328 40.8416 41.8256 0.0000 0.0000 0.0000
# 2 40.8416 93.0050 48.6485 0.0000 0.0000 0.0000
# 3 41.8256 48.6485 108.2754 0.0000 0.0000 0.0000
# 4 0.0000 0.0000 0.0000 18.7662 0.0000 0.0000
# 5 0.0000 0.0000 0.0000 0.0000 35.8460 0.0000
# 6 0.0000 0.0000 0.0000 0.0000 0.0000 24.7113
#
#
#
# Elastic Compliance Matrix: (Units=1/GPa)
#
#
# Indices 1 2 3 4 5 6 
#
# 1 0.018504 -0.005735 -0.004571 0.000000 0.000000 0.000000
# 2 -0.005735 0.015833 -0.004898 0.000000 0.000000 0.000000
# 3 -0.004571 -0.004898 0.013202 0.000000 0.000000 0.000000
# 4 0.000000 0.000000 0.000000 0.053287 0.000000 0.000000
# 5 0.000000 0.000000 0.000000 0.000000 0.027897 0.000000
# 6 0.000000 0.000000 0.000000 0.000000 0.000000 0.040467
#
#
# Mechanical properties :
#
#
# Convention : Reuss Voigt Hill
#
# Bulk Modulus (GPa) = 58.37597 60.10496 59.24046
# Shear Modulus (GPa) = 24.35350 25.66453 25.00901
#
# Velocity S-wave (km/s) = 3.57865 3.67372 3.62650
# Velocity P-wave (km/s) = 6.91186 7.04289 6.97769
#
# Compressibility (1/GPa) = 0.01713034
#
# Stress axis : x y z
#
# Youngs Moduli (GPa) = 54.04280 63.16086 75.74360
#
# Poissons Ratio (x) = 0.36220 0.34625
# Poissons Ratio (y) = 0.30991 0.37103
# Poissons Ratio (z) = 0.24705 0.30939
#
# Static dielectric constant tensor:
#      x y z
#    x 3.427740 0.000000 0.000000 
#    y 0.000000 3.349680 0.000000 
#    z 0.000000 0.000000 3.667910 
# 
# 
# High freq. dielectric constant tensor:
#      x y z
#    x 1.732880 0.000000 0.000000 
#    y 0.000000 1.740660 0.000000 
#    z 0.000000 0.000000 1.755040 
# 
# From -- ./inp_files/29576.got.cif
#   From: 2010.03.12/outbox.cif.g09.slc.cpg/sg59_15_cif.got.tgz:29576.got - 2010.04.16 16:29:54.
