data_PCOD8243456
_publ_section_title
;
Structure prediction by ZEFSAII (Michael W. Deem and Ramdas Pophale) SiO2 
 PCOD8243456
Probable space group: P M M N
;
_chemical_formula_sum "Si O2"
_cell_formula_units_Z 48
_cell_length_a 16.056882
_cell_length_b 8.893305
_cell_length_c 18.014038
_cell_angle_alpha 90.000000
_cell_angle_beta 90.000000
_cell_angle_gamma 90.000000
_cell_volume 2572.382090
_symmetry_space_group_name_H-M "P M M N"
_symmetry_group_IT_number 59
_space_group.IT_coordinate_system_code '2'
_symmetry_cell_setting 'orthorhombic'
loop_
_space_group_symop_operation_xyz
x,y,z
1/2-x,1/2-y,z
1/2+x,-y,-z
-x,1/2+y,-z
-x,-y,-z
1/2+x,1/2+y,-z
1/2-x,y,z
x,1/2-y,z
loop_
_atom_site_type_symbol
_atom_site_label
_atom_site_fract_x
_atom_site_fract_y
_atom_site_fract_z
Si Si1 0.083626 0.425103 0.789503
Si Si2 0.924600 0.423899 0.691920
Si Si3 0.081712 0.072073 0.464527
Si Si4 0.250000 0.071204 0.544681
Si Si5 0.750000 0.928909 0.288007
Si Si6 0.495328 0.074646 0.079296
Si Si7 0.657021 0.921394 0.821639
O O1 0.088365 0.250000 0.809189
O O2 0.169507 0.487474 0.756053
O O3 0.066008 0.511935 0.865772
O O4 0.014496 0.456946 0.727227
O O5 0.914236 0.250000 0.669967
O O6 0.912695 0.527155 0.620850
O O7 0.854689 0.470041 0.751336
O O8 0.074072 0.250000 0.472710
O O9 0.166035 0.012691 0.504359
O O10 0.000000 0.000000 0.500000
O O11 0.250000 0.250000 0.544272
O O12 0.250000 0.006539 0.628400
O O13 0.750000 0.750000 0.292356
O O14 0.509787 0.250000 0.069825
O O15 0.404817 0.034040 0.112184
O O16 0.500000 0.000000 0.000000
O O17 0.750000 0.942336 0.852612
O O18 0.640126 0.750000 0.795974
#
# Coordination Sequence:
#
# PCOD8243456 Si02
#       7
#     8   8   8   4   4   8   8
#     4   9  18  34  57  81 105 140 183 224 270 322
#     4  10  20  34  54  80 111 144 182 229 279 333
#     4  11  22  37  56  80 111 150 192 237 287 338
#     4   9  20  36  55  79 110 149 190 231 281 336
#     4   9  16  32  57  79 100 135 186 229 259 316
#     4  10  20  36  57  80 111 143 175 217 266 322
#     4   9  19  36  57  80 105 140 184 224 267 322
#
# _framework density 18.659749000000001
#
# number of rings (size 3 to 8) (size 9 to 14) (size 15 to 20)
#    0.000    2.333    0.000    2.500    1.167    4.333 
#    1.500    1.667    0.000    2.000    0.000    0.000 
#    0.000    0.000    0.000    0.000    0.000    0.000 
#
# Total GULP energy -595277.226065 kJ/mol
# GULP energy per Si atom -12401.608876 kJ/mol
# Density = 1.861728 g / cm^3
# Si number density = 18.659749 Si / 1000 Ang^3
#
#
#
# Elastic Constant Matrix: (Units=GPa)
#
#
# Indices 1 2 3 4 5 6 
#
# 1 144.5845 38.8672 78.8907 0.0000 0.0000 0.0000
# 2 38.8672 60.4032 52.5923 0.0000 0.0000 0.0000
# 3 78.8907 52.5923 159.6630 0.0000 0.0000 0.0000
# 4 0.0000 0.0000 0.0000 36.2251 0.0000 0.0000
# 5 0.0000 0.0000 0.0000 0.0000 19.3238 0.0000
# 6 0.0000 0.0000 0.0000 0.0000 0.0000 26.5474
#
#
#
# Elastic Compliance Matrix: (Units=1/GPa)
#
#
# Indices 1 2 3 4 5 6 
#
# 1 0.009828 -0.002939 -0.003888 0.000000 0.000000 0.000000
# 2 -0.002939 0.024092 -0.006484 0.000000 0.000000 0.000000
# 3 -0.003888 -0.006484 0.010320 0.000000 0.000000 0.000000
# 4 0.000000 0.000000 0.000000 0.027605 0.000000 0.000000
# 5 0.000000 0.000000 0.000000 0.000000 0.051750 0.000000
# 6 0.000000 0.000000 0.000000 0.000000 0.000000 0.037668
#
#
# Mechanical properties :
#
#
# Convention : Reuss Voigt Hill
#
# Bulk Modulus (GPa) = 56.75765 78.37234 67.56500
# Shear Modulus (GPa) = 25.80567 29.37264 27.58916
#
# Velocity S-wave (km/s) = 3.72285 3.97182 3.84935
# Velocity P-wave (km/s) = 6.99733 7.94517 7.48627
#
# Compressibility (1/GPa) = 0.01761877
#
# Stress axis : x y z
#
# Youngs Moduli (GPa) = 101.75256 41.50839 96.89921
#
# Poissons Ratio (x) = 0.12197 0.37675
# Poissons Ratio (y) = 0.29900 0.62826
# Poissons Ratio (z) = 0.39562 0.26913
#
# Static dielectric constant tensor:
#      x y z
#    x 3.622130 0.000000 0.000000 
#    y 0.000000 3.291700 0.000000 
#    z 0.000000 0.000000 3.463690 
# 
# 
# High freq. dielectric constant tensor:
#      x y z
#    x 1.731030 0.000000 0.000000 
#    y 0.000000 1.712370 0.000000 
#    z 0.000000 0.000000 1.725760 
# 
# From -- ./inp_files/27424.got.cif
#   From: 2010.03.12/outbox.cif.g09.slc.cpg/sg59_14_cif.got.tgz:27424.got - 2010.04.16 16:29:54.
