data_PCOD8243168
_publ_section_title
;
Structure prediction by ZEFSAII (Michael W. Deem and Ramdas Pophale) SiO2 
 PCOD8243168
Probable space group: P M M N
;
_chemical_formula_sum "Si O2"
_cell_formula_units_Z 48
_cell_length_a 9.129716
_cell_length_b 7.631428
_cell_length_c 34.808600
_cell_angle_alpha 90.000000
_cell_angle_beta 90.000000
_cell_angle_gamma 90.000000
_cell_volume 2425.211593
_symmetry_space_group_name_H-M "P M M N"
_symmetry_group_IT_number 59
_space_group.IT_coordinate_system_code '2'
_symmetry_cell_setting 'orthorhombic'
loop_
_space_group_symop_operation_xyz
x,y,z
1/2-x,1/2-y,z
1/2+x,-y,-z
-x,1/2+y,-z
-x,-y,-z
1/2+x,1/2+y,-z
1/2-x,y,z
x,1/2-y,z
loop_
_atom_site_type_symbol
_atom_site_label
_atom_site_fract_x
_atom_site_fract_y
_atom_site_fract_z
Si Si1 0.085559 0.958053 0.111169
Si Si2 0.421916 0.450588 0.812255
Si Si3 0.923405 0.250000 0.244551
Si Si4 0.076543 0.750000 0.670093
Si Si5 0.078045 0.048454 0.613110
Si Si6 0.913313 0.544158 0.038160
Si Si7 0.587720 0.455144 0.537914
O O1 0.250000 0.034758 0.111117
O O2 0.089278 0.750000 0.108571
O O3 0.004414 0.017109 0.149835
O O4 0.998972 0.036993 0.074625
O O5 0.250000 0.470312 0.820324
O O6 0.462329 0.250000 0.801734
O O7 0.474733 0.574268 0.777443
O O8 0.750000 0.250000 0.247730
O O9 0.993339 0.250000 0.287224
O O10 0.250000 0.750000 0.673171
O O11 0.025193 0.573725 0.648219
O O12 0.250000 0.028742 0.605395
O O13 0.037064 0.250000 0.622808
O O14 0.997999 0.975080 0.575164
O O15 0.750000 0.462326 0.036019
O O16 0.901482 0.750000 0.043489
O O17 0.000000 0.500000 0.000000
O O18 0.500000 0.500000 0.500000
O O19 0.750000 0.540601 0.536103
O O20 0.602115 0.250000 0.541798
#
# Coordination Sequence:
#
# PCOD8243168 Si02
#       7
#     8   8   4   4   8   8   8
#     4   9  17  31  52  74  98 133 173 212 259 313
#     4   9  17  31  52  76 103 135 171 214 265 318
#     4   9  18  32  51  81 111 133 171 223 269 319
#     4   9  18  32  53  79 107 139 175 219 269 321
#     4   9  18  33  52  75 105 140 179 221 265 317
#     4  10  20  34  52  75 104 137 176 218 260 313
#     4  10  21  35  52  76 106 139 177 223 271 319
#
# _framework density 19.792086000000001
#
# number of rings (size 3 to 8) (size 9 to 14) (size 15 to 20)
#    0.000    2.667    0.000    1.500    1.167    4.667 
#    1.500    3.750    0.000    2.000    0.000    4.667 
#    0.000    0.000    0.000    0.000    0.000    0.000 
#
# Total GULP energy -595100.711368 kJ/mol
# GULP energy per Si atom -12397.931487 kJ/mol
# Density = 1.974704 g / cm^3
# Si number density = 19.792086 Si / 1000 Ang^3
#
#
#
# Elastic Constant Matrix: (Units=GPa)
#
#
# Indices 1 2 3 4 5 6 
#
# 1 107.6836 28.7006 74.9771 0.0000 0.0000 0.0000
# 2 28.7006 73.8247 62.2570 0.0000 0.0000 0.0000
# 3 74.9771 62.2570 212.8852 0.0000 0.0000 0.0000
# 4 0.0000 0.0000 0.0000 32.0051 0.0000 0.0000
# 5 0.0000 0.0000 0.0000 0.0000 25.9037 0.0000
# 6 0.0000 0.0000 0.0000 0.0000 0.0000 12.7361
#
#
#
# Elastic Compliance Matrix: (Units=1/GPa)
#
#
# Indices 1 2 3 4 5 6 
#
# 1 0.012430 -0.001514 -0.003935 0.000000 0.000000 0.000000
# 2 -0.001514 0.018164 -0.004779 0.000000 0.000000 0.000000
# 3 -0.003935 -0.004779 0.007481 0.000000 0.000000 0.000000
# 4 0.000000 0.000000 0.000000 0.031245 0.000000 0.000000
# 5 0.000000 0.000000 0.000000 0.000000 0.038605 0.000000
# 6 0.000000 0.000000 0.000000 0.000000 0.000000 0.078517
#
#
# Mechanical properties :
#
#
# Convention : Reuss Voigt Hill
#
# Bulk Modulus (GPa) = 56.75574 80.69589 68.72582
# Shear Modulus (GPa) = 23.49956 29.35956 26.42956
#
# Velocity S-wave (km/s) = 3.44949 3.85567 3.65822
# Velocity P-wave (km/s) = 6.67859 7.78986 7.25553
#
# Compressibility (1/GPa) = 0.01761936
#
# Stress axis : x y z
#
# Youngs Moduli (GPa) = 80.45202 55.05348 133.67573
#
# Poissons Ratio (x) = 0.08334 0.52601
# Poissons Ratio (y) = 0.12179 0.63881
# Poissons Ratio (z) = 0.31658 0.26309
#
# Static dielectric constant tensor:
#      x y z
#    x 3.864260 0.000000 0.000000 
#    y 0.000000 3.796110 0.000000 
#    z 0.000000 0.000000 3.709550 
# 
# 
# High freq. dielectric constant tensor:
#      x y z
#    x 1.756170 0.000000 0.000000 
#    y 0.000000 1.763410 0.000000 
#    z 0.000000 0.000000 1.772110 
# 
# From -- ./inp_files/33070.got.cif
#   From: 2010.03.12/outbox.cif.g09.slc.cpg/sg59_17_cif.got.tgz:33070.got - 2010.04.16 16:29:54.
