data_PCOD8243512
_publ_section_title
;
Structure prediction by ZEFSAII (Michael W. Deem and Ramdas Pophale) SiO2 
 PCOD8243512
Probable space group: P M M N
;
_chemical_formula_sum "Si O2"
_cell_formula_units_Z 64
_cell_length_a 8.763577
_cell_length_b 14.454282
_cell_length_c 25.080630
_cell_angle_alpha 90.000000
_cell_angle_beta 90.000000
_cell_angle_gamma 90.000000
_cell_volume 3176.993832
_symmetry_space_group_name_H-M "P M M N"
_symmetry_group_IT_number 59
_space_group.IT_coordinate_system_code '2'
_symmetry_cell_setting 'orthorhombic'
loop_
_space_group_symop_operation_xyz
x,y,z
1/2-x,1/2-y,z
1/2+x,-y,-z
-x,1/2+y,-z
-x,-y,-z
1/2+x,1/2+y,-z
1/2-x,y,z
x,1/2-y,z
loop_
_atom_site_type_symbol
_atom_site_label
_atom_site_fract_x
_atom_site_fract_y
_atom_site_fract_z
Si Si1 0.578469 0.650373 0.917902
Si Si2 0.926345 0.645152 0.129709
Si Si3 0.426772 0.855984 0.530077
Si Si4 0.572105 0.854408 0.416103
Si Si5 0.928605 0.404304 0.982021
Si Si6 0.431515 0.355025 0.276034
Si Si7 0.569071 0.976013 0.822529
Si Si8 0.070273 0.029904 0.377667
O O1 0.750000 0.623547 0.936185
O O2 0.579928 0.750000 0.888360
O O3 0.516635 0.574015 0.877035
O O4 0.471127 0.663052 0.969385
O O5 0.750000 0.621174 0.122606
O O6 0.951396 0.750000 0.149646
O O7 0.005702 0.632930 0.072943
O O8 0.997020 0.578322 0.175176
O O9 0.250000 0.883646 0.535089
O O10 0.454466 0.750000 0.547089
O O11 0.479436 0.872317 0.469994
O O12 0.527295 0.921093 0.567268
O O13 0.750000 0.869758 0.427430
O O14 0.541784 0.750000 0.394727
O O15 0.511118 0.929363 0.373380
O O16 0.750000 0.413017 0.974282
O O17 0.000000 0.500000 0.000000
O O18 0.250000 0.350696 0.274172
O O19 0.497286 0.250000 0.273808
O O20 0.494693 0.416241 0.226875
O O21 0.488626 0.405261 0.329676
O O22 0.750000 0.984190 0.818515
O O23 0.250000 0.014433 0.374272
#
# Coordination Sequence:
#
# PCOD8243512 Si02
#       8
#     8   8   8   8   8   8   8   8
#     4  10  20  34  55  84 115 146 180 222 277 335
#     4  11  24  41  60  83 115 153 190 232 283 337
#     4  10  20  34  54  82 117 154 193 237 285 342
#     4  10  21  37  56  79 111 152 196 240 287 340
#     4  12  23  36  56  83 116 152 188 229 277 332
#     4   9  19  37  61  89 117 146 184 230 282 339
#     4  10  20  37  62  86 110 145 188 234 279 329
#     4  11  21  34  56  84 116 153 192 237 287 341
#
# _framework density 20.144828
#
# number of rings (size 3 to 8) (size 9 to 14) (size 15 to 20)
#    0.000    1.625    1.250    4.125    0.000    6.250 
#    0.000    1.875    0.000    6.375    0.000    0.000 
#    0.000    0.000    0.000    0.000    0.000    0.000 
#
# Total GULP energy -793577.761621 kJ/mol
# GULP energy per Si atom -12399.652525 kJ/mol
# Density = 2.009898 g / cm^3
# Si number density = 20.144828 Si / 1000 Ang^3
#
#
#
# Elastic Constant Matrix: (Units=GPa)
#
#
# Indices 1 2 3 4 5 6 
#
# 1 67.5555 43.2631 25.9529 0.0000 0.0000 0.0000
# 2 43.2631 154.9959 60.0481 0.0000 0.0000 0.0000
# 3 25.9529 60.0481 79.4290 0.0000 0.0000 0.0000
# 4 0.0000 0.0000 0.0000 35.2968 0.0000 0.0000
# 5 0.0000 0.0000 0.0000 0.0000 21.0707 0.0000
# 6 0.0000 0.0000 0.0000 0.0000 0.0000 32.3732
#
#
#
# Elastic Compliance Matrix: (Units=1/GPa)
#
#
# Indices 1 2 3 4 5 6 
#
# 1 0.018527 -0.003997 -0.003032 0.000000 0.000000 0.000000
# 2 -0.003997 0.009986 -0.006244 0.000000 0.000000 0.000000
# 3 -0.003032 -0.006244 0.018301 0.000000 0.000000 0.000000
# 4 0.000000 0.000000 0.000000 0.028331 0.000000 0.000000
# 5 0.000000 0.000000 0.000000 0.000000 0.047459 0.000000
# 6 0.000000 0.000000 0.000000 0.000000 0.000000 0.030890
#
#
# Mechanical properties :
#
#
# Convention : Reuss Voigt Hill
#
# Bulk Modulus (GPa) = 49.33612 62.27873 55.80743
# Shear Modulus (GPa) = 26.76722 29.26255 28.01489
#
# Velocity S-wave (km/s) = 3.64914 3.81545 3.73322
# Velocity P-wave (km/s) = 6.50376 7.09879 6.80778
#
# Compressibility (1/GPa) = 0.02026912
#
# Stress axis : x y z
#
# Youngs Moduli (GPa) = 53.97533 100.13749 54.64237
#
# Poissons Ratio (x) = 0.40021 0.16568
# Poissons Ratio (y) = 0.21572 0.34117
# Poissons Ratio (z) = 0.16366 0.62523
#
# Static dielectric constant tensor:
#      x y z
#    x 3.647850 0.000000 0.000000 
#    y 0.000000 4.349240 0.000000 
#    z 0.000000 0.000000 3.563980 
# 
# 
# High freq. dielectric constant tensor:
#      x y z
#    x 1.774490 0.000000 0.000000 
#    y 0.000000 1.809400 0.000000 
#    z 0.000000 0.000000 1.761840 
# 
# From -- ./inp_files/31396.got.cif
#   From: 2010.03.12/outbox.cif.g09.slc.cpg/sg59_16_cif.got.tgz:31396.got - 2010.04.16 16:29:54.
