data_PCOD8243897
_publ_section_title
;
Structure prediction by ZEFSAII (Michael W. Deem and Ramdas Pophale) SiO2 
 PCOD8243897
Probable space group: P M M N
;
_chemical_formula_sum "Si O2"
_cell_formula_units_Z 64
_cell_length_a 13.267210
_cell_length_b 10.538547
_cell_length_c 23.670012
_cell_angle_alpha 90.000000
_cell_angle_beta 90.000000
_cell_angle_gamma 90.000000
_cell_volume 3309.472817
_symmetry_space_group_name_H-M "P M M N"
_symmetry_group_IT_number 59
_space_group.IT_coordinate_system_code '2'
_symmetry_cell_setting 'orthorhombic'
loop_
_space_group_symop_operation_xyz
x,y,z
1/2-x,1/2-y,z
1/2+x,-y,-z
-x,1/2+y,-z
-x,-y,-z
1/2+x,1/2+y,-z
1/2-x,y,z
x,1/2-y,z
loop_
_atom_site_type_symbol
_atom_site_label
_atom_site_fract_x
_atom_site_fract_y
_atom_site_fract_z
Si Si1 0.018586 0.970469 0.588458
Si Si2 0.938395 0.391882 0.070619
Si Si3 0.633538 0.104432 0.779456
Si Si4 0.361159 0.604389 0.698021
Si Si5 0.013894 0.896273 0.804965
Si Si6 0.857751 0.103959 0.653631
Si Si7 0.137926 0.392476 0.006761
Si Si8 0.862431 0.888897 0.504110
O O1 0.938224 0.879351 0.557441
O O2 0.074902 0.906368 0.640525
O O3 0.949319 0.085053 0.610630
O O4 0.100984 0.013924 0.543396
O O5 0.905721 0.250000 0.049764
O O6 0.872756 0.501475 0.041855
O O7 0.921084 0.399511 0.137767
O O8 0.056570 0.414765 0.056116
O O9 0.750000 0.101190 0.797029
O O10 0.592783 0.250000 0.787819
O O11 0.617333 0.051578 0.715720
O O12 0.575100 0.998458 0.815782
O O13 0.250000 0.538970 0.691569
O O14 0.343527 0.750000 0.710502
O O15 0.419279 0.550103 0.752653
O O16 0.975750 0.750000 0.794095
O O17 0.750000 0.045464 0.632065
O O18 0.840266 0.250000 0.662215
O O19 0.250000 0.406644 0.032913
O O20 0.124501 0.250000 0.980916
O O21 0.750000 0.930654 0.523310
O O22 0.858975 0.750000 0.476350
#
# Coordination Sequence:
#
# PCOD8243897 Si02
#       8
#     8   8   8   8   8   8   8   8
#     4  11  19  34  57  72  95 136 172 208 260 322
#     4   9  19  34  54  81 111 145 184 226 274 329
#     4   9  18  33  52  76 109 145 177 214 262 313
#     4  10  21  36  53  75 103 135 174 218 263 316
#     4  10  20  35  55  81 113 145 179 223 272 320
#     4   9  17  30  50  75 100 129 169 211 250 303
#     4   9  18  34  55  78 108 146 186 231 276 315
#     4  10  22  36  50  74 103 127 161 215 271 318
#
# _framework density 19.338429000000001
#
# number of rings (size 3 to 8) (size 9 to 14) (size 15 to 20)
#    0.000    2.375    1.250    2.250    0.000    2.000 
#    0.000    2.500    0.000    7.125    0.000    0.000 
#    0.000    0.000    0.000    0.000    0.000    0.000 
#
# Total GULP energy -792863.929786 kJ/mol
# GULP energy per Si atom -12388.498903 kJ/mol
# Density = 1.929441 g / cm^3
# Si number density = 19.338429 Si / 1000 Ang^3
#
#
#
# Elastic Constant Matrix: (Units=GPa)
#
#
# Indices 1 2 3 4 5 6 
#
# 1 101.6453 33.4097 25.5977 0.0000 0.0000 0.0000
# 2 33.4097 73.4094 20.6482 0.0000 0.0000 0.0000
# 3 25.5977 20.6482 78.9647 0.0000 0.0000 0.0000
# 4 0.0000 0.0000 0.0000 25.0314 0.0000 0.0000
# 5 0.0000 0.0000 0.0000 0.0000 12.5680 0.0000
# 6 0.0000 0.0000 0.0000 0.0000 0.0000 23.1688
#
#
#
# Elastic Compliance Matrix: (Units=1/GPa)
#
#
# Indices 1 2 3 4 5 6 
#
# 1 0.012070 -0.004741 -0.002673 0.000000 0.000000 0.000000
# 2 -0.004741 0.016566 -0.002795 0.000000 0.000000 0.000000
# 3 -0.002673 -0.002795 0.014261 0.000000 0.000000 0.000000
# 4 0.000000 0.000000 0.000000 0.039950 0.000000 0.000000
# 5 0.000000 0.000000 0.000000 0.000000 0.079567 0.000000
# 6 0.000000 0.000000 0.000000 0.000000 0.000000 0.043162
#
#
# Mechanical properties :
#
#
# Convention : Reuss Voigt Hill
#
# Bulk Modulus (GPa) = 44.48581 45.92562 45.20572
# Shear Modulus (GPa) = 21.41456 23.77791 22.59623
#
# Velocity S-wave (km/s) = 3.33131 3.51032 3.42199
# Velocity P-wave (km/s) = 6.15228 6.34269 6.24821
#
# Compressibility (1/GPa) = 0.02247908
#
# Stress axis : x y z
#
# Youngs Moduli (GPa) = 82.85256 60.36393 70.12061
#
# Poissons Ratio (x) = 0.28620 0.18742
# Poissons Ratio (y) = 0.39283 0.19598
# Poissons Ratio (z) = 0.22145 0.16871
#
# Static dielectric constant tensor:
#      x y z
#    x 3.656870 0.000000 0.000000 
#    y 0.000000 3.408500 0.000000 
#    z 0.000000 0.000000 3.376000 
# 
# 
# High freq. dielectric constant tensor:
#      x y z
#    x 1.754020 0.000000 0.000000 
#    y 0.000000 1.740930 0.000000 
#    z 0.000000 0.000000 1.738580 
# 
# From -- ./inp_files/31965.got.cif
#   From: 2010.03.12/outbox.cif.g09.slc.cpg/sg59_16_cif.got.tgz:31965.got - 2010.04.16 16:29:54.
