data_PCOD8243304
_publ_section_title
;
Structure prediction by ZEFSAII (Michael W. Deem and Ramdas Pophale) SiO2 
 PCOD8243304
Probable space group: P M M N
;
_chemical_formula_sum "Si O2"
_cell_formula_units_Z 64
_cell_length_a 9.113952
_cell_length_b 15.196284
_cell_length_c 23.270169
_cell_angle_alpha 90.000000
_cell_angle_beta 90.000000
_cell_angle_gamma 90.000000
_cell_volume 3222.876589
_symmetry_space_group_name_H-M "P M M N"
_symmetry_group_IT_number 59
_space_group.IT_coordinate_system_code '2'
_symmetry_cell_setting 'orthorhombic'
loop_
_space_group_symop_operation_xyz
x,y,z
1/2-x,1/2-y,z
1/2+x,-y,-z
-x,1/2+y,-z
-x,-y,-z
1/2+x,1/2+y,-z
1/2-x,y,z
x,1/2-y,z
loop_
_atom_site_type_symbol
_atom_site_label
_atom_site_fract_x
_atom_site_fract_y
_atom_site_fract_z
Si Si1 0.418176 0.345698 0.077824
Si Si2 0.081255 0.980913 0.139727
Si Si3 0.590370 0.652253 0.575841
Si Si4 0.074454 0.912084 0.475496
Si Si5 0.420263 0.474843 0.745942
Si Si6 0.078510 0.146765 0.639708
Si Si7 0.579492 0.149241 0.315200
Si Si8 0.919846 0.086500 0.979614
O O1 0.250000 0.368536 0.063119
O O2 0.432883 0.250000 0.108390
O O3 0.480232 0.423200 0.118827
O O4 0.504779 0.336856 0.016947
O O5 0.250000 0.991224 0.156703
O O6 0.059574 0.907453 0.089531
O O7 0.998095 0.946509 0.195521
O O8 0.750000 0.604366 0.565619
O O9 0.624206 0.750000 0.595622
O O10 0.489083 0.659693 0.519400
O O11 0.503902 0.609701 0.629101
O O12 0.250000 0.915491 0.477081
O O13 0.020443 0.889352 0.412020
O O14 0.000000 0.000000 0.500000
O O15 0.250000 0.462030 0.756248
O O16 0.470818 0.408969 0.695369
O O17 0.457911 0.578091 0.734007
O O18 0.250000 0.131269 0.625187
O O19 0.046693 0.250000 0.650408
O O20 0.750000 0.146250 0.331050
O O21 0.535028 0.250000 0.297466
O O22 0.750000 0.082714 0.995703
O O23 0.000000 0.000000 0.000000
#
# Coordination Sequence:
#
# PCOD8243304 Si02
#       8
#     8   8   8   8   8   8   8   8
#     4   9  18  33  53  80 113 144 175 217 272 331
#     4   9  19  34  52  75 105 141 179 222 272 326
#     4  10  20  34  53  78 107 138 173 214 264 325
#     4  12  24  37  57  84 111 139 175 221 278 342
#     4  10  21  36  55  78 105 143 190 236 281 329
#     4  10  22  41  61  81 110 148 191 240 288 332
#     4   9  18  33  52  76 109 146 184 230 282 335
#     4   9  17  31  51  75 104 139 178 218 265 320
#
# _framework density 19.858036999999999
#
# number of rings (size 3 to 8) (size 9 to 14) (size 15 to 20)
#    0.000    2.250    0.000    3.750    0.000    7.750 
#    0.000    0.625    0.000    2.250    0.000    0.000 
#    0.000    0.000    0.000    0.000    0.000    0.000 
#
# Total GULP energy -792939.582722 kJ/mol
# GULP energy per Si atom -12389.680980 kJ/mol
# Density = 1.981284 g / cm^3
# Si number density = 19.858037 Si / 1000 Ang^3
#
#
#
# Elastic Constant Matrix: (Units=GPa)
#
#
# Indices 1 2 3 4 5 6 
#
# 1 92.2678 19.8037 52.9521 0.0000 0.0000 0.0000
# 2 19.8037 70.6474 21.2168 0.0000 0.0000 0.0000
# 3 52.9521 21.2168 116.8205 0.0000 0.0000 0.0000
# 4 0.0000 0.0000 0.0000 22.0457 0.0000 0.0000
# 5 0.0000 0.0000 0.0000 0.0000 38.8553 0.0000
# 6 0.0000 0.0000 0.0000 0.0000 0.0000 18.7516
#
#
#
# Elastic Compliance Matrix: (Units=1/GPa)
#
#
# Indices 1 2 3 4 5 6 
#
# 1 0.014990 -0.002286 -0.006379 0.000000 0.000000 0.000000
# 2 -0.002286 0.015320 -0.001746 0.000000 0.000000 0.000000
# 3 -0.006379 -0.001746 0.011769 0.000000 0.000000 0.000000
# 4 0.000000 0.000000 0.000000 0.045360 0.000000 0.000000
# 5 0.000000 0.000000 0.000000 0.000000 0.025737 0.000000
# 6 0.000000 0.000000 0.000000 0.000000 0.000000 0.053329
#
#
# Mechanical properties :
#
#
# Convention : Reuss Voigt Hill
#
# Bulk Modulus (GPa) = 47.04655 51.96454 49.50555
# Shear Modulus (GPa) = 25.71847 28.31471 27.01659
#
# Velocity S-wave (km/s) = 3.60268 3.78015 3.69248
# Velocity P-wave (km/s) = 6.40692 6.72886 6.56986
#
# Compressibility (1/GPa) = 0.02125554
#
# Stress axis : x y z
#
# Youngs Moduli (GPa) = 66.71222 65.27397 84.96972
#
# Poissons Ratio (x) = 0.14922 0.54205
# Poissons Ratio (y) = 0.15251 0.14837
# Poissons Ratio (z) = 0.42558 0.11398
#
# Static dielectric constant tensor:
#      x y z
#    x 4.108100 0.000000 0.000000 
#    y 0.000000 3.684430 0.000000 
#    z 0.000000 0.000000 3.787610 
# 
# 
# High freq. dielectric constant tensor:
#      x y z
#    x 1.774550 0.000000 0.000000 
#    y 0.000000 1.767110 0.000000 
#    z 0.000000 0.000000 1.763620 
# 
# From -- ./inp_files/29517.got.cif
#   From: 2010.03.12/outbox.cif.g09.slc.cpg/sg59_15_cif.got.tgz:29517.got - 2010.04.16 16:29:54.
