data_PCOD8243071
_publ_section_title
;
Structure prediction by ZEFSAII (Michael W. Deem and Ramdas Pophale) SiO2 
 PCOD8243071
Probable space group: P M M N
;
_chemical_formula_sum "Si O2"
_cell_formula_units_Z 56
_cell_length_a 8.882188
_cell_length_b 15.293517
_cell_length_c 21.462122
_cell_angle_alpha 90.000000
_cell_angle_beta 90.000000
_cell_angle_gamma 90.000000
_cell_volume 2915.412360
_symmetry_space_group_name_H-M "P M M N"
_symmetry_group_IT_number 59
_space_group.IT_coordinate_system_code '2'
_symmetry_cell_setting 'orthorhombic'
loop_
_space_group_symop_operation_xyz
x,y,z
1/2-x,1/2-y,z
1/2+x,-y,-z
-x,1/2+y,-z
-x,-y,-z
1/2+x,1/2+y,-z
1/2-x,y,z
x,1/2-y,z
loop_
_atom_site_type_symbol
_atom_site_label
_atom_site_fract_x
_atom_site_fract_y
_atom_site_fract_z
Si Si1 0.572284 0.594595 0.499373
Si Si2 0.923606 0.850970 0.926297
Si Si3 0.070774 0.346686 0.933493
Si Si4 0.572507 0.992578 0.292595
Si Si5 0.077775 0.652415 0.621660
Si Si6 0.428315 0.502312 0.848521
Si Si7 0.077746 0.848577 0.376030
O O1 0.500000 0.500000 0.500000
O O2 0.750000 0.585812 0.494795
O O3 0.527797 0.645620 0.561623
O O4 0.513473 0.647309 0.440134
O O5 0.750000 0.877934 0.920522
O O6 0.947120 0.750000 0.908592
O O7 0.982993 0.868814 0.996416
O O8 0.019047 0.907509 0.878418
O O9 0.250000 0.345936 0.932495
O O10 0.011707 0.250000 0.913855
O O11 0.004982 0.419213 0.886424
O O12 0.750000 0.976050 0.295708
O O13 0.512923 0.997682 0.222088
O O14 0.491027 0.911810 0.324628
O O15 0.527327 0.083034 0.326256
O O16 0.250000 0.634570 0.601165
O O17 0.060065 0.750000 0.649778
O O18 0.250000 0.500369 0.850190
O O19 0.250000 0.875663 0.388915
O O20 0.066369 0.750000 0.350128
#
# Coordination Sequence:
#
# PCOD8243071 Si02
#       7
#     8   8   8   8   8   8   8
#     4  12  23  37  61  89 115 143 181 231 284 334
#     4   9  18  33  53  77 107 146 186 224 275 334
#     4   8  15  30  52  78 109 143 181 228 279 330
#     4  10  22  38  56  81 113 151 189 228 275 330
#     4  10  21  38  58  80 110 148 187 229 280 334
#     4  10  20  33  54  83 110 141 185 231 278 325
#     4  11  24  41  61  85 114 149 186 228 280 331
#
# _framework density 19.208261
#
# number of rings (size 3 to 8) (size 9 to 14) (size 15 to 20)
#    0.000    2.000    1.429    3.429    0.000    5.143 
#    0.000    2.857    0.000    1.286    0.000    0.000 
#    0.000    0.000    0.000    0.000    0.000    0.000 
#
# Total GULP energy -694486.251414 kJ/mol
# GULP energy per Si atom -12401.540204 kJ/mol
# Density = 1.916454 g / cm^3
# Si number density = 19.208261 Si / 1000 Ang^3
#
#
#
# Elastic Constant Matrix: (Units=GPa)
#
#
# Indices 1 2 3 4 5 6 
#
# 1 57.8037 35.3294 43.0274 0.0000 0.0000 0.0000
# 2 35.3294 133.3843 78.2815 0.0000 0.0000 0.0000
# 3 43.0274 78.2815 154.1794 0.0000 0.0000 0.0000
# 4 0.0000 0.0000 0.0000 11.3598 0.0000 0.0000
# 5 0.0000 0.0000 0.0000 0.0000 15.3185 0.0000
# 6 0.0000 0.0000 0.0000 0.0000 0.0000 29.3045
#
#
#
# Elastic Compliance Matrix: (Units=1/GPa)
#
#
# Indices 1 2 3 4 5 6 
#
# 1 0.022803 -0.003283 -0.004697 0.000000 0.000000 0.000000
# 2 -0.003283 0.011152 -0.004746 0.000000 0.000000 0.000000
# 3 -0.004697 -0.004746 0.010206 0.000000 0.000000 0.000000
# 4 0.000000 0.000000 0.000000 0.088030 0.000000 0.000000
# 5 0.000000 0.000000 0.000000 0.000000 0.065280 0.000000
# 6 0.000000 0.000000 0.000000 0.000000 0.000000 0.034124
#
#
# Mechanical properties :
#
#
# Convention : Reuss Voigt Hill
#
# Bulk Modulus (GPa) = 53.44929 73.18266 63.31598
# Shear Modulus (GPa) = 18.99091 23.77851 21.38471
#
# Velocity S-wave (km/s) = 3.14775 3.52224 3.34025
# Velocity P-wave (km/s) = 6.41075 7.39756 6.92176
#
# Compressibility (1/GPa) = 0.01870932
#
# Stress axis : x y z
#
# Youngs Moduli (GPa) = 43.85445 89.66872 97.97863
#
# Poissons Ratio (x) = 0.29442 0.46016
# Poissons Ratio (y) = 0.14399 0.46500
# Poissons Ratio (z) = 0.20596 0.42557
#
# Static dielectric constant tensor:
#      x y z
#    x 3.333000 0.000000 0.000000 
#    y 0.000000 3.703280 0.000000 
#    z 0.000000 0.000000 3.610680 
# 
# 
# High freq. dielectric constant tensor:
#      x y z
#    x 1.727430 0.000000 0.000000 
#    y 0.000000 1.762490 0.000000 
#    z 0.000000 0.000000 1.742360 
# 
# From -- ./inp_files/28990.got.cif
#   From: 2010.03.12/outbox.cif.g09.slc.cpg/sg59_15_cif.got.tgz:28990.got - 2010.04.16 16:29:54.
