data_PCOD8243307
_publ_section_title
;
Structure prediction by ZEFSAII (Michael W. Deem and Ramdas Pophale) SiO2 
 PCOD8243307
Probable space group: P M M N
;
_chemical_formula_sum "Si O2"
_cell_formula_units_Z 56
_cell_length_a 21.385213
_cell_length_b 8.875004
_cell_length_c 16.644382
_cell_angle_alpha 90.000000
_cell_angle_beta 90.000000
_cell_angle_gamma 90.000000
_cell_volume 3159.001356
_symmetry_space_group_name_H-M "P M M N"
_symmetry_group_IT_number 59
_space_group.IT_coordinate_system_code '2'
_symmetry_cell_setting 'orthorhombic'
loop_
_space_group_symop_operation_xyz
x,y,z
1/2-x,1/2-y,z
1/2+x,-y,-z
-x,1/2+y,-z
-x,-y,-z
1/2+x,1/2+y,-z
1/2-x,y,z
x,1/2-y,z
loop_
_atom_site_type_symbol
_atom_site_label
_atom_site_fract_x
_atom_site_fract_y
_atom_site_fract_z
Si Si1 0.405465 0.576851 0.474483
Si Si2 0.010249 0.924436 0.782963
Si Si3 0.967299 0.576389 0.381524
Si Si4 0.323412 0.419170 0.355766
Si Si5 0.557940 0.074674 0.045055
Si Si6 0.620297 0.424977 0.794714
Si Si7 0.681111 0.426485 0.960801
O O1 0.385767 0.750000 0.480557
O O2 0.420607 0.518975 0.563423
O O3 0.462557 0.552761 0.412931
O O4 0.348591 0.478834 0.440792
O O5 0.007439 0.750000 0.758361
O O6 0.054826 0.951576 0.859491
O O7 0.941673 0.978500 0.807564
O O8 0.038089 0.018348 0.709170
O O9 0.947403 0.750000 0.385149
O O10 0.250000 0.420525 0.361569
O O11 0.348499 0.250000 0.339448
O O12 0.345232 0.531168 0.286553
O O13 0.554549 0.250000 0.022433
O O14 0.624625 0.005815 0.015072
O O15 0.500000 0.000000 0.000000
O O16 0.601359 0.250000 0.790353
O O17 0.666937 0.460010 0.867647
O O18 0.750000 0.497091 0.981165
O O19 0.684669 0.250000 0.976896
#
# Coordination Sequence:
#
# PCOD8243307 Si02
#       7
#     8   8   8   8   8   8   8
#     4  10  20  34  54  78 104 136 176 217 258 311
#     4  11  21  32  51  78 110 142 175 222 273 324
#     4  10  20  34  54  78 104 136 171 215 268 318
#     4  11  23  36  51  75 111 149 179 213 261 317
#     4  10  20  34  53  78 107 140 180 225 274 323
#     4  11  20  32  52  77 106 142 181 220 265 321
#     4   9  18  33  53  76 104 140 182 225 267 318
#
# _framework density 17.727122000000001
#
# number of rings (size 3 to 8) (size 9 to 14) (size 15 to 20)
#    0.000    1.714    2.857    2.571    0.000    3.429 
#    0.000    0.000    0.000    2.143    0.000    2.000 
#    0.000    0.000    0.000    0.000    0.000    0.000 
#
# Total GULP energy -694467.597923 kJ/mol
# GULP energy per Si atom -12401.207106 kJ/mol
# Density = 1.768677 g / cm^3
# Si number density = 17.727122 Si / 1000 Ang^3
#
#
#
# Elastic Constant Matrix: (Units=GPa)
#
#
# Indices 1 2 3 4 5 6 
#
# 1 98.1015 21.1000 48.8625 0.0000 0.0000 0.0000
# 2 21.1000 57.5497 31.9245 0.0000 0.0000 0.0000
# 3 48.8625 31.9245 95.0324 0.0000 0.0000 0.0000
# 4 0.0000 0.0000 0.0000 24.3787 0.0000 0.0000
# 5 0.0000 0.0000 0.0000 0.0000 21.8150 0.0000
# 6 0.0000 0.0000 0.0000 0.0000 0.0000 20.7142
#
#
#
# Elastic Compliance Matrix: (Units=1/GPa)
#
#
# Indices 1 2 3 4 5 6 
#
# 1 0.013791 -0.001380 -0.006627 0.000000 0.000000 0.000000
# 2 -0.001380 0.021494 -0.006511 0.000000 0.000000 0.000000
# 3 -0.006627 -0.006511 0.016118 0.000000 0.000000 0.000000
# 4 0.000000 0.000000 0.000000 0.041019 0.000000 0.000000
# 5 0.000000 0.000000 0.000000 0.000000 0.045840 0.000000
# 6 0.000000 0.000000 0.000000 0.000000 0.000000 0.048276
#
#
# Mechanical properties :
#
#
# Convention : Reuss Voigt Hill
#
# Bulk Modulus (GPa) = 44.71055 50.49530 47.60293
# Shear Modulus (GPa) = 22.41841 23.30135 22.85988
#
# Velocity S-wave (km/s) = 3.56003 3.62946 3.59492
# Velocity P-wave (km/s) = 6.49421 6.79048 6.64400
#
# Compressibility (1/GPa) = 0.02236608
#
# Stress axis : x y z
#
# Youngs Moduli (GPa) = 72.50921 46.52438 62.04387
#
# Poissons Ratio (x) = 0.06420 0.41119
# Poissons Ratio (y) = 0.10006 0.40397
# Poissons Ratio (z) = 0.48055 0.30292
#
# Static dielectric constant tensor:
#      x y z
#    x 3.373040 0.000000 0.000000 
#    y 0.000000 3.398560 0.000000 
#    z 0.000000 0.000000 3.343050 
# 
# 
# High freq. dielectric constant tensor:
#      x y z
#    x 1.667410 0.000000 0.000000 
#    y 0.000000 1.685890 0.000000 
#    z 0.000000 0.000000 1.685960 
# 
# From -- ./inp_files/21067.got.cif
#   From: 2010.03.12/outbox.cif.g09.slc.cpg/sg59_11_cif.got.tgz:21067.got - 2010.04.16 16:29:54.
