data_PCOD8243640
_publ_section_title
;
Structure prediction by ZEFSAII (Michael W. Deem and Ramdas Pophale) SiO2 
 PCOD8243640
Probable space group: P M M N
;
_chemical_formula_sum "Si O2"
_cell_formula_units_Z 64
_cell_length_a 18.957047
_cell_length_b 8.816189
_cell_length_c 20.582581
_cell_angle_alpha 90.000000
_cell_angle_beta 90.000000
_cell_angle_gamma 90.000000
_cell_volume 3439.944312
_symmetry_space_group_name_H-M "P M M N"
_symmetry_group_IT_number 59
_space_group.IT_coordinate_system_code '2'
_symmetry_cell_setting 'orthorhombic'
loop_
_space_group_symop_operation_xyz
x,y,z
1/2-x,1/2-y,z
1/2+x,-y,-z
-x,1/2+y,-z
-x,-y,-z
1/2+x,1/2+y,-z
1/2-x,y,z
x,1/2-y,z
loop_
_atom_site_type_symbol
_atom_site_label
_atom_site_fract_x
_atom_site_fract_y
_atom_site_fract_z
Si Si1 0.330125 0.925425 0.004973
Si Si2 0.961763 0.072234 0.190617
Si Si3 0.669720 0.927158 0.631389
Si Si4 0.040728 0.071531 0.559882
Si Si5 0.169524 0.072454 0.866096
Si Si6 0.459553 0.928741 0.310713
Si Si7 0.542276 0.572152 0.941152
Si Si8 0.830213 0.427053 0.493129
O O1 0.250000 0.946869 0.028494
O O2 0.349221 0.750000 0.994120
O O3 0.379658 0.998359 0.060153
O O4 0.344827 0.009869 0.937712
O O5 0.960473 0.250000 0.205383
O O6 0.004166 0.032002 0.125624
O O7 0.881717 0.011842 0.184463
O O8 0.999708 0.985231 0.248101
O O9 0.750000 0.959918 0.653658
O O10 0.656600 0.750000 0.620963
O O11 0.617271 0.992028 0.686134
O O12 0.652248 0.010957 0.564384
O O13 0.041419 0.250000 0.551551
O O14 0.004810 0.021727 0.626813
O O15 0.120731 0.008845 0.559918
O O16 0.000000 0.000000 0.500000
O O17 0.250000 0.039048 0.844790
O O18 0.152880 0.250000 0.865920
O O19 0.448555 0.750000 0.306775
O O20 0.548600 0.750000 0.952039
O O21 0.500000 0.500000 0.000000
O O22 0.750000 0.462220 0.473305
O O23 0.846944 0.250000 0.494033
#
# Coordination Sequence:
#
# PCOD8243640 Si02
#       8
#     8   8   8   8   8   8   8   8
#     4  10  20  34  55  85 118 151 191 239 289 342
#     4  11  24  40  59  85 117 155 196 240 290 346
#     4  10  20  35  58  86 115 150 192 238 288 344
#     4  11  22  36  58  86 115 149 190 236 289 344
#     4  10  20  35  58  86 115 150 192 238 288 344
#     4  11  24  40  59  85 117 155 196 240 290 346
#     4  11  22  36  58  86 115 149 190 236 289 344
#     4  10  20  34  55  85 118 151 191 239 289 342
#
# _framework density 18.604952000000001
#
# number of rings (size 3 to 8) (size 9 to 14) (size 15 to 20)
#    0.000    1.500    2.500    3.000    0.000    6.000 
#    0.000    1.250    0.000    1.500    0.000    0.000 
#    0.000    0.000    0.000    0.000    0.000    0.000 
#
# Total GULP energy -793864.224748 kJ/mol
# GULP energy per Si atom -12404.128512 kJ/mol
# Density = 1.856261 g / cm^3
# Si number density = 18.604952 Si / 1000 Ang^3
#
#
#
# Elastic Constant Matrix: (Units=GPa)
#
#
# Indices 1 2 3 4 5 6 
#
# 1 127.4128 40.4539 45.7182 0.0000 0.0000 0.0000
# 2 40.4539 59.3434 30.1243 0.0000 0.0000 0.0000
# 3 45.7182 30.1243 75.2090 0.0000 0.0000 0.0000
# 4 0.0000 0.0000 0.0000 30.1511 0.0000 0.0000
# 5 0.0000 0.0000 0.0000 0.0000 27.5086 0.0000
# 6 0.0000 0.0000 0.0000 0.0000 0.0000 39.0260
#
#
#
# Elastic Compliance Matrix: (Units=1/GPa)
#
#
# Indices 1 2 3 4 5 6 
#
# 1 0.011204 -0.005247 -0.004709 0.000000 0.000000 0.000000
# 2 -0.005247 0.023609 -0.006267 0.000000 0.000000 0.000000
# 3 -0.004709 -0.006267 0.018669 0.000000 0.000000 0.000000
# 4 0.000000 0.000000 0.000000 0.033166 0.000000 0.000000
# 5 0.000000 0.000000 0.000000 0.000000 0.036352 0.000000
# 6 0.000000 0.000000 0.000000 0.000000 0.000000 0.025624
#
#
# Mechanical properties :
#
#
# Convention : Reuss Voigt Hill
#
# Bulk Modulus (GPa) = 47.53721 54.95088 51.24405
# Shear Modulus (GPa) = 26.58395 29.04841 27.81618
#
# Velocity S-wave (km/s) = 3.78413 3.95565 3.87084
# Velocity P-wave (km/s) = 6.68575 7.10371 6.89789
#
# Compressibility (1/GPa) = 0.02103615
#
# Stress axis : x y z
#
# Youngs Moduli (GPa) = 89.25169 42.35607 53.56496
#
# Poissons Ratio (x) = 0.22226 0.25224
# Poissons Ratio (y) = 0.46834 0.33568
# Poissons Ratio (z) = 0.42029 0.26543
#
# Static dielectric constant tensor:
#      x y z
#    x 3.852250 0.000000 0.000000 
#    y 0.000000 3.577380 0.000000 
#    z 0.000000 0.000000 3.215880 
# 
# 
# High freq. dielectric constant tensor:
#      x y z
#    x 1.741880 0.000000 0.000000 
#    y 0.000000 1.742080 0.000000 
#    z 0.000000 0.000000 1.688140 
# 
# From -- ./inp_files/30657.got.cif
#   From: 2010.03.12/outbox.cif.g09.slc.cpg/sg59_16_cif.got.tgz:30657.got - 2010.04.16 16:29:54.
