data_PCOD8243740
_publ_section_title
;
Structure prediction by ZEFSAII (Michael W. Deem and Ramdas Pophale) SiO2 
 PCOD8243740
Probable space group: P M M N
;
_chemical_formula_sum "Si O2"
_cell_formula_units_Z 48
_cell_length_a 14.596470
_cell_length_b 9.237289
_cell_length_c 19.640010
_cell_angle_alpha 90.000000
_cell_angle_beta 90.000000
_cell_angle_gamma 90.000000
_cell_volume 2648.098131
_symmetry_space_group_name_H-M "P M M N"
_symmetry_group_IT_number 59
_space_group.IT_coordinate_system_code '2'
_symmetry_cell_setting 'orthorhombic'
loop_
_space_group_symop_operation_xyz
x,y,z
1/2-x,1/2-y,z
1/2+x,-y,-z
-x,1/2+y,-z
-x,-y,-z
1/2+x,1/2+y,-z
1/2-x,y,z
x,1/2-y,z
loop_
_atom_site_type_symbol
_atom_site_label
_atom_site_fract_x
_atom_site_fract_y
_atom_site_fract_z
Si Si1 0.518917 0.421981 0.829500
Si Si2 0.052849 0.918195 0.558658
Si Si3 0.357749 0.412911 0.069428
Si Si4 0.250000 0.582216 0.512344
Si Si5 0.250000 0.418831 0.370715
Si Si6 0.556767 0.580648 0.691530
Si Si7 0.649238 0.578174 0.082061
O O1 0.524429 0.250000 0.824977
O O2 0.601234 0.478143 0.875792
O O3 0.525020 0.487511 0.755003
O O4 0.423447 0.476502 0.862538
O O5 0.035636 0.750000 0.545509
O O6 0.160604 0.958005 0.556858
O O7 0.012128 0.963717 0.631235
O O8 0.000000 0.000000 0.500000
O O9 0.250000 0.411061 0.080772
O O10 0.396691 0.250000 0.080269
O O11 0.381024 0.472019 0.993656
O O12 0.250000 0.750000 0.492726
O O13 0.250000 0.497199 0.442359
O O14 0.250000 0.250000 0.387592
O O15 0.160486 0.462764 0.327888
O O16 0.550343 0.750000 0.709288
O O17 0.750000 0.515188 0.100641
O O18 0.654553 0.750000 0.080699
#
# Coordination Sequence:
#
# PCOD8243740 Si02
#       7
#     8   8   8   4   4   8   8
#     4  11  22  34  53  81 110 139 175 223 270 307
#     4  10  20  36  58  82 109 139 175 219 264 314
#     4   9  18  34  57  80 104 140 179 213 260 324
#     4  10  20  34  58  88 110 131 166 223 282 313
#     4  10  20  36  58  80 102 139 182 215 254 315
#     4  10  22  38  54  76 109 146 181 212 255 322
#     4   8  16  34  57  78 103 138 179 220 264 317
#
# _framework density 18.126217
#
# number of rings (size 3 to 8) (size 9 to 14) (size 15 to 20)
#    0.000    2.333    1.667    2.000    1.167    1.667 
#    1.500    0.833    0.000    3.500    0.000    0.000 
#    0.000    0.000    0.000    0.000    0.000    0.000 
#
# Total GULP energy -595186.385724 kJ/mol
# GULP energy per Si atom -12399.716369 kJ/mol
# Density = 1.808496 g / cm^3
# Si number density = 18.126217 Si / 1000 Ang^3
#
#
#
# Elastic Constant Matrix: (Units=GPa)
#
#
# Indices 1 2 3 4 5 6 
#
# 1 125.1887 44.5421 88.9894 0.0000 0.0000 0.0000
# 2 44.5421 55.4156 61.6125 0.0000 0.0000 0.0000
# 3 88.9894 61.6125 160.8235 0.0000 0.0000 0.0000
# 4 0.0000 0.0000 0.0000 26.1484 0.0000 0.0000
# 5 0.0000 0.0000 0.0000 0.0000 15.0223 0.0000
# 6 0.0000 0.0000 0.0000 0.0000 0.0000 18.4747
#
#
#
# Elastic Compliance Matrix: (Units=1/GPa)
#
#
# Indices 1 2 3 4 5 6 
#
# 1 0.013790 -0.004530 -0.005895 0.000000 0.000000 0.000000
# 2 -0.004530 0.032923 -0.010107 0.000000 0.000000 0.000000
# 3 -0.005895 -0.010107 0.013352 0.000000 0.000000 0.000000
# 4 0.000000 0.000000 0.000000 0.038243 0.000000 0.000000
# 5 0.000000 0.000000 0.000000 0.000000 0.066568 0.000000
# 6 0.000000 0.000000 0.000000 0.000000 0.000000 0.054128
#
#
# Mechanical properties :
#
#
# Convention : Reuss Voigt Hill
#
# Bulk Modulus (GPa) = 52.62583 81.30176 66.96379
# Shear Modulus (GPa) = 18.76862 21.68131 20.22497
#
# Velocity S-wave (km/s) = 3.22132 3.46226 3.34396
# Velocity P-wave (km/s) = 6.55224 7.80599 7.20643
#
# Compressibility (1/GPa) = 0.01900208
#
# Stress axis : x y z
#
# Youngs Moduli (GPa) = 72.51502 30.37365 74.89572
#
# Poissons Ratio (x) = 0.13759 0.44152
# Poissons Ratio (y) = 0.32849 0.75694
# Poissons Ratio (z) = 0.42749 0.30697
#
# Static dielectric constant tensor:
#      x y z
#    x 3.711540 0.000000 0.000000 
#    y 0.000000 3.222300 0.000000 
#    z 0.000000 0.000000 3.373610 
# 
# 
# High freq. dielectric constant tensor:
#      x y z
#    x 1.714730 0.000000 0.000000 
#    y 0.000000 1.684810 0.000000 
#    z 0.000000 0.000000 1.700540 
# 
# From -- ./inp_files/25569.got.cif
#   From: 2010.03.12/outbox.cif.g09.slc.cpg/sg59_13_cif.got.tgz:25569.got - 2010.04.16 16:29:54.
