data_PCOD8243412
_publ_section_title
;
Structure prediction by ZEFSAII (Michael W. Deem and Ramdas Pophale) SiO2 
 PCOD8243412
Probable space group: P M M N
;
_chemical_formula_sum "Si O2"
_cell_formula_units_Z 64
_cell_length_a 19.812800
_cell_length_b 9.150540
_cell_length_c 19.529818
_cell_angle_alpha 90.000000
_cell_angle_beta 90.000000
_cell_angle_gamma 90.000000
_cell_volume 3540.713407
_symmetry_space_group_name_H-M "P M M N"
_symmetry_group_IT_number 59
_space_group.IT_coordinate_system_code '2'
_symmetry_cell_setting 'orthorhombic'
loop_
_space_group_symop_operation_xyz
x,y,z
1/2-x,1/2-y,z
1/2+x,-y,-z
-x,1/2+y,-z
-x,-y,-z
1/2+x,1/2+y,-z
1/2-x,y,z
x,1/2-y,z
loop_
_atom_site_type_symbol
_atom_site_label
_atom_site_fract_x
_atom_site_fract_y
_atom_site_fract_z
Si Si1 0.567492 0.579502 0.329680
Si Si2 0.328921 0.919393 0.074371
Si Si3 0.067348 0.419572 0.331678
Si Si4 0.562703 0.580434 0.172577
Si Si5 0.327076 0.419283 0.937311
Si Si6 0.928146 0.579600 0.827505
Si Si7 0.171666 0.917082 0.422419
Si Si8 0.328331 0.583089 0.579455
O O1 0.557990 0.750000 0.341858
O O2 0.499927 0.501531 0.356277
O O3 0.581382 0.541448 0.250477
O O4 0.630945 0.525252 0.372433
O O5 0.250000 0.944544 0.086889
O O6 0.348636 0.750000 0.075016
O O7 0.366779 0.001436 0.134956
O O8 0.351150 0.985819 0.001702
O O9 0.056308 0.250000 0.346027
O O10 0.082149 0.451819 0.252484
O O11 0.130615 0.474691 0.374539
O O12 0.543579 0.750000 0.164754
O O13 0.627132 0.537503 0.127187
O O14 0.499040 0.486752 0.147041
O O15 0.250000 0.455482 0.917143
O O16 0.335536 0.250000 0.957106
O O17 0.927518 0.750000 0.845109
O O18 0.250000 0.951091 0.410722
O O19 0.155467 0.750000 0.402541
O O20 0.151635 0.946241 0.500940
O O21 0.250000 0.549470 0.590998
O O22 0.344867 0.750000 0.599216
#
# Coordination Sequence:
#
# PCOD8243412 Si02
#       8
#     8   8   8   8   8   8   8   8
#     4  10  20  34  54  79 106 137 174 215 257 304
#     4  10  21  36  54  77 104 134 170 211 253 301
#     4  10  21  36  54  77 105 136 172 214 258 307
#     4   9  19  35  54  77 105 136 171 212 256 302
#     4   9  18  34  55  77 103 135 169 208 255 303
#     4  10  21  36  54  76 103 136 172 210 254 305
#     4   9  19  36  56  77 103 136 173 213 258 308
#     4   9  19  36  55  76 105 139 173 211 257 308
#
# _framework density 18.075453
#
# number of rings (size 3 to 8) (size 9 to 14) (size 15 to 20)
#    0.000    2.500    0.000    2.250    0.000    6.250 
#    0.000    5.000    0.000    1.500    0.000    0.000 
#    0.000    0.000    0.000    0.000    0.000    0.000 
#
# Total GULP energy -793842.865197 kJ/mol
# GULP energy per Si atom -12403.794769 kJ/mol
# Density = 1.803431 g / cm^3
# Si number density = 18.075453 Si / 1000 Ang^3
#
#
#
# Elastic Constant Matrix: (Units=GPa)
#
#
# Indices 1 2 3 4 5 6 
#
# 1 93.0862 60.6971 62.3739 0.0000 0.0000 0.0000
# 2 60.6971 101.3693 57.7653 0.0000 0.0000 0.0000
# 3 62.3739 57.7653 81.8112 0.0000 0.0000 0.0000
# 4 0.0000 0.0000 0.0000 31.4455 0.0000 0.0000
# 5 0.0000 0.0000 0.0000 0.0000 29.9357 0.0000
# 6 0.0000 0.0000 0.0000 0.0000 0.0000 35.9277
#
#
#
# Elastic Compliance Matrix: (Units=1/GPa)
#
#
# Indices 1 2 3 4 5 6 
#
# 1 0.024419 -0.006714 -0.013877 0.000000 0.000000 0.000000
# 2 -0.006714 0.018352 -0.007840 0.000000 0.000000 0.000000
# 3 -0.013877 -0.007840 0.028339 0.000000 0.000000 0.000000
# 4 0.000000 0.000000 0.000000 0.031801 0.000000 0.000000
# 5 0.000000 0.000000 0.000000 0.000000 0.033405 0.000000
# 6 0.000000 0.000000 0.000000 0.000000 0.000000 0.027834
#
#
# Mechanical properties :
#
#
# Convention : Reuss Voigt Hill
#
# Bulk Modulus (GPa) = 70.17820 70.88215 70.53018
# Shear Modulus (GPa) = 22.14749 25.82380 23.98565
#
# Velocity S-wave (km/s) = 3.50420 3.78387 3.64672
# Velocity P-wave (km/s) = 7.43518 7.64133 7.53896
#
# Compressibility (1/GPa) = 0.01424944
#
# Stress axis : x y z
#
# Youngs Moduli (GPa) = 40.95217 54.48928 35.28755
#
# Poissons Ratio (x) = 0.36582 0.48968
# Poissons Ratio (y) = 0.27493 0.27664
# Poissons Ratio (z) = 0.56829 0.42718
#
# Static dielectric constant tensor:
#      x y z
#    x 3.313930 0.000000 0.000000 
#    y 0.000000 3.382610 0.000000 
#    z 0.000000 0.000000 3.293110 
# 
# 
# High freq. dielectric constant tensor:
#      x y z
#    x 1.702570 0.000000 0.000000 
#    y 0.000000 1.706430 0.000000 
#    z 0.000000 0.000000 1.697900 
# 
# From -- ./inp_files/28229.got.cif
#   From: 2010.03.12/outbox.cif.g09.slc.cpg/sg59_15_cif.got.tgz:28229.got - 2010.04.16 16:29:54.
