data_PCOD8243615
_publ_section_title
;
Structure prediction by ZEFSAII (Michael W. Deem and Ramdas Pophale) SiO2 
 PCOD8243615
Probable space group: P M M N
;
_chemical_formula_sum "Si O2"
_cell_formula_units_Z 56
_cell_length_a 8.862370
_cell_length_b 14.768037
_cell_length_c 22.166913
_cell_angle_alpha 90.000000
_cell_angle_beta 90.000000
_cell_angle_gamma 90.000000
_cell_volume 2901.201319
_symmetry_space_group_name_H-M "P M M N"
_symmetry_group_IT_number 59
_space_group.IT_coordinate_system_code '2'
_symmetry_cell_setting 'orthorhombic'
loop_
_space_group_symop_operation_xyz
x,y,z
1/2-x,1/2-y,z
1/2+x,-y,-z
-x,1/2+y,-z
-x,-y,-z
1/2+x,1/2+y,-z
1/2-x,y,z
x,1/2-y,z
loop_
_atom_site_type_symbol
_atom_site_label
_atom_site_fract_x
_atom_site_fract_y
_atom_site_fract_z
Si Si1 0.927936 0.422729 0.341653
Si Si2 0.924754 0.750000 0.459368
Si Si3 0.927616 0.103392 0.620559
Si Si4 0.419517 0.152484 0.738690
Si Si5 0.571680 0.354057 0.980390
Si Si6 0.075697 0.250000 0.398625
Si Si7 0.573283 0.535344 0.915336
Si Si8 0.923443 0.029710 0.206900
O O1 0.750000 0.426665 0.350047
O O2 0.970620 0.425638 0.270554
O O3 0.000663 0.504275 0.379094
O O4 0.994459 0.334066 0.369587
O O5 0.750000 0.750000 0.440539
O O6 0.947725 0.750000 0.530393
O O7 0.003183 0.659935 0.434296
O O8 0.750000 0.096555 0.611294
O O9 0.964235 0.152215 0.683549
O O10 0.250000 0.134377 0.712652
O O11 0.430328 0.250000 0.770920
O O12 0.455582 0.077791 0.788475
O O13 0.750000 0.352159 0.987005
O O14 0.515315 0.250000 0.965526
O O15 0.523538 0.430860 0.930746
O O16 0.504114 0.389123 0.043154
O O17 0.250000 0.250000 0.380591
O O18 0.750000 0.546122 0.923510
O O19 0.527234 0.563174 0.847503
O O20 0.750000 0.051127 0.191304
#
# Coordination Sequence:
#
# PCOD8243615 Si02
#       8
#     8   4   8   8   8   4   8   8
#     4  10  22  42  64  83 113 156 194 234 290 351
#     4  11  23  39  59  85 119 155 188 229 290 359
#     4  11  21  34  57  88 116 146 189 238 285 339
#     4   9  17  31  52  77 111 151 187 228 283 345
#     4   9  19  37  58  79 110 151 187 225 277 335
#     4  11  25  43  63  87 113 145 192 249 296 335
#     4  10  20  34  55  84 114 144 184 235 282 324
#     4   9  19  35  55  81 111 151 193 225 273 341
#
# _framework density 19.302347999999999
#
# number of rings (size 3 to 8) (size 9 to 14) (size 15 to 20)
#    0.000    2.143    0.714    3.429    0.000    6.000 
#    1.286    0.000    0.000    0.000    0.000    0.000 
#    0.000    0.000    0.000    0.000    0.000    0.000 
#
# Total GULP energy -694152.147850 kJ/mol
# GULP energy per Si atom -12395.574069 kJ/mol
# Density = 1.925842 g / cm^3
# Si number density = 19.302348 Si / 1000 Ang^3
#
#
#
# Elastic Constant Matrix: (Units=GPa)
#
#
# Indices 1 2 3 4 5 6 
#
# 1 86.6226 41.7183 45.8317 0.0000 0.0000 0.0000
# 2 41.7183 110.1773 37.4576 0.0000 0.0000 0.0000
# 3 45.8317 37.4576 85.1609 0.0000 0.0000 0.0000
# 4 0.0000 0.0000 0.0000 21.2346 0.0000 0.0000
# 5 0.0000 0.0000 0.0000 0.0000 26.4245 0.0000
# 6 0.0000 0.0000 0.0000 0.0000 0.0000 18.5440
#
#
#
# Elastic Compliance Matrix: (Units=1/GPa)
#
#
# Indices 1 2 3 4 5 6 
#
# 1 0.017545 -0.004037 -0.007667 0.000000 0.000000 0.000000
# 2 -0.004037 0.011601 -0.002930 0.000000 0.000000 0.000000
# 3 -0.007667 -0.002930 0.017157 0.000000 0.000000 0.000000
# 4 0.000000 0.000000 0.000000 0.047093 0.000000 0.000000
# 5 0.000000 0.000000 0.000000 0.000000 0.037844 0.000000
# 6 0.000000 0.000000 0.000000 0.000000 0.000000 0.053926
#
#
# Mechanical properties :
#
#
# Convention : Reuss Voigt Hill
#
# Bulk Modulus (GPa) = 58.69941 59.10844 58.90393
# Shear Modulus (GPa) = 22.71575 23.70416 23.20995
#
# Velocity S-wave (km/s) = 3.43423 3.50815 3.47139
# Velocity P-wave (km/s) = 6.79719 6.86283 6.83009
#
# Compressibility (1/GPa) = 0.01703594
#
# Stress axis : x y z
#
# Youngs Moduli (GPa) = 56.99648 86.19954 58.28418
#
# Poissons Ratio (x) = 0.34797 0.44685
# Poissons Ratio (y) = 0.23009 0.17078
# Poissons Ratio (z) = 0.43697 0.25257
#
# Static dielectric constant tensor:
#      x y z
#    x 3.537770 0.000000 0.000000 
#    y 0.000000 3.755140 0.000000 
#    z 0.000000 0.000000 3.353130 
# 
# 
# High freq. dielectric constant tensor:
#      x y z
#    x 1.753090 0.000000 0.000000 
#    y 0.000000 1.755820 0.000000 
#    z 0.000000 0.000000 1.737320 
# 
# From -- ./inp_files/29240.got.cif
#   From: 2010.03.12/outbox.cif.g09.slc.cpg/sg59_15_cif.got.tgz:29240.got - 2010.04.16 16:29:54.
