data_PCOD8243793
_publ_section_title
;
Structure prediction by ZEFSAII (Michael W. Deem and Ramdas Pophale) SiO2 
 PCOD8243793
Probable space group: P M M N
;
_chemical_formula_sum "Si O2"
_cell_formula_units_Z 48
_cell_length_a 17.927410
_cell_length_b 8.852593
_cell_length_c 16.630504
_cell_angle_alpha 90.000000
_cell_angle_beta 90.000000
_cell_angle_gamma 90.000000
_cell_volume 2639.328576
_symmetry_space_group_name_H-M "P M M N"
_symmetry_group_IT_number 59
_space_group.IT_coordinate_system_code '2'
_symmetry_cell_setting 'orthorhombic'
loop_
_space_group_symop_operation_xyz
x,y,z
1/2-x,1/2-y,z
1/2+x,-y,-z
-x,1/2+y,-z
-x,-y,-z
1/2+x,1/2+y,-z
1/2-x,y,z
x,1/2-y,z
loop_
_atom_site_type_symbol
_atom_site_label
_atom_site_fract_x
_atom_site_fract_y
_atom_site_fract_z
Si Si1 0.919018 0.428090 0.507235
Si Si2 0.608398 0.078686 0.684924
Si Si3 0.048160 0.421346 0.761650
Si Si4 0.164311 0.071762 0.638576
Si Si5 0.471730 0.569817 0.081911
Si Si6 0.835082 0.575344 0.837333
O O1 0.928953 0.250000 0.498494
O O2 0.880397 0.469590 0.592517
O O3 0.862525 0.489319 0.441177
O O4 0.000000 0.500000 0.500000
O O5 0.635286 0.250000 0.700446
O O6 0.520558 0.064173 0.700970
O O7 0.655027 0.972015 0.744203
O O8 0.068413 0.250000 0.780865
O O9 0.119214 0.494119 0.716149
O O10 0.026492 0.494814 0.847672
O O11 0.250000 0.033625 0.653812
O O12 0.149419 0.250000 0.628295
O O13 0.472723 0.750000 0.077456
O O14 0.387551 0.519473 0.102594
O O15 0.500000 0.500000 0.000000
O O16 0.750000 0.545636 0.863484
O O17 0.856403 0.750000 0.845582
#
# Coordination Sequence:
#
# PCOD8243793 Si02
#       6
#     8   8   8   8   8   8
#     4  11  21  34  53  77 108 145 188 233 276 324
#     4   9  18  33  53  74 102 141 182 222 267 326
#     4   8  15  32  53  74 101 135 177 216 258 319
#     4  10  20  35  54  76 106 143 183 227 275 323
#     4  10  20  36  59  84 112 144 182 223 269 331
#     4  10  21  36  55  82 114 143 178 227 279 329
#
# _framework density 18.186443000000001
#
# number of rings (size 3 to 8) (size 9 to 14) (size 15 to 20)
#    0.000    2.333    1.667    2.500    0.000    3.667 
#    0.000    5.000    0.000    3.000    0.000    0.000 
#    0.000    0.000    0.000    0.000    0.000    0.000 
#
# Total GULP energy -595025.442717 kJ/mol
# GULP energy per Si atom -12396.363390 kJ/mol
# Density = 1.814505 g / cm^3
# Si number density = 18.186443 Si / 1000 Ang^3
#
#
#
# Elastic Constant Matrix: (Units=GPa)
#
#
# Indices 1 2 3 4 5 6 
#
# 1 95.5938 39.7884 69.1651 0.0000 0.0000 0.0000
# 2 39.7884 70.0022 47.1344 0.0000 0.0000 0.0000
# 3 69.1651 47.1344 151.9066 0.0000 0.0000 0.0000
# 4 0.0000 0.0000 0.0000 30.6498 0.0000 0.0000
# 5 0.0000 0.0000 0.0000 0.0000 23.4230 0.0000
# 6 0.0000 0.0000 0.0000 0.0000 0.0000 26.1401
#
#
#
# Elastic Compliance Matrix: (Units=1/GPa)
#
#
# Indices 1 2 3 4 5 6 
#
# 1 0.017231 -0.005703 -0.006076 0.000000 0.000000 0.000000
# 2 -0.005703 0.019945 -0.003592 0.000000 0.000000 0.000000
# 3 -0.006076 -0.003592 0.010464 0.000000 0.000000 0.000000
# 4 0.000000 0.000000 0.000000 0.032627 0.000000 0.000000
# 5 0.000000 0.000000 0.000000 0.000000 0.042693 0.000000
# 6 0.000000 0.000000 0.000000 0.000000 0.000000 0.038255
#
#
# Mechanical properties :
#
#
# Convention : Reuss Voigt Hill
#
# Bulk Modulus (GPa) = 59.17701 69.96427 64.57064
# Shear Modulus (GPa) = 25.30501 26.80357 26.05429
#
# Velocity S-wave (km/s) = 3.73422 3.84320 3.78911
# Velocity P-wave (km/s) = 7.15558 7.63202 7.39763
#
# Compressibility (1/GPa) = 0.01689845
#
# Stress axis : x y z
#
# Youngs Moduli (GPa) = 58.03635 50.13704 95.56522
#
# Poissons Ratio (x) = 0.28591 0.58064
# Poissons Ratio (y) = 0.33096 0.34330
# Poissons Ratio (z) = 0.35262 0.18011
#
# Static dielectric constant tensor:
#      x y z
#    x 3.330770 0.000000 0.000000 
#    y 0.000000 3.271930 0.000000 
#    z 0.000000 0.000000 3.565970 
# 
# 
# High freq. dielectric constant tensor:
#      x y z
#    x 1.697170 0.000000 0.000000 
#    y 0.000000 1.692360 0.000000 
#    z 0.000000 0.000000 1.705320 
# 
# From -- ./inp_files/23657.got.cif
#   From: 2010.03.12/outbox.cif.g09.slc.cpg/sg59_12_cif.got.tgz:23657.got - 2010.04.16 16:29:54.
