data_PCOD8243353
_publ_section_title
;
Structure prediction by ZEFSAII (Michael W. Deem and Ramdas Pophale) SiO2 
 PCOD8243353
Probable space group: P M M N
;
_chemical_formula_sum "Si O2"
_cell_formula_units_Z 48
_cell_length_a 15.679650
_cell_length_b 17.617374
_cell_length_c 9.100849
_cell_angle_alpha 90.000000
_cell_angle_beta 90.000000
_cell_angle_gamma 90.000000
_cell_volume 2513.966273
_symmetry_space_group_name_H-M "P M M N"
_symmetry_group_IT_number 59
_space_group.IT_coordinate_system_code '2'
_symmetry_cell_setting 'orthorhombic'
loop_
_space_group_symop_operation_xyz
x,y,z
1/2-x,1/2-y,z
1/2+x,-y,-z
-x,1/2+y,-z
-x,-y,-z
1/2+x,1/2+y,-z
1/2-x,y,z
x,1/2-y,z
loop_
_atom_site_type_symbol
_atom_site_label
_atom_site_fract_x
_atom_site_fract_y
_atom_site_fract_z
Si Si1 0.578107 0.410497 0.919905
Si Si2 0.250000 0.833314 0.065766
Si Si3 0.430819 0.840414 0.393073
Si Si4 0.250000 0.339723 0.598794
Si Si5 0.411020 0.411170 0.094698
Si Si6 0.750000 0.659252 0.067907
Si Si7 0.410057 0.160516 0.410762
Si Si8 0.250000 0.833003 0.415346
O O1 0.664099 0.374707 0.986775
O O2 0.549953 0.379867 0.761154
O O3 0.597156 0.499045 0.911578
O O4 0.501746 0.386898 0.027972
O O5 0.250000 0.750000 0.994331
O O6 0.250000 0.828377 0.240073
O O7 0.425057 0.750000 0.365093
O O8 0.502719 0.861779 0.508723
O O9 0.339946 0.872332 0.459233
O O10 0.250000 0.250000 0.605114
O O11 0.250000 0.370732 0.764566
O O12 0.166569 0.368593 0.513510
O O13 0.405535 0.384891 0.261337
O O14 0.334561 0.372370 0.007206
O O15 0.750000 0.750000 0.056227
O O16 0.403607 0.250000 0.379202
O O17 0.250000 0.750000 0.487861
#
# Coordination Sequence:
#
# PCOD8243353 Si02
#       8
#     8   4   8   4   8   4   8   4
#     4  10  21  37  56  80 113 151 189 224 276 346
#     4   9  17  32  57  81 100 130 182 238 272 314
#     4   9  17  32  55  78 103 140 187 233 272 325
#     4   9  19  35  55  79 104 137 184 233 278 330
#     4  11  23  36  54  82 117 153 184 228 282 338
#     4  11  22  38  61  83 108 148 194 235 282 341
#     4  10  20  34  53  80 112 143 184 236 281 324
#     4   7  12  25  47  73  94 121 166 216 262 303
#
# _framework density 19.093333999999999
#
# number of rings (size 3 to 8) (size 9 to 14) (size 15 to 20)
#    0.000    2.333    0.000    4.000    0.000    5.333 
#    0.000    0.833    0.000    1.000    0.000    0.000 
#    0.000    0.000    0.000    0.000    0.000    0.000 
#
# Total GULP energy -595004.772732 kJ/mol
# GULP energy per Si atom -12395.932765 kJ/mol
# Density = 1.904988 g / cm^3
# Si number density = 19.093334 Si / 1000 Ang^3
#
#
#
# Elastic Constant Matrix: (Units=GPa)
#
#
# Indices 1 2 3 4 5 6 
#
# 1 202.2579 58.5960 83.5120 0.0000 0.0000 0.0000
# 2 58.5960 68.2775 38.7294 0.0000 0.0000 0.0000
# 3 83.5120 38.7294 120.4477 0.0000 0.0000 0.0000
# 4 0.0000 0.0000 0.0000 23.1987 0.0000 0.0000
# 5 0.0000 0.0000 0.0000 0.0000 -28.8246 0.0000
# 6 0.0000 0.0000 0.0000 0.0000 0.0000 25.4775
#
#
#
# Elastic Compliance Matrix: (Units=1/GPa)
#
#
# Indices 1 2 3 4 5 6 
#
# 1 0.007917 -0.004502 -0.004042 0.000000 0.000000 0.000000
# 2 -0.004502 0.020473 -0.003462 0.000000 0.000000 0.000000
# 3 -0.004042 -0.003462 0.012218 0.000000 0.000000 0.000000
# 4 0.000000 0.000000 0.000000 0.043106 0.000000 0.000000
# 5 0.000000 0.000000 0.000000 0.000000 -0.034693 0.000000
# 6 0.000000 0.000000 0.000000 0.000000 0.000000 0.039250
#
#
# Mechanical properties :
#
#
# Convention : Reuss Voigt Hill
#
# Bulk Modulus (GPa) = 60.25012 83.62864 71.93938
# Shear Modulus (GPa) = 42.43918 17.98003 30.20960
#
# Velocity S-wave (km/s) = 4.71969 3.07203 3.98201
# Velocity P-wave (km/s) = 7.83101 7.51519 7.67473
#
# Compressibility (1/GPa) = 0.01659748
#
# Stress axis : x y z
#
# Youngs Moduli (GPa) = 126.30524 48.84406 81.84751
#
# Poissons Ratio (x) = 0.21990 0.33082
# Poissons Ratio (y) = 0.56863 0.28333
# Poissons Ratio (z) = 0.51051 0.16908
#
# Static dielectric constant tensor:
#      x y z
#    x 4.069140 0.000000 0.000000 
#    y 0.000000 3.364640 0.000000 
#    z 0.000000 0.000000 3.325660 
# 
# 
# High freq. dielectric constant tensor:
#      x y z
#    x 1.771500 0.000000 0.000000 
#    y 0.000000 1.725220 0.000000 
#    z 0.000000 0.000000 1.724570 
# 
# From -- ./inp_files/9109.got.cif
#   From: 2010.03.12/outbox.cif.g09.slc.cpg/sg59_5_cif.got.tgz:9109.got - 2010.04.16 16:29:54.
