data_PCOD8243767
_publ_section_title
;
Structure prediction by ZEFSAII (Michael W. Deem and Ramdas Pophale) SiO2 
 PCOD8243767
Probable space group: P M M N
;
_chemical_formula_sum "Si O2"
_cell_formula_units_Z 36
_cell_length_a 7.519864
_cell_length_b 17.365943
_cell_length_c 15.642349
_cell_angle_alpha 90.000000
_cell_angle_beta 90.000000
_cell_angle_gamma 90.000000
_cell_volume 2042.726998
_symmetry_space_group_name_H-M "P M M N"
_symmetry_group_IT_number 59
_space_group.IT_coordinate_system_code '2'
_symmetry_cell_setting 'orthorhombic'
loop_
_space_group_symop_operation_xyz
x,y,z
1/2-x,1/2-y,z
1/2+x,-y,-z
-x,1/2+y,-z
-x,-y,-z
1/2+x,1/2+y,-z
1/2-x,y,z
x,1/2-y,z
loop_
_atom_site_type_symbol
_atom_site_label
_atom_site_fract_x
_atom_site_fract_y
_atom_site_fract_z
Si Si1 0.453282 0.661949 0.131073
Si Si2 0.250000 0.159831 0.998808
Si Si3 0.953519 0.046643 0.415896
Si Si4 0.250000 0.084775 0.181796
Si Si5 0.547294 0.524273 0.238050
Si Si6 0.750000 0.840617 0.638290
O O1 0.250000 0.651785 0.102204
O O2 0.496968 0.750000 0.155562
O O3 0.497299 0.612014 0.215141
O O4 0.574614 0.632847 0.052567
O O5 0.250000 0.250000 0.009358
O O6 0.250000 0.127013 0.092704
O O7 0.750000 0.075137 0.417349
O O8 0.075874 0.121927 0.405311
O O9 0.989728 0.987443 0.338381
O O10 0.000000 0.000000 0.500000
O O11 0.250000 0.145428 0.259799
O O12 0.425968 0.032943 0.183397
O O13 0.750000 0.505381 0.214350
O O14 0.750000 0.750000 0.619389
#
# Coordination Sequence:
#
# PCOD8243767 Si02
#       6
#     8   4   8   4   8   4
#     4  10  20  35  53  75 106 142 179 224 274 323
#     4  10  21  36  53  75 106 144 180 223 276 320
#     4  10  20  36  61  86 112 148 184 227 277 333
#     4  10  21  36  55  78 108 144 184 224 269 324
#     4  10  20  35  54  81 107 139 183 220 272 327
#     4  10  21  38  59  85 116 148 186 229 276 330
#
# _framework density 17.6235
#
# number of rings (size 3 to 8) (size 9 to 14) (size 15 to 20)
#    0.000    2.000    3.333    0.333    0.000    2.222 
#    0.000    1.111    0.000    4.000    0.000    0.000 
#    0.000    0.000    0.000    0.000    0.000    0.000 
#
# Total GULP energy -446424.290621 kJ/mol
# GULP energy per Si atom -12400.674739 kJ/mol
# Density = 1.758339 g / cm^3
# Si number density = 17.623500 Si / 1000 Ang^3
#
#
#
# Elastic Constant Matrix: (Units=GPa)
#
#
# Indices 1 2 3 4 5 6 
#
# 1 151.3077 58.7711 56.3465 0.0000 0.0000 0.0000
# 2 58.7711 104.6789 66.6215 0.0000 0.0000 0.0000
# 3 56.3465 66.6215 110.6676 0.0000 0.0000 0.0000
# 4 0.0000 0.0000 0.0000 25.5071 0.0000 0.0000
# 5 0.0000 0.0000 0.0000 0.0000 23.2208 0.0000
# 6 0.0000 0.0000 0.0000 0.0000 0.0000 24.9165
#
#
#
# Elastic Compliance Matrix: (Units=1/GPa)
#
#
# Indices 1 2 3 4 5 6 
#
# 1 0.008845 -0.003404 -0.002454 0.000000 0.000000 0.000000
# 2 -0.003404 0.016796 -0.008378 0.000000 0.000000 0.000000
# 3 -0.002454 -0.008378 0.015329 0.000000 0.000000 0.000000
# 4 0.000000 0.000000 0.000000 0.039205 0.000000 0.000000
# 5 0.000000 0.000000 0.000000 0.000000 0.043065 0.000000
# 6 0.000000 0.000000 0.000000 0.000000 0.000000 0.040134
#
#
# Mechanical properties :
#
#
# Convention : Reuss Voigt Hill
#
# Bulk Modulus (GPa) = 80.01403 81.12581 80.56992
# Shear Modulus (GPa) = 25.50843 27.05657 26.28250
#
# Velocity S-wave (km/s) = 3.80861 3.92248 3.86597
# Velocity P-wave (km/s) = 8.05240 8.16377 8.10828
#
# Compressibility (1/GPa) = 0.01249781
#
# Stress axis : x y z
#
# Youngs Moduli (GPa) = 113.05518 59.53657 65.23440
#
# Poissons Ratio (x) = 0.20267 0.16011
# Poissons Ratio (y) = 0.38485 0.54655
# Poissons Ratio (z) = 0.27747 0.49881
#
# Static dielectric constant tensor:
#      x y z
#    x 3.738830 0.000000 0.000000 
#    y 0.000000 3.173490 0.000000 
#    z 0.000000 0.000000 3.231640 
# 
# 
# High freq. dielectric constant tensor:
#      x y z
#    x 1.705530 0.000000 0.000000 
#    y 0.000000 1.668680 0.000000 
#    z 0.000000 0.000000 1.674080 
# 
# From -- ./inp_files/19811.got.cif
#   From: 2010.03.12/outbox.cif.g09.slc.cpg/sg59_10_cif.got.tgz:19811.got - 2010.04.16 16:29:54.
