data_PCOD8243893
_publ_section_title
;
Structure prediction by ZEFSAII (Michael W. Deem and Ramdas Pophale) SiO2 
 PCOD8243893
Probable space group: P M M N
;
_chemical_formula_sum "Si O2"
_cell_formula_units_Z 48
_cell_length_a 9.154257
_cell_length_b 20.404157
_cell_length_c 14.082057
_cell_angle_alpha 90.000000
_cell_angle_beta 90.000000
_cell_angle_gamma 90.000000
_cell_volume 2630.315567
_symmetry_space_group_name_H-M "P M M N"
_symmetry_group_IT_number 59
_space_group.IT_coordinate_system_code '2'
_symmetry_cell_setting 'orthorhombic'
loop_
_space_group_symop_operation_xyz
x,y,z
1/2-x,1/2-y,z
1/2+x,-y,-z
-x,1/2+y,-z
-x,-y,-z
1/2+x,1/2+y,-z
1/2-x,y,z
x,1/2-y,z
loop_
_atom_site_type_symbol
_atom_site_label
_atom_site_fract_x
_atom_site_fract_y
_atom_site_fract_z
Si Si1 0.579630 0.931545 0.893267
Si Si2 0.581820 0.617985 0.298456
Si Si3 0.921107 0.750000 0.403249
Si Si4 0.418924 0.997094 0.401356
Si Si5 0.423585 0.750000 0.604486
Si Si6 0.582654 0.935575 0.103165
Si Si7 0.418206 0.132958 0.294920
O O1 0.750000 0.945614 0.883409
O O2 0.536723 0.876357 0.815913
O O3 0.504920 0.999957 0.868264
O O4 0.534922 0.907592 0.999532
O O5 0.750000 0.602502 0.324116
O O6 0.534413 0.687452 0.340805
O O7 0.481110 0.562037 0.340365
O O8 0.558726 0.619568 0.184002
O O9 0.750000 0.750000 0.428942
O O10 0.011735 0.750000 0.499353
O O11 0.250000 0.983445 0.420491
O O12 0.444082 0.064722 0.347349
O O13 0.500000 0.000000 0.500000
O O14 0.250000 0.750000 0.598051
O O15 0.475704 0.686161 0.660441
O O16 0.750000 0.957641 0.098089
O O17 0.250000 0.156121 0.305269
#
# Coordination Sequence:
#
# PCOD8243893 Si02
#       7
#     8   8   4   8   4   8   8
#     4   9  17  32  54  82 112 144 180 217 268 328
#     4  10  20  35  55  81 111 144 182 225 273 322
#     4  10  22  40  57  74 108 152 185 218 273 336
#     4  11  22  35  54  80 108 139 181 230 276 326
#     4  12  26  40  57  80 106 140 187 234 277 324
#     4   9  17  30  53  84 114 141 177 225 271 315
#     4  10  21  38  57  78 109 147 183 219 272 334
#
# _framework density 18.248760999999998
#
# number of rings (size 3 to 8) (size 9 to 14) (size 15 to 20)
#    0.000    2.000    1.667    2.250    0.000    6.667 
#    0.000    0.833    0.000    4.000    0.000    1.167 
#    0.000    0.000    0.000    0.000    0.000    0.000 
#
# Total GULP energy -595130.285706 kJ/mol
# GULP energy per Si atom -12398.547619 kJ/mol
# Density = 1.820723 g / cm^3
# Si number density = 18.248761 Si / 1000 Ang^3
#
#
#
# Elastic Constant Matrix: (Units=GPa)
#
#
# Indices 1 2 3 4 5 6 
#
# 1 81.0851 57.5378 61.1284 0.0000 0.0000 0.0000
# 2 57.5378 111.7143 72.8149 0.0000 0.0000 0.0000
# 3 61.1284 72.8149 162.5812 0.0000 0.0000 0.0000
# 4 0.0000 0.0000 0.0000 36.6522 0.0000 0.0000
# 5 0.0000 0.0000 0.0000 0.0000 23.6619 0.0000
# 6 0.0000 0.0000 0.0000 0.0000 0.0000 26.3654
#
#
#
# Elastic Compliance Matrix: (Units=1/GPa)
#
#
# Indices 1 2 3 4 5 6 
#
# 1 0.021458 -0.008182 -0.004404 0.000000 0.000000 0.000000
# 2 -0.008182 0.015761 -0.003983 0.000000 0.000000 0.000000
# 3 -0.004404 -0.003983 0.009590 0.000000 0.000000 0.000000
# 4 0.000000 0.000000 0.000000 0.027284 0.000000 0.000000
# 5 0.000000 0.000000 0.000000 0.000000 0.042262 0.000000
# 6 0.000000 0.000000 0.000000 0.000000 0.000000 0.037928
#
#
# Mechanical properties :
#
#
# Convention : Reuss Voigt Hill
#
# Bulk Modulus (GPa) = 73.13403 82.03811 77.58607
# Shear Modulus (GPa) = 26.04466 28.26254 27.15360
#
# Velocity S-wave (km/s) = 3.78193 3.93967 3.86161
# Velocity P-wave (km/s) = 7.69635 8.10850 7.90511
#
# Compressibility (1/GPa) = 0.01367353
#
# Stress axis : x y z
#
# Youngs Moduli (GPa) = 46.60207 63.44675 104.27219
#
# Poissons Ratio (x) = 0.51910 0.45919
# Poissons Ratio (y) = 0.38128 0.41529
# Poissons Ratio (z) = 0.20522 0.25269
#
# Static dielectric constant tensor:
#      x y z
#    x 3.374760 0.000000 0.000000 
#    y 0.000000 3.209850 0.000000 
#    z 0.000000 0.000000 3.967280 
# 
# 
# High freq. dielectric constant tensor:
#      x y z
#    x 1.704610 0.000000 0.000000 
#    y 0.000000 1.685630 0.000000 
#    z 0.000000 0.000000 1.731330 
# 
# From -- ./inp_files/20483.got.cif
#   From: 2010.03.12/outbox.cif.g09.slc.cpg/sg59_11_cif.got.tgz:20483.got - 2010.04.16 16:29:54.
