data_PCOD8243849
_publ_section_title
;
Structure prediction by ZEFSAII (Michael W. Deem and Ramdas Pophale) SiO2 
 PCOD8243849
Probable space group: P M M N
;
_chemical_formula_sum "Si O2"
_cell_formula_units_Z 48
_cell_length_a 16.746455
_cell_length_b 15.560106
_cell_length_c 9.593252
_cell_angle_alpha 90.000000
_cell_angle_beta 90.000000
_cell_angle_gamma 90.000000
_cell_volume 2499.777132
_symmetry_space_group_name_H-M "P M M N"
_symmetry_group_IT_number 59
_space_group.IT_coordinate_system_code '2'
_symmetry_cell_setting 'orthorhombic'
loop_
_space_group_symop_operation_xyz
x,y,z
1/2-x,1/2-y,z
1/2+x,-y,-z
-x,1/2+y,-z
-x,-y,-z
1/2+x,1/2+y,-z
1/2-x,y,z
x,1/2-y,z
loop_
_atom_site_type_symbol
_atom_site_label
_atom_site_fract_x
_atom_site_fract_y
_atom_site_fract_z
Si Si1 0.398782 0.656026 0.618106
Si Si2 0.918462 0.848415 0.560498
Si Si3 0.658015 0.978787 0.347902
Si Si4 0.841020 0.158097 0.080564
Si Si5 0.909045 0.989608 0.042179
Si Si6 0.656673 0.847950 0.847633
O O1 0.366339 0.750000 0.563603
O O2 0.486790 0.641207 0.558151
O O3 0.347263 0.572222 0.573778
O O4 0.399347 0.660105 0.786166
O O5 0.892349 0.750000 0.535323
O O6 0.878837 0.904637 0.441159
O O7 0.886437 0.881009 0.708792
O O8 0.750000 0.957613 0.314716
O O9 0.605523 0.981822 0.207421
O O10 0.750000 0.145734 0.133275
O O11 0.849751 0.250000 0.999970
O O12 0.865760 0.077043 0.985283
O O13 0.871134 0.905599 0.975527
O O14 0.000000 0.000000 0.000000
O O15 0.750000 0.857549 0.823573
O O16 0.632634 0.750000 0.882775
#
# Coordination Sequence:
#
# PCOD8243849 Si02
#       6
#     8   8   8   8   8   8
#     4   9  17  31  53  79 106 136 174 220 268 321
#     4  10  21  37  57  81 111 147 185 226 273 326
#     4  11  22  36  56  82 112 145 185 230 275 327
#     4   9  17  32  55  81 109 141 179 225 276 332
#     4  11  22  35  54  81 111 143 180 228 277 327
#     4  10  20  35  55  78 106 142 183 225 272 327
#
# _framework density 19.201711
#
# number of rings (size 3 to 8) (size 9 to 14) (size 15 to 20)
#    0.000    2.000    0.000    6.000    0.000    4.667 
#    0.000    0.000    0.000    1.000    0.000    0.000 
#    0.000    0.000    0.000    0.000    0.000    0.000 
#
# Total GULP energy -594822.488032 kJ/mol
# GULP energy per Si atom -12392.135167 kJ/mol
# Density = 1.915801 g / cm^3
# Si number density = 19.201711 Si / 1000 Ang^3
#
#
#
# Elastic Constant Matrix: (Units=GPa)
#
#
# Indices 1 2 3 4 5 6 
#
# 1 86.9468 42.8010 27.1230 0.0000 0.0000 0.0000
# 2 42.8010 138.0845 53.8234 0.0000 0.0000 0.0000
# 3 27.1230 53.8234 52.1172 0.0000 0.0000 0.0000
# 4 0.0000 0.0000 0.0000 24.5350 0.0000 0.0000
# 5 0.0000 0.0000 0.0000 0.0000 25.4060 0.0000
# 6 0.0000 0.0000 0.0000 0.0000 0.0000 32.4342
#
#
#
# Elastic Compliance Matrix: (Units=1/GPa)
#
#
# Indices 1 2 3 4 5 6 
#
# 1 0.014249 -0.002555 -0.004777 0.000000 0.000000 0.000000
# 2 -0.002555 0.012579 -0.011662 0.000000 0.000000 0.000000
# 3 -0.004777 -0.011662 0.033717 0.000000 0.000000 0.000000
# 4 0.000000 0.000000 0.000000 0.040758 0.000000 0.000000
# 5 0.000000 0.000000 0.000000 0.000000 0.039361 0.000000
# 6 0.000000 0.000000 0.000000 0.000000 0.000000 0.030832
#
#
# Mechanical properties :
#
#
# Convention : Reuss Voigt Hill
#
# Bulk Modulus (GPa) = 44.32935 58.29371 51.31153
# Shear Modulus (GPa) = 23.04117 26.70178 24.87147
#
# Velocity S-wave (km/s) = 3.46779 3.73311 3.60290
# Velocity P-wave (km/s) = 6.25862 7.00043 6.63989
#
# Compressibility (1/GPa) = 0.02255842
#
# Stress axis : x y z
#
# Youngs Moduli (GPa) = 70.17983 79.49557 29.65840
#
# Poissons Ratio (x) = 0.20307 0.14169
# Poissons Ratio (y) = 0.17928 0.34587
# Poissons Ratio (z) = 0.33528 0.92705
#
# Static dielectric constant tensor:
#      x y z
#    x 3.506880 0.000000 0.000000 
#    y 0.000000 4.048210 0.000000 
#    z 0.000000 0.000000 3.023110 
# 
# 
# High freq. dielectric constant tensor:
#      x y z
#    x 1.755340 0.000000 0.000000 
#    y 0.000000 1.776010 0.000000 
#    z 0.000000 0.000000 1.694290 
# 
# From -- ./inp_files/16858.got.cif
#   From: 2010.03.12/outbox.cif.g09.slc.cpg/sg59_9_cif.got.tgz:16858.got - 2010.04.16 16:29:54.
