data_PCOD8243015
_publ_section_title
;
Structure prediction by ZEFSAII (Michael W. Deem and Ramdas Pophale) SiO2 
 PCOD8243015
Probable space group: P M M N
;
_chemical_formula_sum "Si O2"
_cell_formula_units_Z 56
_cell_length_a 14.268050
_cell_length_b 8.784616
_cell_length_c 22.195174
_cell_angle_alpha 90.000000
_cell_angle_beta 90.000000
_cell_angle_gamma 90.000000
_cell_volume 2781.928467
_symmetry_space_group_name_H-M "P M M N"
_symmetry_group_IT_number 59
_space_group.IT_coordinate_system_code '2'
_symmetry_cell_setting 'orthorhombic'
loop_
_space_group_symop_operation_xyz
x,y,z
1/2-x,1/2-y,z
1/2+x,-y,-z
-x,1/2+y,-z
-x,-y,-z
1/2+x,1/2+y,-z
1/2-x,y,z
x,1/2-y,z
loop_
_atom_site_type_symbol
_atom_site_label
_atom_site_fract_x
_atom_site_fract_y
_atom_site_fract_z
Si Si1 0.529522 0.574552 0.084675
Si Si2 0.144009 0.430346 0.029196
Si Si3 0.646512 0.420695 0.625861
Si Si4 0.470079 0.425567 0.782884
Si Si5 0.856934 0.569573 0.334912
Si Si6 0.648548 0.577395 0.749707
Si Si7 0.985410 0.073878 0.435502
O O1 0.507066 0.750000 0.072596
O O2 0.428923 0.490205 0.079308
O O3 0.576605 0.552613 0.151191
O O4 0.605286 0.514762 0.036256
O O5 0.250000 0.495284 0.038376
O O6 0.147410 0.250000 0.033525
O O7 0.750000 0.427738 0.597082
O O8 0.604196 0.250000 0.617331
O O9 0.649827 0.457567 0.695710
O O10 0.584821 0.550504 0.595854
O O11 0.494744 0.250000 0.770884
O O12 0.406802 0.486565 0.727193
O O13 0.564108 0.524711 0.791500
O O14 0.750000 0.511944 0.332774
O O15 0.861539 0.750000 0.339578
O O16 0.904857 0.501672 0.394593
O O17 0.750000 0.567660 0.783233
O O18 0.631862 0.750000 0.726838
O O19 0.960947 0.250000 0.443028
O O20 0.000000 0.000000 0.500000
#
# Coordination Sequence:
#
# PCOD8243015 Si02
#       7
#     8   8   8   8   8   8   8
#     4   9  19  34  53  81 112 147 192 239 286 341
#     4   9  18  34  55  78 109 149 192 240 291 340
#     4  10  20  36  59  85 113 144 181 228 282 338
#     4  10  20  35  57  83 115 152 190 235 289 346
#     4  10  22  41  63  87 117 153 194 240 290 346
#     4  10  20  33  52  80 112 147 184 224 277 340
#     4  12  25  41  63  88 117 153 193 239 289 343
#
# _framework density 20.129921
#
# number of rings (size 3 to 8) (size 9 to 14) (size 15 to 20)
#    0.000    2.000    1.429    2.143    0.000    4.571 
#    0.000    5.714    0.000    0.000    0.000    4.000 
#    0.000    0.000    0.000    0.000    0.000    0.000 
#
# Total GULP energy -693960.331074 kJ/mol
# GULP energy per Si atom -12392.148769 kJ/mol
# Density = 2.008410 g / cm^3
# Si number density = 20.129921 Si / 1000 Ang^3
#
#
#
# Elastic Constant Matrix: (Units=GPa)
#
#
# Indices 1 2 3 4 5 6 
#
# 1 118.4639 29.2058 44.7002 0.0000 0.0000 0.0000
# 2 29.2058 52.3769 22.1190 0.0000 0.0000 0.0000
# 3 44.7002 22.1190 114.7662 0.0000 0.0000 0.0000
# 4 0.0000 0.0000 0.0000 25.7719 0.0000 0.0000
# 5 0.0000 0.0000 0.0000 0.0000 14.1776 0.0000
# 6 0.0000 0.0000 0.0000 0.0000 0.0000 27.7497
#
#
#
# Elastic Compliance Matrix: (Units=1/GPa)
#
#
# Indices 1 2 3 4 5 6 
#
# 1 0.010841 -0.004640 -0.003328 0.000000 0.000000 0.000000
# 2 -0.004640 0.022770 -0.002581 0.000000 0.000000 0.000000
# 3 -0.003328 -0.002581 0.010507 0.000000 0.000000 0.000000
# 4 0.000000 0.000000 0.000000 0.038802 0.000000 0.000000
# 5 0.000000 0.000000 0.000000 0.000000 0.070534 0.000000
# 6 0.000000 0.000000 0.000000 0.000000 0.000000 0.036036
#
#
# Mechanical properties :
#
#
# Convention : Reuss Voigt Hill
#
# Bulk Modulus (GPa) = 43.44147 53.07301 48.25724
# Shear Modulus (GPa) = 22.90828 26.17863 24.54345
#
# Velocity S-wave (km/s) = 3.37712 3.61013 3.49557
# Velocity P-wave (km/s) = 6.06910 6.61815 6.34956
#
# Compressibility (1/GPa) = 0.02301948
#
# Stress axis : x y z
#
# Youngs Moduli (GPa) = 92.24173 43.91826 95.17272
#
# Poissons Ratio (x) = 0.20376 0.31676
# Poissons Ratio (y) = 0.42796 0.24568
# Poissons Ratio (z) = 0.30701 0.11337
#
# Static dielectric constant tensor:
#      x y z
#    x 28.254570 0.000000 0.000000 
#    y 0.000000 3.550210 0.000000 
#    z 0.000000 0.000000 9.044050 
# 
# 
# High freq. dielectric constant tensor:
#      x y z
#    x 1.783840 0.000000 0.000000 
#    y 0.000000 1.777340 0.000000 
#    z 0.000000 0.000000 1.781230 
# 
# From -- ./inp_files/30370.got.cif
#   From: 2010.03.12/outbox.cif.g09.slc.cpg/sg59_16_cif.got.tgz:30370.got - 2010.04.16 16:29:54.
