data_PCOD8243677
_publ_section_title
;
Structure prediction by ZEFSAII (Michael W. Deem and Ramdas Pophale) SiO2 
 PCOD8243677
Probable space group: P M M N
;
_chemical_formula_sum "Si O2"
_cell_formula_units_Z 48
_cell_length_a 7.731586
_cell_length_b 9.110662
_cell_length_c 34.524691
_cell_angle_alpha 90.000000
_cell_angle_beta 90.000000
_cell_angle_gamma 90.000000
_cell_volume 2431.914634
_symmetry_space_group_name_H-M "P M M N"
_symmetry_group_IT_number 59
_space_group.IT_coordinate_system_code '2'
_symmetry_cell_setting 'orthorhombic'
loop_
_space_group_symop_operation_xyz
x,y,z
1/2-x,1/2-y,z
1/2+x,-y,-z
-x,1/2+y,-z
-x,-y,-z
1/2+x,1/2+y,-z
1/2-x,y,z
x,1/2-y,z
loop_
_atom_site_type_symbol
_atom_site_label
_atom_site_fract_x
_atom_site_fract_y
_atom_site_fract_z
Si Si1 0.546704 0.086450 0.961680
Si Si2 0.453750 0.419605 0.113605
Si Si3 0.443537 0.418282 0.810915
Si Si4 0.047269 0.587319 0.538122
Si Si5 0.250000 0.924126 0.243251
Si Si6 0.750000 0.076100 0.670535
Si Si7 0.051171 0.422604 0.614440
O O1 0.750000 0.096935 0.957636
O O2 0.465515 0.250000 0.963330
O O3 0.472628 0.000779 0.924472
O O4 0.500000 0.000000 0.000000
O O5 0.250000 0.443137 0.118477
O O6 0.503185 0.250000 0.109710
O O7 0.548172 0.485975 0.150574
O O8 0.250000 0.430805 0.793516
O O9 0.488852 0.250000 0.821588
O O10 0.578606 0.479067 0.779179
O O11 0.250000 0.601606 0.541098
O O12 0.962974 0.750000 0.536775
O O13 0.980781 0.501153 0.575811
O O14 0.000000 0.500000 0.500000
O O15 0.250000 0.750000 0.246334
O O16 0.250000 0.993023 0.286346
O O17 0.750000 0.250000 0.673164
O O18 0.574796 0.024231 0.648932
O O19 0.250000 0.464945 0.624706
O O20 0.034538 0.250000 0.607024
#
# Coordination Sequence:
#
# PCOD8243677 Si02
#       7
#     8   8   8   8   4   4   8
#     4  10  21  36  55  79 109 146 186 229 275 323
#     4  10  20  35  56  79 106 144 186 230 282 334
#     4  10  20  34  56  84 112 146 185 226 278 334
#     4  10  21  35  52  76 107 142 181 228 278 327
#     4   9  18  34  55  83 117 143 179 237 283 329
#     4   9  18  32  55  83 109 145 185 225 279 335
#     4   9  18  33  52  76 108 143 183 230 276 327
#
# _framework density 19.737535999999999
#
# number of rings (size 3 to 8) (size 9 to 14) (size 15 to 20)
#    0.000    2.333    0.833    1.500    1.167    4.333 
#    0.000    3.333    0.000    2.000    0.000    2.333 
#    0.000    0.000    0.000    0.000    0.000    0.000 
#
# Total GULP energy -595172.505033 kJ/mol
# GULP energy per Si atom -12399.427188 kJ/mol
# Density = 1.969261 g / cm^3
# Si number density = 19.737536 Si / 1000 Ang^3
#
#
#
# Elastic Constant Matrix: (Units=GPa)
#
#
# Indices 1 2 3 4 5 6 
#
# 1 88.2162 33.1271 63.4499 0.0000 0.0000 0.0000
# 2 33.1271 100.7795 60.5104 0.0000 0.0000 0.0000
# 3 63.4499 60.5104 186.2029 0.0000 0.0000 0.0000
# 4 0.0000 0.0000 0.0000 24.9269 0.0000 0.0000
# 5 0.0000 0.0000 0.0000 0.0000 29.0560 0.0000
# 6 0.0000 0.0000 0.0000 0.0000 0.0000 17.3287
#
#
#
# Elastic Compliance Matrix: (Units=1/GPa)
#
#
# Indices 1 2 3 4 5 6 
#
# 1 0.015464 -0.002384 -0.004495 0.000000 0.000000 0.000000
# 2 -0.002384 0.012696 -0.003313 0.000000 0.000000 0.000000
# 3 -0.004495 -0.003313 0.007979 0.000000 0.000000 0.000000
# 4 0.000000 0.000000 0.000000 0.040117 0.000000 0.000000
# 5 0.000000 0.000000 0.000000 0.000000 0.034416 0.000000
# 6 0.000000 0.000000 0.000000 0.000000 0.000000 0.057708
#
#
# Mechanical properties :
#
#
# Convention : Reuss Voigt Hill
#
# Bulk Modulus (GPa) = 63.47624 76.59703 70.03664
# Shear Modulus (GPa) = 25.77111 28.80306 27.28708
#
# Velocity S-wave (km/s) = 3.61735 3.82423 3.72223
# Velocity P-wave (km/s) = 7.04819 7.64144 7.35080
#
# Compressibility (1/GPa) = 0.01575393
#
# Stress axis : x y z
#
# Youngs Moduli (GPa) = 64.66659 78.76623 125.33317
#
# Poissons Ratio (x) = 0.18782 0.56332
# Poissons Ratio (y) = 0.15420 0.41526
# Poissons Ratio (z) = 0.29065 0.26097
#
# Static dielectric constant tensor:
#      x y z
#    x 3.777210 0.000000 0.000000 
#    y 0.000000 1.984880 0.000000 
#    z 0.000000 0.000000 3.523040 
# 
# 
# High freq. dielectric constant tensor:
#      x y z
#    x 1.769500 0.000000 0.000000 
#    y 0.000000 1.753240 0.000000 
#    z 0.000000 0.000000 1.767510 
# 
# From -- ./inp_files/33000.got.cif
#   From: 2010.03.12/outbox.cif.g09.slc.cpg/sg59_17_cif.got.tgz:33000.got - 2010.04.16 16:29:54.
