data_PCOD8243766
_publ_section_title
;
Structure prediction by ZEFSAII (Michael W. Deem and Ramdas Pophale) SiO2 
 PCOD8243766
Probable space group: P M M N
;
_chemical_formula_sum "Si O2"
_cell_formula_units_Z 64
_cell_length_a 31.322750
_cell_length_b 9.006778
_cell_length_c 12.107468
_cell_angle_alpha 90.000000
_cell_angle_beta 90.000000
_cell_angle_gamma 90.000000
_cell_volume 3415.723223
_symmetry_space_group_name_H-M "P M M N"
_symmetry_group_IT_number 59
_space_group.IT_coordinate_system_code '2'
_symmetry_cell_setting 'orthorhombic'
loop_
_space_group_symop_operation_xyz
x,y,z
1/2-x,1/2-y,z
1/2+x,-y,-z
-x,1/2+y,-z
-x,-y,-z
1/2+x,1/2+y,-z
1/2-x,y,z
x,1/2-y,z
loop_
_atom_site_type_symbol
_atom_site_label
_atom_site_fract_x
_atom_site_fract_y
_atom_site_fract_z
Si Si1 0.545786 0.425316 0.483824
Si Si2 0.374727 0.924268 0.376619
Si Si3 0.370199 0.423669 0.914153
Si Si4 0.298431 0.079157 0.747312
Si Si5 0.605894 0.424368 0.867015
Si Si6 0.481258 0.081443 0.104794
Si Si7 0.936175 0.083064 0.237905
Si Si8 0.297956 0.573877 0.522828
O O1 0.500000 0.500000 0.500000
O O2 0.538462 0.250000 0.494022
O O3 0.580679 0.486249 0.572430
O O4 0.565969 0.467138 0.364910
O O5 0.375627 0.750000 0.398189
O O6 0.369893 0.961277 0.247184
O O7 0.332433 0.990697 0.435801
O O8 0.374319 0.250000 0.936702
O O9 0.326871 0.466562 0.851602
O O10 0.410215 0.472682 0.840285
O O11 0.368357 0.506279 0.031243
O O12 0.250000 0.047090 0.782432
O O13 0.305690 0.250000 0.714603
O O14 0.312185 0.980924 0.643298
O O15 0.601048 0.250000 0.887113
O O16 0.559629 0.494151 0.854227
O O17 0.469099 0.250000 0.072367
O O18 0.514377 0.077874 0.204750
O O19 0.500000 0.000000 0.000000
O O20 0.917989 0.250000 0.222371
O O21 0.250000 0.515236 0.493948
O O22 0.298194 0.750000 0.523540
#
# Coordination Sequence:
#
# PCOD8243766 Si02
#       8
#     8   8   8   8   8   8   8   8
#     4  10  20  35  53  75 105 140 175 215 262 315
#     4   9  19  35  54  77 108 144 177 217 273 321
#     4  11  22  35  54  78 103 136 177 219 264 317
#     4   9  19  36  56  80 110 138 166 210 270 327
#     4  11  22  36  53  74 106 147 184 223 265 312
#     4  11  21  34  52  76 105 141 181 223 268 313
#     4  10  21  35  54  78 105 135 171 219 269 314
#     4   9  17  33  60  88 109 135 176 221 267 326
#
# _framework density 18.736881
#
# number of rings (size 3 to 8) (size 9 to 14) (size 15 to 20)
#    0.000    2.000    1.250    2.625    0.000    3.000 
#    0.000    3.125    0.000    0.750    0.000    0.000 
#    0.000    0.000    0.000    0.000    0.000    0.000 
#
# Total GULP energy -793604.854308 kJ/mol
# GULP energy per Si atom -12400.075849 kJ/mol
# Density = 1.869423 g / cm^3
# Si number density = 18.736881 Si / 1000 Ang^3
#
#
#
# Elastic Constant Matrix: (Units=GPa)
#
#
# Indices 1 2 3 4 5 6 
#
# 1 121.0256 40.1304 70.3210 0.0000 0.0000 0.0000
# 2 40.1304 68.4675 51.1051 0.0000 0.0000 0.0000
# 3 70.3210 51.1051 134.5318 0.0000 0.0000 0.0000
# 4 0.0000 0.0000 0.0000 20.6923 0.0000 0.0000
# 5 0.0000 0.0000 0.0000 0.0000 34.4788 0.0000
# 6 0.0000 0.0000 0.0000 0.0000 0.0000 23.4340
#
#
#
# Elastic Compliance Matrix: (Units=1/GPa)
#
#
# Indices 1 2 3 4 5 6 
#
# 1 0.012407 -0.003394 -0.005196 0.000000 0.000000 0.000000
# 2 -0.003394 0.021314 -0.006323 0.000000 0.000000 0.000000
# 3 -0.005196 -0.006323 0.012551 0.000000 0.000000 0.000000
# 4 0.000000 0.000000 0.000000 0.048327 0.000000 0.000000
# 5 0.000000 0.000000 0.000000 0.000000 0.029003 0.000000
# 6 0.000000 0.000000 0.000000 0.000000 0.000000 0.042673
#
#
# Mechanical properties :
#
#
# Convention : Reuss Voigt Hill
#
# Bulk Modulus (GPa) = 60.80083 71.90422 66.35252
# Shear Modulus (GPa) = 24.80365 26.55225 25.67795
#
# Velocity S-wave (km/s) = 3.64234 3.76854 3.70597
# Velocity P-wave (km/s) = 7.08584 7.57594 7.33498
#
# Compressibility (1/GPa) = 0.01644714
#
# Stress axis : x y z
#
# Youngs Moduli (GPa) = 80.59828 46.91766 79.67406
#
# Poissons Ratio (x) = 0.15922 0.41400
# Poissons Ratio (y) = 0.27352 0.50376
# Poissons Ratio (z) = 0.41881 0.29665
#
# Static dielectric constant tensor:
#      x y z
#    x 3.618320 0.000000 0.000000 
#    y 0.000000 3.345290 0.000000 
#    z 0.000000 0.000000 3.479740 
# 
# 
# High freq. dielectric constant tensor:
#      x y z
#    x 1.726340 0.000000 0.000000 
#    y 0.000000 1.716580 0.000000 
#    z 0.000000 0.000000 1.731910 
# 
# From -- ./inp_files/19244.got.cif
#   From: 2010.03.12/outbox.cif.g09.slc.cpg/sg59_10_cif.got.tgz:19244.got - 2010.04.16 16:29:54.
