data_PCOD8243511
_publ_section_title
;
Structure prediction by ZEFSAII (Michael W. Deem and Ramdas Pophale) SiO2 
 PCOD8243511
Probable space group: P M M N
;
_chemical_formula_sum "Si O2"
_cell_formula_units_Z 56
_cell_length_a 8.870020
_cell_length_b 19.208561
_cell_length_c 16.096847
_cell_angle_alpha 90.000000
_cell_angle_beta 90.000000
_cell_angle_gamma 90.000000
_cell_volume 2742.585947
_symmetry_space_group_name_H-M "P M M N"
_symmetry_group_IT_number 59
_space_group.IT_coordinate_system_code '2'
_symmetry_cell_setting 'orthorhombic'
loop_
_space_group_symop_operation_xyz
x,y,z
1/2-x,1/2-y,z
1/2+x,-y,-z
-x,1/2+y,-z
-x,-y,-z
1/2+x,1/2+y,-z
1/2-x,y,z
x,1/2-y,z
loop_
_atom_site_type_symbol
_atom_site_label
_atom_site_fract_x
_atom_site_fract_y
_atom_site_fract_z
Si Si1 0.424326 0.092561 0.671487
Si Si2 0.077479 0.668991 0.179819
Si Si3 0.574073 0.169953 0.525336
Si Si4 0.074434 0.951431 0.931467
Si Si5 0.422803 0.553284 0.744556
Si Si6 0.425966 0.329915 0.988309
Si Si7 0.076205 0.170918 0.351506
O O1 0.250000 0.112628 0.685271
O O2 0.527409 0.130166 0.738202
O O3 0.477971 0.117361 0.581373
O O4 0.448086 0.009673 0.679886
O O5 0.250000 0.650708 0.159276
O O6 0.055083 0.750000 0.197349
O O7 0.975693 0.644226 0.102872
O O8 0.750000 0.153212 0.535522
O O9 0.538956 0.250000 0.550189
O O10 0.526722 0.155727 0.431106
O O11 0.250000 0.954286 0.948251
O O12 0.034499 0.973828 0.837174
O O13 0.014189 0.872946 0.942165
O O14 0.000000 0.000000 0.000000
O O15 0.250000 0.578775 0.743563
O O16 0.527653 0.618289 0.720969
O O17 0.250000 0.343535 0.997574
O O18 0.470463 0.250000 0.001721
O O19 0.250000 0.158381 0.375176
O O20 0.051625 0.250000 0.319843
#
# Coordination Sequence:
#
# PCOD8243511 Si02
#       7
#     8   8   8   8   8   8   8
#     4  11  22  36  56  84 119 155 195 240 284 339
#     4  10  20  34  54  82 116 154 196 240 290 348
#     4  10  21  38  61  88 119 156 194 232 281 341
#     4  11  23  40  62  86 116 154 197 243 292 351
#     4  10  24  42  59  84 116 153 193 233 286 347
#     4  10  21  37  57  82 113 149 191 241 296 351
#     4  10  22  41  65  91 116 146 190 241 290 341
#
# _framework density 20.418686999999998
#
# number of rings (size 3 to 8) (size 9 to 14) (size 15 to 20)
#    0.000    1.714    0.000    3.857    0.000    9.714 
#    0.000    2.857    0.000    0.000    0.000    0.000 
#    0.000    0.000    0.000    0.000    0.000    0.000 
#
# Total GULP energy -694657.154477 kJ/mol
# GULP energy per Si atom -12404.592044 kJ/mol
# Density = 2.037221 g / cm^3
# Si number density = 20.418687 Si / 1000 Ang^3
#
#
#
# Elastic Constant Matrix: (Units=GPa)
#
#
# Indices 1 2 3 4 5 6 
#
# 1 76.9551 49.4831 34.7475 0.0000 0.0000 0.0000
# 2 49.4831 91.3100 51.5382 0.0000 0.0000 0.0000
# 3 34.7475 51.5382 80.3063 0.0000 0.0000 0.0000
# 4 0.0000 0.0000 0.0000 39.5455 0.0000 0.0000
# 5 0.0000 0.0000 0.0000 0.0000 38.9475 0.0000
# 6 0.0000 0.0000 0.0000 0.0000 0.0000 36.4569
#
#
#
# Elastic Compliance Matrix: (Units=1/GPa)
#
#
# Indices 1 2 3 4 5 6 
#
# 1 0.020312 -0.009482 -0.002704 0.000000 0.000000 0.000000
# 2 -0.009482 0.021598 -0.009758 0.000000 0.000000 0.000000
# 3 -0.002704 -0.009758 0.019885 0.000000 0.000000 0.000000
# 4 0.000000 0.000000 0.000000 0.025287 0.000000 0.000000
# 5 0.000000 0.000000 0.000000 0.000000 0.025676 0.000000
# 6 0.000000 0.000000 0.000000 0.000000 0.000000 0.027430
#
#
# Mechanical properties :
#
#
# Convention : Reuss Voigt Hill
#
# Bulk Modulus (GPa) = 55.84257 57.78987 56.81622
# Shear Modulus (GPa) = 26.30966 30.51015 28.40990
#
# Velocity S-wave (km/s) = 3.59347 3.86972 3.73415
# Velocity P-wave (km/s) = 6.68024 6.95199 6.81747
#
# Compressibility (1/GPa) = 0.01790748
#
# Stress axis : x y z
#
# Youngs Moduli (GPa) = 49.23143 46.30077 50.28949
#
# Poissons Ratio (x) = 0.43900 0.13598
# Poissons Ratio (y) = 0.46679 0.49074
# Poissons Ratio (z) = 0.13311 0.45182
#
# Static dielectric constant tensor:
#      x y z
#    x 3.747530 0.000000 0.000000 
#    y 0.000000 3.807050 0.000000 
#    z 0.000000 0.000000 3.756530 
# 
# 
# High freq. dielectric constant tensor:
#      x y z
#    x 1.808520 0.000000 0.000000 
#    y 0.000000 1.800270 0.000000 
#    z 0.000000 0.000000 1.793300 
# 
# From -- ./inp_files/20907.got.cif
#   From: 2010.03.12/outbox.cif.g09.slc.cpg/sg59_11_cif.got.tgz:20907.got - 2010.04.16 16:29:54.
