data_PCOD8243649
_publ_section_title
;
Structure prediction by ZEFSAII (Michael W. Deem and Ramdas Pophale) SiO2 
 PCOD8243649
Probable space group: P M M N
;
_chemical_formula_sum "Si O2"
_cell_formula_units_Z 64
_cell_length_a 14.432254
_cell_length_b 8.643502
_cell_length_c 24.908956
_cell_angle_alpha 90.000000
_cell_angle_beta 90.000000
_cell_angle_gamma 90.000000
_cell_volume 3107.273104
_symmetry_space_group_name_H-M "P M M N"
_symmetry_group_IT_number 59
_space_group.IT_coordinate_system_code '2'
_symmetry_cell_setting 'orthorhombic'
loop_
_space_group_symop_operation_xyz
x,y,z
1/2-x,1/2-y,z
1/2+x,-y,-z
-x,1/2+y,-z
-x,-y,-z
1/2+x,1/2+y,-z
1/2-x,y,z
x,1/2-y,z
loop_
_atom_site_type_symbol
_atom_site_label
_atom_site_fract_x
_atom_site_fract_y
_atom_site_fract_z
Si Si1 0.354467 0.429834 0.917286
Si Si2 0.471006 0.431325 0.125156
Si Si3 0.031452 0.929434 0.322389
Si Si4 0.856422 0.428767 0.967997
Si Si5 0.645172 0.069006 0.365539
Si Si6 0.850951 0.575386 0.589366
Si Si7 0.599021 0.433365 0.485750
Si Si8 0.354571 0.067099 0.225894
O O1 0.250000 0.463609 0.896432
O O2 0.367601 0.250000 0.930090
O O3 0.428426 0.485544 0.872791
O O4 0.375640 0.525518 0.970904
O O5 0.487261 0.250000 0.131248
O O6 0.420074 0.466846 0.069514
O O7 0.408370 0.497376 0.173690
O O8 0.038234 0.750000 0.309006
O O9 0.077365 0.966629 0.379663
O O10 0.087416 0.022715 0.277951
O O11 0.923977 0.979983 0.325211
O O12 0.750000 0.461205 0.952833
O O13 0.882783 0.250000 0.960067
O O14 0.750000 0.029623 0.347894
O O15 0.624426 0.250000 0.360531
O O16 0.630587 0.013497 0.426744
O O17 0.750000 0.575282 0.617856
O O18 0.891730 0.750000 0.587903
O O19 0.833998 0.509745 0.529712
O O20 0.500000 0.500000 0.500000
O O21 0.602619 0.250000 0.490795
O O22 0.250000 0.997111 0.227592
O O23 0.347904 0.250000 0.222945
#
# Coordination Sequence:
#
# PCOD8243649 Si02
#       8
#     8   8   8   8   8   8   8   8
#     4  10  21  37  57  83 119 162 204 246 292 344
#     4  11  22  37  60  88 118 154 197 245 298 356
#     4  12  25  40  62  89 117 150 191 244 298 349
#     4  10  20  34  55  85 122 162 202 245 293 349
#     4  10  22  41  64  87 117 158 199 240 288 346
#     4  11  23  38  58  84 117 157 196 236 286 345
#     4  11  21  35  58  88 121 157 194 235 288 346
#     4  10  23  44  67  89 116 152 193 239 293 354
#
# _framework density 20.596838000000002
#
# number of rings (size 3 to 8) (size 9 to 14) (size 15 to 20)
#    0.000    1.375    1.250    4.500    0.000    7.000 
#    0.000    0.625    0.000    0.750    0.000    0.000 
#    0.000    0.000    0.000    0.000    0.000    0.000 
#
# Total GULP energy -793735.687044 kJ/mol
# GULP energy per Si atom -12402.120110 kJ/mol
# Density = 2.054996 g / cm^3
# Si number density = 20.596838 Si / 1000 Ang^3
#
#
#
# Elastic Constant Matrix: (Units=GPa)
#
#
# Indices 1 2 3 4 5 6 
#
# 1 148.1943 26.9969 53.8368 0.0000 0.0000 0.0000
# 2 26.9969 48.5010 12.2118 0.0000 0.0000 0.0000
# 3 53.8368 12.2118 73.3890 0.0000 0.0000 0.0000
# 4 0.0000 0.0000 0.0000 27.8251 0.0000 0.0000
# 5 0.0000 0.0000 0.0000 0.0000 32.8719 0.0000
# 6 0.0000 0.0000 0.0000 0.0000 0.0000 28.1749
#
#
#
# Elastic Compliance Matrix: (Units=1/GPa)
#
#
# Indices 1 2 3 4 5 6 
#
# 1 0.009833 -0.003817 -0.006578 0.000000 0.000000 0.000000
# 2 -0.003817 0.023001 -0.001027 0.000000 0.000000 0.000000
# 3 -0.006578 -0.001027 0.018623 0.000000 0.000000 0.000000
# 4 0.000000 0.000000 0.000000 0.035939 0.000000 0.000000
# 5 0.000000 0.000000 0.000000 0.000000 0.030421 0.000000
# 6 0.000000 0.000000 0.000000 0.000000 0.000000 0.035493
#
#
# Mechanical properties :
#
#
# Convention : Reuss Voigt Hill
#
# Bulk Modulus (GPa) = 34.95031 50.68615 42.81823
# Shear Modulus (GPa) = 26.92633 29.57696 28.25165
#
# Velocity S-wave (km/s) = 3.61959 3.79356 3.70760
# Velocity P-wave (km/s) = 5.87147 6.62196 6.25797
#
# Compressibility (1/GPa) = 0.02861205
#
# Stress axis : x y z
#
# Youngs Moduli (GPa) = 101.69833 43.47552 53.69828
#
# Poissons Ratio (x) = 0.16595 0.35324
# Poissons Ratio (y) = 0.38818 0.05516
# Poissons Ratio (z) = 0.66899 0.04466
#
# Static dielectric constant tensor:
#      x y z
#    x 4.071320 0.000000 0.000000 
#    y 0.000000 3.673020 0.000000 
#    z 0.000000 0.000000 3.614310 
# 
# 
# High freq. dielectric constant tensor:
#      x y z
#    x 1.826480 0.000000 0.000000 
#    y 0.000000 1.802640 0.000000 
#    z 0.000000 0.000000 1.781820 
# 
# From -- ./inp_files/32163.got.cif
#   From: 2010.03.12/outbox.cif.g09.slc.cpg/sg59_17_cif.got.tgz:32163.got - 2010.04.16 16:29:54.
