data_PCOD8243936
_publ_section_title
;
Structure prediction by ZEFSAII (Michael W. Deem and Ramdas Pophale) SiO2 
 PCOD8243936
Probable space group: P M M N
;
_chemical_formula_sum "Si O2"
_cell_formula_units_Z 56
_cell_length_a 18.963771
_cell_length_b 9.135610
_cell_length_c 18.014082
_cell_angle_alpha 90.000000
_cell_angle_beta 90.000000
_cell_angle_gamma 90.000000
_cell_volume 3120.860732
_symmetry_space_group_name_H-M "P M M N"
_symmetry_group_IT_number 59
_space_group.IT_coordinate_system_code '2'
_symmetry_cell_setting 'orthorhombic'
loop_
_space_group_symop_operation_xyz
x,y,z
1/2-x,1/2-y,z
1/2+x,-y,-z
-x,1/2+y,-z
-x,-y,-z
1/2+x,1/2+y,-z
1/2-x,y,z
x,1/2-y,z
loop_
_atom_site_type_symbol
_atom_site_label
_atom_site_fract_x
_atom_site_fract_y
_atom_site_fract_z
Si Si1 0.931215 0.421230 0.698049
Si Si2 0.828316 0.923530 0.969975
Si Si3 0.166361 0.081380 0.189799
Si Si4 0.169663 0.424131 0.870226
Si Si5 0.570504 0.422389 0.526916
Si Si6 0.086420 0.075801 0.730098
Si Si7 0.667404 0.920181 0.416078
O O1 0.929910 0.250000 0.712166
O O2 0.869321 0.489967 0.745859
O O3 0.917065 0.459391 0.612752
O O4 0.007154 0.485516 0.722703
O O5 0.750000 0.989173 0.972751
O O6 0.823546 0.750000 0.966498
O O7 0.863246 0.974057 0.891654
O O8 0.863636 0.971601 0.048833
O O9 0.250000 0.057002 0.193424
O O10 0.147031 0.250000 0.202523
O O11 0.250000 0.481476 0.861320
O O12 0.170273 0.250000 0.864093
O O13 0.121264 0.490613 0.804916
O O14 0.500000 0.500000 0.500000
O O15 0.562774 0.250000 0.513332
O O16 0.637761 0.484994 0.483766
O O17 0.086252 0.250000 0.732667
O O18 0.131672 0.023489 0.659632
O O19 0.750000 0.948215 0.409572
O O20 0.649821 0.750000 0.430345
#
# Coordination Sequence:
#
# PCOD8243936 Si02
#       7
#     8   8   8   8   8   8   8
#     4  10  21  35  51  72 101 133 164 201 249 307
#     4   7  11  22  41  67  97 126 160 205 251 289
#     4   9  18  33  52  73  98 128 167 214 254 292
#     4   8  12  20  41  71  98 128 166 205 245 288
#     4  11  22  38  57  75 101 136 174 213 258 311
#     4   9  16  29  46  70 104 136 166 201 246 297
#     4  10  20  35  56  81 108 136 170 213 257 303
#
# _framework density 17.943766
#
# number of rings (size 3 to 8) (size 9 to 14) (size 15 to 20)
#    0.000    2.857    1.429    2.571    0.000    4.000 
#    0.000    3.571    0.000    0.000    0.000    1.000 
#    0.000    4.571    0.000    0.000    0.000    0.000 
#
# Total GULP energy -693865.384220 kJ/mol
# GULP energy per Si atom -12390.453290 kJ/mol
# Density = 1.790293 g / cm^3
# Si number density = 17.943766 Si / 1000 Ang^3
#
#
#
# Elastic Constant Matrix: (Units=GPa)
#
#
# Indices 1 2 3 4 5 6 
#
# 1 68.9269 20.8378 64.0599 0.0000 0.0000 0.0000
# 2 20.8378 27.0343 47.6801 0.0000 0.0000 0.0000
# 3 64.0599 47.6801 181.3300 0.0000 0.0000 0.0000
# 4 0.0000 0.0000 0.0000 17.3010 0.0000 0.0000
# 5 0.0000 0.0000 0.0000 0.0000 30.9369 0.0000
# 6 0.0000 0.0000 0.0000 0.0000 0.0000 22.6138
#
#
#
# Elastic Compliance Matrix: (Units=1/GPa)
#
#
# Indices 1 2 3 4 5 6 
#
# 1 0.022126 -0.006095 -0.006214 0.000000 0.000000 0.000000
# 2 -0.006095 0.070659 -0.016426 0.000000 0.000000 0.000000
# 3 -0.006214 -0.016426 0.012029 0.000000 0.000000 0.000000
# 4 0.000000 0.000000 0.000000 0.057800 0.000000 0.000000
# 5 0.000000 0.000000 0.000000 0.000000 0.032324 0.000000
# 6 0.000000 0.000000 0.000000 0.000000 0.000000 0.044221
#
#
# Mechanical properties :
#
#
# Convention : Reuss Voigt Hill
#
# Bulk Modulus (GPa) = 21.12217 60.27187 40.69702
# Shear Modulus (GPa) = 16.00460 23.81789 19.91124
#
# Velocity S-wave (km/s) = 2.98976 3.64725 3.33475
# Velocity P-wave (km/s) = 4.86981 7.16930 6.12837
#
# Compressibility (1/GPa) = 0.04734362
#
# Stress axis : x y z
#
# Youngs Moduli (GPa) = 45.19594 14.15253 83.13032
#
# Poissons Ratio (x) = 0.08626 0.51657
# Poissons Ratio (y) = 0.27546 1.36552
# Poissons Ratio (z) = 0.28085 0.23247
#
# Static dielectric constant tensor:
#      x y z
#    x 3.230580 0.000000 0.000000 
#    y 0.000000 2.907290 0.000000 
#    z 0.000000 0.000000 3.842860 
# 
# 
# High freq. dielectric constant tensor:
#      x y z
#    x 1.677420 0.000000 0.000000 
#    y 0.000000 1.644270 0.000000 
#    z 0.000000 0.000000 1.720040 
# 
# From -- ./inp_files/28100.got.cif
#   From: 2010.03.12/outbox.cif.g09.slc.cpg/sg59_15_cif.got.tgz:28100.got - 2010.04.16 16:29:54.
