data_PCOD8243755
_publ_section_title
;
Structure prediction by ZEFSAII (Michael W. Deem and Ramdas Pophale) SiO2 
 PCOD8243755
Probable space group: P M M N
;
_chemical_formula_sum "Si O2"
_cell_formula_units_Z 64
_cell_length_a 8.596826
_cell_length_b 29.641948
_cell_length_c 13.125325
_cell_angle_alpha 90.000000
_cell_angle_beta 90.000000
_cell_angle_gamma 90.000000
_cell_volume 3344.682853
_symmetry_space_group_name_H-M "P M M N"
_symmetry_group_IT_number 59
_space_group.IT_coordinate_system_code '2'
_symmetry_cell_setting 'orthorhombic'
loop_
_space_group_symop_operation_xyz
x,y,z
1/2-x,1/2-y,z
1/2+x,-y,-z
-x,1/2+y,-z
-x,-y,-z
1/2+x,1/2+y,-z
1/2-x,y,z
x,1/2-y,z
loop_
_atom_site_type_symbol
_atom_site_label
_atom_site_fract_x
_atom_site_fract_y
_atom_site_fract_z
Si Si1 0.432154 0.199013 0.794034
Si Si2 0.068140 0.615129 0.817037
Si Si3 0.426723 0.864506 0.593924
Si Si4 0.071855 0.534192 0.577929
Si Si5 0.429178 0.022792 0.211446
Si Si6 0.929060 0.363142 0.963387
Si Si7 0.431504 0.460174 0.930866
Si Si8 0.065688 0.698521 0.418657
O O1 0.250000 0.197439 0.778564
O O2 0.492282 0.250000 0.812016
O O3 0.473393 0.170524 0.893874
O O4 0.506552 0.179275 0.690002
O O5 0.250000 0.602990 0.800899
O O6 0.002248 0.636258 0.710156
O O7 0.979944 0.568752 0.846595
O O8 0.043821 0.647660 0.915296
O O9 0.250000 0.848774 0.606424
O O10 0.437686 0.913858 0.541887
O O11 0.507063 0.829878 0.513946
O O12 0.250000 0.521458 0.604017
O O13 0.000000 0.500000 0.500000
O O14 0.956120 0.530655 0.671176
O O15 0.250000 0.012868 0.186671
O O16 0.534449 0.979590 0.181693
O O17 0.750000 0.356581 0.934815
O O18 0.976083 0.414138 0.941887
O O19 0.250000 0.452142 0.951052
O O20 0.500000 0.500000 0.000000
O O21 0.250000 0.694089 0.418088
O O22 0.009775 0.750000 0.432551
#
# Coordination Sequence:
#
# PCOD8243755 Si02
#       8
#     8   8   8   8   8   8   8   8
#     4  10  22  40  59  80 111 149 188 234 289 342
#     4   9  18  34  54  77 110 147 181 221 276 337
#     4   8  16  32  54  79 106 138 172 218 275 330
#     4  10  20  35  52  72 105 145 185 229 278 335
#     4  11  21  34  53  76 106 146 188 230 276 328
#     4  11  22  36  58  85 114 149 191 237 285 341
#     4  12  23  36  54  80 113 148 188 232 277 329
#     4   9  17  33  59  85 108 137 179 229 281 338
#
# _framework density 19.134848000000002
#
# number of rings (size 3 to 8) (size 9 to 14) (size 15 to 20)
#    0.000    2.000    1.250    4.125    0.000    2.250 
#    0.000    7.500    0.000    2.250    0.000    1.750 
#    0.000    0.000    0.000    0.000    0.000    0.000 
#
# Total GULP energy -793152.602427 kJ/mol
# GULP energy per Si atom -12393.009413 kJ/mol
# Density = 1.909130 g / cm^3
# Si number density = 19.134848 Si / 1000 Ang^3
#
#
#
# Elastic Constant Matrix: (Units=GPa)
#
#
# Indices 1 2 3 4 5 6 
#
# 1 46.0099 10.0823 17.4241 0.0000 0.0000 0.0000
# 2 10.0823 78.1121 60.3758 0.0000 0.0000 0.0000
# 3 17.4241 60.3758 116.5507 0.0000 0.0000 0.0000
# 4 0.0000 0.0000 0.0000 36.7103 0.0000 0.0000
# 5 0.0000 0.0000 0.0000 0.0000 22.2391 0.0000
# 6 0.0000 0.0000 0.0000 0.0000 0.0000 25.1904
#
#
#
# Elastic Compliance Matrix: (Units=1/GPa)
#
#
# Indices 1 2 3 4 5 6 
#
# 1 0.023051 -0.000520 -0.003177 0.000000 0.000000 0.000000
# 2 -0.000520 0.021363 -0.010989 0.000000 0.000000 0.000000
# 3 -0.003177 -0.010989 0.014747 0.000000 0.000000 0.000000
# 4 0.000000 0.000000 0.000000 0.027240 0.000000 0.000000
# 5 0.000000 0.000000 0.000000 0.000000 0.044966 0.000000
# 6 0.000000 0.000000 0.000000 0.000000 0.000000 0.039698
#
#
# Mechanical properties :
#
#
# Convention : Reuss Voigt Hill
#
# Bulk Modulus (GPa) = 33.56747 46.27079 39.91913
# Shear Modulus (GPa) = 23.76808 27.01401 25.39104
#
# Velocity S-wave (km/s) = 3.52822 3.76143 3.64669
# Velocity P-wave (km/s) = 5.84623 6.56494 6.21598
#
# Compressibility (1/GPa) = 0.02979075
#
# Stress axis : x y z
#
# Youngs Moduli (GPa) = 43.38121 46.81041 67.80925
#
# Poissons Ratio (x) = 0.02433 0.21542
# Poissons Ratio (y) = 0.02255 0.74513
# Poissons Ratio (z) = 0.13782 0.51438
#
# Static dielectric constant tensor:
#      x y z
#    x 3.412500 0.000000 0.000000 
#    y 0.000000 3.732930 0.000000 
#    z 0.000000 0.000000 3.907890 
# 
# 
# High freq. dielectric constant tensor:
#      x y z
#    x 1.734450 0.000000 0.000000 
#    y 0.000000 1.722110 0.000000 
#    z 0.000000 0.000000 1.758000 
# 
# From -- ./inp_files/14916.got.cif
#   From: 2010.03.12/outbox.cif.g09.slc.cpg/sg59_8_cif.got.tgz:14916.got - 2010.04.16 16:29:54.
