data_PCOD8243218
_publ_section_title
;
Structure prediction by ZEFSAII (Michael W. Deem and Ramdas Pophale) SiO2 
 PCOD8243218
Probable space group: P M M N
;
_chemical_formula_sum "Si O2"
_cell_formula_units_Z 48
_cell_length_a 9.065029
_cell_length_b 14.940409
_cell_length_c 19.161858
_cell_angle_alpha 90.000000
_cell_angle_beta 90.000000
_cell_angle_gamma 90.000000
_cell_volume 2595.190853
_symmetry_space_group_name_H-M "P M M N"
_symmetry_group_IT_number 59
_space_group.IT_coordinate_system_code '2'
_symmetry_cell_setting 'orthorhombic'
loop_
_space_group_symop_operation_xyz
x,y,z
1/2-x,1/2-y,z
1/2+x,-y,-z
-x,1/2+y,-z
-x,-y,-z
1/2+x,1/2+y,-z
1/2-x,y,z
x,1/2-y,z
loop_
_atom_site_type_symbol
_atom_site_label
_atom_site_fract_x
_atom_site_fract_y
_atom_site_fract_z
Si Si1 0.576388 0.054558 0.438539
Si Si2 0.079686 0.436204 0.692452
Si Si3 0.425218 0.529507 0.164689
Si Si4 0.418192 0.250000 0.619650
Si Si5 0.579617 0.844591 0.894912
Si Si6 0.576188 0.250000 0.475073
Si Si7 0.920051 0.581083 0.036947
O O1 0.750000 0.048101 0.452219
O O2 0.521379 0.158504 0.437149
O O3 0.500000 0.000000 0.500000
O O4 0.534349 0.009666 0.365142
O O5 0.250000 0.447600 0.714390
O O6 0.048186 0.336976 0.665183
O O7 0.973831 0.450059 0.757539
O O8 0.250000 0.536081 0.158142
O O9 0.490336 0.431412 0.142658
O O10 0.497723 0.601151 0.110591
O O11 0.250000 0.250000 0.592780
O O12 0.523406 0.250000 0.553962
O O13 0.750000 0.847353 0.874324
O O14 0.509915 0.750000 0.867787
O O15 0.564203 0.840946 0.979509
O O16 0.750000 0.250000 0.476199
O O17 0.750000 0.558845 0.052790
O O18 0.000000 0.500000 0.000000
#
# Coordination Sequence:
#
# PCOD8243218 Si02
#       7
#     8   8   8   4   8   4   8
#     4  10  20  35  57  82 110 143 179 223 271 323
#     4  10  21  37  55  77 107 141 178 219 265 322
#     4  10  20  34  53  75 105 141 175 216 267 318
#     4  10  20  36  58  80 102 137 182 223 266 324
#     4   8  15  30  52  76 100 131 173 215 253 302
#     4  10  20  34  56  86 112 137 174 225 280 324
#     4   9  16  29  52  76 100 133 171 213 259 308
#
# _framework density 18.495750000000001
#
# number of rings (size 3 to 8) (size 9 to 14) (size 15 to 20)
#    0.000    2.500    1.667    2.000    0.000    1.333 
#    3.000    0.000    0.000   17.000    0.000    0.000 
#    0.000    0.000    0.000    0.000    0.000    0.000 
#
# Total GULP energy -594741.860379 kJ/mol
# GULP energy per Si atom -12390.455425 kJ/mol
# Density = 1.845365 g / cm^3
# Si number density = 18.495750 Si / 1000 Ang^3
#
#
#
# Elastic Constant Matrix: (Units=GPa)
#
#
# Indices 1 2 3 4 5 6 
#
# 1 49.1358 21.3975 27.8790 0.0000 0.0000 0.0000
# 2 21.3975 120.7547 39.1508 0.0000 0.0000 0.0000
# 3 27.8790 39.1508 96.5592 0.0000 0.0000 0.0000
# 4 0.0000 0.0000 0.0000 13.4072 0.0000 0.0000
# 5 0.0000 0.0000 0.0000 0.0000 33.7129 0.0000
# 6 0.0000 0.0000 0.0000 0.0000 0.0000 15.7547
#
#
#
# Elastic Compliance Matrix: (Units=1/GPa)
#
#
# Indices 1 2 3 4 5 6 
#
# 1 0.024928 -0.002399 -0.006225 0.000000 0.000000 0.000000
# 2 -0.002399 0.009766 -0.003267 0.000000 0.000000 0.000000
# 3 -0.006225 -0.003267 0.013478 0.000000 0.000000 0.000000
# 4 0.000000 0.000000 0.000000 0.074587 0.000000 0.000000
# 5 0.000000 0.000000 0.000000 0.000000 0.029662 0.000000
# 6 0.000000 0.000000 0.000000 0.000000 0.000000 0.063473
#
#
# Mechanical properties :
#
#
# Convention : Reuss Voigt Hill
#
# Bulk Modulus (GPa) = 40.99915 49.25601 45.12758
# Shear Modulus (GPa) = 20.17710 24.44312 22.31011
#
# Velocity S-wave (km/s) = 3.30647 3.63926 3.47685
# Velocity P-wave (km/s) = 6.06563 6.65941 6.36944
#
# Compressibility (1/GPa) = 0.02439075
#
# Stress axis : x y z
#
# Youngs Moduli (GPa) = 40.11501 102.40093 74.19427
#
# Poissons Ratio (x) = 0.24567 0.46183
# Poissons Ratio (y) = 0.09624 0.24238
# Poissons Ratio (z) = 0.24970 0.33453
#
# Static dielectric constant tensor:
#      x y z
#    x 3.330830 0.000000 0.000000 
#    y 0.000000 4.137530 0.000000 
#    z 0.000000 0.000000 3.411380 
# 
# 
# High freq. dielectric constant tensor:
#      x y z
#    x 1.703390 0.000000 0.000000 
#    y 0.000000 1.720190 0.000000 
#    z 0.000000 0.000000 1.709740 
# 
# From -- ./inp_files/25571.got.cif
#   From: 2010.03.12/outbox.cif.g09.slc.cpg/sg59_13_cif.got.tgz:25571.got - 2010.04.16 16:29:54.
