data_PCOD8243376
_publ_section_title
;
Structure prediction by ZEFSAII (Michael W. Deem and Ramdas Pophale) SiO2 
 PCOD8243376
Probable space group: P M M N
;
_chemical_formula_sum "Si O2"
_cell_formula_units_Z 56
_cell_length_a 8.794894
_cell_length_b 23.149368
_cell_length_c 15.237221
_cell_angle_alpha 90.000000
_cell_angle_beta 90.000000
_cell_angle_gamma 90.000000
_cell_volume 3102.240869
_symmetry_space_group_name_H-M "P M M N"
_symmetry_group_IT_number 59
_space_group.IT_coordinate_system_code '2'
_symmetry_cell_setting 'orthorhombic'
loop_
_space_group_symop_operation_xyz
x,y,z
1/2-x,1/2-y,z
1/2+x,-y,-z
-x,1/2+y,-z
-x,-y,-z
1/2+x,1/2+y,-z
1/2-x,y,z
x,1/2-y,z
loop_
_atom_site_type_symbol
_atom_site_label
_atom_site_fract_x
_atom_site_fract_y
_atom_site_fract_z
Si Si1 0.075530 0.364479 0.170857
Si Si2 0.429956 0.440894 0.691656
Si Si3 0.426797 0.062220 0.004086
Si Si4 0.575648 0.073604 0.325412
Si Si5 0.930776 0.130788 0.848223
Si Si6 0.568236 0.750000 0.917890
Si Si7 0.073236 0.938915 0.482241
Si Si8 0.068747 0.250000 0.881493
O O1 0.250000 0.351494 0.187336
O O2 0.001450 0.306105 0.131688
O O3 0.007459 0.380724 0.264249
O O4 0.051289 0.416714 0.103301
O O5 0.250000 0.433494 0.700518
O O6 0.482506 0.507932 0.689276
O O7 0.513546 0.411510 0.772284
O O8 0.486610 0.410371 0.600806
O O9 0.250000 0.059821 0.977086
O O10 0.511965 0.106429 0.940785
O O11 0.500000 0.000000 0.000000
O O12 0.750000 0.074623 0.298661
O O13 0.551725 0.095599 0.425985
O O14 0.750000 0.134257 0.847821
O O15 0.001799 0.193932 0.832779
O O16 0.750000 0.750000 0.920425
O O17 0.510893 0.750000 0.018056
O O18 0.250000 0.945766 0.458987
O O19 0.000000 0.000000 0.500000
O O20 0.250000 0.250000 0.873633
#
# Coordination Sequence:
#
# PCOD8243376 Si02
#       8
#     8   8   8   8   8   4   8   4
#     4  10  20  34  54  75 100 138 181 221 266 316
#     4  10  20  35  55  80 110 146 182 221 275 331
#     4  11  22  36  53  77 109 147 181 222 277 327
#     4   9  19  33  51  79 113 142 173 217 272 328
#     4  12  24  37  55  82 111 142 184 230 275 332
#     4   9  18  37  57  74  97 134 183 229 266 310
#     4   9  17  31  51  77 110 145 179 220 269 327
#     4  11  21  41  63  76 103 144 187 233 278 324
#
# _framework density 18.051466999999999
#
# number of rings (size 3 to 8) (size 9 to 14) (size 15 to 20)
#    0.000    1.857    1.429    4.500    0.000    6.857 
#    0.000    0.357    0.000    0.857    0.000    2.000 
#    0.000    0.000    0.000    0.000    0.000    0.000 
#
# Total GULP energy -694304.486087 kJ/mol
# GULP energy per Si atom -12398.294394 kJ/mol
# Density = 1.801038 g / cm^3
# Si number density = 18.051467 Si / 1000 Ang^3
#
#
#
# Elastic Constant Matrix: (Units=GPa)
#
#
# Indices 1 2 3 4 5 6 
#
# 1 88.4657 21.7441 31.3389 0.0000 0.0000 0.0000
# 2 21.7441 66.5377 6.7061 0.0000 0.0000 0.0000
# 3 31.3389 6.7061 83.1143 0.0000 0.0000 0.0000
# 4 0.0000 0.0000 0.0000 16.5172 0.0000 0.0000
# 5 0.0000 0.0000 0.0000 0.0000 35.5531 0.0000
# 6 0.0000 0.0000 0.0000 0.0000 0.0000 27.1991
#
#
#
# Elastic Compliance Matrix: (Units=1/GPa)
#
#
# Indices 1 2 3 4 5 6 
#
# 1 0.014074 -0.004098 -0.004976 0.000000 0.000000 0.000000
# 2 -0.004098 0.016345 0.000226 0.000000 0.000000 0.000000
# 3 -0.004976 0.000226 0.013890 0.000000 0.000000 0.000000
# 4 0.000000 0.000000 0.000000 0.060543 0.000000 0.000000
# 5 0.000000 0.000000 0.000000 0.000000 0.028127 0.000000
# 6 0.000000 0.000000 0.000000 0.000000 0.000000 0.036766
#
#
# Mechanical properties :
#
#
# Convention : Reuss Voigt Hill
#
# Bulk Modulus (GPa) = 37.57445 39.74398 38.65922
# Shear Modulus (GPa) = 25.46983 27.74246 26.60614
#
# Velocity S-wave (km/s) = 3.76034 3.92453 3.84331
# Velocity P-wave (km/s) = 6.30190 6.52692 6.41540
#
# Compressibility (1/GPa) = 0.02661383
#
# Stress axis : x y z
#
# Youngs Moduli (GPa) = 71.05426 61.17933 71.99624
#
# Poissons Ratio (x) = 0.25070 0.35825
# Poissons Ratio (y) = 0.29116 -0.01629
# Poissons Ratio (z) = 0.35357 -0.01384
#
# Static dielectric constant tensor:
#      x y z
#    x 3.433920 0.000000 0.000000 
#    y 0.000000 3.371640 0.000000 
#    z 0.000000 0.000000 3.692370 
# 
# 
# High freq. dielectric constant tensor:
#      x y z
#    x 1.702420 0.000000 0.000000 
#    y 0.000000 1.673890 0.000000 
#    z 0.000000 0.000000 1.706970 
# 
# From -- ./inp_files/21195.got.cif
#   From: 2010.03.12/outbox.cif.g09.slc.cpg/sg59_11_cif.got.tgz:21195.got - 2010.04.16 16:29:54.
