data_PCOD8243944
_publ_section_title
;
Structure prediction by ZEFSAII (Michael W. Deem and Ramdas Pophale) SiO2 
 PCOD8243944
Probable space group: P M M N
;
_chemical_formula_sum "Si O2"
_cell_formula_units_Z 64
_cell_length_a 9.342196
_cell_length_b 13.986639
_cell_length_c 26.412515
_cell_angle_alpha 90.000000
_cell_angle_beta 90.000000
_cell_angle_gamma 90.000000
_cell_volume 3451.215649
_symmetry_space_group_name_H-M "P M M N"
_symmetry_group_IT_number 59
_space_group.IT_coordinate_system_code '2'
_symmetry_cell_setting 'orthorhombic'
loop_
_space_group_symop_operation_xyz
x,y,z
1/2-x,1/2-y,z
1/2+x,-y,-z
-x,1/2+y,-z
-x,-y,-z
1/2+x,1/2+y,-z
1/2-x,y,z
x,1/2-y,z
loop_
_atom_site_type_symbol
_atom_site_label
_atom_site_fract_x
_atom_site_fract_y
_atom_site_fract_z
Si Si1 0.083112 0.522026 0.949017
Si Si2 0.914393 0.358439 0.329962
Si Si3 0.082299 0.523158 0.573964
Si Si4 0.081862 0.853178 0.224703
Si Si5 0.915265 0.638174 0.868725
Si Si6 0.407291 0.144553 0.873697
Si Si7 0.082112 0.059750 0.240018
Si Si8 0.582380 0.140026 0.525284
O O1 0.250000 0.546713 0.959015
O O2 0.061500 0.424765 0.919230
O O3 0.011688 0.606902 0.916368
O O4 0.000000 0.500000 0.000000
O O5 0.750000 0.380464 0.317593
O O6 0.933851 0.250000 0.349126
O O7 0.970039 0.428881 0.373930
O O8 0.002614 0.371683 0.278803
O O9 0.250000 0.500854 0.574508
O O10 0.044109 0.598242 0.529759
O O11 0.999692 0.422893 0.567286
O O12 0.250000 0.848760 0.220043
O O13 0.025822 0.750000 0.247578
O O14 0.025694 0.868204 0.168594
O O15 0.039557 0.949438 0.255098
O O16 0.750000 0.614280 0.880865
O O17 0.938149 0.750000 0.859538
O O18 0.965531 0.583914 0.817422
O O19 0.250000 0.125244 0.849606
O O20 0.414927 0.250000 0.897392
O O21 0.250000 0.078615 0.245852
O O22 0.750000 0.132670 0.536669
O O23 0.530542 0.250000 0.528195
#
# Coordination Sequence:
#
# PCOD8243944 Si02
#       8
#     8   8   8   8   8   8   8   8
#     4  11  23  37  55  79 108 139 174 214 260 316
#     4  10  21  36  54  77 106 142 183 225 269 317
#     4   9  18  33  52  76 108 144 182 227 276 324
#     4   9  17  31  54  80 102 127 162 205 252 303
#     4  10  21  38  58  79 107 142 177 217 267 317
#     4   9  18  33  53  76 100 127 160 202 252 302
#     4  10  20  35  56  81 110 141 177 219 266 318
#     4   9  17  31  53  79 107 142 184 228 276 328
#
# _framework density 18.544191000000001
#
# number of rings (size 3 to 8) (size 9 to 14) (size 15 to 20)
#    0.000    2.375    1.250    1.125    0.000    5.250 
#    0.000    1.875    0.000    4.500    0.000    0.000 
#    0.000    0.000    0.000    0.000    0.000    0.000 
#
# Total GULP energy -793289.003783 kJ/mol
# GULP energy per Si atom -12395.140684 kJ/mol
# Density = 1.850198 g / cm^3
# Si number density = 18.544191 Si / 1000 Ang^3
#
#
#
# Elastic Constant Matrix: (Units=GPa)
#
#
# Indices 1 2 3 4 5 6 
#
# 1 38.3363 37.9341 31.1022 0.0000 0.0000 0.0000
# 2 37.9341 119.8402 33.9310 0.0000 0.0000 0.0000
# 3 31.1022 33.9310 77.5959 0.0000 0.0000 0.0000
# 4 0.0000 0.0000 0.0000 26.1922 0.0000 0.0000
# 5 0.0000 0.0000 0.0000 0.0000 28.6107 0.0000
# 6 0.0000 0.0000 0.0000 0.0000 0.0000 29.9878
#
#
#
# Elastic Compliance Matrix: (Units=1/GPa)
#
#
# Indices 1 2 3 4 5 6 
#
# 1 0.049430 -0.011455 -0.014804 0.000000 0.000000 0.000000
# 2 -0.011455 0.012178 -0.000734 0.000000 0.000000 0.000000
# 3 -0.014804 -0.000734 0.019142 0.000000 0.000000 0.000000
# 4 0.000000 0.000000 0.000000 0.038179 0.000000 0.000000
# 5 0.000000 0.000000 0.000000 0.000000 0.034952 0.000000
# 6 0.000000 0.000000 0.000000 0.000000 0.000000 0.033347
#
#
# Mechanical properties :
#
#
# Convention : Reuss Voigt Hill
#
# Bulk Modulus (GPa) = 37.36227 49.07856 43.22041
# Shear Modulus (GPa) = 19.98923 25.81182 22.90052
#
# Velocity S-wave (km/s) = 3.28674 3.73488 3.51795
# Velocity P-wave (km/s) = 5.88175 6.71731 6.31337
#
# Compressibility (1/GPa) = 0.02676497
#
# Stress axis : x y z
#
# Youngs Moduli (GPa) = 20.23063 82.11387 52.24181
#
# Poissons Ratio (x) = 0.94062 0.77337
# Poissons Ratio (y) = 0.23174 0.03833
# Poissons Ratio (z) = 0.29949 0.06025
#
# Static dielectric constant tensor:
#      x y z
#    x 3.407630 0.000000 0.000000 
#    y 0.000000 3.845490 0.000000 
#    z 0.000000 0.000000 3.170870 
# 
# 
# High freq. dielectric constant tensor:
#      x y z
#    x 1.714670 0.000000 0.000000 
#    y 0.000000 1.737600 0.000000 
#    z 0.000000 0.000000 1.695070 
# 
# From -- ./inp_files/31584.got.cif
#   From: 2010.03.12/outbox.cif.g09.slc.cpg/sg59_16_cif.got.tgz:31584.got - 2010.04.16 16:29:54.
