data_PCOD8243332
_publ_section_title
;
Structure prediction by ZEFSAII (Michael W. Deem and Ramdas Pophale) SiO2 
 PCOD8243332
Probable space group: P M M N
;
_chemical_formula_sum "Si O2"
_cell_formula_units_Z 56
_cell_length_a 15.121411
_cell_length_b 9.105875
_cell_length_c 19.130482
_cell_angle_alpha 90.000000
_cell_angle_beta 90.000000
_cell_angle_gamma 90.000000
_cell_volume 2634.146436
_symmetry_space_group_name_H-M "P M M N"
_symmetry_group_IT_number 59
_space_group.IT_coordinate_system_code '2'
_symmetry_cell_setting 'orthorhombic'
loop_
_space_group_symop_operation_xyz
x,y,z
1/2-x,1/2-y,z
1/2+x,-y,-z
-x,1/2+y,-z
-x,-y,-z
1/2+x,1/2+y,-z
1/2-x,y,z
x,1/2-y,z
loop_
_atom_site_type_symbol
_atom_site_label
_atom_site_fract_x
_atom_site_fract_y
_atom_site_fract_z
Si Si1 0.354887 0.418218 0.342575
Si Si2 0.910776 0.581937 0.904893
Si Si3 0.348278 0.590845 0.212744
Si Si4 0.094274 0.917244 0.825632
Si Si5 0.648325 0.576398 0.314922
Si Si6 0.001034 0.575635 0.425650
Si Si7 0.848255 0.416127 0.028540
O O1 0.250000 0.432106 0.354621
O O2 0.385431 0.250000 0.351163
O O3 0.389211 0.472922 0.266606
O O4 0.405189 0.523138 0.395814
O O5 0.880282 0.750000 0.906418
O O6 0.841547 0.480052 0.863934
O O7 0.999242 0.557340 0.860817
O O8 0.913327 0.521994 0.984470
O O9 0.250000 0.621402 0.239089
O O10 0.398541 0.750000 0.213023
O O11 0.108429 0.750000 0.801305
O O12 0.158707 0.961199 0.889739
O O13 0.111824 0.016997 0.758697
O O14 0.750000 0.522632 0.328721
O O15 0.646169 0.750000 0.309326
O O16 0.583054 0.524794 0.377813
O O17 0.001035 0.750000 0.434038
O O18 0.000000 0.500000 0.500000
O O19 0.750000 0.425020 0.996875
O O20 0.887509 0.250000 0.024455
#
# Coordination Sequence:
#
# PCOD8243332 Si02
#       7
#     8   8   8   8   8   8   8
#     4  10  21  38  61  89 122 159 199 247 302 360
#     4  11  22  34  52  80 113 149 193 247 304 362
#     4  10  20  34  53  78 110 149 191 235 288 354
#     4  10  22  39  59  84 114 151 197 248 302 360
#     4  10  23  43  66  93 125 162 204 251 305 362
#     4  11  24  42  65  94 128 164 202 247 300 362
#     4  10  21  37  55  76 107 149 196 247 305 366
#
# _framework density 21.259259
#
# number of rings (size 3 to 8) (size 9 to 14) (size 15 to 20)
#    0.000    1.714    0.000    3.857    0.000   10.286 
#    0.000    1.429    0.000    0.000    0.000    0.000 
#    0.000    0.000    0.000    0.000    0.000    0.000 
#
# Total GULP energy -693937.611336 kJ/mol
# GULP energy per Si atom -12391.743060 kJ/mol
# Density = 2.121087 g / cm^3
# Si number density = 21.259259 Si / 1000 Ang^3
#
#
#
# Elastic Constant Matrix: (Units=GPa)
#
#
# Indices 1 2 3 4 5 6 
#
# 1 77.8844 40.1731 50.1774 0.0000 0.0000 0.0000
# 2 40.1731 110.9462 62.9459 0.0000 0.0000 0.0000
# 3 50.1774 62.9459 147.9191 0.0000 0.0000 0.0000
# 4 0.0000 0.0000 0.0000 39.6727 0.0000 0.0000
# 5 0.0000 0.0000 0.0000 0.0000 25.8359 0.0000
# 6 0.0000 0.0000 0.0000 0.0000 0.0000 25.2606
#
#
#
# Elastic Compliance Matrix: (Units=1/GPa)
#
#
# Indices 1 2 3 4 5 6 
#
# 1 0.017651 -0.003947 -0.004308 0.000000 0.000000 0.000000
# 2 -0.003947 0.012765 -0.004093 0.000000 0.000000 0.000000
# 3 -0.004308 -0.004093 0.009964 0.000000 0.000000 0.000000
# 4 0.000000 0.000000 0.000000 0.025206 0.000000 0.000000
# 5 0.000000 0.000000 0.000000 0.000000 0.038706 0.000000
# 6 0.000000 0.000000 0.000000 0.000000 0.000000 0.039587
#
#
# Mechanical properties :
#
#
# Convention : Reuss Voigt Hill
#
# Bulk Modulus (GPa) = 63.76292 71.48249 67.62270
# Shear Modulus (GPa) = 28.76829 30.38406 29.57618
#
# Velocity S-wave (km/s) = 3.68259 3.78460 3.73394
# Velocity P-wave (km/s) = 6.93831 7.26600 7.10404
#
# Compressibility (1/GPa) = 0.01568310
#
# Stress axis : x y z
#
# Youngs Moduli (GPa) = 56.65435 78.34024 100.36611
#
# Poissons Ratio (x) = 0.30923 0.43236
# Poissons Ratio (y) = 0.22363 0.41080
# Poissons Ratio (z) = 0.24406 0.32065
#
# Static dielectric constant tensor:
#      x y z
#    x 4.128930 0.000000 0.000000 
#    y 0.000000 4.382130 0.000000 
#    z 0.000000 0.000000 4.067730 
# 
# 
# High freq. dielectric constant tensor:
#      x y z
#    x 1.835230 0.000000 0.000000 
#    y 0.000000 1.834220 0.000000 
#    z 0.000000 0.000000 1.834010 
# 
# From -- ./inp_files/30314.got.cif
#   From: 2010.03.12/outbox.cif.g09.slc.cpg/sg59_16_cif.got.tgz:30314.got - 2010.04.16 16:29:54.
