data_PCOD8243597
_publ_section_title
;
Structure prediction by ZEFSAII (Michael W. Deem and Ramdas Pophale) SiO2 
 PCOD8243597
Probable space group: P M M N
;
_chemical_formula_sum "Si O2"
_cell_formula_units_Z 64
_cell_length_a 14.520742
_cell_length_b 9.041168
_cell_length_c 24.539024
_cell_angle_alpha 90.000000
_cell_angle_beta 90.000000
_cell_angle_gamma 90.000000
_cell_volume 3221.592709
_symmetry_space_group_name_H-M "P M M N"
_symmetry_group_IT_number 59
_space_group.IT_coordinate_system_code '2'
_symmetry_cell_setting 'orthorhombic'
loop_
_space_group_symop_operation_xyz
x,y,z
1/2-x,1/2-y,z
1/2+x,-y,-z
-x,1/2+y,-z
-x,-y,-z
1/2+x,1/2+y,-z
1/2-x,y,z
x,1/2-y,z
loop_
_atom_site_type_symbol
_atom_site_label
_atom_site_fract_x
_atom_site_fract_y
_atom_site_fract_z
Si Si1 0.852760 0.084091 0.616013
Si Si2 0.356278 0.422943 0.087442
Si Si3 0.975886 0.925121 0.132774
Si Si4 0.150355 0.085290 0.276613
Si Si5 0.648377 0.925538 0.034865
Si Si6 0.855091 0.425833 0.349354
Si Si7 0.993215 0.076910 0.442260
Si Si8 0.547380 0.080323 0.238588
O O1 0.750000 0.078798 0.591485
O O2 0.893584 0.250000 0.608945
O O3 0.851650 0.043454 0.679149
O O4 0.911160 0.959828 0.586190
O O5 0.250000 0.458437 0.100632
O O6 0.376470 0.250000 0.095431
O O7 0.420091 0.514139 0.128887
O O8 0.380660 0.475326 0.025851
O O9 0.977173 0.750000 0.136126
O O10 0.921799 0.986780 0.079946
O O11 0.921973 0.985800 0.186215
O O12 0.250000 0.075042 0.245516
O O13 0.141454 0.250000 0.303444
O O14 0.063431 0.062045 0.237862
O O15 0.750000 0.988158 0.048306
O O16 0.651368 0.750000 0.036627
O O17 0.750000 0.485800 0.351093
O O18 0.856792 0.250000 0.349113
O O19 0.909846 0.482035 0.403288
O O20 0.906272 0.482580 0.294283
O O21 0.982510 0.250000 0.451809
O O22 0.000000 0.000000 0.500000
O O23 0.577418 0.250000 0.230581
#
# Coordination Sequence:
#
# PCOD8243597 Si02
#       8
#     8   8   8   8   8   8   8   8
#     4  10  20  34  55  83 113 144 178 222 277 333
#     4   9  18  35  58  79 103 144 191 230 275 338
#     4  11  22  33  51  82 115 145 179 230 288 332
#     4   9  17  32  55  79 101 132 178 227 275 328
#     4   8  16  33  55  77 105 143 186 229 279 340
#     4   9  19  38  62  84 110 148 192 234 276 325
#     4  11  22  38  60  88 118 151 189 233 285 336
#     4  10  20  36  55  78 108 148 193 229 271 331
#
# _framework density 19.865950000000002
#
# number of rings (size 3 to 8) (size 9 to 14) (size 15 to 20)
#    0.000    2.375    1.250    2.250    0.000    3.000 
#    0.000    3.125    0.000    5.250    0.000    0.000 
#    0.000    0.000    0.000    0.000    0.000    0.000 
#
# Total GULP energy -793170.710413 kJ/mol
# GULP energy per Si atom -12393.292350 kJ/mol
# Density = 1.982073 g / cm^3
# Si number density = 19.865950 Si / 1000 Ang^3
#
#
#
# Elastic Constant Matrix: (Units=GPa)
#
#
# Indices 1 2 3 4 5 6 
#
# 1 96.5670 29.1576 46.1846 0.0000 0.0000 0.0000
# 2 29.1576 51.6342 34.4954 0.0000 0.0000 0.0000
# 3 46.1846 34.4954 117.4022 0.0000 0.0000 0.0000
# 4 0.0000 0.0000 0.0000 32.1987 0.0000 0.0000
# 5 0.0000 0.0000 0.0000 0.0000 15.2675 0.0000
# 6 0.0000 0.0000 0.0000 0.0000 0.0000 20.8943
#
#
#
# Elastic Compliance Matrix: (Units=1/GPa)
#
#
# Indices 1 2 3 4 5 6 
#
# 1 0.013785 -0.005178 -0.003901 0.000000 0.000000 0.000000
# 2 -0.005178 0.026042 -0.005615 0.000000 0.000000 0.000000
# 3 -0.003901 -0.005615 0.011702 0.000000 0.000000 0.000000
# 4 0.000000 0.000000 0.000000 0.031057 0.000000 0.000000
# 5 0.000000 0.000000 0.000000 0.000000 0.065499 0.000000
# 6 0.000000 0.000000 0.000000 0.000000 0.000000 0.047860
#
#
# Mechanical properties :
#
#
# Convention : Reuss Voigt Hill
#
# Bulk Modulus (GPa) = 45.16514 53.91986 49.54250
# Shear Modulus (GPa) = 21.48565 24.05647 22.77106
#
# Velocity S-wave (km/s) = 3.29223 3.48363 3.38928
# Velocity P-wave (km/s) = 6.10213 6.58648 6.34893
#
# Compressibility (1/GPa) = 0.02214097
#
# Stress axis : x y z
#
# Youngs Moduli (GPa) = 72.54363 38.39950 85.45352
#
# Poissons Ratio (x) = 0.19882 0.33339
# Poissons Ratio (y) = 0.37562 0.47981
# Poissons Ratio (z) = 0.28302 0.21561
#
# Static dielectric constant tensor:
#      x y z
#    x 4.375430 0.000000 0.000000 
#    y 0.000000 3.301250 0.000000 
#    z 0.000000 0.000000 4.136040 
# 
# 
# High freq. dielectric constant tensor:
#      x y z
#    x 1.777890 0.000000 0.000000 
#    y 0.000000 1.744700 0.000000 
#    z 0.000000 0.000000 1.770020 
# 
# From -- ./inp_files/32118.got.cif
#   From: 2010.03.12/outbox.cif.g09.slc.cpg/sg59_17_cif.got.tgz:32118.got - 2010.04.16 16:29:54.
