data_PCOD8243898
_publ_section_title
;
Structure prediction by ZEFSAII (Michael W. Deem and Ramdas Pophale) SiO2 
 PCOD8243898
Probable space group: P M M N
;
_chemical_formula_sum "Si O2"
_cell_formula_units_Z 56
_cell_length_a 8.927478
_cell_length_b 20.915540
_cell_length_c 14.706967
_cell_angle_alpha 90.000000
_cell_angle_beta 90.000000
_cell_angle_gamma 90.000000
_cell_volume 2746.129340
_symmetry_space_group_name_H-M "P M M N"
_symmetry_group_IT_number 59
_space_group.IT_coordinate_system_code '2'
_symmetry_cell_setting 'orthorhombic'
loop_
_space_group_symop_operation_xyz
x,y,z
1/2-x,1/2-y,z
1/2+x,-y,-z
-x,1/2+y,-z
-x,-y,-z
1/2+x,1/2+y,-z
1/2-x,y,z
x,1/2-y,z
loop_
_atom_site_type_symbol
_atom_site_label
_atom_site_fract_x
_atom_site_fract_y
_atom_site_fract_z
Si Si1 0.084598 0.750000 0.572874
Si Si2 0.073780 0.678081 0.901173
Si Si3 0.071141 0.387568 0.596165
Si Si4 0.927913 0.179250 0.893480
Si Si5 0.922901 0.067019 0.765674
Si Si6 0.579060 0.389887 0.401780
Si Si7 0.421368 0.250000 0.603895
Si Si8 0.578538 0.574501 0.774649
O O1 0.250000 0.750000 0.523714
O O2 0.072368 0.684790 0.630537
O O3 0.945803 0.750000 0.504450
O O4 0.250000 0.667491 0.896387
O O5 0.032857 0.750000 0.867946
O O6 0.999891 0.624822 0.839307
O O7 0.013975 0.668707 0.003937
O O8 0.250000 0.389259 0.584094
O O9 0.011852 0.318128 0.636269
O O10 0.015568 0.437139 0.671494
O O11 0.996252 0.402462 0.499467
O O12 0.750000 0.176737 0.894339
O O13 0.980553 0.250000 0.858324
O O14 0.992007 0.122228 0.830736
O O15 0.750000 0.081683 0.742865
O O16 0.938585 0.997731 0.814052
O O17 0.750000 0.414087 0.407354
O O18 0.491952 0.428575 0.325537
O O19 0.250000 0.250000 0.629368
O O20 0.750000 0.594908 0.765834
#
# Coordination Sequence:
#
# PCOD8243898 Si02
#       8
#     4   8   8   8   8   8   4   8
#     4   8  16  30  50  76  99 126 177 236 275 314
#     4   9  19  38  64  89 112 142 187 237 283 339
#     4  10  20  35  55  81 115 152 190 235 290 342
#     4   8  16  35  63  90 112 142 187 237 283 330
#     4  10  22  38  56  83 117 153 195 236 277 336
#     4  10  20  36  57  80 109 149 197 241 282 334
#     4   8  16  30  48  74 107 138 171 220 281 336
#     4  11  24  38  53  82 121 155 188 232 288 343
#
# _framework density 20.392340000000001
#
# number of rings (size 3 to 8) (size 9 to 14) (size 15 to 20)
#    0.000    2.571    0.000    2.143    2.000    3.714 
#    0.000    0.714    0.000    0.857    0.000    0.000 
#    0.000    0.000    0.000    0.000    0.000    0.000 
#
# Total GULP energy -693862.362282 kJ/mol
# GULP energy per Si atom -12390.399326 kJ/mol
# Density = 2.034593 g / cm^3
# Si number density = 20.392340 Si / 1000 Ang^3
#
#
#
# Elastic Constant Matrix: (Units=GPa)
#
#
# Indices 1 2 3 4 5 6 
#
# 1 53.6905 35.8675 36.2233 0.0000 0.0000 0.0000
# 2 35.8675 124.6135 65.3989 0.0000 0.0000 0.0000
# 3 36.2233 65.3989 102.6165 0.0000 0.0000 0.0000
# 4 0.0000 0.0000 0.0000 25.4218 0.0000 0.0000
# 5 0.0000 0.0000 0.0000 0.0000 14.7420 0.0000
# 6 0.0000 0.0000 0.0000 0.0000 0.0000 22.4558
#
#
#
# Elastic Compliance Matrix: (Units=1/GPa)
#
#
# Indices 1 2 3 4 5 6 
#
# 1 0.025685 -0.003959 -0.006544 0.000000 0.000000 0.000000
# 2 -0.003959 0.012668 -0.006676 0.000000 0.000000 0.000000
# 3 -0.006544 -0.006676 0.016310 0.000000 0.000000 0.000000
# 4 0.000000 0.000000 0.000000 0.039336 0.000000 0.000000
# 5 0.000000 0.000000 0.000000 0.000000 0.067833 0.000000
# 6 0.000000 0.000000 0.000000 0.000000 0.000000 0.044532
#
#
# Mechanical properties :
#
#
# Convention : Reuss Voigt Hill
#
# Bulk Modulus (GPa) = 49.24782 61.76666 55.50724
# Shear Modulus (GPa) = 20.20292 22.08597 21.14444
#
# Velocity S-wave (km/s) = 3.15097 3.29455 3.22356
# Velocity P-wave (km/s) = 6.11888 6.69529 6.41357
#
# Compressibility (1/GPa) = 0.02030547
#
# Stress axis : x y z
#
# Youngs Moduli (GPa) = 38.93377 78.93967 61.31319
#
# Poissons Ratio (x) = 0.31249 0.40122
# Poissons Ratio (y) = 0.15412 0.40933
# Poissons Ratio (z) = 0.25477 0.52701
#
# Static dielectric constant tensor:
#      x y z
#    x 3.486760 0.000000 0.000000 
#    y 0.000000 4.059890 0.000000 
#    z 0.000000 0.000000 3.515650 
# 
# 
# High freq. dielectric constant tensor:
#      x y z
#    x 1.777710 0.000000 0.000000 
#    y 0.000000 1.812850 0.000000 
#    z 0.000000 0.000000 1.775970 
# 
# From -- ./inp_files/21096.got.cif
#   From: 2010.03.12/outbox.cif.g09.slc.cpg/sg59_11_cif.got.tgz:21096.got - 2010.04.16 16:29:54.
