data_PCOD8243025
_publ_section_title
;
Structure prediction by ZEFSAII (Michael W. Deem and Ramdas Pophale) SiO2 
 PCOD8243025
Probable space group: P M M N
;
_chemical_formula_sum "Si O2"
_cell_formula_units_Z 64
_cell_length_a 30.761345
_cell_length_b 9.193451
_cell_length_c 11.678714
_cell_angle_alpha 90.000000
_cell_angle_beta 90.000000
_cell_angle_gamma 90.000000
_cell_volume 3302.774397
_symmetry_space_group_name_H-M "P M M N"
_symmetry_group_IT_number 59
_space_group.IT_coordinate_system_code '2'
_symmetry_cell_setting 'orthorhombic'
loop_
_space_group_symop_operation_xyz
x,y,z
1/2-x,1/2-y,z
1/2+x,-y,-z
-x,1/2+y,-z
-x,-y,-z
1/2+x,1/2+y,-z
1/2-x,y,z
x,1/2-y,z
loop_
_atom_site_type_symbol
_atom_site_label
_atom_site_fract_x
_atom_site_fract_y
_atom_site_fract_z
Si Si1 0.300640 0.087368 0.354933
Si Si2 0.562407 0.913758 0.719840
Si Si3 0.849499 0.589070 0.857445
Si Si4 0.700871 0.421608 0.418738
Si Si5 0.383641 0.589601 0.953029
Si Si6 0.527851 0.412131 0.912100
Si Si7 0.886375 0.078135 0.300994
Si Si8 0.547470 0.425478 0.498091
O O1 0.250000 0.100156 0.343129
O O2 0.321060 0.250000 0.371147
O O3 0.318466 0.015535 0.237738
O O4 0.313662 0.987262 0.460388
O O5 0.545678 0.750000 0.689087
O O6 0.603187 0.903350 0.802204
O O7 0.525904 0.001171 0.791849
O O8 0.573072 0.007769 0.606868
O O9 0.832603 0.750000 0.887118
O O10 0.847937 0.502918 0.977440
O O11 0.750000 0.474205 0.381971
O O12 0.700975 0.250000 0.432933
O O13 0.662933 0.473471 0.332322
O O14 0.363935 0.750000 0.932134
O O15 0.395043 0.520133 0.828454
O O16 0.424711 0.599522 0.034683
O O17 0.508931 0.250000 0.892220
O O18 0.500000 0.500000 0.000000
O O19 0.888664 0.250000 0.305963
O O20 0.924308 0.023136 0.387274
O O21 0.500000 0.500000 0.500000
O O22 0.543867 0.250000 0.506724
#
# Coordination Sequence:
#
# PCOD8243025 Si02
#       8
#     8   8   8   8   8   8   8   8
#     4   9  17  30  50  76 107 138 167 207 262 316
#     4  10  20  35  53  73 101 133 169 215 263 310
#     4   9  18  33  52  75 102 133 170 214 261 307
#     4   9  17  31  54  82 107 135 176 219 258 309
#     4   9  19  35  53  73  99 138 177 210 259 318
#     4  10  20  33  53  77 100 131 174 220 264 314
#     4   9  19  36  55  75 106 144 175 214 270 321
#     4  11  23  37  54  77 106 140 178 219 267 323
#
# _framework density 19.377648000000001
#
# number of rings (size 3 to 8) (size 9 to 14) (size 15 to 20)
#    0.000    2.500    0.000    1.875    1.750    1.500 
#    0.000    3.125    0.000    0.750    0.000    0.000 
#    0.000    0.000    0.000    0.000    0.000    0.000 
#
# Total GULP energy -793009.012023 kJ/mol
# GULP energy per Si atom -12390.765813 kJ/mol
# Density = 1.933354 g / cm^3
# Si number density = 19.377648 Si / 1000 Ang^3
#
#
#
# Elastic Constant Matrix: (Units=GPa)
#
#
# Indices 1 2 3 4 5 6 
#
# 1 40.2083 14.3698 15.9878 0.0000 0.0000 0.0000
# 2 14.3698 79.2325 32.4632 0.0000 0.0000 0.0000
# 3 15.9878 32.4632 104.9054 0.0000 0.0000 0.0000
# 4 0.0000 0.0000 0.0000 27.6579 0.0000 0.0000
# 5 0.0000 0.0000 0.0000 0.0000 29.9475 0.0000
# 6 0.0000 0.0000 0.0000 0.0000 0.0000 20.0075
#
#
#
# Elastic Compliance Matrix: (Units=1/GPa)
#
#
# Indices 1 2 3 4 5 6 
#
# 1 0.027406 -0.003732 -0.003022 0.000000 0.000000 0.000000
# 2 -0.003732 0.014962 -0.004061 0.000000 0.000000 0.000000
# 3 -0.003022 -0.004061 0.011250 0.000000 0.000000 0.000000
# 4 0.000000 0.000000 0.000000 0.036156 0.000000 0.000000
# 5 0.000000 0.000000 0.000000 0.000000 0.033392 0.000000
# 6 0.000000 0.000000 0.000000 0.000000 0.000000 0.049981
#
#
# Mechanical properties :
#
#
# Convention : Reuss Voigt Hill
#
# Bulk Modulus (GPa) = 31.26273 38.88754 35.07514
# Shear Modulus (GPa) = 24.33808 26.29094 25.31451
#
# Velocity S-wave (km/s) = 3.54784 3.68743 3.61830
# Velocity P-wave (km/s) = 5.74032 6.18395 5.96626
#
# Compressibility (1/GPa) = 0.03198696
#
# Stress axis : x y z
#
# Youngs Moduli (GPa) = 36.48852 66.83628 88.89160
#
# Poissons Ratio (x) = 0.24945 0.26861
# Poissons Ratio (y) = 0.13619 0.36101
# Poissons Ratio (z) = 0.11026 0.27143
#
# Static dielectric constant tensor:
#      x y z
#    x 3.406880 0.000000 0.000000 
#    y 0.000000 3.815890 0.000000 
#    z 0.000000 0.000000 3.824870 
# 
# 
# High freq. dielectric constant tensor:
#      x y z
#    x 1.736930 0.000000 0.000000 
#    y 0.000000 1.743580 0.000000 
#    z 0.000000 0.000000 1.757800 
# 
# From -- ./inp_files/19319.got.cif
#   From: 2010.03.12/outbox.cif.g09.slc.cpg/sg59_10_cif.got.tgz:19319.got - 2010.04.16 16:29:54.
