data_PCOD8243051
_publ_section_title
;
Structure prediction by ZEFSAII (Michael W. Deem and Ramdas Pophale) SiO2 
 PCOD8243051
Probable space group: P M M N
;
_chemical_formula_sum "Si O2"
_cell_formula_units_Z 64
_cell_length_a 9.092149
_cell_length_b 17.857595
_cell_length_c 21.489226
_cell_angle_alpha 90.000000
_cell_angle_beta 90.000000
_cell_angle_gamma 90.000000
_cell_volume 3489.074853
_symmetry_space_group_name_H-M "P M M N"
_symmetry_group_IT_number 59
_space_group.IT_coordinate_system_code '2'
_symmetry_cell_setting 'orthorhombic'
loop_
_space_group_symop_operation_xyz
x,y,z
1/2-x,1/2-y,z
1/2+x,-y,-z
-x,1/2+y,-z
-x,-y,-z
1/2+x,1/2+y,-z
1/2-x,y,z
x,1/2-y,z
loop_
_atom_site_type_symbol
_atom_site_label
_atom_site_fract_x
_atom_site_fract_y
_atom_site_fract_z
Si Si1 0.577270 0.084797 0.371031
Si Si2 0.922441 0.914469 0.390180
Si Si3 0.423495 0.664815 0.503238
Si Si4 0.418321 0.666593 0.866817
Si Si5 0.919770 0.837820 0.262920
Si Si6 0.921373 0.049823 0.821178
Si Si7 0.420292 0.396924 0.246392
Si Si8 0.576758 0.481227 0.064109
O O1 0.750000 0.090059 0.359215
O O2 0.526936 0.132541 0.430364
O O3 0.497941 0.119988 0.311499
O O4 0.526772 0.999489 0.380372
O O5 0.750000 0.908418 0.402665
O O6 0.970511 0.866326 0.330469
O O7 0.003987 0.883821 0.449966
O O8 0.250000 0.658651 0.495369
O O9 0.478460 0.750000 0.498293
O O10 0.250000 0.654127 0.846418
O O11 0.443042 0.750000 0.894698
O O12 0.516530 0.658443 0.805586
O O13 0.461114 0.605137 0.918742
O O14 0.750000 0.859623 0.251262
O O15 0.946236 0.750000 0.259646
O O16 0.019474 0.874530 0.209780
O O17 0.750000 0.058166 0.837605
O O18 0.950588 0.982486 0.773244
O O19 0.011148 0.036476 0.884209
O O20 0.250000 0.379360 0.253756
O O21 0.750000 0.495132 0.058557
O O22 0.500000 0.500000 0.000000
#
# Coordination Sequence:
#
# PCOD8243051 Si02
#       8
#     8   8   8   8   8   8   8   8
#     4  10  20  35  55  76 102 140 182 222 269 330
#     4  10  20  35  56  77 100 136 182 227 273 329
#     4  10  22  37  51  72 103 137 175 223 277 331
#     4   9  19  36  58  83 112 148 187 225 268 320
#     4  10  20  34  54  80 108 139 179 227 279 331
#     4  10  20  35  55  80 111 144 180 221 267 324
#     4  10  20  33  53  82 111 139 175 222 272 322
#     4  10  20  36  60  86 114 150 190 229 270 319
#
# _framework density 18.342970000000001
#
# number of rings (size 3 to 8) (size 9 to 14) (size 15 to 20)
#    0.000    2.125    1.250    1.875    0.000    4.750 
#    0.000    1.875    0.000    2.250    0.000    0.000 
#    0.000    0.000    0.000    0.000    0.000    0.000 
#
# Total GULP energy -793848.555633 kJ/mol
# GULP energy per Si atom -12403.883682 kJ/mol
# Density = 1.830122 g / cm^3
# Si number density = 18.342970 Si / 1000 Ang^3
#
#
#
# Elastic Constant Matrix: (Units=GPa)
#
#
# Indices 1 2 3 4 5 6 
#
# 1 70.2985 32.4908 59.5245 0.0000 0.0000 0.0000
# 2 32.4908 75.6608 42.1518 0.0000 0.0000 0.0000
# 3 59.5245 42.1518 137.7735 0.0000 0.0000 0.0000
# 4 0.0000 0.0000 0.0000 21.4756 0.0000 0.0000
# 5 0.0000 0.0000 0.0000 0.0000 38.1522 0.0000
# 6 0.0000 0.0000 0.0000 0.0000 0.0000 23.7878
#
#
#
# Elastic Compliance Matrix: (Units=1/GPa)
#
#
# Indices 1 2 3 4 5 6 
#
# 1 0.024194 -0.005504 -0.008769 0.000000 0.000000 0.000000
# 2 -0.005504 0.017185 -0.002880 0.000000 0.000000 0.000000
# 3 -0.008769 -0.002880 0.011928 0.000000 0.000000 0.000000
# 4 0.000000 0.000000 0.000000 0.046564 0.000000 0.000000
# 5 0.000000 0.000000 0.000000 0.000000 0.026211 0.000000
# 6 0.000000 0.000000 0.000000 0.000000 0.000000 0.042038
#
#
# Mechanical properties :
#
#
# Convention : Reuss Voigt Hill
#
# Bulk Modulus (GPa) = 52.62832 61.34079 56.98455
# Shear Modulus (GPa) = 23.95100 26.65417 25.30259
#
# Velocity S-wave (km/s) = 3.61741 3.81609 3.71808
# Velocity P-wave (km/s) = 6.79714 7.27533 7.04029
#
# Compressibility (1/GPa) = 0.01900118
#
# Stress axis : x y z
#
# Youngs Moduli (GPa) = 41.33255 58.19084 83.83728
#
# Poissons Ratio (x) = 0.32030 0.73516
# Poissons Ratio (y) = 0.22751 0.24142
# Poissons Ratio (z) = 0.36244 0.16757
#
# Static dielectric constant tensor:
#      x y z
#    x 3.350820 0.000000 0.000000 
#    y 0.000000 3.419940 0.000000 
#    z 0.000000 0.000000 3.319130 
# 
# 
# High freq. dielectric constant tensor:
#      x y z
#    x 1.711400 0.000000 0.000000 
#    y 0.000000 1.711530 0.000000 
#    z 0.000000 0.000000 1.708630 
# 
# From -- ./inp_files/29384.got.cif
#   From: 2010.03.12/outbox.cif.g09.slc.cpg/sg59_15_cif.got.tgz:29384.got - 2010.04.16 16:29:54.
