data_PCOD8243453
_publ_section_title
;
Structure prediction by ZEFSAII (Michael W. Deem and Ramdas Pophale) SiO2 
 PCOD8243453
Probable space group: P M M N
;
_chemical_formula_sum "Si O2"
_cell_formula_units_Z 64
_cell_length_a 8.959681
_cell_length_b 14.477752
_cell_length_c 25.180620
_cell_angle_alpha 90.000000
_cell_angle_beta 90.000000
_cell_angle_gamma 90.000000
_cell_volume 3266.330299
_symmetry_space_group_name_H-M "P M M N"
_symmetry_group_IT_number 59
_space_group.IT_coordinate_system_code '2'
_symmetry_cell_setting 'orthorhombic'
loop_
_space_group_symop_operation_xyz
x,y,z
1/2-x,1/2-y,z
1/2+x,-y,-z
-x,1/2+y,-z
-x,-y,-z
1/2+x,1/2+y,-z
1/2-x,y,z
x,1/2-y,z
loop_
_atom_site_type_symbol
_atom_site_label
_atom_site_fract_x
_atom_site_fract_y
_atom_site_fract_z
Si Si1 0.922421 0.090011 0.979018
Si Si2 0.420047 0.147376 0.376988
Si Si3 0.926493 0.095890 0.484360
Si Si4 0.577263 0.348545 0.091436
Si Si5 0.427643 0.050443 0.877475
Si Si6 0.421515 0.960860 0.329080
Si Si7 0.917806 0.849812 0.417251
Si Si8 0.425269 0.858353 0.223080
O O1 0.750000 0.072957 0.965446
O O2 0.005977 0.116383 0.924170
O O3 0.941820 0.161335 0.027399
O O4 0.000000 0.000000 0.000000
O O5 0.250000 0.139164 0.397698
O O6 0.451394 0.250000 0.353669
O O7 0.528321 0.129721 0.426201
O O8 0.445581 0.072236 0.329703
O O9 0.750000 0.089839 0.487207
O O10 0.988001 0.164963 0.528985
O O11 0.000000 0.000000 0.500000
O O12 0.750000 0.352277 0.106255
O O13 0.510074 0.250000 0.113968
O O14 0.509176 0.443995 0.115830
O O15 0.250000 0.052190 0.881267
O O16 0.480830 0.094375 0.823022
O O17 0.250000 0.933201 0.337393
O O18 0.512264 0.925281 0.379161
O O19 0.479070 0.913505 0.275320
O O20 0.750000 0.882431 0.431026
O O21 0.917005 0.750000 0.388431
O O22 0.250000 0.872216 0.212360
O O23 0.464881 0.750000 0.228580
#
# Coordination Sequence:
#
# PCOD8243453 Si02
#       8
#     8   8   8   8   8   8   8   8
#     4   9  16  28  49  76 109 149 189 229 272 324
#     4  10  21  38  60  86 116 149 184 226 279 336
#     4  12  23  36  56  83 116 153 190 228 272 326
#     4   8  15  29  50  77 109 146 185 221 265 324
#     4  10  20  34  54  80 110 146 187 235 287 336
#     4  10  21  39  62  83 107 143 185 230 277 333
#     4  11  23  37  56  84 116 148 182 225 277 330
#     4  10  22  40  60  81 107 142 185 232 285 343
#
# _framework density 19.593852999999999
#
# number of rings (size 3 to 8) (size 9 to 14) (size 15 to 20)
#    0.000    2.000    1.250    3.750    0.000    4.500 
#    0.000    1.875    0.000   13.875    0.000    0.000 
#    0.000    0.000    0.000    0.000    0.000    0.000 
#
# Total GULP energy -792938.202611 kJ/mol
# GULP energy per Si atom -12389.659416 kJ/mol
# Density = 1.954926 g / cm^3
# Si number density = 19.593853 Si / 1000 Ang^3
#
#
#
# Elastic Constant Matrix: (Units=GPa)
#
#
# Indices 1 2 3 4 5 6 
#
# 1 91.1519 36.5585 41.9867 0.0000 0.0000 0.0000
# 2 36.5585 134.4641 52.5083 0.0000 0.0000 0.0000
# 3 41.9867 52.5083 105.1810 0.0000 0.0000 0.0000
# 4 0.0000 0.0000 0.0000 18.8987 0.0000 0.0000
# 5 0.0000 0.0000 0.0000 0.0000 29.9339 0.0000
# 6 0.0000 0.0000 0.0000 0.0000 0.0000 20.1758
#
#
#
# Elastic Compliance Matrix: (Units=1/GPa)
#
#
# Indices 1 2 3 4 5 6 
#
# 1 0.013861 -0.001997 -0.004536 0.000000 0.000000 0.000000
# 2 -0.001997 0.009526 -0.003958 0.000000 0.000000 0.000000
# 3 -0.004536 -0.003958 0.013294 0.000000 0.000000 0.000000
# 4 0.000000 0.000000 0.000000 0.052914 0.000000 0.000000
# 5 0.000000 0.000000 0.000000 0.000000 0.033407 0.000000
# 6 0.000000 0.000000 0.000000 0.000000 0.000000 0.049564
#
#
# Mechanical properties :
#
#
# Convention : Reuss Voigt Hill
#
# Bulk Modulus (GPa) = 63.70241 65.87822 64.79031
# Shear Modulus (GPa) = 25.15323 27.11790 26.13557
#
# Velocity S-wave (km/s) = 3.58681 3.72425 3.65617
# Velocity P-wave (km/s) = 7.05235 7.22414 7.13876
#
# Compressibility (1/GPa) = 0.01569799
#
# Stress axis : x y z
#
# Youngs Moduli (GPa) = 72.14389 104.98049 75.22130
#
# Poissons Ratio (x) = 0.20967 0.34121
# Poissons Ratio (y) = 0.14409 0.29773
# Poissons Ratio (z) = 0.32725 0.41552
#
# Static dielectric constant tensor:
#      x y z
#    x 3.670770 0.000000 0.000000 
#    y 0.000000 13.663980 0.000000 
#    z 0.000000 0.000000 3.779160 
# 
# 
# High freq. dielectric constant tensor:
#      x y z
#    x 1.753530 0.000000 0.000000 
#    y 0.000000 1.776510 0.000000 
#    z 0.000000 0.000000 1.739260 
# 
# From -- ./inp_files/31633.got.cif
#   From: 2010.03.12/outbox.cif.g09.slc.cpg/sg59_16_cif.got.tgz:31633.got - 2010.04.16 16:29:54.
