data_PCOD8243340
_publ_section_title
;
Structure prediction by ZEFSAII (Michael W. Deem and Ramdas Pophale) SiO2 
 PCOD8243340
Probable space group: P M M N
;
_chemical_formula_sum "Si O2"
_cell_formula_units_Z 64
_cell_length_a 8.760370
_cell_length_b 18.924311
_cell_length_c 20.129756
_cell_angle_alpha 90.000000
_cell_angle_beta 90.000000
_cell_angle_gamma 90.000000
_cell_volume 3337.190791
_symmetry_space_group_name_H-M "P M M N"
_symmetry_group_IT_number 59
_space_group.IT_coordinate_system_code '2'
_symmetry_cell_setting 'orthorhombic'
loop_
_space_group_symop_operation_xyz
x,y,z
1/2-x,1/2-y,z
1/2+x,-y,-z
-x,1/2+y,-z
-x,-y,-z
1/2+x,1/2+y,-z
1/2-x,y,z
x,1/2-y,z
loop_
_atom_site_type_symbol
_atom_site_label
_atom_site_fract_x
_atom_site_fract_y
_atom_site_fract_z
Si Si1 0.431248 0.928158 0.318334
Si Si2 0.070783 0.426724 0.913864
Si Si3 0.931768 0.915299 0.700645
Si Si4 0.572250 0.570714 0.935132
Si Si5 0.931390 0.330932 0.800690
Si Si6 0.069744 0.570616 0.468497
Si Si7 0.430026 0.172603 0.177864
Si Si8 0.928976 0.668259 0.571630
O O1 0.250000 0.927229 0.316474
O O2 0.493791 0.869654 0.266248
O O3 0.488874 0.915122 0.393399
O O4 0.494126 0.004917 0.296721
O O5 0.250000 0.419357 0.903145
O O6 0.018012 0.506688 0.899990
O O7 0.990121 0.370732 0.866083
O O8 0.020954 0.411584 0.990002
O O9 0.750000 0.915161 0.702275
O O10 0.001585 0.875023 0.763929
O O11 0.988601 0.875579 0.634767
O O12 0.750000 0.550445 0.932189
O O13 0.532509 0.640289 0.893699
O O14 0.750000 0.333041 0.802203
O O15 0.990910 0.250000 0.800518
O O16 0.250000 0.560715 0.469489
O O17 0.000000 0.500000 0.500000
O O18 0.019677 0.640000 0.508148
O O19 0.250000 0.177807 0.189033
O O20 0.504843 0.250000 0.180849
O O21 0.750000 0.656512 0.559904
O O22 0.968535 0.750000 0.582783
#
# Coordination Sequence:
#
# PCOD8243340 Si02
#       8
#     8   8   8   8   8   8   8   8
#     4   9  18  33  56  79 101 136 182 227 265 315
#     4  10  20  34  54  79 107 142 181 225 277 328
#     4   9  15  27  49  76 103 133 172 216 261 307
#     4   9  18  33  54  78 107 142 182 226 267 317
#     4  10  21  37  57  81 108 141 184 232 279 328
#     4  11  21  36  58  82 109 141 180 225 275 332
#     4   9  16  26  46  77 105 131 170 216 256 300
#     4  10  20  34  53  79 111 144 178 220 273 328
#
# _framework density 19.177807999999999
#
# number of rings (size 3 to 8) (size 9 to 14) (size 15 to 20)
#    0.000    2.375    1.250    1.875    0.000    5.500 
#    0.000    3.750    0.000    0.375    0.000    0.000 
#    0.000    0.000    0.000    0.000    0.000    0.000 
#
# Total GULP energy -793476.290109 kJ/mol
# GULP energy per Si atom -12398.067033 kJ/mol
# Density = 1.913416 g / cm^3
# Si number density = 19.177808 Si / 1000 Ang^3
#
#
#
# Elastic Constant Matrix: (Units=GPa)
#
#
# Indices 1 2 3 4 5 6 
#
# 1 24.2364 21.0524 22.1757 0.0000 0.0000 0.0000
# 2 21.0524 154.1347 88.2776 0.0000 0.0000 0.0000
# 3 22.1757 88.2776 144.6279 0.0000 0.0000 0.0000
# 4 0.0000 0.0000 0.0000 34.9245 0.0000 0.0000
# 5 0.0000 0.0000 0.0000 0.0000 24.9039 0.0000
# 6 0.0000 0.0000 0.0000 0.0000 0.0000 21.2622
#
#
#
# Elastic Compliance Matrix: (Units=1/GPa)
#
#
# Indices 1 2 3 4 5 6 
#
# 1 0.049328 -0.003699 -0.005306 0.000000 0.000000 0.000000
# 2 -0.003699 0.010252 -0.005691 0.000000 0.000000 0.000000
# 3 -0.005306 -0.005691 0.011201 0.000000 0.000000 0.000000
# 4 0.000000 0.000000 0.000000 0.028633 0.000000 0.000000
# 5 0.000000 0.000000 0.000000 0.000000 0.040154 0.000000
# 6 0.000000 0.000000 0.000000 0.000000 0.000000 0.047032
#
#
# Mechanical properties :
#
#
# Convention : Reuss Voigt Hill
#
# Bulk Modulus (GPa) = 24.15980 65.11226 44.63603
# Shear Modulus (GPa) = 21.75923 28.98433 25.37178
#
# Velocity S-wave (km/s) = 3.37204 3.89182 3.64122
# Velocity P-wave (km/s) = 5.27125 7.36347 6.40338
#
# Compressibility (1/GPa) = 0.04139107
#
# Stress axis : x y z
#
# Youngs Moduli (GPa) = 20.27259 97.54023 89.27567
#
# Poissons Ratio (x) = 0.36076 0.47368
# Poissons Ratio (y) = 0.07498 0.50803
# Poissons Ratio (z) = 0.10756 0.55506
#
# Static dielectric constant tensor:
#      x y z
#    x 3.097390 0.000000 0.000000 
#    y 0.000000 3.696850 0.000000 
#    z 0.000000 0.000000 3.749880 
# 
# 
# High freq. dielectric constant tensor:
#      x y z
#    x 1.699940 0.000000 0.000000 
#    y 0.000000 1.751550 0.000000 
#    z 0.000000 0.000000 1.760840 
# 
# From -- ./inp_files/29548.got.cif
#   From: 2010.03.12/outbox.cif.g09.slc.cpg/sg59_15_cif.got.tgz:29548.got - 2010.04.16 16:29:54.
