data_PCOD8243457
_publ_section_title
;
Structure prediction by ZEFSAII (Michael W. Deem and Ramdas Pophale) SiO2 
 PCOD8243457
Probable space group: P M M N
;
_chemical_formula_sum "Si O2"
_cell_formula_units_Z 40
_cell_length_a 8.690682
_cell_length_b 10.139095
_cell_length_c 24.363844
_cell_angle_alpha 90.000000
_cell_angle_beta 90.000000
_cell_angle_gamma 90.000000
_cell_volume 2146.835961
_symmetry_space_group_name_H-M "P M M N"
_symmetry_group_IT_number 59
_space_group.IT_coordinate_system_code '2'
_symmetry_cell_setting 'orthorhombic'
loop_
_space_group_symop_operation_xyz
x,y,z
1/2-x,1/2-y,z
1/2+x,-y,-z
-x,1/2+y,-z
-x,-y,-z
1/2+x,1/2+y,-z
1/2-x,y,z
x,1/2-y,z
loop_
_atom_site_type_symbol
_atom_site_label
_atom_site_fract_x
_atom_site_fract_y
_atom_site_fract_z
Si Si1 0.930696 0.488423 0.616269
Si Si2 0.922265 0.593734 0.155452
Si Si3 0.072027 0.899954 0.264752
Si Si4 0.430193 0.250000 0.551600
Si Si5 0.430797 0.599824 0.043498
Si Si6 0.432425 0.750000 0.566761
O O1 0.750000 0.465741 0.604162
O O2 0.964222 0.484690 0.681239
O O3 0.030183 0.378132 0.586415
O O4 0.987074 0.626707 0.594545
O O5 0.750000 0.542353 0.145839
O O6 0.930867 0.750000 0.160567
O O7 0.984542 0.535024 0.212878
O O8 0.023583 0.547486 0.103860
O O9 0.250000 0.902720 0.249494
O O10 0.018125 0.750000 0.276250
O O11 0.250000 0.250000 0.536264
O O12 0.533711 0.250000 0.497522
O O13 0.250000 0.597188 0.037673
O O14 0.492735 0.750000 0.034047
O O15 0.500000 0.500000 0.000000
O O16 0.250000 0.750000 0.576786
#
# Coordination Sequence:
#
# PCOD8243457 Si02
#       6
#     8   8   8   4   8   4
#     4  11  22  40  62  86 114 149 188 231 281 337
#     4   9  17  29  49  79 111 143 181 227 272 319
#     4   9  17  32  55  82 110 141 180 228 275 324
#     4  12  24  40  62  88 114 146 187 234 279 332
#     4  10  20  34  54  80 111 147 185 227 275 328
#     4  12  26  42  58  82 116 152 187 230 283 340
#
# _framework density 18.632069999999999
#
# number of rings (size 3 to 8) (size 9 to 14) (size 15 to 20)
#    0.000    1.800    1.000    4.200    0.000    5.200 
#    0.000    0.000    2.200    0.000    0.000    0.000 
#    0.000    0.000    0.000    0.000    0.000    0.000 
#
# Total GULP energy -496025.781141 kJ/mol
# GULP energy per Si atom -12400.644529 kJ/mol
# Density = 1.858966 g / cm^3
# Si number density = 18.632070 Si / 1000 Ang^3
#
#
#
# Elastic Constant Matrix: (Units=GPa)
#
#
# Indices 1 2 3 4 5 6 
#
# 1 69.1360 19.1041 37.2514 0.0000 0.0000 0.0000
# 2 19.1041 81.7090 44.5494 0.0000 0.0000 0.0000
# 3 37.2514 44.5494 138.6587 0.0000 0.0000 0.0000
# 4 0.0000 0.0000 0.0000 17.0647 0.0000 0.0000
# 5 0.0000 0.0000 0.0000 0.0000 39.1716 0.0000
# 6 0.0000 0.0000 0.0000 0.0000 0.0000 22.8240
#
#
#
# Elastic Compliance Matrix: (Units=1/GPa)
#
#
# Indices 1 2 3 4 5 6 
#
# 1 0.017131 -0.001814 -0.004020 0.000000 0.000000 0.000000
# 2 -0.001814 0.015030 -0.004342 0.000000 0.000000 0.000000
# 3 -0.004020 -0.004342 0.009687 0.000000 0.000000 0.000000
# 4 0.000000 0.000000 0.000000 0.058600 0.000000 0.000000
# 5 0.000000 0.000000 0.000000 0.000000 0.025529 0.000000
# 6 0.000000 0.000000 0.000000 0.000000 0.000000 0.043814
#
#
# Mechanical properties :
#
#
# Convention : Reuss Voigt Hill
#
# Bulk Modulus (GPa) = 46.51666 54.59041 50.55353
# Shear Modulus (GPa) = 25.34126 28.38530 26.86328
#
# Velocity S-wave (km/s) = 3.69194 3.90739 3.80119
# Velocity P-wave (km/s) = 6.57221 7.05122 6.81593
#
# Compressibility (1/GPa) = 0.02149768
#
# Stress axis : x y z
#
# Youngs Moduli (GPa) = 58.37272 66.53464 103.23375
#
# Poissons Ratio (x) = 0.12068 0.41496
# Poissons Ratio (y) = 0.10588 0.44820
# Poissons Ratio (z) = 0.23464 0.28887
#
# Static dielectric constant tensor:
#      x y z
#    x 3.540230 0.000000 0.000000 
#    y 0.000000 3.186420 0.000000 
#    z 0.000000 0.000000 3.661380 
# 
# 
# High freq. dielectric constant tensor:
#      x y z
#    x 1.734010 0.000000 0.000000 
#    y 0.000000 1.687870 0.000000 
#    z 0.000000 0.000000 1.740180 
# 
# From -- ./inp_files/32412.got.cif
#   From: 2010.03.12/outbox.cif.g09.slc.cpg/sg59_17_cif.got.tgz:32412.got - 2010.04.16 16:29:54.
