data_PCOD8243825
_publ_section_title
;
Structure prediction by ZEFSAII (Michael W. Deem and Ramdas Pophale) SiO2 
 PCOD8243825
Probable space group: P M M N
;
_chemical_formula_sum "Si O2"
_cell_formula_units_Z 48
_cell_length_a 8.933395
_cell_length_b 15.799842
_cell_length_c 17.374737
_cell_angle_alpha 90.000000
_cell_angle_beta 90.000000
_cell_angle_gamma 90.000000
_cell_volume 2452.378617
_symmetry_space_group_name_H-M "P M M N"
_symmetry_group_IT_number 59
_space_group.IT_coordinate_system_code '2'
_symmetry_cell_setting 'orthorhombic'
loop_
_space_group_symop_operation_xyz
x,y,z
1/2-x,1/2-y,z
1/2+x,-y,-z
-x,1/2+y,-z
-x,-y,-z
1/2+x,1/2+y,-z
1/2-x,y,z
x,1/2-y,z
loop_
_atom_site_type_symbol
_atom_site_label
_atom_site_fract_x
_atom_site_fract_y
_atom_site_fract_z
Si Si1 0.425782 0.389661 0.661331
Si Si2 0.427273 0.750000 0.237062
Si Si3 0.427105 0.585321 0.970238
Si Si4 0.423716 0.069458 0.331778
Si Si5 0.427555 0.750000 0.061900
Si Si6 0.922045 0.911659 0.502976
Si Si7 0.576236 0.652966 0.825947
O O1 0.250000 0.379407 0.677660
O O2 0.514255 0.333795 0.721945
O O3 0.473188 0.486762 0.672402
O O4 0.468944 0.358065 0.573376
O O5 0.250000 0.750000 0.239388
O O6 0.486276 0.750000 0.149382
O O7 0.250000 0.576990 0.976021
O O8 0.475681 0.596445 0.881920
O O9 0.500000 0.500000 0.000000
O O10 0.487635 0.665514 0.019480
O O11 0.250000 0.040946 0.328681
O O12 0.453595 0.124704 0.410900
O O13 0.465084 0.130005 0.261464
O O14 0.250000 0.750000 0.058827
O O15 0.750000 0.931587 0.491648
O O16 0.000000 0.000000 0.500000
O O17 0.750000 0.635102 0.843213
O O18 0.534281 0.750000 0.839307
#
# Coordination Sequence:
#
# PCOD8243825 Si02
#       7
#     8   4   8   8   4   8   8
#     4  10  20  35  54  83 115 146 188 241 287 327
#     4  11  23  39  57  78 109 152 190 229 281 339
#     4  11  23  42  65  90 116 151 192 237 296 354
#     4   9  18  34  57  83 111 152 194 228 274 340
#     4   9  22  43  63  82 113 150 190 235 283 347
#     4   8  15  30  52  77 107 145 185 228 276 325
#     4  10  21  38  59  87 119 149 189 236 280 336
#
# _framework density 19.572832999999999
#
# number of rings (size 3 to 8) (size 9 to 14) (size 15 to 20)
#    0.000    2.333    0.833    1.250    2.333    1.333 
#    1.500    2.500    0.000    0.000    0.000    0.000 
#    0.000    0.000    0.000    0.000    0.000    0.000 
#
# Total GULP energy -594789.077366 kJ/mol
# GULP energy per Si atom -12391.439112 kJ/mol
# Density = 1.952828 g / cm^3
# Si number density = 19.572833 Si / 1000 Ang^3
#
#
#
# Elastic Constant Matrix: (Units=GPa)
#
#
# Indices 1 2 3 4 5 6 
#
# 1 54.2950 29.1781 41.2390 0.0000 0.0000 0.0000
# 2 29.1781 88.7141 49.5298 0.0000 0.0000 0.0000
# 3 41.2390 49.5298 164.4120 0.0000 0.0000 0.0000
# 4 0.0000 0.0000 0.0000 30.7498 0.0000 0.0000
# 5 0.0000 0.0000 0.0000 0.0000 29.7512 0.0000
# 6 0.0000 0.0000 0.0000 0.0000 0.0000 23.5920
#
#
#
# Elastic Compliance Matrix: (Units=1/GPa)
#
#
# Indices 1 2 3 4 5 6 
#
# 1 0.024908 -0.005655 -0.004544 0.000000 0.000000 0.000000
# 2 -0.005655 0.014835 -0.003051 0.000000 0.000000 0.000000
# 3 -0.004544 -0.003051 0.008141 0.000000 0.000000 0.000000
# 4 0.000000 0.000000 0.000000 0.032520 0.000000 0.000000
# 5 0.000000 0.000000 0.000000 0.000000 0.033612 0.000000
# 6 0.000000 0.000000 0.000000 0.000000 0.000000 0.042387
#
#
# Mechanical properties :
#
#
# Convention : Reuss Voigt Hill
#
# Bulk Modulus (GPa) = 46.76238 60.81277 53.78757
# Shear Modulus (GPa) = 26.31116 29.31689 27.81402
#
# Velocity S-wave (km/s) = 3.67041 3.87439 3.77377
# Velocity P-wave (km/s) = 6.47347 7.15206 6.82121
#
# Compressibility (1/GPa) = 0.02138471
#
# Stress axis : x y z
#
# Youngs Moduli (GPa) = 40.14704 67.40599 122.83388
#
# Poissons Ratio (x) = 0.38121 0.55816
# Poissons Ratio (y) = 0.22705 0.37473
# Poissons Ratio (z) = 0.18243 0.20564
#
# Static dielectric constant tensor:
#      x y z
#    x 3.449570 0.000000 0.000000 
#    y 0.000000 3.346750 0.000000 
#    z 0.000000 0.000000 4.228940 
# 
# 
# High freq. dielectric constant tensor:
#      x y z
#    x 1.753280 0.000000 0.000000 
#    y 0.000000 1.740430 0.000000 
#    z 0.000000 0.000000 1.788700 
# 
# From -- ./inp_files/25555.got.cif
#   From: 2010.03.12/outbox.cif.g09.slc.cpg/sg59_13_cif.got.tgz:25555.got - 2010.04.16 16:29:54.
