data_PCOD8243678
_publ_section_title
;
Structure prediction by ZEFSAII (Michael W. Deem and Ramdas Pophale) SiO2 
 PCOD8243678
Probable space group: P M M N
;
_chemical_formula_sum "Si O2"
_cell_formula_units_Z 64
_cell_length_a 9.099792
_cell_length_b 15.345777
_cell_length_c 23.790493
_cell_angle_alpha 90.000000
_cell_angle_beta 90.000000
_cell_angle_gamma 90.000000
_cell_volume 3322.184825
_symmetry_space_group_name_H-M "P M M N"
_symmetry_group_IT_number 59
_space_group.IT_coordinate_system_code '2'
_symmetry_cell_setting 'orthorhombic'
loop_
_space_group_symop_operation_xyz
x,y,z
1/2-x,1/2-y,z
1/2+x,-y,-z
-x,1/2+y,-z
-x,-y,-z
1/2+x,1/2+y,-z
1/2-x,y,z
x,1/2-y,z
loop_
_atom_site_type_symbol
_atom_site_label
_atom_site_fract_x
_atom_site_fract_y
_atom_site_fract_z
Si Si1 0.075531 0.153752 0.557907
Si Si2 0.919830 0.850781 0.569086
Si Si3 0.916837 0.652565 0.833628
Si Si4 0.579660 0.399364 0.057204
Si Si5 0.920251 0.602802 0.054148
Si Si6 0.575228 0.497985 0.364191
Si Si7 0.916311 0.346762 0.837703
Si Si8 0.577408 0.002778 0.753862
O O1 0.250000 0.155773 0.559071
O O2 0.016271 0.250000 0.575851
O O3 0.024578 0.132423 0.494465
O O4 0.014123 0.079643 0.599389
O O5 0.750000 0.877812 0.575956
O O6 0.941576 0.750000 0.585516
O O7 0.017589 0.907817 0.610605
O O8 0.750000 0.629848 0.851595
O O9 0.928328 0.750000 0.808444
O O10 0.968889 0.585678 0.785792
O O11 0.017823 0.648045 0.888244
O O12 0.750000 0.377320 0.051506
O O13 0.548377 0.501336 0.063560
O O14 0.499795 0.362658 0.001863
O O15 0.750000 0.624430 0.047784
O O16 0.982647 0.652904 0.107565
O O17 0.750000 0.496119 0.363581
O O18 0.516588 0.509610 0.301891
O O19 0.750000 0.370628 0.855796
O O20 0.924753 0.250000 0.811166
O O21 0.971469 0.415272 0.791607
O O22 0.750000 0.004275 0.739420
#
# Coordination Sequence:
#
# PCOD8243678 Si02
#       8
#     8   8   8   8   8   8   8   8
#     4   8  16  33  56  83 115 150 186 224 271 330
#     4   9  18  35  59  83 111 150 190 225 270 331
#     4  10  21  38  60  81 102 137 184 229 275 326
#     4  10  20  34  56  84 113 143 175 217 274 332
#     4  10  20  34  56  84 113 144 178 218 270 332
#     4  11  22  34  55  85 115 146 185 233 280 323
#     4  10  21  38  60  82 106 141 184 230 278 323
#     4  10  22  40  57  76 109 148 188 230 271 324
#
# _framework density 19.264429
#
# number of rings (size 3 to 8) (size 9 to 14) (size 15 to 20)
#    0.000    2.250    1.250    2.250    0.000    4.250 
#    0.000    1.875    0.000    2.625    0.000    0.000 
#    0.000    0.000    0.000    0.000    0.000    0.000 
#
# Total GULP energy -793730.631617 kJ/mol
# GULP energy per Si atom -12402.041119 kJ/mol
# Density = 1.922058 g / cm^3
# Si number density = 19.264429 Si / 1000 Ang^3
#
#
#
# Elastic Constant Matrix: (Units=GPa)
#
#
# Indices 1 2 3 4 5 6 
#
# 1 69.1574 38.3195 46.2534 0.0000 0.0000 0.0000
# 2 38.3195 109.8667 58.9258 0.0000 0.0000 0.0000
# 3 46.2534 58.9258 121.3636 0.0000 0.0000 0.0000
# 4 0.0000 0.0000 0.0000 4.6840 0.0000 0.0000
# 5 0.0000 0.0000 0.0000 0.0000 31.5152 0.0000
# 6 0.0000 0.0000 0.0000 0.0000 0.0000 21.2864
#
#
#
# Elastic Compliance Matrix: (Units=1/GPa)
#
#
# Indices 1 2 3 4 5 6 
#
# 1 0.020647 -0.004031 -0.005912 0.000000 0.000000 0.000000
# 2 -0.004031 0.013094 -0.004821 0.000000 0.000000 0.000000
# 3 -0.005912 -0.004821 0.012834 0.000000 0.000000 0.000000
# 4 0.000000 0.000000 0.000000 0.213494 0.000000 0.000000
# 5 0.000000 0.000000 0.000000 0.000000 0.031731 0.000000
# 6 0.000000 0.000000 0.000000 0.000000 0.000000 0.046978
#
#
# Mechanical properties :
#
#
# Convention : Reuss Voigt Hill
#
# Bulk Modulus (GPa) = 58.66176 65.26504 61.96340
# Shear Modulus (GPa) = 13.36944 21.95637 17.66291
#
# Velocity S-wave (km/s) = 2.63724 3.37966 3.03126
# Velocity P-wave (km/s) = 6.30795 7.01296 6.66978
#
# Compressibility (1/GPa) = 0.01704688
#
# Stress axis : x y z
#
# Youngs Moduli (GPa) = 48.43311 76.37367 77.91993
#
# Poissons Ratio (x) = 0.30782 0.46066
# Poissons Ratio (y) = 0.19521 0.37567
# Poissons Ratio (z) = 0.28633 0.36822
#
# Static dielectric constant tensor:
#      x y z
#    x 3.335910 0.000000 0.000000 
#    y 0.000000 3.699210 0.000000 
#    z 0.000000 0.000000 3.424040 
# 
# 
# High freq. dielectric constant tensor:
#      x y z
#    x 1.735010 0.000000 0.000000 
#    y 0.000000 1.760100 0.000000 
#    z 0.000000 0.000000 1.742360 
# 
# From -- ./inp_files/31521.got.cif
#   From: 2010.03.12/outbox.cif.g09.slc.cpg/sg59_16_cif.got.tgz:31521.got - 2010.04.16 16:29:54.
