data_PCOD8243393
_publ_section_title
;
Structure prediction by ZEFSAII (Michael W. Deem and Ramdas Pophale) SiO2 
 PCOD8243393
Probable space group: P M M N
;
_chemical_formula_sum "Si O2"
_cell_formula_units_Z 64
_cell_length_a 18.131153
_cell_length_b 9.163961
_cell_length_c 20.448857
_cell_angle_alpha 90.000000
_cell_angle_beta 90.000000
_cell_angle_gamma 90.000000
_cell_volume 3397.642597
_symmetry_space_group_name_H-M "P M M N"
_symmetry_group_IT_number 59
_space_group.IT_coordinate_system_code '2'
_symmetry_cell_setting 'orthorhombic'
loop_
_space_group_symop_operation_xyz
x,y,z
1/2-x,1/2-y,z
1/2+x,-y,-z
-x,1/2+y,-z
-x,-y,-z
1/2+x,1/2+y,-z
1/2-x,y,z
x,1/2-y,z
loop_
_atom_site_type_symbol
_atom_site_label
_atom_site_fract_x
_atom_site_fract_y
_atom_site_fract_z
Si Si1 0.664470 0.916960 0.010242
Si Si2 0.421939 0.419893 0.117204
Si Si3 0.332527 0.423404 0.617679
Si Si4 0.591409 0.420728 0.752200
Si Si5 0.408115 0.579700 0.873545
Si Si6 0.577558 0.577407 0.506913
Si Si7 0.921605 0.920872 0.257024
Si Si8 0.164849 0.081958 0.364319
O O1 0.750000 0.932650 0.993622
O O2 0.642974 0.750000 0.026222
O O3 0.645463 0.015787 0.071909
O O4 0.619648 0.973852 0.947501
O O5 0.407899 0.250000 0.130921
O O6 0.389181 0.508291 0.178193
O O7 0.507882 0.454915 0.106816
O O8 0.250000 0.487983 0.621268
O O9 0.330116 0.250000 0.617912
O O10 0.370723 0.479515 0.551647
O O11 0.378866 0.479995 0.679630
O O12 0.605748 0.250000 0.757595
O O13 0.507487 0.457414 0.732487
O O14 0.645429 0.485264 0.698050
O O15 0.392928 0.750000 0.866757
O O16 0.388515 0.504934 0.804902
O O17 0.500000 0.500000 0.500000
O O18 0.565751 0.750000 0.502722
O O19 0.615831 0.530665 0.574473
O O20 0.908953 0.750000 0.245312
O O21 0.250000 0.058599 0.383064
O O22 0.148698 0.250000 0.347172
#
# Coordination Sequence:
#
# PCOD8243393 Si02
#       8
#     8   8   8   8   8   8   8   8
#     4  10  21  36  54  76 103 136 174 216 262 315
#     4   9  19  36  56  78 105 139 178 216 258 312
#     4   9  17  31  53  78 102 132 173 216 253 296
#     4  10  20  34  54  80 108 138 175 220 265 309
#     4  10  20  34  54  78 105 137 173 216 261 307
#     4  10  20  35  56  80 105 135 174 218 262 309
#     4   9  18  33  53  77 105 137 174 214 257 309
#     4  10  21  36  54  77 107 143 179 216 262 318
#
# _framework density 18.836589
#
# number of rings (size 3 to 8) (size 9 to 14) (size 15 to 20)
#    0.000    2.375    0.000    2.250    0.000    6.000 
#    0.000    3.125    0.000    1.875    0.000    0.000 
#    0.000    0.000    0.000    0.000    0.000    0.000 
#
# Total GULP energy -793865.712530 kJ/mol
# GULP energy per Si atom -12404.151758 kJ/mol
# Density = 1.879372 g / cm^3
# Si number density = 18.836589 Si / 1000 Ang^3
#
#
#
# Elastic Constant Matrix: (Units=GPa)
#
#
# Indices 1 2 3 4 5 6 
#
# 1 70.7434 22.8009 37.2102 0.0000 0.0000 0.0000
# 2 22.8009 51.0841 39.4159 0.0000 0.0000 0.0000
# 3 37.2102 39.4159 121.1698 0.0000 0.0000 0.0000
# 4 0.0000 0.0000 0.0000 20.0507 0.0000 0.0000
# 5 0.0000 0.0000 0.0000 0.0000 26.2487 0.0000
# 6 0.0000 0.0000 0.0000 0.0000 0.0000 27.0117
#
#
#
# Elastic Compliance Matrix: (Units=1/GPa)
#
#
# Indices 1 2 3 4 5 6 
#
# 1 0.017754 -0.004963 -0.003837 0.000000 0.000000 0.000000
# 2 -0.004963 0.027523 -0.007429 0.000000 0.000000 0.000000
# 3 -0.003837 -0.007429 0.011848 0.000000 0.000000 0.000000
# 4 0.000000 0.000000 0.000000 0.049874 0.000000 0.000000
# 5 0.000000 0.000000 0.000000 0.000000 0.038097 0.000000
# 6 0.000000 0.000000 0.000000 0.000000 0.000000 0.037021
#
#
# Mechanical properties :
#
#
# Convention : Reuss Voigt Hill
#
# Bulk Modulus (GPa) = 40.54278 49.09459 44.81868
# Shear Modulus (GPa) = 22.44190 24.23356 23.33773
#
# Velocity S-wave (km/s) = 3.45541 3.59069 3.52370
# Velocity P-wave (km/s) = 6.12290 6.58109 6.35613
#
# Compressibility (1/GPa) = 0.02466531
#
# Stress axis : x y z
#
# Youngs Moduli (GPa) = 56.32608 36.33329 84.40291
#
# Poissons Ratio (x) = 0.18033 0.32390
# Poissons Ratio (y) = 0.27956 0.62702
# Poissons Ratio (z) = 0.21615 0.26992
#
# Static dielectric constant tensor:
#      x y z
#    x 3.443940 0.000000 0.000000 
#    y 0.000000 3.267170 0.000000 
#    z 0.000000 0.000000 3.565210 
# 
# 
# High freq. dielectric constant tensor:
#      x y z
#    x 1.731560 0.000000 0.000000 
#    y 0.000000 1.713800 0.000000 
#    z 0.000000 0.000000 1.744280 
# 
# From -- ./inp_files/30840.got.cif
#   From: 2010.03.12/outbox.cif.g09.slc.cpg/sg59_16_cif.got.tgz:30840.got - 2010.04.16 16:29:54.
