data_PCOD8243747
_publ_section_title
;
Structure prediction by ZEFSAII (Michael W. Deem and Ramdas Pophale) SiO2 
 PCOD8243747
Probable space group: P M M N
;
_chemical_formula_sum "Si O2"
_cell_formula_units_Z 56
_cell_length_a 14.461914
_cell_length_b 9.134799
_cell_length_c 22.191922
_cell_angle_alpha 90.000000
_cell_angle_beta 90.000000
_cell_angle_gamma 90.000000
_cell_volume 2931.701084
_symmetry_space_group_name_H-M "P M M N"
_symmetry_group_IT_number 59
_space_group.IT_coordinate_system_code '2'
_symmetry_cell_setting 'orthorhombic'
loop_
_space_group_symop_operation_xyz
x,y,z
1/2-x,1/2-y,z
1/2+x,-y,-z
-x,1/2+y,-z
-x,-y,-z
1/2+x,1/2+y,-z
1/2-x,y,z
x,1/2-y,z
loop_
_atom_site_type_symbol
_atom_site_label
_atom_site_fract_x
_atom_site_fract_y
_atom_site_fract_z
Si Si1 0.997252 0.922168 0.708118
Si Si2 0.643977 0.580188 0.604054
Si Si3 0.750000 0.419115 0.886228
Si Si4 0.443598 0.578898 0.171088
Si Si5 0.359938 0.915075 0.513361
Si Si6 0.141508 0.420349 0.632271
Si Si7 0.947621 0.920624 0.053211
Si Si8 0.750000 0.579971 0.012257
O O1 0.016701 0.750000 0.710487
O O2 0.914397 0.961567 0.662644
O O3 0.968826 0.978777 0.773054
O O4 0.090461 0.004524 0.688316
O O5 0.750000 0.536481 0.617581
O O6 0.635816 0.750000 0.587340
O O7 0.602885 0.490916 0.547368
O O8 0.750000 0.250000 0.903688
O O9 0.839286 0.460603 0.847296
O O10 0.750000 0.502247 0.948609
O O11 0.454186 0.750000 0.187448
O O12 0.512272 0.531758 0.117505
O O13 0.250000 0.917605 0.512161
O O14 0.398444 0.750000 0.517409
O O15 0.395444 0.004158 0.571188
O O16 0.250000 0.446141 0.641642
O O17 0.116777 0.250000 0.629230
O O18 0.964361 0.750000 0.042964
O O19 0.839529 0.963615 0.051482
O O20 0.000000 0.000000 0.000000
O O21 0.750000 0.750000 0.997087
#
# Coordination Sequence:
#
# PCOD8243747 Si02
#       8
#     8   8   4   8   8   8   8   4
#     4  11  24  39  58  83 113 151 195 240 285 334
#     4   9  19  36  55  79 113 150 187 229 282 342
#     4  10  20  36  60  88 116 152 191 230 279 336
#     4  10  22  39  57  82 117 154 192 233 281 342
#     4   9  17  31  55  86 114 142 182 235 288 337
#     4  10  21  39  62  83 108 147 190 236 291 348
#     4  10  20  36  59  86 119 152 190 237 285 336
#     4  10  20  34  58  92 118 146 187 238 291 338
#
# _framework density 19.101537
#
# number of rings (size 3 to 8) (size 9 to 14) (size 15 to 20)
#    0.000    2.143    1.429    1.286    1.000    5.429 
#    1.286    0.000    0.000    0.000    0.000    0.000 
#    0.000    0.000    0.000    0.000    0.000    0.000 
#
# Total GULP energy -694591.798027 kJ/mol
# GULP energy per Si atom -12403.424965 kJ/mol
# Density = 1.905806 g / cm^3
# Si number density = 19.101537 Si / 1000 Ang^3
#
#
#
# Elastic Constant Matrix: (Units=GPa)
#
#
# Indices 1 2 3 4 5 6 
#
# 1 112.8494 58.2572 75.4970 0.0000 0.0000 0.0000
# 2 58.2572 95.9409 68.5839 0.0000 0.0000 0.0000
# 3 75.4970 68.5839 144.6637 0.0000 0.0000 0.0000
# 4 0.0000 0.0000 0.0000 40.0370 0.0000 0.0000
# 5 0.0000 0.0000 0.0000 0.0000 31.4012 0.0000
# 6 0.0000 0.0000 0.0000 0.0000 0.0000 23.1812
#
#
#
# Elastic Compliance Matrix: (Units=1/GPa)
#
#
# Indices 1 2 3 4 5 6 
#
# 1 0.015269 -0.005408 -0.005405 0.000000 0.000000 0.000000
# 2 -0.005408 0.017682 -0.005560 0.000000 0.000000 0.000000
# 3 -0.005405 -0.005560 0.012369 0.000000 0.000000 0.000000
# 4 0.000000 0.000000 0.000000 0.024977 0.000000 0.000000
# 5 0.000000 0.000000 0.000000 0.000000 0.031846 0.000000
# 6 0.000000 0.000000 0.000000 0.000000 0.000000 0.043138
#
#
# Mechanical properties :
#
#
# Convention : Reuss Voigt Hill
#
# Bulk Modulus (GPa) = 79.53038 84.23669 81.88353
# Shear Modulus (GPa) = 27.43949 28.99828 28.21888
#
# Velocity S-wave (km/s) = 3.79424 3.90052 3.84775
# Velocity P-wave (km/s) = 7.80519 8.02998 7.91838
#
# Compressibility (1/GPa) = 0.01257381
#
# Stress axis : x y z
#
# Youngs Moduli (GPa) = 65.49226 56.55496 80.84512
#
# Poissons Ratio (x) = 0.30585 0.43694
# Poissons Ratio (y) = 0.35419 0.44954
# Poissons Ratio (z) = 0.35396 0.31447
#
# Static dielectric constant tensor:
#      x y z
#    x 3.795400 0.000000 0.000000 
#    y 0.000000 3.571200 0.000000 
#    z 0.000000 0.000000 3.381480 
# 
# 
# High freq. dielectric constant tensor:
#      x y z
#    x 1.751090 0.000000 0.000000 
#    y 0.000000 1.744640 0.000000 
#    z 0.000000 0.000000 1.737100 
# 
# From -- ./inp_files/30433.got.cif
#   From: 2010.03.12/outbox.cif.g09.slc.cpg/sg59_16_cif.got.tgz:30433.got - 2010.04.16 16:29:54.
