data_PCOD8243726
_publ_section_title
;
Structure prediction by ZEFSAII (Michael W. Deem and Ramdas Pophale) SiO2 
 PCOD8243726
Probable space group: P M M N
;
_chemical_formula_sum "Si O2"
_cell_formula_units_Z 48
_cell_length_a 27.883078
_cell_length_b 8.507652
_cell_length_c 10.288024
_cell_angle_alpha 90.000000
_cell_angle_beta 90.000000
_cell_angle_gamma 90.000000
_cell_volume 2440.520159
_symmetry_space_group_name_H-M "P M M N"
_symmetry_group_IT_number 59
_space_group.IT_coordinate_system_code '2'
_symmetry_cell_setting 'orthorhombic'
loop_
_space_group_symop_operation_xyz
x,y,z
1/2-x,1/2-y,z
1/2+x,-y,-z
-x,1/2+y,-z
-x,-y,-z
1/2+x,1/2+y,-z
1/2-x,y,z
x,1/2-y,z
loop_
_atom_site_type_symbol
_atom_site_label
_atom_site_fract_x
_atom_site_fract_y
_atom_site_fract_z
Si Si1 0.303858 0.569037 0.880664
Si Si2 0.454173 0.067316 0.748048
Si Si3 0.606981 0.565590 0.003598
Si Si4 0.942292 0.567231 0.737426
Si Si5 0.195983 0.067094 0.603432
Si Si6 0.897088 0.430777 0.485575
O O1 0.250000 0.537170 0.932877
O O2 0.310459 0.750000 0.841295
O O3 0.341494 0.520543 0.991872
O O4 0.314956 0.464466 0.754511
O O5 0.468322 0.250000 0.757061
O O6 0.424994 0.011628 0.874364
O O7 0.501239 0.961841 0.739921
O O8 0.422724 0.040556 0.619950
O O9 0.616158 0.750000 0.006126
O O10 0.580173 0.511994 0.873567
O O11 0.932515 0.750000 0.710185
O O12 0.918004 0.463575 0.626863
O O13 0.250000 0.012551 0.568973
O O14 0.188764 0.250000 0.575578
O O15 0.159562 0.969815 0.513362
O O16 0.905740 0.250000 0.449391
#
# Coordination Sequence:
#
# PCOD8243726 Si02
#       6
#     8   8   8   8   8   8
#     4  10  20  34  57  89 120 151 191 238 286 340
#     4  11  22  39  62  88 116 152 198 245 292 346
#     4  10  22  39  61  87 117 155 197 239 291 347
#     4  11  24  41  59  84 119 158 198 243 293 347
#     4  10  20  36  60  88 117 150 191 240 290 343
#     4  12  24  39  60  88 119 156 196 241 293 346
#
# _framework density 19.667937999999999
#
# number of rings (size 3 to 8) (size 9 to 14) (size 15 to 20)
#    0.000    1.333    1.667    4.500    0.000    4.000 
#    0.000    0.833    0.000    1.000    0.000    0.000 
#    0.000    0.000    0.000    0.000    0.000    0.000 
#
# Total GULP energy -595506.280503 kJ/mol
# GULP energy per Si atom -12406.380844 kJ/mol
# Density = 1.962317 g / cm^3
# Si number density = 19.667938 Si / 1000 Ang^3
#
#
#
# Elastic Constant Matrix: (Units=GPa)
#
#
# Indices 1 2 3 4 5 6 
#
# 1 137.6945 25.5223 52.8566 0.0000 0.0000 0.0000
# 2 25.5223 51.8069 17.3643 0.0000 0.0000 0.0000
# 3 52.8566 17.3643 108.2034 0.0000 0.0000 0.0000
# 4 0.0000 0.0000 0.0000 22.0732 0.0000 0.0000
# 5 0.0000 0.0000 0.0000 0.0000 -19.0863 0.0000
# 6 0.0000 0.0000 0.0000 0.0000 0.0000 36.2631
#
#
#
# Elastic Compliance Matrix: (Units=1/GPa)
#
#
# Indices 1 2 3 4 5 6 
#
# 1 0.009438 -0.003281 -0.004084 0.000000 0.000000 0.000000
# 2 -0.003281 0.021540 -0.001854 0.000000 0.000000 0.000000
# 3 -0.004084 -0.001854 0.011534 0.000000 0.000000 0.000000
# 4 0.000000 0.000000 0.000000 0.045304 0.000000 0.000000
# 5 0.000000 0.000000 0.000000 0.000000 -0.052394 0.000000
# 6 0.000000 0.000000 0.000000 0.000000 0.000000 0.027576
#
#
# Mechanical properties :
#
#
# Convention : Reuss Voigt Hill
#
# Bulk Modulus (GPa) = 41.53687 54.35457 47.94572
# Shear Modulus (GPa) = 55.88944 21.31410 38.60177
#
# Velocity S-wave (km/s) = 5.33650 3.29553 4.43502
# Velocity P-wave (km/s) = 7.68999 6.49437 7.11733
#
# Compressibility (1/GPa) = 0.02407500
#
# Stress axis : x y z
#
# Youngs Moduli (GPa) = 105.95116 46.42490 86.69710
#
# Poissons Ratio (x) = 0.15231 0.35407
# Poissons Ratio (y) = 0.34761 0.16074
# Poissons Ratio (z) = 0.43271 0.08607
#
# Static dielectric constant tensor:
#      x y z
#    x 3.776360 0.000000 0.000000 
#    y 0.000000 3.484900 0.000000 
#    z 0.000000 0.000000 3.425820 
# 
# 
# High freq. dielectric constant tensor:
#      x y z
#    x 1.782210 0.000000 0.000000 
#    y 0.000000 1.772480 0.000000 
#    z 0.000000 0.000000 1.744950 
# 
# From -- ./inp_files/12919.got.cif
#   From: 2010.03.12/outbox.cif.g09.slc.cpg/sg59_7_cif.got.tgz:12919.got - 2010.04.16 16:29:54.
