data_PCOD8243143
_publ_section_title
;
Structure prediction by ZEFSAII (Michael W. Deem and Ramdas Pophale) SiO2 
 PCOD8243143
Probable space group: P M M N
;
_chemical_formula_sum "Si O2"
_cell_formula_units_Z 56
_cell_length_a 9.364892
_cell_length_b 18.826453
_cell_length_c 17.172332
_cell_angle_alpha 90.000000
_cell_angle_beta 90.000000
_cell_angle_gamma 90.000000
_cell_volume 3027.614343
_symmetry_space_group_name_H-M "P M M N"
_symmetry_group_IT_number 59
_space_group.IT_coordinate_system_code '2'
_symmetry_cell_setting 'orthorhombic'
loop_
_space_group_symop_operation_xyz
x,y,z
1/2-x,1/2-y,z
1/2+x,-y,-z
-x,1/2+y,-z
-x,-y,-z
1/2+x,1/2+y,-z
1/2-x,y,z
x,1/2-y,z
loop_
_atom_site_type_symbol
_atom_site_label
_atom_site_fract_x
_atom_site_fract_y
_atom_site_fract_z
Si Si1 0.083812 0.331834 0.028131
Si Si2 0.082191 0.585249 0.104211
Si Si3 0.910380 0.829741 0.222446
Si Si4 0.412487 0.390515 0.619486
Si Si5 0.085856 0.066236 0.164441
Si Si6 0.416034 0.572109 0.515107
Si Si7 0.912972 0.044068 0.316607
O O1 0.250000 0.337430 0.005574
O O2 0.032232 0.250000 0.026471
O O3 0.056286 0.363153 0.114116
O O4 0.996761 0.379542 0.968176
O O5 0.250000 0.597078 0.093722
O O6 0.041297 0.502221 0.112469
O O7 0.029738 0.622207 0.183120
O O8 0.750000 0.857828 0.202734
O O9 0.928086 0.750000 0.191228
O O10 0.932176 0.829755 0.315778
O O11 0.250000 0.395939 0.589140
O O12 0.513311 0.371771 0.545234
O O13 0.458046 0.464063 0.661396
O O14 0.250000 0.058706 0.187674
O O15 0.003077 0.073981 0.245210
O O16 0.500000 0.500000 0.500000
O O17 0.250000 0.561980 0.495194
O O18 0.435270 0.593477 0.606122
O O19 0.750000 0.045634 0.288984
#
# Coordination Sequence:
#
# PCOD8243143 Si02
#       7
#     8   8   8   8   8   8   8
#     4  10  22  40  58  75 100 136 175 212 255 311
#     4  11  22  35  53  80 108 132 167 215 263 313
#     4  10  20  34  52  73 103 144 182 215 258 314
#     4   9  17  30  47  71 101 134 174 214 253 300
#     4  10  21  35  54  80 105 132 170 215 262 306
#     4   9  17  28  45  71 101 133 168 207 254 302
#     4   9  17  30  49  75 103 132 167 210 256 303
#
# _framework density 18.496411999999999
#
# number of rings (size 3 to 8) (size 9 to 14) (size 15 to 20)
#    0.000    2.286    1.429    2.571    0.000    6.857 
#    0.000    0.000    0.000    0.857    0.000    6.000 
#    0.000    0.000    0.000    0.000    0.000    0.000 
#
# Total GULP energy -694148.273751 kJ/mol
# GULP energy per Si atom -12395.504888 kJ/mol
# Density = 1.845431 g / cm^3
# Si number density = 18.496412 Si / 1000 Ang^3
#
#
#
# Elastic Constant Matrix: (Units=GPa)
#
#
# Indices 1 2 3 4 5 6 
#
# 1 80.1092 24.0571 59.4544 0.0000 0.0000 0.0000
# 2 24.0571 48.6057 30.4619 0.0000 0.0000 0.0000
# 3 59.4544 30.4619 116.9729 0.0000 0.0000 0.0000
# 4 0.0000 0.0000 0.0000 14.1947 0.0000 0.0000
# 5 0.0000 0.0000 0.0000 0.0000 42.2299 0.0000
# 6 0.0000 0.0000 0.0000 0.0000 0.0000 17.9205
#
#
#
# Elastic Compliance Matrix: (Units=1/GPa)
#
#
# Indices 1 2 3 4 5 6 
#
# 1 0.020798 -0.004384 -0.009429 0.000000 0.000000 0.000000
# 2 -0.004384 0.025511 -0.004415 0.000000 0.000000 0.000000
# 3 -0.009429 -0.004415 0.014491 0.000000 0.000000 0.000000
# 4 0.000000 0.000000 0.000000 0.070449 0.000000 0.000000
# 5 0.000000 0.000000 0.000000 0.000000 0.023680 0.000000
# 6 0.000000 0.000000 0.000000 0.000000 0.000000 0.055802
#
#
# Mechanical properties :
#
#
# Convention : Reuss Voigt Hill
#
# Bulk Modulus (GPa) = 41.08010 52.62606 46.85308
# Shear Modulus (GPa) = 19.58472 23.65000 21.61736
#
# Velocity S-wave (km/s) = 3.25751 3.57967 3.42238
# Velocity P-wave (km/s) = 6.03378 6.75272 6.40334
#
# Compressibility (1/GPa) = 0.02434268
#
# Stress axis : x y z
#
# Youngs Moduli (GPa) = 48.08263 39.19937 69.00679
#
# Poissons Ratio (x) = 0.17186 0.65067
# Poissons Ratio (y) = 0.21081 0.30467
# Poissons Ratio (z) = 0.45338 0.17307
#
# Static dielectric constant tensor:
#      x y z
#    x 3.513230 0.000000 0.000000 
#    y 0.000000 3.246080 0.000000 
#    z 0.000000 0.000000 3.689630 
# 
# 
# High freq. dielectric constant tensor:
#      x y z
#    x 1.716900 0.000000 0.000000 
#    y 0.000000 1.680860 0.000000 
#    z 0.000000 0.000000 1.726690 
# 
# From -- ./inp_files/26139.got.cif
#   From: 2010.03.12/outbox.cif.g09.slc.cpg/sg59_14_cif.got.tgz:26139.got - 2010.04.16 16:29:54.
