data_PCOD8243389
_publ_section_title
;
Structure prediction by ZEFSAII (Michael W. Deem and Ramdas Pophale) SiO2 
 PCOD8243389
Probable space group: P M M N
;
_chemical_formula_sum "Si O2"
_cell_formula_units_Z 40
_cell_length_a 9.325978
_cell_length_b 14.174619
_cell_length_c 17.054854
_cell_angle_alpha 90.000000
_cell_angle_beta 90.000000
_cell_angle_gamma 90.000000
_cell_volume 2254.518414
_symmetry_space_group_name_H-M "P M M N"
_symmetry_group_IT_number 59
_space_group.IT_coordinate_system_code '2'
_symmetry_cell_setting 'orthorhombic'
loop_
_space_group_symop_operation_xyz
x,y,z
1/2-x,1/2-y,z
1/2+x,-y,-z
-x,1/2+y,-z
-x,-y,-z
1/2+x,1/2+y,-z
1/2-x,y,z
x,1/2-y,z
loop_
_atom_site_type_symbol
_atom_site_label
_atom_site_fract_x
_atom_site_fract_y
_atom_site_fract_z
Si Si1 0.084711 0.949320 0.067702
Si Si2 0.082599 0.521773 0.619117
Si Si3 0.083140 0.250000 0.154387
Si Si4 0.413444 0.750000 0.006383
Si Si5 0.918040 0.948844 0.775593
Si Si6 0.584953 0.858180 0.499434
O O1 0.250000 0.975306 0.055285
O O2 0.034205 0.985424 0.152217
O O3 0.053793 0.838432 0.062079
O O4 0.000000 0.000000 0.000000
O O5 0.250000 0.542949 0.628644
O O6 0.054014 0.421823 0.576733
O O7 0.009437 0.514681 0.703106
O O8 0.013409 0.607801 0.570908
O O9 0.250000 0.250000 0.134475
O O10 0.040178 0.341082 0.204988
O O11 0.007602 0.250000 0.070991
O O12 0.250000 0.750000 0.976987
O O13 0.750000 0.958692 0.756388
O O14 0.750000 0.868514 0.526067
O O15 0.547313 0.750000 0.478762
#
# Coordination Sequence:
#
# PCOD8243389 Si02
#       6
#     8   8   4   4   8   8
#     4  10  20  35  55  77 106 141 179 221 267 316
#     4  10  21  36  56  84 111 135 175 223 262 307
#     4  10  20  34  54  78 103 138 183 220 261 322
#     4  10  20  34  54  80 105 134 177 230 277 308
#     4  10  21  36  53  77 109 144 178 215 265 322
#     4   9  19  38  61  80 106 143 175 209 262 323
#
# _framework density 17.742148
#
# number of rings (size 3 to 8) (size 9 to 14) (size 15 to 20)
#    0.000    2.200    2.000    0.600    1.400    2.800 
#    1.800    0.000    0.000    0.000    0.000    0.000 
#    0.000    0.000    0.000    0.000    0.000    0.000 
#
# Total GULP energy -496101.646414 kJ/mol
# GULP energy per Si atom -12402.541160 kJ/mol
# Density = 1.770177 g / cm^3
# Si number density = 17.742148 Si / 1000 Ang^3
#
#
#
# Elastic Constant Matrix: (Units=GPa)
#
#
# Indices 1 2 3 4 5 6 
#
# 1 75.9221 51.8447 73.4577 0.0000 0.0000 0.0000
# 2 51.8447 135.9220 70.5237 0.0000 0.0000 0.0000
# 3 73.4577 70.5237 153.5711 0.0000 0.0000 0.0000
# 4 0.0000 0.0000 0.0000 15.7080 0.0000 0.0000
# 5 0.0000 0.0000 0.0000 0.0000 38.3697 0.0000
# 6 0.0000 0.0000 0.0000 0.0000 0.0000 19.8623
#
#
#
# Elastic Compliance Matrix: (Units=1/GPa)
#
#
# Indices 1 2 3 4 5 6 
#
# 1 0.026584 -0.004650 -0.010580 0.000000 0.000000 0.000000
# 2 -0.004650 0.010472 -0.002585 0.000000 0.000000 0.000000
# 3 -0.010580 -0.002585 0.012759 0.000000 0.000000 0.000000
# 4 0.000000 0.000000 0.000000 0.063662 0.000000 0.000000
# 5 0.000000 0.000000 0.000000 0.000000 0.026062 0.000000
# 6 0.000000 0.000000 0.000000 0.000000 0.000000 0.050347
#
#
# Mechanical properties :
#
#
# Convention : Reuss Voigt Hill
#
# Bulk Modulus (GPa) = 70.49786 84.11860 77.30823
# Shear Modulus (GPa) = 21.71604 26.09394 23.90499
#
# Velocity S-wave (km/s) = 3.50234 3.83917 3.67462
# Velocity P-wave (km/s) = 7.49507 8.19555 7.85312
#
# Compressibility (1/GPa) = 0.01418483
#
# Stress axis : x y z
#
# Youngs Moduli (GPa) = 37.61696 95.49339 78.37314
#
# Poissons Ratio (x) = 0.44406 0.82921
# Poissons Ratio (y) = 0.17493 0.20257
# Poissons Ratio (z) = 0.39800 0.24682
#
# Static dielectric constant tensor:
#      x y z
#    x 3.329220 0.000000 0.000000 
#    y 0.000000 3.513900 0.000000 
#    z 0.000000 0.000000 3.213950 
# 
# 
# High freq. dielectric constant tensor:
#      x y z
#    x 1.686550 0.000000 0.000000 
#    y 0.000000 1.695420 0.000000 
#    z 0.000000 0.000000 1.682470 
# 
# From -- ./inp_files/19937.got.cif
#   From: 2010.03.12/outbox.cif.g09.slc.cpg/sg59_10_cif.got.tgz:19937.got - 2010.04.16 16:29:54.
