data_PCOD8243455
_publ_section_title
;
Structure prediction by ZEFSAII (Michael W. Deem and Ramdas Pophale) SiO2 
 PCOD8243455
Probable space group: P M M N
;
_chemical_formula_sum "Si O2"
_cell_formula_units_Z 64
_cell_length_a 9.067619
_cell_length_b 14.379899
_cell_length_c 24.963334
_cell_angle_alpha 90.000000
_cell_angle_beta 90.000000
_cell_angle_gamma 90.000000
_cell_volume 3255.005202
_symmetry_space_group_name_H-M "P M M N"
_symmetry_group_IT_number 59
_space_group.IT_coordinate_system_code '2'
_symmetry_cell_setting 'orthorhombic'
loop_
_space_group_symop_operation_xyz
x,y,z
1/2-x,1/2-y,z
1/2+x,-y,-z
-x,1/2+y,-z
-x,-y,-z
1/2+x,1/2+y,-z
1/2-x,y,z
x,1/2-y,z
loop_
_atom_site_type_symbol
_atom_site_label
_atom_site_fract_x
_atom_site_fract_y
_atom_site_fract_z
Si Si1 0.584686 0.148453 0.593629
Si Si2 0.423474 0.022951 0.670971
Si Si3 0.920739 0.644665 0.627682
Si Si4 0.077792 0.540941 0.131645
Si Si5 0.581685 0.410009 0.479155
Si Si6 0.075131 0.356264 0.771662
Si Si7 0.920018 0.356647 0.975185
Si Si8 0.077663 0.353495 0.083318
O O1 0.750000 0.117160 0.610662
O O2 0.547443 0.250000 0.617853
O O3 0.576630 0.159249 0.529561
O O4 0.468115 0.073540 0.615581
O O5 0.250000 0.006958 0.672996
O O6 0.503640 0.922777 0.671727
O O7 0.479737 0.087375 0.719566
O O8 0.750000 0.617521 0.621273
O O9 0.938991 0.750000 0.648638
O O10 0.998081 0.635952 0.570315
O O11 0.250000 0.560028 0.142331
O O12 0.026793 0.583329 0.075140
O O13 0.042184 0.429862 0.129365
O O14 0.985148 0.589749 0.177378
O O15 0.500000 0.500000 0.500000
O O16 0.750000 0.431946 0.461729
O O17 0.250000 0.355811 0.774573
O O18 0.015311 0.250000 0.769597
O O19 0.750000 0.374495 0.987707
O O20 0.952443 0.250000 0.960747
O O21 0.007272 0.387361 0.027857
O O22 0.250000 0.350802 0.072528
O O23 0.020333 0.250000 0.100466
#
# Coordination Sequence:
#
# PCOD8243455 Si02
#       8
#     8   8   8   8   8   8   8   8
#     4  10  21  36  56  83 115 149 185 226 274 332
#     4  11  23  40  62  84 110 145 185 234 287 338
#     4  11  24  41  61  86 117 153 193 235 280 334
#     4  10  20  34  54  80 110 147 188 230 277 329
#     4  11  21  35  57  86 120 156 191 229 277 332
#     4  10  23  42  61  84 112 140 176 226 283 340
#     4   9  17  29  47  75 110 145 185 231 277 329
#     4   9  18  32  50  76 111 149 188 228 271 321
#
# _framework density 19.662026999999998
#
# number of rings (size 3 to 8) (size 9 to 14) (size 15 to 20)
#    0.000    1.875    1.250    2.625    0.000    5.500 
#    0.000    1.875    0.000    2.250    0.000    0.000 
#    0.000    0.000    0.000    0.000    0.000    0.000 
#
# Total GULP energy -793511.518840 kJ/mol
# GULP energy per Si atom -12398.617482 kJ/mol
# Density = 1.961727 g / cm^3
# Si number density = 19.662027 Si / 1000 Ang^3
#
#
#
# Elastic Constant Matrix: (Units=GPa)
#
#
# Indices 1 2 3 4 5 6 
#
# 1 73.6780 48.2208 31.9797 0.0000 0.0000 0.0000
# 2 48.2208 134.6357 59.2614 0.0000 0.0000 0.0000
# 3 31.9797 59.2614 86.0576 0.0000 0.0000 0.0000
# 4 0.0000 0.0000 0.0000 31.3816 0.0000 0.0000
# 5 0.0000 0.0000 0.0000 0.0000 31.8327 0.0000
# 6 0.0000 0.0000 0.0000 0.0000 0.0000 28.0793
#
#
#
# Elastic Compliance Matrix: (Units=1/GPa)
#
#
# Indices 1 2 3 4 5 6 
#
# 1 0.018356 -0.005125 -0.003292 0.000000 0.000000 0.000000
# 2 -0.005125 0.012089 -0.006420 0.000000 0.000000 0.000000
# 3 -0.003292 -0.006420 0.017264 0.000000 0.000000 0.000000
# 4 0.000000 0.000000 0.000000 0.031866 0.000000 0.000000
# 5 0.000000 0.000000 0.000000 0.000000 0.031414 0.000000
# 6 0.000000 0.000000 0.000000 0.000000 0.000000 0.035613
#
#
# Mechanical properties :
#
#
# Convention : Reuss Voigt Hill
#
# Bulk Modulus (GPa) = 55.44848 63.69946 59.57397
# Shear Modulus (GPa) = 27.42900 28.58602 28.00751
#
# Velocity S-wave (km/s) = 3.73905 3.81710 3.77828
# Velocity P-wave (km/s) = 6.84856 7.20379 7.02842
#
# Compressibility (1/GPa) = 0.01803476
#
# Stress axis : x y z
#
# Youngs Moduli (GPa) = 54.47872 82.71936 57.92254
#
# Poissons Ratio (x) = 0.42397 0.19066
# Poissons Ratio (y) = 0.27923 0.37187
# Poissons Ratio (z) = 0.17933 0.53107
#
# Static dielectric constant tensor:
#      x y z
#    x 3.845920 0.000000 0.000000 
#    y 0.000000 3.839600 0.000000 
#    z 0.000000 0.000000 3.515690 
# 
# 
# High freq. dielectric constant tensor:
#      x y z
#    x 1.762860 0.000000 0.000000 
#    y 0.000000 1.784410 0.000000 
#    z 0.000000 0.000000 1.742060 
# 
# From -- ./inp_files/31504.got.cif
#   From: 2010.03.12/outbox.cif.g09.slc.cpg/sg59_16_cif.got.tgz:31504.got - 2010.04.16 16:29:54.
