data_PCOD8243639
_publ_section_title
;
Structure prediction by ZEFSAII (Michael W. Deem and Ramdas Pophale) SiO2 
 PCOD8243639
Probable space group: P M M N
;
_chemical_formula_sum "Si O2"
_cell_formula_units_Z 48
_cell_length_a 28.055229
_cell_length_b 8.806953
_cell_length_c 10.246028
_cell_angle_alpha 90.000000
_cell_angle_beta 90.000000
_cell_angle_gamma 90.000000
_cell_volume 2531.599697
_symmetry_space_group_name_H-M "P M M N"
_symmetry_group_IT_number 59
_space_group.IT_coordinate_system_code '2'
_symmetry_cell_setting 'orthorhombic'
loop_
_space_group_symop_operation_xyz
x,y,z
1/2-x,1/2-y,z
1/2+x,-y,-z
-x,1/2+y,-z
-x,-y,-z
1/2+x,1/2+y,-z
1/2-x,y,z
x,1/2-y,z
loop_
_atom_site_type_symbol
_atom_site_label
_atom_site_fract_x
_atom_site_fract_y
_atom_site_fract_z
Si Si1 0.696129 0.073019 0.646384
Si Si2 0.898950 0.574131 0.246267
Si Si3 0.448615 0.428356 0.017571
Si Si4 0.802868 0.576517 0.373431
Si Si5 0.551403 0.428946 0.485818
Si Si6 0.105210 0.070553 0.274188
O O1 0.750000 0.030544 0.687599
O O2 0.685931 0.250000 0.663302
O O3 0.687125 0.031314 0.495685
O O4 0.660370 0.979810 0.739886
O O5 0.911407 0.750000 0.273890
O O6 0.842260 0.543749 0.262282
O O7 0.928475 0.470301 0.344537
O O8 0.913843 0.525971 0.100938
O O9 0.455696 0.250000 0.025222
O O10 0.424360 0.489400 0.149880
O O11 0.500000 0.500000 0.000000
O O12 0.750000 0.545360 0.314799
O O13 0.807027 0.750000 0.423149
O O14 0.500000 0.500000 0.500000
O O15 0.547585 0.250000 0.500348
O O16 0.585782 0.493784 0.595832
O O17 0.101527 0.250000 0.287352
#
# Coordination Sequence:
#
# PCOD8243639 Si02
#       6
#     8   8   8   8   8   8
#     4  10  20  34  55  85 118 150 189 236 284 335
#     4  10  20  37  58  83 114 146 185 235 286 341
#     4  10  23  40  58  81 112 152 194 236 285 341
#     4   9  17  31  55  84 113 146 182 225 283 343
#     4  12  24  37  56  83 112 145 188 239 289 339
#     4  11  22  38  58  84 116 152 193 235 282 340
#
# _framework density 18.960343999999999
#
# number of rings (size 3 to 8) (size 9 to 14) (size 15 to 20)
#    0.000    1.667    1.667    3.500    0.000    5.667 
#    0.000    0.833    0.000    3.000    0.000    2.333 
#    0.000    0.000    0.000    0.000    0.000    0.000 
#
# Total GULP energy -595289.478179 kJ/mol
# GULP energy per Si atom -12401.864129 kJ/mol
# Density = 1.891719 g / cm^3
# Si number density = 18.960344 Si / 1000 Ang^3
#
#
#
# Elastic Constant Matrix: (Units=GPa)
#
#
# Indices 1 2 3 4 5 6 
#
# 1 137.8566 37.7555 37.4654 0.0000 0.0000 0.0000
# 2 37.7555 76.3646 27.4279 0.0000 0.0000 0.0000
# 3 37.4654 27.4279 74.7421 0.0000 0.0000 0.0000
# 4 0.0000 0.0000 0.0000 15.7295 0.0000 0.0000
# 5 0.0000 0.0000 0.0000 0.0000 36.1389 0.0000
# 6 0.0000 0.0000 0.0000 0.0000 0.0000 32.8205
#
#
#
# Elastic Compliance Matrix: (Units=1/GPa)
#
#
# Indices 1 2 3 4 5 6 
#
# 1 0.009059 -0.003280 -0.003337 0.000000 0.000000 0.000000
# 2 -0.003280 0.016271 -0.004327 0.000000 0.000000 0.000000
# 3 -0.003337 -0.004327 0.016640 0.000000 0.000000 0.000000
# 4 0.000000 0.000000 0.000000 0.063575 0.000000 0.000000
# 5 0.000000 0.000000 0.000000 0.000000 0.027671 0.000000
# 6 0.000000 0.000000 0.000000 0.000000 0.000000 0.030469
#
#
# Mechanical properties :
#
#
# Convention : Reuss Voigt Hill
#
# Bulk Modulus (GPa) = 49.79670 54.91789 52.35729
# Shear Modulus (GPa) = 26.00549 29.35874 27.68211
#
# Velocity S-wave (km/s) = 3.70749 3.93928 3.82514
# Velocity P-wave (km/s) = 6.68191 7.05110 6.86899
#
# Compressibility (1/GPa) = 0.02008165
#
# Stress axis : x y z
#
# Youngs Moduli (GPa) = 110.38365 61.45943 60.09641
#
# Poissons Ratio (x) = 0.20161 0.20056
# Poissons Ratio (y) = 0.36210 0.26001
# Poissons Ratio (z) = 0.36838 0.26591
#
# Static dielectric constant tensor:
#      x y z
#    x 3.802810 0.000000 0.000000 
#    y 0.000000 3.501700 0.000000 
#    z 0.000000 0.000000 3.420830 
# 
# 
# High freq. dielectric constant tensor:
#      x y z
#    x 1.758720 0.000000 0.000000 
#    y 0.000000 1.737370 0.000000 
#    z 0.000000 0.000000 1.713400 
# 
# From -- ./inp_files/12933.got.cif
#   From: 2010.03.12/outbox.cif.g09.slc.cpg/sg59_7_cif.got.tgz:12933.got - 2010.04.16 16:29:54.
