data_PCOD8243477
_publ_section_title
;
Structure prediction by ZEFSAII (Michael W. Deem and Ramdas Pophale) SiO2 
 PCOD8243477
Probable space group: P M M N
;
_chemical_formula_sum "Si O2"
_cell_formula_units_Z 48
_cell_length_a 8.508329
_cell_length_b 26.039669
_cell_length_c 11.774738
_cell_angle_alpha 90.000000
_cell_angle_beta 90.000000
_cell_angle_gamma 90.000000
_cell_volume 2608.741138
_symmetry_space_group_name_H-M "P M M N"
_symmetry_group_IT_number 59
_space_group.IT_coordinate_system_code '2'
_symmetry_cell_setting 'orthorhombic'
loop_
_space_group_symop_operation_xyz
x,y,z
1/2-x,1/2-y,z
1/2+x,-y,-z
-x,1/2+y,-z
-x,-y,-z
1/2+x,1/2+y,-z
1/2-x,y,z
x,1/2-y,z
loop_
_atom_site_type_symbol
_atom_site_label
_atom_site_fract_x
_atom_site_fract_y
_atom_site_fract_z
Si Si1 0.430209 0.605793 0.673937
Si Si2 0.933679 0.566957 0.206648
Si Si3 0.069153 0.947968 0.448571
Si Si4 0.068532 0.461330 0.144140
Si Si5 0.067068 0.622082 0.011767
Si Si6 0.564618 0.691324 0.821081
O O1 0.250000 0.598009 0.712278
O O2 0.447628 0.598542 0.538899
O O3 0.535883 0.561634 0.731159
O O4 0.486937 0.661797 0.714482
O O5 0.750000 0.557982 0.195273
O O6 0.977098 0.571376 0.338366
O O7 0.023731 0.520581 0.145061
O O8 0.987947 0.617733 0.137043
O O9 0.250000 0.957954 0.416212
O O10 0.000000 0.000000 0.500000
O O11 0.250000 0.454201 0.111129
O O12 0.962121 0.431090 0.054458
O O13 0.250000 0.633025 0.026060
O O14 0.990090 0.668631 0.941757
O O15 0.750000 0.685325 0.811544
O O16 0.509774 0.750000 0.813862
#
# Coordination Sequence:
#
# PCOD8243477 Si02
#       6
#     8   8   8   8   8   8
#     4  10  20  34  54  81 111 143 184 227 271 320
#     4  12  23  35  51  74 109 149 188 224 267 322
#     4  11  22  35  53  78 111 151 190 227 268 323
#     4  11  20  32  51  75 108 145 183 223 267 320
#     4  11  22  36  54  78 108 140 180 225 275 328
#     4  10  21  38  61  86 110 138 176 224 279 332
#
# _framework density 18.399678000000002
#
# number of rings (size 3 to 8) (size 9 to 14) (size 15 to 20)
#    0.000    1.167    1.667    8.500    0.000    3.333 
#    0.000    0.000    0.000    1.000    0.000    4.667 
#    0.000    0.000    0.000    0.000    0.000    0.000 
#
# Total GULP energy -595278.552598 kJ/mol
# GULP energy per Si atom -12401.636512 kJ/mol
# Density = 1.835780 g / cm^3
# Si number density = 18.399678 Si / 1000 Ang^3
#
#
#
# Elastic Constant Matrix: (Units=GPa)
#
#
# Indices 1 2 3 4 5 6 
#
# 1 88.9301 31.2289 28.2683 0.0000 0.0000 0.0000
# 2 31.2289 96.2481 40.9509 0.0000 0.0000 0.0000
# 3 28.2683 40.9509 96.0809 0.0000 0.0000 0.0000
# 4 0.0000 0.0000 0.0000 13.8183 0.0000 0.0000
# 5 0.0000 0.0000 0.0000 0.0000 32.1626 0.0000
# 6 0.0000 0.0000 0.0000 0.0000 0.0000 25.2677
#
#
#
# Elastic Compliance Matrix: (Units=1/GPa)
#
#
# Indices 1 2 3 4 5 6 
#
# 1 0.013168 -0.003205 -0.002508 0.000000 0.000000 0.000000
# 2 -0.003205 0.013472 -0.004799 0.000000 0.000000 0.000000
# 3 -0.002508 -0.004799 0.013191 0.000000 0.000000 0.000000
# 4 0.000000 0.000000 0.000000 0.072368 0.000000 0.000000
# 5 0.000000 0.000000 0.000000 0.000000 0.031092 0.000000
# 6 0.000000 0.000000 0.000000 0.000000 0.000000 0.039576
#
#
# Mechanical properties :
#
#
# Convention : Reuss Voigt Hill
#
# Bulk Modulus (GPa) = 53.17384 53.57282 53.37333
# Shear Modulus (GPa) = 23.79153 26.30378 25.04766
#
# Velocity S-wave (km/s) = 3.59979 3.78508 3.69360
# Velocity P-wave (km/s) = 6.80000 6.94851 6.87466
#
# Compressibility (1/GPa) = 0.01880624
#
# Stress axis : x y z
#
# Youngs Moduli (GPa) = 75.94412 74.23062 75.80914
#
# Poissons Ratio (x) = 0.23793 0.19012
# Poissons Ratio (y) = 0.24343 0.36378
# Poissons Ratio (z) = 0.19046 0.35621
#
# Static dielectric constant tensor:
#      x y z
#    x 3.534600 0.000000 0.000000 
#    y 0.000000 3.193460 0.000000 
#    z 0.000000 0.000000 3.595590 
# 
# 
# High freq. dielectric constant tensor:
#      x y z
#    x 1.734740 0.000000 0.000000 
#    y 0.000000 1.674730 0.000000 
#    z 0.000000 0.000000 1.717830 
# 
# From -- ./inp_files/14460.got.cif
#   From: 2010.03.12/outbox.cif.g09.slc.cpg/sg59_8_cif.got.tgz:14460.got - 2010.04.16 16:29:54.
