data_PCOD8243263
_publ_section_title
;
Structure prediction by ZEFSAII (Michael W. Deem and Ramdas Pophale) SiO2 
 PCOD8243263
Probable space group: P M M N
;
_chemical_formula_sum "Si O2"
_cell_formula_units_Z 64
_cell_length_a 14.095536
_cell_length_b 9.023790
_cell_length_c 25.370397
_cell_angle_alpha 90.000000
_cell_angle_beta 90.000000
_cell_angle_gamma 90.000000
_cell_volume 3226.991625
_symmetry_space_group_name_H-M "P M M N"
_symmetry_group_IT_number 59
_space_group.IT_coordinate_system_code '2'
_symmetry_cell_setting 'orthorhombic'
loop_
_space_group_symop_operation_xyz
x,y,z
1/2-x,1/2-y,z
1/2+x,-y,-z
-x,1/2+y,-z
-x,-y,-z
1/2+x,1/2+y,-z
1/2-x,y,z
x,1/2-y,z
loop_
_atom_site_type_symbol
_atom_site_label
_atom_site_fract_x
_atom_site_fract_y
_atom_site_fract_z
Si Si1 0.858178 0.921586 0.981208
Si Si2 0.642827 0.921306 0.682137
Si Si3 0.953445 0.423225 0.077191
Si Si4 0.902429 0.574929 0.485364
Si Si5 0.146557 0.909665 0.417663
Si Si6 0.641833 0.416146 0.379531
Si Si7 0.046401 0.579272 0.729387
Si Si8 0.859261 0.575065 0.174507
O O1 0.750000 0.958343 0.962500
O O2 0.866168 0.750000 0.997907
O O3 0.935268 0.957127 0.935501
O O4 0.883640 0.018959 0.031780
O O5 0.750000 0.971311 0.698685
O O6 0.643354 0.750000 0.666801
O O7 0.568079 0.950084 0.729807
O O8 0.598385 0.001048 0.630171
O O9 0.935849 0.250000 0.083747
O O10 0.926675 0.502254 0.131109
O O11 0.902296 0.750000 0.490667
O O12 0.835319 0.505155 0.529655
O O13 0.874060 0.531902 0.426461
O O14 0.000000 0.500000 0.500000
O O15 0.250000 0.873742 0.395787
O O16 0.093690 0.750000 0.428106
O O17 0.750000 0.423711 0.361186
O O18 0.615691 0.250000 0.399173
O O19 0.580710 0.460665 0.329100
O O20 0.069192 0.750000 0.743910
O O21 0.100205 0.472431 0.769205
O O22 0.750000 0.522466 0.168341
O O23 0.866248 0.750000 0.168979
#
# Coordination Sequence:
#
# PCOD8243263 Si02
#       8
#     8   8   8   8   8   8   8   8
#     4   9  18  34  56  84 121 160 194 232 280 329
#     4   9  18  34  57  84 112 142 178 221 271 329
#     4  10  20  34  56  86 117 153 197 238 277 327
#     4  12  24  36  52  74 102 136 174 216 266 326
#     4  10  20  34  53  77 104 133 167 209 258 316
#     4  10  21  37  56  79 108 140 176 222 275 329
#     4  10  21  38  60  83 107 140 183 229 276 327
#     4  11  24  40  58  81 111 147 187 234 285 333
#
# _framework density 19.832715
#
# number of rings (size 3 to 8) (size 9 to 14) (size 15 to 20)
#    0.000    1.875    0.000    4.125    0.000    8.250 
#    0.000    0.625    0.000    3.750    0.000    0.000 
#    0.000    0.000    0.000    0.000    0.000    0.000 
#
# Total GULP energy -793149.788782 kJ/mol
# GULP energy per Si atom -12392.965450 kJ/mol
# Density = 1.978757 g / cm^3
# Si number density = 19.832715 Si / 1000 Ang^3
#
#
#
# Elastic Constant Matrix: (Units=GPa)
#
#
# Indices 1 2 3 4 5 6 
#
# 1 125.6603 43.7428 48.0128 0.0000 0.0000 0.0000
# 2 43.7428 108.5200 48.3281 0.0000 0.0000 0.0000
# 3 48.0128 48.3281 83.3150 0.0000 0.0000 0.0000
# 4 0.0000 0.0000 0.0000 36.9284 0.0000 0.0000
# 5 0.0000 0.0000 0.0000 0.0000 27.1927 0.0000
# 6 0.0000 0.0000 0.0000 0.0000 0.0000 23.6173
#
#
#
# Elastic Compliance Matrix: (Units=1/GPa)
#
#
# Indices 1 2 3 4 5 6 
#
# 1 0.010543 -0.002082 -0.004868 0.000000 0.000000 0.000000
# 2 -0.002082 0.012835 -0.006246 0.000000 0.000000 0.000000
# 3 -0.004868 -0.006246 0.018431 0.000000 0.000000 0.000000
# 4 0.000000 0.000000 0.000000 0.027079 0.000000 0.000000
# 5 0.000000 0.000000 0.000000 0.000000 0.036775 0.000000
# 6 0.000000 0.000000 0.000000 0.000000 0.000000 0.042342
#
#
# Mechanical properties :
#
#
# Convention : Reuss Voigt Hill
#
# Bulk Modulus (GPa) = 64.85878 66.40697 65.63287
# Shear Modulus (GPa) = 27.84969 29.37510 28.61239
#
# Velocity S-wave (km/s) = 3.75137 3.85274 3.80239
# Velocity P-wave (km/s) = 7.17897 7.30395 7.24173
#
# Compressibility (1/GPa) = 0.01541811
#
# Stress axis : x y z
#
# Youngs Moduli (GPa) = 94.85344 77.90913 54.25660
#
# Poissons Ratio (x) = 0.16218 0.26412
# Poissons Ratio (y) = 0.19745 0.33888
# Poissons Ratio (z) = 0.46175 0.48660
#
# Static dielectric constant tensor:
#      x y z
#    x 3.944220 0.000000 0.000000 
#    y 0.000000 3.833020 0.000000 
#    z 0.000000 0.000000 3.230530 
# 
# 
# High freq. dielectric constant tensor:
#      x y z
#    x 1.789890 0.000000 0.000000 
#    y 0.000000 1.776290 0.000000 
#    z 0.000000 0.000000 1.747870 
# 
# From -- ./inp_files/32162.got.cif
#   From: 2010.03.12/outbox.cif.g09.slc.cpg/sg59_17_cif.got.tgz:32162.got - 2010.04.16 16:29:54.
