data_PCOD8243194
_publ_section_title
;
Structure prediction by ZEFSAII (Michael W. Deem and Ramdas Pophale) SiO2 
 PCOD8243194
Probable space group: P M M N
;
_chemical_formula_sum "Si O2"
_cell_formula_units_Z 56
_cell_length_a 14.209509
_cell_length_b 8.957270
_cell_length_c 22.870998
_cell_angle_alpha 90.000000
_cell_angle_beta 90.000000
_cell_angle_gamma 90.000000
_cell_volume 2910.984230
_symmetry_space_group_name_H-M "P M M N"
_symmetry_group_IT_number 59
_space_group.IT_coordinate_system_code '2'
_symmetry_cell_setting 'orthorhombic'
loop_
_space_group_symop_operation_xyz
x,y,z
1/2-x,1/2-y,z
1/2+x,-y,-z
-x,1/2+y,-z
-x,-y,-z
1/2+x,1/2+y,-z
1/2-x,y,z
x,1/2-y,z
loop_
_atom_site_type_symbol
_atom_site_label
_atom_site_fract_x
_atom_site_fract_y
_atom_site_fract_z
Si Si1 0.453969 0.575640 0.085380
Si Si2 0.642138 0.576818 0.021721
Si Si3 0.358310 0.073392 0.193879
Si Si4 0.350693 0.914747 0.413351
Si Si5 0.147553 0.073184 0.647684
Si Si6 0.040798 0.925543 0.300770
Si Si7 0.904339 0.573956 0.480146
O O1 0.437302 0.750000 0.093936
O O2 0.564927 0.541754 0.072267
O O3 0.424835 0.493392 0.144129
O O4 0.385214 0.520772 0.034134
O O5 0.750000 0.538542 0.041709
O O6 0.635171 0.750000 0.003542
O O7 0.250000 0.017802 0.187966
O O8 0.362208 0.250000 0.189705
O O9 0.401934 0.022415 0.254919
O O10 0.250000 0.905670 0.381060
O O11 0.382180 0.750000 0.435566
O O12 0.425050 0.970081 0.365594
O O13 0.334865 0.024574 0.468158
O O14 0.250000 0.014622 0.668815
O O15 0.147562 0.250000 0.641896
O O16 0.127297 0.009022 0.582726
O O17 0.069800 0.028452 0.696651
O O18 0.055850 0.750000 0.287278
O O19 0.911984 0.750000 0.477490
O O20 0.000000 0.500000 0.500000
#
# Coordination Sequence:
#
# PCOD8243194 Si02
#       7
#     8   8   8   8   8   8   8
#     4  10  20  34  56  86 116 150 192 230 268 320
#     4   9  18  34  56  84 120 156 187 225 272 318
#     4  11  24  40  57  79 109 144 182 226 276 326
#     4  10  20  34  52  77 107 136 170 216 271 327
#     4   9  18  34  56  79 103 135 176 219 265 323
#     4  10  20  37  58  78 103 137 179 224 269 320
#     4  11  20  33  53  77 107 139 175 216 267 327
#
# _framework density 19.237479
#
# number of rings (size 3 to 8) (size 9 to 14) (size 15 to 20)
#    0.000    2.000    1.429    2.571    0.000    5.714 
#    0.000    0.714    0.000    6.429    0.000    0.000 
#    0.000    0.000    0.000    0.000    0.000    0.000 
#
# Total GULP energy -693943.713189 kJ/mol
# GULP energy per Si atom -12391.852021 kJ/mol
# Density = 1.919369 g / cm^3
# Si number density = 19.237479 Si / 1000 Ang^3
#
#
#
# Elastic Constant Matrix: (Units=GPa)
#
#
# Indices 1 2 3 4 5 6 
#
# 1 153.6268 36.4481 44.8636 0.0000 0.0000 0.0000
# 2 36.4481 59.4160 33.6003 0.0000 0.0000 0.0000
# 3 44.8636 33.6003 71.6640 0.0000 0.0000 0.0000
# 4 0.0000 0.0000 0.0000 32.7690 0.0000 0.0000
# 5 0.0000 0.0000 0.0000 0.0000 27.2452 0.0000
# 6 0.0000 0.0000 0.0000 0.0000 0.0000 23.9032
#
#
#
# Elastic Compliance Matrix: (Units=1/GPa)
#
#
# Indices 1 2 3 4 5 6 
#
# 1 0.008326 -0.002939 -0.003834 0.000000 0.000000 0.000000
# 2 -0.002939 0.023941 -0.009385 0.000000 0.000000 0.000000
# 3 -0.003834 -0.009385 0.020755 0.000000 0.000000 0.000000
# 4 0.000000 0.000000 0.000000 0.030517 0.000000 0.000000
# 5 0.000000 0.000000 0.000000 0.000000 0.036704 0.000000
# 6 0.000000 0.000000 0.000000 0.000000 0.000000 0.041835
#
#
# Mechanical properties :
#
#
# Convention : Reuss Voigt Hill
#
# Bulk Modulus (GPa) = 48.29808 57.17008 52.73408
# Shear Modulus (GPa) = 24.83905 28.10315 26.47110
#
# Velocity S-wave (km/s) = 3.59720 3.82626 3.71349
# Velocity P-wave (km/s) = 6.51259 7.02160 6.77188
#
# Compressibility (1/GPa) = 0.02070476
#
# Stress axis : x y z
#
# Youngs Moduli (GPa) = 120.09989 41.76979 48.18218
#
# Poissons Ratio (x) = 0.12278 0.18475
# Poissons Ratio (y) = 0.35301 0.45218
# Poissons Ratio (z) = 0.46051 0.39200
#
# Static dielectric constant tensor:
#      x y z
#    x 3.204560 0.000000 0.000000 
#    y 0.000000 3.980090 0.000000 
#    z 0.000000 0.000000 1.361330 
# 
# 
# High freq. dielectric constant tensor:
#      x y z
#    x 1.772580 0.000000 0.000000 
#    y 0.000000 1.729730 0.000000 
#    z 0.000000 0.000000 1.725660 
# 
# From -- ./inp_files/30330.got.cif
#   From: 2010.03.12/outbox.cif.g09.slc.cpg/sg59_16_cif.got.tgz:30330.got - 2010.04.16 16:29:54.
