data_PCOD8243125
_publ_section_title
;
Structure prediction by ZEFSAII (Michael W. Deem and Ramdas Pophale) SiO2 
 PCOD8243125
Probable space group: P M M N
;
_chemical_formula_sum "Si O2"
_cell_formula_units_Z 48
_cell_length_a 26.183249
_cell_length_b 8.562948
_cell_length_c 11.876375
_cell_angle_alpha 90.000000
_cell_angle_beta 90.000000
_cell_angle_gamma 90.000000
_cell_volume 2662.752154
_symmetry_space_group_name_H-M "P M M N"
_symmetry_group_IT_number 59
_space_group.IT_coordinate_system_code '2'
_symmetry_cell_setting 'orthorhombic'
loop_
_space_group_symop_operation_xyz
x,y,z
1/2-x,1/2-y,z
1/2+x,-y,-z
-x,1/2+y,-z
-x,-y,-z
1/2+x,1/2+y,-z
1/2-x,y,z
x,1/2-y,z
loop_
_atom_site_type_symbol
_atom_site_label
_atom_site_fract_x
_atom_site_fract_y
_atom_site_fract_z
Si Si1 0.065342 0.931788 0.211263
Si Si2 0.104268 0.070237 0.674298
Si Si3 0.538404 0.069931 0.144573
Si Si4 0.882382 0.931929 0.982127
Si Si5 0.448053 0.430401 0.450322
Si Si6 0.806430 0.565422 0.171054
O O1 0.053507 0.750000 0.206333
O O2 0.115613 0.975786 0.137328
O O3 0.071736 0.980767 0.340431
O O4 0.020716 0.026789 0.149530
O O5 0.094183 0.250000 0.710031
O O6 0.098009 0.049884 0.540456
O O7 0.160430 0.017947 0.718294
O O8 0.061370 0.963352 0.731967
O O9 0.545254 0.250000 0.111500
O O10 0.566204 0.963347 0.052736
O O11 0.877112 0.750000 0.956017
O O12 0.834612 0.993399 0.057151
O O13 0.500000 0.500000 0.500000
O O14 0.457786 0.250000 0.420761
O O15 0.750000 0.488755 0.179486
O O16 0.801341 0.750000 0.165489
#
# Coordination Sequence:
#
# PCOD8243125 Si02
#       6
#     8   8   8   8   8   8
#     4  12  23  34  48  69 102 141 179 213 251 303
#     4   9  18  32  51  76 105 134 170 212 253 301
#     4  11  20  31  49  72 102 137 172 209 252 304
#     4  10  20  34  51  74 103 132 168 212 258 310
#     4  11  21  33  50  73 104 143 180 214 250 300
#     4   8  15  31  57  83 102 124 159 211 268 313
#
# _framework density 18.026461999999999
#
# number of rings (size 3 to 8) (size 9 to 14) (size 15 to 20)
#    0.000    1.833    1.667    5.500    0.000    0.667 
#    0.000    0.000    0.000   13.500    0.000    4.667 
#    0.000    0.000    0.000    0.000    0.000    0.000 
#
# Total GULP energy -595074.919210 kJ/mol
# GULP energy per Si atom -12397.394150 kJ/mol
# Density = 1.798543 g / cm^3
# Si number density = 18.026462 Si / 1000 Ang^3
#
#
#
# Elastic Constant Matrix: (Units=GPa)
#
#
# Indices 1 2 3 4 5 6 
#
# 1 99.5300 17.3062 50.5173 0.0000 0.0000 0.0000
# 2 17.3062 63.9800 21.3411 0.0000 0.0000 0.0000
# 3 50.5173 21.3411 114.4548 0.0000 0.0000 0.0000
# 4 0.0000 0.0000 0.0000 29.0306 0.0000 0.0000
# 5 0.0000 0.0000 0.0000 0.0000 14.9060 0.0000
# 6 0.0000 0.0000 0.0000 0.0000 0.0000 13.6175
#
#
#
# Elastic Compliance Matrix: (Units=1/GPa)
#
#
# Indices 1 2 3 4 5 6 
#
# 1 0.013124 -0.001725 -0.005471 0.000000 0.000000 0.000000
# 2 -0.001725 0.016893 -0.002388 0.000000 0.000000 0.000000
# 3 -0.005471 -0.002388 0.011597 0.000000 0.000000 0.000000
# 4 0.000000 0.000000 0.000000 0.034446 0.000000 0.000000
# 5 0.000000 0.000000 0.000000 0.000000 0.067087 0.000000
# 6 0.000000 0.000000 0.000000 0.000000 0.000000 0.073435
#
#
# Mechanical properties :
#
#
# Convention : Reuss Voigt Hill
#
# Bulk Modulus (GPa) = 44.55259 50.69931 47.62595
# Shear Modulus (GPa) = 20.55639 24.09751 22.32695
#
# Velocity S-wave (km/s) = 3.38056 3.66017 3.52314
# Velocity P-wave (km/s) = 6.32506 6.78590 6.55953
#
# Compressibility (1/GPa) = 0.02244538
#
# Stress axis : x y z
#
# Youngs Moduli (GPa) = 76.19639 59.19536 86.22810
#
# Poissons Ratio (x) = 0.10212 0.47175
# Poissons Ratio (y) = 0.13144 0.20595
# Poissons Ratio (z) = 0.41686 0.14139
#
# Static dielectric constant tensor:
#      x y z
#    x 3.378780 0.000000 0.000000 
#    y 0.000000 3.240260 0.000000 
#    z 0.000000 0.000000 3.535770 
# 
# 
# High freq. dielectric constant tensor:
#      x y z
#    x 1.659620 0.000000 0.000000 
#    y 0.000000 1.692160 0.000000 
#    z 0.000000 0.000000 1.704180 
# 
# From -- ./inp_files/14510.got.cif
#   From: 2010.03.12/outbox.cif.g09.slc.cpg/sg59_8_cif.got.tgz:14510.got - 2010.04.16 16:29:54.
