data_PCOD8243701
_publ_section_title
;
Structure prediction by ZEFSAII (Michael W. Deem and Ramdas Pophale) SiO2 
 PCOD8243701
Probable space group: P M M N
;
_chemical_formula_sum "Si O2"
_cell_formula_units_Z 64
_cell_length_a 29.148778
_cell_length_b 8.830405
_cell_length_c 12.526769
_cell_angle_alpha 90.000000
_cell_angle_beta 90.000000
_cell_angle_gamma 90.000000
_cell_volume 3224.334158
_symmetry_space_group_name_H-M "P M M N"
_symmetry_group_IT_number 59
_space_group.IT_coordinate_system_code '2'
_symmetry_cell_setting 'orthorhombic'
loop_
_space_group_symop_operation_xyz
x,y,z
1/2-x,1/2-y,z
1/2+x,-y,-z
-x,1/2+y,-z
-x,-y,-z
1/2+x,1/2+y,-z
1/2-x,y,z
x,1/2-y,z
loop_
_atom_site_type_symbol
_atom_site_label
_atom_site_fract_x
_atom_site_fract_y
_atom_site_fract_z
Si Si1 0.798728 0.424440 0.928074
Si Si2 0.832425 0.078110 0.155714
Si Si3 0.422697 0.427051 0.912191
Si Si4 0.438890 0.424890 0.331183
Si Si5 0.041022 0.574568 0.716996
Si Si6 0.801339 0.074169 0.388434
Si Si7 0.102685 0.570756 0.126461
Si Si8 0.891956 0.572299 0.449276
O O1 0.750000 0.498366 0.888210
O O2 0.798042 0.250000 0.894983
O O3 0.844939 0.496394 0.877430
O O4 0.798792 0.443074 0.055937
O O5 0.851978 0.250000 0.157782
O O6 0.804687 0.040328 0.262445
O O7 0.874489 0.963060 0.144327
O O8 0.430097 0.250000 0.925446
O O9 0.461498 0.493059 0.832622
O O10 0.426623 0.501598 0.029120
O O11 0.428481 0.250000 0.304669
O O12 0.493108 0.454308 0.343255
O O13 0.419227 0.528258 0.237983
O O14 0.415072 0.477125 0.439999
O O15 0.050329 0.750000 0.736424
O O16 0.082709 0.511710 0.646815
O O17 0.750000 0.027678 0.425619
O O18 0.810416 0.250000 0.412888
O O19 0.838639 0.976199 0.452927
O O20 0.103289 0.750000 0.110677
O O21 0.896524 0.750000 0.430296
#
# Coordination Sequence:
#
# PCOD8243701 Si02
#       8
#     8   8   8   8   8   8   8   8
#     4   8  14  27  50  80 110 142 184 232 279 327
#     4   9  16  29  51  80 115 151 188 232 279 336
#     4  11  21  34  56  86 122 155 183 229 290 350
#     4  10  24  43  61  82 112 152 196 243 296 350
#     4  11  22  39  63  88 114 148 193 242 292 353
#     4  10  20  34  56  86 119 157 197 236 282 339
#     4  10  21  37  59  85 115 153 196 240 288 344
#     4  11  23  40  61  87 119 152 190 242 300 349
#
# _framework density 19.849057999999999
#
# number of rings (size 3 to 8) (size 9 to 14) (size 15 to 20)
#    0.000    2.000    1.250    3.750    0.000    4.250 
#    0.000    0.625    0.000   14.625    0.000    0.000 
#    0.000    0.000    0.000    0.000    0.000    0.000 
#
# Total GULP energy -793480.680494 kJ/mol
# GULP energy per Si atom -12398.135633 kJ/mol
# Density = 1.980388 g / cm^3
# Si number density = 19.849058 Si / 1000 Ang^3
#
#
#
# Elastic Constant Matrix: (Units=GPa)
#
#
# Indices 1 2 3 4 5 6 
#
# 1 92.0780 25.0457 31.3865 0.0000 0.0000 0.0000
# 2 25.0457 81.7638 35.4377 0.0000 0.0000 0.0000
# 3 31.3865 35.4377 85.2416 0.0000 0.0000 0.0000
# 4 0.0000 0.0000 0.0000 27.0860 0.0000 0.0000
# 5 0.0000 0.0000 0.0000 0.0000 17.6235 0.0000
# 6 0.0000 0.0000 0.0000 0.0000 0.0000 25.2953
#
#
#
# Elastic Compliance Matrix: (Units=1/GPa)
#
#
# Indices 1 2 3 4 5 6 
#
# 1 0.012759 -0.002284 -0.003749 0.000000 0.000000 0.000000
# 2 -0.002284 0.015327 -0.005531 0.000000 0.000000 0.000000
# 3 -0.003749 -0.005531 0.015411 0.000000 0.000000 0.000000
# 4 0.000000 0.000000 0.000000 0.036919 0.000000 0.000000
# 5 0.000000 0.000000 0.000000 0.000000 0.056743 0.000000
# 6 0.000000 0.000000 0.000000 0.000000 0.000000 0.039533
#
#
# Mechanical properties :
#
#
# Convention : Reuss Voigt Hill
#
# Bulk Modulus (GPa) = 49.09024 49.20259 49.14641
# Shear Modulus (GPa) = 24.20019 25.14851 24.67435
#
# Velocity S-wave (km/s) = 3.49551 3.56334 3.52959
# Velocity P-wave (km/s) = 6.40913 6.46313 6.43618
#
# Compressibility (1/GPa) = 0.02037065
#
# Stress axis : x y z
#
# Youngs Moduli (GPa) = 78.37400 65.24363 64.88819
#
# Poissons Ratio (x) = 0.14899 0.24324
# Poissons Ratio (y) = 0.17898 0.35891
# Poissons Ratio (z) = 0.29380 0.36087
#
# Static dielectric constant tensor:
#      x y z
#    x 3.802350 0.000000 0.000000 
#    y 0.000000 3.410710 0.000000 
#    z 0.000000 0.000000 3.500760 
# 
# 
# High freq. dielectric constant tensor:
#      x y z
#    x 1.781010 0.000000 0.000000 
#    y 0.000000 1.755940 0.000000 
#    z 0.000000 0.000000 1.760130 
# 
# From -- ./inp_files/19200.got.cif
#   From: 2010.03.12/outbox.cif.g09.slc.cpg/sg59_10_cif.got.tgz:19200.got - 2010.04.16 16:29:54.
