data_PCOD8243903
_publ_section_title
;
Structure prediction by ZEFSAII (Michael W. Deem and Ramdas Pophale) SiO2 
 PCOD8243903
Probable space group: P M M N
;
_chemical_formula_sum "Si O2"
_cell_formula_units_Z 40
_cell_length_a 20.580556
_cell_length_b 8.644560
_cell_length_c 11.566250
_cell_angle_alpha 90.000000
_cell_angle_beta 90.000000
_cell_angle_gamma 90.000000
_cell_volume 2057.749816
_symmetry_space_group_name_H-M "P M M N"
_symmetry_group_IT_number 59
_space_group.IT_coordinate_system_code '2'
_symmetry_cell_setting 'orthorhombic'
loop_
_space_group_symop_operation_xyz
x,y,z
1/2-x,1/2-y,z
1/2+x,-y,-z
-x,1/2+y,-z
-x,-y,-z
1/2+x,1/2+y,-z
1/2-x,y,z
x,1/2-y,z
loop_
_atom_site_type_symbol
_atom_site_label
_atom_site_fract_x
_atom_site_fract_y
_atom_site_fract_z
Si Si1 0.373955 0.933332 0.762908
Si Si2 0.927236 0.933325 0.006364
Si Si3 0.377199 0.066868 0.239724
Si Si4 0.250000 0.066560 0.634305
Si Si5 0.250000 0.065419 0.368284
Si Si6 0.000321 0.567253 0.625323
O O1 0.366500 0.750000 0.768116
O O2 0.435390 0.988900 0.689419
O O3 0.384192 0.997568 0.891129
O O4 0.311928 0.005759 0.702378
O O5 0.933580 0.750000 0.017994
O O6 0.885608 0.981378 0.893539
O O7 0.000000 0.000000 0.000000
O O8 0.376128 0.250000 0.251183
O O9 0.312216 0.998783 0.298841
O O10 0.438641 0.997903 0.307865
O O11 0.250000 0.250000 0.635926
O O12 0.250000 0.005752 0.501278
O O13 0.250000 0.250000 0.367618
O O14 0.996908 0.750000 0.620460
O O15 0.000000 0.500000 0.500000
#
# Coordination Sequence:
#
# PCOD8243903 Si02
#       6
#     8   8   8   4   4   8
#     4  11  23  40  60  85 122 162 199 250 310 360
#     4  11  21  37  61  88 122 158 204 255 304 362
#     4   9  18  34  55  83 117 155 194 243 299 350
#     4  11  23  40  63  90 118 155 202 247 298 371
#     4   9  18  34  59  86 118 151 192 247 298 353
#     4  10  20  35  55  82 116 154 200 250 301 354
#
# _framework density 19.43871
#
# number of rings (size 3 to 8) (size 9 to 14) (size 15 to 20)
#    0.000    1.800    2.000    2.700    0.000    4.000 
#    0.000    2.000    0.000    3.600    0.000    0.000 
#    0.000    0.000    0.000    0.000    0.000    0.000 
#
# Total GULP energy -495982.239595 kJ/mol
# GULP energy per Si atom -12399.555990 kJ/mol
# Density = 1.939447 g / cm^3
# Si number density = 19.438710 Si / 1000 Ang^3
#
#
#
# Elastic Constant Matrix: (Units=GPa)
#
#
# Indices 1 2 3 4 5 6 
#
# 1 197.3494 39.0576 112.1477 0.0000 0.0000 0.0000
# 2 39.0576 45.2402 40.0821 0.0000 0.0000 0.0000
# 3 112.1477 40.0821 205.6827 0.0000 0.0000 0.0000
# 4 0.0000 0.0000 0.0000 30.0275 0.0000 0.0000
# 5 0.0000 0.0000 0.0000 0.0000 53.6702 0.0000
# 6 0.0000 0.0000 0.0000 0.0000 0.0000 13.3810
#
#
#
# Elastic Compliance Matrix: (Units=1/GPa)
#
#
# Indices 1 2 3 4 5 6 
#
# 1 0.007795 -0.003582 -0.003552 0.000000 0.000000 0.000000
# 2 -0.003582 0.028364 -0.003574 0.000000 0.000000 0.000000
# 3 -0.003552 -0.003574 0.007495 0.000000 0.000000 0.000000
# 4 0.000000 0.000000 0.000000 0.033303 0.000000 0.000000
# 5 0.000000 0.000000 0.000000 0.000000 0.018632 0.000000
# 6 0.000000 0.000000 0.000000 0.000000 0.000000 0.074733
#
#
# Mechanical properties :
#
#
# Convention : Reuss Voigt Hill
#
# Bulk Modulus (GPa) = 44.97098 92.31635 68.64367
# Shear Modulus (GPa) = 25.10670 36.54805 30.82738
#
# Velocity S-wave (km/s) = 3.59776 4.34080 3.98663
# Velocity P-wave (km/s) = 6.35952 8.52745 7.52200
#
# Compressibility (1/GPa) = 0.02223656
#
# Stress axis : x y z
#
# Youngs Moduli (GPa) = 128.29455 35.25640 133.42316
#
# Poissons Ratio (x) = 0.12631 0.47390
# Poissons Ratio (y) = 0.45961 0.47685
# Poissons Ratio (z) = 0.45568 0.12601
#
# Static dielectric constant tensor:
#      x y z
#    x 3.835900 0.000000 0.000000 
#    y 0.000000 3.290580 0.000000 
#    z 0.000000 0.000000 3.814750 
# 
# 
# High freq. dielectric constant tensor:
#      x y z
#    x 1.768500 0.000000 0.000000 
#    y 0.000000 1.732220 0.000000 
#    z 0.000000 0.000000 1.777450 
# 
# From -- ./inp_files/18170.got.cif
#   From: 2010.03.12/outbox.cif.g09.slc.cpg/sg59_10_cif.got.tgz:18170.got - 2010.04.16 16:29:54.
