data_PCOD8243225
_publ_section_title
;
Structure prediction by ZEFSAII (Michael W. Deem and Ramdas Pophale) SiO2 
 PCOD8243225
Probable space group: P M M N
;
_chemical_formula_sum "Si O2"
_cell_formula_units_Z 48
_cell_length_a 9.496523
_cell_length_b 9.218118
_cell_length_c 31.066908
_cell_angle_alpha 90.000000
_cell_angle_beta 90.000000
_cell_angle_gamma 90.000000
_cell_volume 2719.599289
_symmetry_space_group_name_H-M "P M M N"
_symmetry_group_IT_number 59
_space_group.IT_coordinate_system_code '2'
_symmetry_cell_setting 'orthorhombic'
loop_
_space_group_symop_operation_xyz
x,y,z
1/2-x,1/2-y,z
1/2+x,-y,-z
-x,1/2+y,-z
-x,-y,-z
1/2+x,1/2+y,-z
1/2-x,y,z
x,1/2-y,z
loop_
_atom_site_type_symbol
_atom_site_label
_atom_site_fract_x
_atom_site_fract_y
_atom_site_fract_z
Si Si1 0.082382 0.589052 0.869623
Si Si2 0.089570 0.921296 0.964356
Si Si3 0.082969 0.413679 0.378084
Si Si4 0.085667 0.581349 0.294333
Si Si5 0.584190 0.080271 0.537066
Si Si6 0.088738 0.420099 0.787525
O O1 0.250000 0.592013 0.870087
O O2 0.023133 0.750000 0.861057
O O3 0.032923 0.533309 0.916725
O O4 0.025886 0.487515 0.831369
O O5 0.250000 0.971681 0.970130
O O6 0.075706 0.750000 0.970026
O O7 0.000000 0.000000 0.000000
O O8 0.250000 0.409908 0.377161
O O9 0.022073 0.250000 0.381401
O O10 0.027725 0.489973 0.334727
O O11 0.032092 0.508966 0.418412
O O12 0.250000 0.553858 0.286184
O O13 0.055037 0.750000 0.303673
O O14 0.002350 0.524484 0.252684
O O15 0.750000 0.056144 0.529794
O O16 0.546010 0.250000 0.537689
O O17 0.500000 0.000000 0.500000
O O18 0.250000 0.468011 0.779889
O O19 0.074521 0.250000 0.792842
#
# Coordination Sequence:
#
# PCOD8243225 Si02
#       6
#     8   8   8   8   8   8
#     4   8  15  29  47  65  88 119 152 185 224 273
#     4   9  18  32  49  70  95 123 157 196 237 283
#     4   9  17  30  49  71  94 123 160 197 232 277
#     4   9  17  30  47  66  90 120 152 187 229 275
#     4  10  20  34  53  76 101 130 164 201 242 288
#     4   9  17  29  46  68  91 116 150 189 227 271
#
# _framework density 17.649659
#
# number of rings (size 3 to 8) (size 9 to 14) (size 15 to 20)
#    0.000    3.000    0.000    2.000    0.000    4.667 
#    0.000    3.333    0.000    6.000    0.000    0.000 
#    0.000    0.000    0.000    0.000    0.000    0.000 
#
# Total GULP energy -595053.902925 kJ/mol
# GULP energy per Si atom -12396.956311 kJ/mol
# Density = 1.760949 g / cm^3
# Si number density = 17.649659 Si / 1000 Ang^3
#
#
#
# Elastic Constant Matrix: (Units=GPa)
#
#
# Indices 1 2 3 4 5 6 
#
# 1 40.7211 34.9171 55.9368 0.0000 0.0000 0.0000
# 2 34.9171 92.3959 86.3080 0.0000 0.0000 0.0000
# 3 55.9368 86.3080 200.6864 0.0000 0.0000 0.0000
# 4 0.0000 0.0000 0.0000 40.9550 0.0000 0.0000
# 5 0.0000 0.0000 0.0000 0.0000 32.0622 0.0000
# 6 0.0000 0.0000 0.0000 0.0000 0.0000 20.2920
#
#
#
# Elastic Compliance Matrix: (Units=1/GPa)
#
#
# Indices 1 2 3 4 5 6 
#
# 1 0.043486 -0.008544 -0.008446 0.000000 0.000000 0.000000
# 2 -0.008544 0.019769 -0.006121 0.000000 0.000000 0.000000
# 3 -0.008446 -0.006121 0.009969 0.000000 0.000000 0.000000
# 4 0.000000 0.000000 0.000000 0.024417 0.000000 0.000000
# 5 0.000000 0.000000 0.000000 0.000000 0.031189 0.000000
# 6 0.000000 0.000000 0.000000 0.000000 0.000000 0.049280
#
#
# Mechanical properties :
#
#
# Convention : Reuss Voigt Hill
#
# Bulk Modulus (GPa) = 37.03327 76.45857 56.74592
# Shear Modulus (GPa) = 21.42859 29.10460 25.26660
#
# Velocity S-wave (km/s) = 3.48819 4.06522 3.78770
# Velocity P-wave (km/s) = 6.10338 8.09004 7.16589
#
# Compressibility (1/GPa) = 0.02700275
#
# Stress axis : x y z
#
# Youngs Moduli (GPa) = 22.99611 50.58405 100.30761
#
# Poissons Ratio (x) = 0.43218 0.84722
# Poissons Ratio (y) = 0.19648 0.61394
# Poissons Ratio (z) = 0.19423 0.30960
#
# Static dielectric constant tensor:
#      x y z
#    x 2.891630 0.000000 0.000000 
#    y 0.000000 3.502650 0.000000 
#    z 0.000000 0.000000 3.720740 
# 
# 
# High freq. dielectric constant tensor:
#      x y z
#    x 1.640090 0.000000 0.000000 
#    y 0.000000 1.683290 0.000000 
#    z 0.000000 0.000000 1.699500 
# 
# From -- ./inp_files/31218.got.cif
#   From: 2010.03.12/outbox.cif.g09.slc.cpg/sg59_16_cif.got.tgz:31218.got - 2010.04.16 16:29:54.
