data_PCOD8243232
_publ_section_title
;
Structure prediction by ZEFSAII (Michael W. Deem and Ramdas Pophale) SiO2 
 PCOD8243232
Probable space group: P M M N
;
_chemical_formula_sum "Si O2"
_cell_formula_units_Z 56
_cell_length_a 9.164173
_cell_length_b 13.989591
_cell_length_c 22.671754
_cell_angle_alpha 90.000000
_cell_angle_beta 90.000000
_cell_angle_gamma 90.000000
_cell_volume 2906.587606
_symmetry_space_group_name_H-M "P M M N"
_symmetry_group_IT_number 59
_space_group.IT_coordinate_system_code '2'
_symmetry_cell_setting 'orthorhombic'
loop_
_space_group_symop_operation_xyz
x,y,z
1/2-x,1/2-y,z
1/2+x,-y,-z
-x,1/2+y,-z
-x,-y,-z
1/2+x,1/2+y,-z
1/2-x,y,z
x,1/2-y,z
loop_
_atom_site_type_symbol
_atom_site_label
_atom_site_fract_x
_atom_site_fract_y
_atom_site_fract_z
Si Si1 0.420655 0.472604 0.414508
Si Si2 0.921865 0.859239 0.469537
Si Si3 0.915973 0.647889 0.154313
Si Si4 0.912898 0.598759 0.930688
Si Si5 0.082071 0.360644 0.298070
Si Si6 0.422109 0.558526 0.812968
Si Si7 0.911523 0.380202 0.960706
O O1 0.250000 0.493965 0.416667
O O2 0.502778 0.574119 0.420244
O O3 0.466045 0.399464 0.466302
O O4 0.467598 0.423612 0.353625
O O5 0.750000 0.863786 0.459512
O O6 0.977962 0.750000 0.463865
O O7 0.750000 0.631377 0.133641
O O8 0.930999 0.750000 0.189638
O O9 0.962970 0.555026 0.192357
O O10 0.011178 0.661176 0.096455
O O11 0.750000 0.641613 0.921300
O O12 0.900836 0.492982 0.955434
O O13 0.000632 0.604848 0.869581
O O14 0.000930 0.655381 0.981230
O O15 0.250000 0.381350 0.281379
O O16 0.059805 0.250000 0.314436
O O17 0.979664 0.388167 0.244174
O O18 0.250000 0.575171 0.818442
O O19 0.750000 0.336248 0.964877
#
# Coordination Sequence:
#
# PCOD8243232 Si02
#       7
#     8   8   8   8   8   8   8
#     4   9  18  33  54  80 110 144 182 220 258 304
#     4   9  17  31  53  82 115 148 180 216 260 307
#     4   9  18  33  51  71  98 133 169 204 250 311
#     4   9  16  28  47  69  96 130 164 201 251 309
#     4  10  21  38  58  77 100 134 174 214 259 312
#     4  10  20  34  53  76 102 132 170 217 261 301
#     4   9  16  26  44  71  98 124 159 204 253 303
#
# _framework density 19.266577999999999
#
# number of rings (size 3 to 8) (size 9 to 14) (size 15 to 20)
#    0.000    2.714    0.000    1.714    0.000    7.143 
#    0.000    1.429    0.000    9.429    0.000    0.000 
#    0.000    0.000    0.000    0.000    0.000    0.000 
#
# Total GULP energy -694074.531935 kJ/mol
# GULP energy per Si atom -12394.188070 kJ/mol
# Density = 1.922273 g / cm^3
# Si number density = 19.266578 Si / 1000 Ang^3
#
#
#
# Elastic Constant Matrix: (Units=GPa)
#
#
# Indices 1 2 3 4 5 6 
#
# 1 89.4417 32.0866 46.2389 0.0000 0.0000 0.0000
# 2 32.0866 109.1733 34.9012 0.0000 0.0000 0.0000
# 3 46.2389 34.9012 99.5441 0.0000 0.0000 0.0000
# 4 0.0000 0.0000 0.0000 1.7912 0.0000 0.0000
# 5 0.0000 0.0000 0.0000 0.0000 28.1772 0.0000
# 6 0.0000 0.0000 0.0000 0.0000 0.0000 16.8684
#
#
#
# Elastic Compliance Matrix: (Units=1/GPa)
#
#
# Indices 1 2 3 4 5 6 
#
# 1 0.015299 -0.002505 -0.006228 0.000000 0.000000 0.000000
# 2 -0.002505 0.010726 -0.002597 0.000000 0.000000 0.000000
# 3 -0.006228 -0.002597 0.013849 0.000000 0.000000 0.000000
# 4 0.000000 0.000000 0.000000 0.558277 0.000000 0.000000
# 5 0.000000 0.000000 0.000000 0.000000 0.035490 0.000000
# 6 0.000000 0.000000 0.000000 0.000000 0.000000 0.059282
#
#
# Mechanical properties :
#
#
# Convention : Reuss Voigt Hill
#
# Bulk Modulus (GPa) = 58.09326 58.29029 58.19177
# Shear Modulus (GPa) = 6.93172 21.69621 14.31396
#
# Velocity S-wave (km/s) = 1.89884 3.35939 2.72865
# Velocity P-wave (km/s) = 5.91822 6.73555 6.34007
#
# Compressibility (1/GPa) = 0.01721370
#
# Stress axis : x y z
#
# Youngs Moduli (GPa) = 65.36374 93.22862 72.20583
#
# Poissons Ratio (x) = 0.23358 0.44970
# Poissons Ratio (y) = 0.16376 0.18752
# Poissons Ratio (z) = 0.40709 0.24211
#
# Static dielectric constant tensor:
#      x y z
#    x 3.649080 0.000000 0.000000 
#    y 0.000000 3.652440 0.000000 
#    z 0.000000 0.000000 3.286170 
# 
# 
# High freq. dielectric constant tensor:
#      x y z
#    x 1.752350 0.000000 0.000000 
#    y 0.000000 1.758610 0.000000 
#    z 0.000000 0.000000 1.720960 
# 
# From -- ./inp_files/29015.got.cif
#   From: 2010.03.12/outbox.cif.g09.slc.cpg/sg59_15_cif.got.tgz:29015.got - 2010.04.16 16:29:54.
