data_PCOD8243151
_publ_section_title
;
Structure prediction by ZEFSAII (Michael W. Deem and Ramdas Pophale) SiO2 
 PCOD8243151
Probable space group: P M M N
;
_chemical_formula_sum "Si O2"
_cell_formula_units_Z 48
_cell_length_a 9.284473
_cell_length_b 14.063783
_cell_length_c 21.062967
_cell_angle_alpha 90.000000
_cell_angle_beta 90.000000
_cell_angle_gamma 90.000000
_cell_volume 2750.292989
_symmetry_space_group_name_H-M "P M M N"
_symmetry_group_IT_number 59
_space_group.IT_coordinate_system_code '2'
_symmetry_cell_setting 'orthorhombic'
loop_
_space_group_symop_operation_xyz
x,y,z
1/2-x,1/2-y,z
1/2+x,-y,-z
-x,1/2+y,-z
-x,-y,-z
1/2+x,1/2+y,-z
1/2-x,y,z
x,1/2-y,z
loop_
_atom_site_type_symbol
_atom_site_label
_atom_site_fract_x
_atom_site_fract_y
_atom_site_fract_z
Si Si1 0.583570 0.359352 0.157661
Si Si2 0.918070 0.141944 0.505412
Si Si3 0.919327 0.511996 0.934368
Si Si4 0.418751 0.487529 0.595882
Si Si5 0.916916 0.141969 0.830409
Si Si6 0.917423 0.987341 0.260265
O O1 0.750000 0.373647 0.137758
O O2 0.547462 0.250000 0.171122
O O3 0.483102 0.395724 0.100749
O O4 0.547403 0.416321 0.221971
O O5 0.750000 0.133063 0.520201
O O6 0.964481 0.250000 0.492474
O O7 0.001537 0.103613 0.566848
O O8 0.961176 0.082181 0.442980
O O9 0.750000 0.526783 0.945665
O O10 0.952939 0.418157 0.893241
O O11 0.000000 0.500000 0.000000
O O12 0.250000 0.467329 0.592167
O O13 0.470862 0.502621 0.667929
O O14 0.750000 0.134631 0.813271
O O15 0.964706 0.250000 0.843674
O O16 0.001857 0.102363 0.769931
O O17 0.750000 0.962895 0.257958
#
# Coordination Sequence:
#
# PCOD8243151 Si02
#       6
#     8   8   8   8   8   8
#     4   9  18  33  52  73  98 128 161 198 241 289
#     4   9  18  32  49  69  94 126 163 199 235 281
#     4  10  20  34  52  74 100 129 162 200 241 285
#     4   9  18  32  49  70  97 126 157 197 243 286
#     4   9  19  35  52  70  95 128 162 195 234 282
#     4   9  18  32  50  73  98 124 157 198 242 286
#
# _framework density 17.452686
#
# number of rings (size 3 to 8) (size 9 to 14) (size 15 to 20)
#    0.000    2.833    0.000    0.500    0.000    4.333 
#    0.000    8.333    0.000    0.000    0.000    9.333 
#    0.000    0.000    0.000    0.000    0.000    0.000 
#
# Total GULP energy -595286.245420 kJ/mol
# GULP energy per Si atom -12401.796780 kJ/mol
# Density = 1.741296 g / cm^3
# Si number density = 17.452686 Si / 1000 Ang^3
#
#
#
# Elastic Constant Matrix: (Units=GPa)
#
#
# Indices 1 2 3 4 5 6 
#
# 1 55.3947 44.9800 56.4082 0.0000 0.0000 0.0000
# 2 44.9800 131.7626 59.9700 0.0000 0.0000 0.0000
# 3 56.4082 59.9700 148.6433 0.0000 0.0000 0.0000
# 4 0.0000 0.0000 0.0000 14.3436 0.0000 0.0000
# 5 0.0000 0.0000 0.0000 0.0000 30.5698 0.0000
# 6 0.0000 0.0000 0.0000 0.0000 0.0000 28.9608
#
#
#
# Elastic Compliance Matrix: (Units=1/GPa)
#
#
# Indices 1 2 3 4 5 6 
#
# 1 0.034016 -0.007027 -0.010074 0.000000 0.000000 0.000000
# 2 -0.007027 0.010748 -0.001670 0.000000 0.000000 0.000000
# 3 -0.010074 -0.001670 0.011224 0.000000 0.000000 0.000000
# 4 0.000000 0.000000 0.000000 0.069717 0.000000 0.000000
# 5 0.000000 0.000000 0.000000 0.000000 0.032712 0.000000
# 6 0.000000 0.000000 0.000000 0.000000 0.000000 0.034529
#
#
# Mechanical properties :
#
#
# Convention : Reuss Voigt Hill
#
# Bulk Modulus (GPa) = 54.20803 73.16855 63.68829
# Shear Modulus (GPa) = 21.12936 26.40434 23.76685
#
# Velocity S-wave (km/s) = 3.48324 3.89383 3.69424
# Velocity P-wave (km/s) = 6.87784 7.88866 7.40053
#
# Compressibility (1/GPa) = 0.01844745
#
# Stress axis : x y z
#
# Youngs Moduli (GPa) = 29.39764 93.03864 89.09554
#
# Poissons Ratio (x) = 0.65381 0.89751
# Poissons Ratio (y) = 0.20659 0.14875
# Poissons Ratio (z) = 0.29614 0.15534
#
# Static dielectric constant tensor:
#      x y z
#    x 3.242310 0.000000 0.000000 
#    y 0.000000 3.355250 0.000000 
#    z 0.000000 0.000000 3.328820 
# 
# 
# High freq. dielectric constant tensor:
#      x y z
#    x 1.672250 0.000000 0.000000 
#    y 0.000000 1.674830 0.000000 
#    z 0.000000 0.000000 1.674600 
# 
# From -- ./inp_files/28817.got.cif
#   From: 2010.03.12/outbox.cif.g09.slc.cpg/sg59_15_cif.got.tgz:28817.got - 2010.04.16 16:29:54.
