data_PCOD8243017
_publ_section_title
;
Structure prediction by ZEFSAII (Michael W. Deem and Ramdas Pophale) SiO2 
 PCOD8243017
Probable space group: P M M N
;
_chemical_formula_sum "Si O2"
_cell_formula_units_Z 48
_cell_length_a 9.721161
_cell_length_b 8.823622
_cell_length_c 28.783962
_cell_angle_alpha 90.000000
_cell_angle_beta 90.000000
_cell_angle_gamma 90.000000
_cell_volume 2468.968809
_symmetry_space_group_name_H-M "P M M N"
_symmetry_group_IT_number 59
_space_group.IT_coordinate_system_code '2'
_symmetry_cell_setting 'orthorhombic'
loop_
_space_group_symop_operation_xyz
x,y,z
1/2-x,1/2-y,z
1/2+x,-y,-z
-x,1/2+y,-z
-x,-y,-z
1/2+x,1/2+y,-z
1/2-x,y,z
x,1/2-y,z
loop_
_atom_site_type_symbol
_atom_site_label
_atom_site_fract_x
_atom_site_fract_y
_atom_site_fract_z
Si Si1 0.597669 0.429788 0.376620
Si Si2 0.091316 0.430134 0.459544
Si Si3 0.089510 0.576771 0.727580
Si Si4 0.250000 0.429715 0.034822
Si Si5 0.250000 0.428636 0.930847
Si Si6 0.481498 0.071549 0.103989
Si Si7 0.904623 0.077628 0.802374
O O1 0.750000 0.492201 0.391068
O O2 0.605187 0.250000 0.376781
O O3 0.479355 0.487065 0.411656
O O4 0.560586 0.483432 0.324616
O O5 0.250000 0.487570 0.461434
O O6 0.086434 0.250000 0.463685
O O7 0.000000 0.500000 0.500000
O O8 0.250000 0.564651 0.739486
O O9 0.039314 0.750000 0.733324
O O10 0.007638 0.469835 0.762051
O O11 0.250000 0.250000 0.033443
O O12 0.116323 0.486660 0.062473
O O13 0.250000 0.499281 0.982991
O O14 0.250000 0.250000 0.934286
O O15 0.377649 0.483906 0.901338
O O16 0.506321 0.250000 0.101479
O O17 0.417417 0.031060 0.153403
O O18 0.750000 0.062711 0.782979
O O19 0.937701 0.250000 0.817164
#
# Coordination Sequence:
#
# PCOD8243017 Si02
#       7
#     8   8   8   4   4   8   8
#     4   8  15  31  54  79 108 142 182 230 281 332
#     4  10  20  33  52  80 112 148 191 236 282 335
#     4   9  19  36  60  87 111 140 182 230 280 338
#     4   9  20  39  63  87 115 147 189 233 276 327
#     4  11  23  39  59  89 121 149 181 229 284 335
#     4  11  22  40  62  86 113 149 192 233 274 329
#     4  11  24  40  57  81 113 149 186 229 284 338
#
# _framework density 19.441316
#
# number of rings (size 3 to 8) (size 9 to 14) (size 15 to 20)
#    0.000    2.167    0.833    3.250    1.167    3.000 
#    0.000    5.000    0.000    1.000    0.000    0.000 
#    0.000    0.000    0.000    0.000    0.000    0.000 
#
# Total GULP energy -595184.268755 kJ/mol
# GULP energy per Si atom -12399.672266 kJ/mol
# Density = 1.939707 g / cm^3
# Si number density = 19.441316 Si / 1000 Ang^3
#
#
#
# Elastic Constant Matrix: (Units=GPa)
#
#
# Indices 1 2 3 4 5 6 
#
# 1 122.2277 32.1959 50.3333 0.0000 0.0000 0.0000
# 2 32.1959 48.0638 23.6378 0.0000 0.0000 0.0000
# 3 50.3333 23.6378 105.8222 0.0000 0.0000 0.0000
# 4 0.0000 0.0000 0.0000 25.7079 0.0000 0.0000
# 5 0.0000 0.0000 0.0000 0.0000 39.6014 0.0000
# 6 0.0000 0.0000 0.0000 0.0000 0.0000 22.1910
#
#
#
# Elastic Compliance Matrix: (Units=1/GPa)
#
#
# Indices 1 2 3 4 5 6 
#
# 1 0.011360 -0.005564 -0.004161 0.000000 0.000000 0.000000
# 2 -0.005564 0.026098 -0.003183 0.000000 0.000000 0.000000
# 3 -0.004161 -0.003183 0.012140 0.000000 0.000000 0.000000
# 4 0.000000 0.000000 0.000000 0.038899 0.000000 0.000000
# 5 0.000000 0.000000 0.000000 0.000000 0.025252 0.000000
# 6 0.000000 0.000000 0.000000 0.000000 0.000000 0.045063
#
#
# Mechanical properties :
#
#
# Convention : Reuss Voigt Hill
#
# Bulk Modulus (GPa) = 42.04670 54.27196 48.15933
# Shear Modulus (GPa) = 25.96667 28.82984 27.39826
#
# Velocity S-wave (km/s) = 3.65861 3.85504 3.75811
# Velocity P-wave (km/s) = 6.28663 6.91314 6.60731
#
# Compressibility (1/GPa) = 0.02378308
#
# Stress axis : x y z
#
# Youngs Moduli (GPa) = 88.02582 38.31705 82.37323
#
# Poissons Ratio (x) = 0.21318 0.34273
# Poissons Ratio (y) = 0.48974 0.26222
# Poissons Ratio (z) = 0.36625 0.12198
#
# Static dielectric constant tensor:
#      x y z
#    x 3.784440 0.000000 0.000000 
#    y 0.000000 3.273000 0.000000 
#    z 0.000000 0.000000 3.731440 
# 
# 
# High freq. dielectric constant tensor:
#      x y z
#    x 1.767050 0.000000 0.000000 
#    y 0.000000 1.730980 0.000000 
#    z 0.000000 0.000000 1.764130 
# 
# From -- ./inp_files/32943.got.cif
#   From: 2010.03.12/outbox.cif.g09.slc.cpg/sg59_17_cif.got.tgz:32943.got - 2010.04.16 16:29:54.
