data_PCOD8243387
_publ_section_title
;
Structure prediction by ZEFSAII (Michael W. Deem and Ramdas Pophale) SiO2 
 PCOD8243387
Probable space group: P M M N
;
_chemical_formula_sum "Si O2"
_cell_formula_units_Z 64
_cell_length_a 9.041526
_cell_length_b 27.241644
_cell_length_c 13.950926
_cell_angle_alpha 90.000000
_cell_angle_beta 90.000000
_cell_angle_gamma 90.000000
_cell_volume 3436.197233
_symmetry_space_group_name_H-M "P M M N"
_symmetry_group_IT_number 59
_space_group.IT_coordinate_system_code '2'
_symmetry_cell_setting 'orthorhombic'
loop_
_space_group_symop_operation_xyz
x,y,z
1/2-x,1/2-y,z
1/2+x,-y,-z
-x,1/2+y,-z
-x,-y,-z
1/2+x,1/2+y,-z
1/2-x,y,z
x,1/2-y,z
loop_
_atom_site_type_symbol
_atom_site_label
_atom_site_fract_x
_atom_site_fract_y
_atom_site_fract_z
Si Si1 0.577146 0.883592 0.309579
Si Si2 0.415277 0.191707 0.373652
Si Si3 0.581001 0.304880 0.186642
Si Si4 0.079692 0.599965 0.918558
Si Si5 0.921289 0.972552 0.780730
Si Si6 0.422418 0.692642 0.437572
Si Si7 0.420904 0.576965 0.131418
Si Si8 0.575844 0.987508 0.400171
O O1 0.750000 0.873026 0.306466
O O2 0.495692 0.836122 0.350439
O O3 0.519200 0.890419 0.201937
O O4 0.539513 0.931227 0.373594
O O5 0.250000 0.170120 0.381186
O O6 0.414742 0.250000 0.374292
O O7 0.487614 0.173483 0.275189
O O8 0.508226 0.172308 0.463766
O O9 0.750000 0.303268 0.221539
O O10 0.528661 0.250000 0.156188
O O11 0.561232 0.341423 0.097005
O O12 0.250000 0.583392 0.906678
O O13 0.981944 0.573319 0.839275
O O14 0.021804 0.587277 0.024279
O O15 0.750000 0.964394 0.755925
O O16 0.945775 0.019918 0.847059
O O17 0.009457 0.977055 0.681221
O O18 0.250000 0.681356 0.440490
O O19 0.455778 0.750000 0.422616
O O20 0.250000 0.592221 0.143718
O O21 0.750000 0.997041 0.407359
O O22 0.500000 0.000000 0.500000
#
# Coordination Sequence:
#
# PCOD8243387 Si02
#       8
#     8   8   8   8   8   8   8   8
#     4  10  21  36  55  78 105 138 173 213 262 311
#     4   9  17  30  49  72  99 131 166 208 255 298
#     4   9  18  33  51  72 101 136 171 207 251 303
#     4  10  20  34  54  78 103 134 174 219 261 304
#     4  10  20  34  54  79 106 136 171 214 261 310
#     4  10  20  34  54  79 105 137 178 218 256 305
#     4   9  19  36  55  76 104 136 171 214 265 315
#     4  10  21  37  56  79 108 141 175 210 255 313
#
# _framework density 18.625239000000001
#
# number of rings (size 3 to 8) (size 9 to 14) (size 15 to 20)
#    0.000    2.375    0.000    2.250    0.000    6.250 
#    0.000    0.625    0.000    2.250    0.000    0.000 
#    0.000    0.000    0.000    0.000    0.000    0.000 
#
# Total GULP energy -793753.783468 kJ/mol
# GULP energy per Si atom -12402.402867 kJ/mol
# Density = 1.858285 g / cm^3
# Si number density = 18.625239 Si / 1000 Ang^3
#
#
#
# Elastic Constant Matrix: (Units=GPa)
#
#
# Indices 1 2 3 4 5 6 
#
# 1 102.9201 43.6315 61.6183 0.0000 0.0000 0.0000
# 2 43.6315 67.9738 57.2470 0.0000 0.0000 0.0000
# 3 61.6183 57.2470 138.3687 0.0000 0.0000 0.0000
# 4 0.0000 0.0000 0.0000 27.2552 0.0000 0.0000
# 5 0.0000 0.0000 0.0000 0.0000 30.3764 0.0000
# 6 0.0000 0.0000 0.0000 0.0000 0.0000 26.1549
#
#
#
# Elastic Compliance Matrix: (Units=1/GPa)
#
#
# Indices 1 2 3 4 5 6 
#
# 1 0.014695 -0.006018 -0.004054 0.000000 0.000000 0.000000
# 2 -0.006018 0.025044 -0.007681 0.000000 0.000000 0.000000
# 3 -0.004054 -0.007681 0.012210 0.000000 0.000000 0.000000
# 4 0.000000 0.000000 0.000000 0.036690 0.000000 0.000000
# 5 0.000000 0.000000 0.000000 0.000000 0.032920 0.000000
# 6 0.000000 0.000000 0.000000 0.000000 0.000000 0.038234
#
#
# Mechanical properties :
#
#
# Convention : Reuss Voigt Hill
#
# Bulk Modulus (GPa) = 60.82008 70.47292 65.64650
# Shear Modulus (GPa) = 24.90286 26.54169 25.72227
#
# Velocity S-wave (km/s) = 3.66054 3.77906 3.72027
# Velocity P-wave (km/s) = 7.11277 7.54727 7.33324
#
# Compressibility (1/GPa) = 0.01644194
#
# Stress axis : x y z
#
# Youngs Moduli (GPa) = 68.05181 39.93038 81.89788
#
# Poissons Ratio (x) = 0.24031 0.33201
# Poissons Ratio (y) = 0.40954 0.62908
# Poissons Ratio (z) = 0.27588 0.30672
#
# Static dielectric constant tensor:
#      x y z
#    x 3.540780 0.000000 0.000000 
#    y 0.000000 3.312270 0.000000 
#    z 0.000000 0.000000 3.407110 
# 
# 
# High freq. dielectric constant tensor:
#      x y z
#    x 1.730990 0.000000 0.000000 
#    y 0.000000 1.710610 0.000000 
#    z 0.000000 0.000000 1.719740 
# 
# From -- ./inp_files/15084.got.cif
#   From: 2010.03.12/outbox.cif.g09.slc.cpg/sg59_8_cif.got.tgz:15084.got - 2010.04.16 16:29:54.
