data_PCOD8243108
_publ_section_title
;
Structure prediction by ZEFSAII (Michael W. Deem and Ramdas Pophale) SiO2 
 PCOD8243108
Probable space group: P M M N
;
_chemical_formula_sum "Si O2"
_cell_formula_units_Z 64
_cell_length_a 8.957919
_cell_length_b 13.818551
_cell_length_c 31.662739
_cell_angle_alpha 90.000000
_cell_angle_beta 90.000000
_cell_angle_gamma 90.000000
_cell_volume 3919.386730
_symmetry_space_group_name_H-M "P M M N"
_symmetry_group_IT_number 59
_space_group.IT_coordinate_system_code '2'
_symmetry_cell_setting 'orthorhombic'
loop_
_space_group_symop_operation_xyz
x,y,z
1/2-x,1/2-y,z
1/2+x,-y,-z
-x,1/2+y,-z
-x,-y,-z
1/2+x,1/2+y,-z
1/2-x,y,z
x,1/2-y,z
loop_
_atom_site_type_symbol
_atom_site_label
_atom_site_fract_x
_atom_site_fract_y
_atom_site_fract_z
Si Si1 0.085031 0.135057 0.770852
Si Si2 0.927041 0.468122 0.601511
Si Si3 0.925861 0.361433 0.437874
Si Si4 0.573925 0.453491 0.938054
Si Si5 0.425924 0.859926 0.146894
Si Si6 0.420283 0.135518 0.523934
Si Si7 0.925273 0.637413 0.322955
Si Si8 0.424381 0.358162 0.015326
O O1 0.250000 0.093429 0.778782
O O2 0.088183 0.250000 0.771272
O O3 0.029071 0.103329 0.724399
O O4 0.982117 0.095432 0.808714
O O5 0.750000 0.468215 0.596893
O O6 0.991868 0.577044 0.598381
O O7 0.000285 0.403772 0.565248
O O8 0.973097 0.425832 0.646514
O O9 0.750000 0.379555 0.436751
O O10 0.966603 0.250000 0.429982
O O11 0.988866 0.398994 0.482751
O O12 0.750000 0.440052 0.939742
O O13 0.513004 0.425690 0.891626
O O14 0.526368 0.564034 0.948978
O O15 0.506996 0.379022 0.971637
O O16 0.250000 0.861957 0.148335
O O17 0.484159 0.750000 0.140532
O O18 0.250000 0.097102 0.521256
O O19 0.423084 0.250000 0.527139
O O20 0.750000 0.618756 0.331237
O O21 0.962344 0.750000 0.330110
O O22 0.250000 0.367952 0.006115
O O23 0.465827 0.250000 0.031078
#
# Coordination Sequence:
#
# PCOD8243108 Si02
#       8
#     8   8   8   8   8   8   8   8
#     4   8  15  28  45  64  87 115 143 174 216 262
#     4  12  23  32  47  71  97 123 151 184 221 265
#     4  10  21  37  54  69  88 117 154 193 228 263
#     4   9  17  28  41  59  84 114 147 182 221 264
#     4   9  16  25  39  60  85 112 141 174 213 259
#     4  10  20  34  51  70  95 125 154 186 222 260
#     4   9  18  33  50  68  93 122 150 181 218 263
#     4   9  17  28  41  58  82 113 149 187 222 256
#
# _framework density 16.329086
#
# number of rings (size 3 to 8) (size 9 to 14) (size 15 to 20)
#    0.000    2.500    0.000    3.750    0.000    5.000 
#    0.000    2.500    0.000    0.000    0.000    0.875 
#    0.000    3.000    0.000    0.000    0.000    0.000 
#
# Total GULP energy -793435.065026 kJ/mol
# GULP energy per Si atom -12397.422891 kJ/mol
# Density = 1.629192 g / cm^3
# Si number density = 16.329086 Si / 1000 Ang^3
#
#
#
# Elastic Constant Matrix: (Units=GPa)
#
#
# Indices 1 2 3 4 5 6 
#
# 1 67.5865 28.5277 45.9410 0.0000 0.0000 0.0000
# 2 28.5277 67.0369 50.6765 0.0000 0.0000 0.0000
# 3 45.9410 50.6765 126.1736 0.0000 0.0000 0.0000
# 4 0.0000 0.0000 0.0000 23.2114 0.0000 0.0000
# 5 0.0000 0.0000 0.0000 0.0000 29.0406 0.0000
# 6 0.0000 0.0000 0.0000 0.0000 0.0000 20.1966
#
#
#
# Elastic Compliance Matrix: (Units=1/GPa)
#
#
# Indices 1 2 3 4 5 6 
#
# 1 0.020541 -0.004433 -0.005698 0.000000 0.000000 0.000000
# 2 -0.004433 0.022378 -0.007374 0.000000 0.000000 0.000000
# 3 -0.005698 -0.007374 0.012962 0.000000 0.000000 0.000000
# 4 0.000000 0.000000 0.000000 0.043082 0.000000 0.000000
# 5 0.000000 0.000000 0.000000 0.000000 0.034435 0.000000
# 6 0.000000 0.000000 0.000000 0.000000 0.000000 0.049513
#
#
# Mechanical properties :
#
#
# Convention : Reuss Voigt Hill
#
# Bulk Modulus (GPa) = 47.91659 56.78750 52.35205
# Shear Modulus (GPa) = 22.23428 23.53316 22.88372
#
# Velocity S-wave (km/s) = 3.69404 3.80041 3.74760
# Velocity P-wave (km/s) = 6.89946 7.35594 7.13135
#
# Compressibility (1/GPa) = 0.02086960
#
# Stress axis : x y z
#
# Youngs Moduli (GPa) = 48.68417 44.68693 77.14863
#
# Poissons Ratio (x) = 0.19811 0.43962
# Poissons Ratio (y) = 0.21584 0.56887
# Poissons Ratio (z) = 0.27742 0.32951
#
# Static dielectric constant tensor:
#      x y z
#    x 3.130490 0.000000 0.000000 
#    y 0.000000 3.104150 0.000000 
#    z 0.000000 0.000000 3.223390 
# 
# 
# High freq. dielectric constant tensor:
#      x y z
#    x 1.630900 0.000000 0.000000 
#    y 0.000000 1.607630 0.000000 
#    z 0.000000 0.000000 1.620020 
# 
# From -- ./inp_files/33217.got.cif
#   From: 2010.03.12/outbox.cif.g09.slc.cpg/sg59_17_cif.got.tgz:33217.got - 2010.04.16 16:29:54.
