data_PCOD8243446
_publ_section_title
;
Structure prediction by ZEFSAII (Michael W. Deem and Ramdas Pophale) SiO2 
 PCOD8243446
Probable space group: P M M N
;
_chemical_formula_sum "Si O2"
_cell_formula_units_Z 64
_cell_length_a 9.324120
_cell_length_b 23.431584
_cell_length_c 15.338945
_cell_angle_alpha 90.000000
_cell_angle_beta 90.000000
_cell_angle_gamma 90.000000
_cell_volume 3351.235846
_symmetry_space_group_name_H-M "P M M N"
_symmetry_group_IT_number 59
_space_group.IT_coordinate_system_code '2'
_symmetry_cell_setting 'orthorhombic'
loop_
_space_group_symop_operation_xyz
x,y,z
1/2-x,1/2-y,z
1/2+x,-y,-z
-x,1/2+y,-z
-x,-y,-z
1/2+x,1/2+y,-z
1/2-x,y,z
x,1/2-y,z
loop_
_atom_site_type_symbol
_atom_site_label
_atom_site_fract_x
_atom_site_fract_y
_atom_site_fract_z
Si Si1 0.581411 0.314908 0.461912
Si Si2 0.918524 0.886933 0.882510
Si Si3 0.915831 0.131207 0.951711
Si Si4 0.418170 0.883092 0.707564
Si Si5 0.410864 0.516318 0.137421
Si Si6 0.586217 0.816818 0.206575
Si Si7 0.415501 0.375777 0.613707
Si Si8 0.414359 0.011222 0.697067
O O1 0.750000 0.319465 0.476277
O O2 0.527148 0.250000 0.467453
O O3 0.538498 0.339090 0.367543
O O4 0.508936 0.352066 0.535905
O O5 0.750000 0.872414 0.882044
O O6 0.988750 0.866729 0.791847
O O7 0.950571 0.953843 0.898107
O O8 0.996034 0.853091 0.960950
O O9 0.750000 0.149276 0.962983
O O10 0.930157 0.063087 0.937837
O O11 0.981572 0.165464 0.871186
O O12 0.250000 0.879309 0.731261
O O13 0.460322 0.946668 0.673186
O O14 0.250000 0.515576 0.173776
O O15 0.507817 0.534751 0.217786
O O16 0.750000 0.833760 0.182914
O O17 0.571227 0.750000 0.222867
O O18 0.536919 0.847387 0.295404
O O19 0.250000 0.361949 0.594114
O O20 0.443997 0.444299 0.618583
O O21 0.250000 0.012813 0.723736
#
# Coordination Sequence:
#
# PCOD8243446 Si02
#       8
#     8   8   8   8   8   8   8   8
#     4  10  22  39  58  80 107 142 183 225 271 323
#     4  10  20  34  54  80 110 143 181 224 273 324
#     4  11  21  33  52  79 110 145 184 223 267 319
#     4   9  19  37  57  79 109 143 182 229 277 327
#     4   9  18  31  49  78 112 144 178 218 264 319
#     4  10  21  37  55  76 107 146 184 225 271 322
#     4  10  20  35  57  84 111 140 177 222 274 331
#     4   9  17  31  54  81 110 143 177 217 274 332
#
# _framework density 19.097432000000001
#
# number of rings (size 3 to 8) (size 9 to 14) (size 15 to 20)
#    0.000    2.250    1.250    1.500    0.000    4.000 
#    0.000    0.625    0.000    2.250    0.000    0.000 
#    0.000    0.000    0.000    0.000    0.000    0.000 
#
# Total GULP energy -793578.265099 kJ/mol
# GULP energy per Si atom -12399.660392 kJ/mol
# Density = 1.905397 g / cm^3
# Si number density = 19.097432 Si / 1000 Ang^3
#
#
#
# Elastic Constant Matrix: (Units=GPa)
#
#
# Indices 1 2 3 4 5 6 
#
# 1 74.2523 15.1460 53.5078 0.0000 0.0000 0.0000
# 2 15.1460 21.5616 12.7854 0.0000 0.0000 0.0000
# 3 53.5078 12.7854 97.7003 0.0000 0.0000 0.0000
# 4 0.0000 0.0000 0.0000 20.7490 0.0000 0.0000
# 5 0.0000 0.0000 0.0000 0.0000 38.4241 0.0000
# 6 0.0000 0.0000 0.0000 0.0000 0.0000 23.1507
#
#
#
# Elastic Compliance Matrix: (Units=1/GPa)
#
#
# Indices 1 2 3 4 5 6 
#
# 1 0.024031 -0.009840 -0.011873 0.000000 0.000000 0.000000
# 2 -0.009840 0.054310 -0.001718 0.000000 0.000000 0.000000
# 3 -0.011873 -0.001718 0.016963 0.000000 0.000000 0.000000
# 4 0.000000 0.000000 0.000000 0.048195 0.000000 0.000000
# 5 0.000000 0.000000 0.000000 0.000000 0.026025 0.000000
# 6 0.000000 0.000000 0.000000 0.000000 0.000000 0.043195
#
#
# Mechanical properties :
#
#
# Convention : Reuss Voigt Hill
#
# Bulk Modulus (GPa) = 20.64386 39.59919 30.12152
# Shear Modulus (GPa) = 18.13376 23.93644 21.03510
#
# Velocity S-wave (km/s) = 3.08480 3.54416 3.32243
# Velocity P-wave (km/s) = 4.84987 6.12605 5.52493
#
# Compressibility (1/GPa) = 0.04844056
#
# Stress axis : x y z
#
# Youngs Moduli (GPa) = 41.61295 18.41296 58.95205
#
# Poissons Ratio (x) = 0.18118 0.69996
# Poissons Ratio (y) = 0.40947 0.10128
# Poissons Ratio (z) = 0.49409 0.03163
#
# Static dielectric constant tensor:
#      x y z
#    x 3.480350 0.000000 0.000000 
#    y 0.000000 3.552100 0.000000 
#    z 0.000000 0.000000 3.302110 
# 
# 
# High freq. dielectric constant tensor:
#      x y z
#    x 1.742210 0.000000 0.000000 
#    y 0.000000 1.735820 0.000000 
#    z 0.000000 0.000000 1.733270 
# 
# From -- ./inp_files/21497.got.cif
#   From: 2010.03.12/outbox.cif.g09.slc.cpg/sg59_11_cif.got.tgz:21497.got - 2010.04.16 16:29:54.
