data_PCOD8243185
_publ_section_title
;
Structure prediction by ZEFSAII (Michael W. Deem and Ramdas Pophale) SiO2 
 PCOD8243185
Probable space group: P M M N
;
_chemical_formula_sum "Si O2"
_cell_formula_units_Z 40
_cell_length_a 7.797145
_cell_length_b 9.635848
_cell_length_c 29.196597
_cell_angle_alpha 90.000000
_cell_angle_beta 90.000000
_cell_angle_gamma 90.000000
_cell_volume 2193.601764
_symmetry_space_group_name_H-M "P M M N"
_symmetry_group_IT_number 59
_space_group.IT_coordinate_system_code '2'
_symmetry_cell_setting 'orthorhombic'
loop_
_space_group_symop_operation_xyz
x,y,z
1/2-x,1/2-y,z
1/2+x,-y,-z
-x,1/2+y,-z
-x,-y,-z
1/2+x,1/2+y,-z
1/2-x,y,z
x,1/2-y,z
loop_
_atom_site_type_symbol
_atom_site_label
_atom_site_fract_x
_atom_site_fract_y
_atom_site_fract_z
Si Si1 0.047881 0.597034 0.541446
Si Si2 0.553618 0.090010 0.956940
Si Si3 0.941112 0.415434 0.360044
Si Si4 0.750000 0.084093 0.203138
Si Si5 0.936969 0.914363 0.735698
Si Si6 0.250000 0.410368 0.888096
O O1 0.250000 0.607994 0.546609
O O2 0.970759 0.750000 0.531550
O O3 0.978295 0.538055 0.590608
O O4 0.000000 0.500000 0.500000
O O5 0.750000 0.056477 0.941875
O O6 0.535103 0.250000 0.971435
O O7 0.422938 0.055084 0.916084
O O8 0.500000 0.000000 0.000000
O O9 0.750000 0.475043 0.354157
O O10 0.937079 0.250000 0.360326
O O11 0.046450 0.472215 0.316354
O O12 0.750000 0.250000 0.196798
O O13 0.583484 0.029112 0.230640
O O14 0.750000 0.012575 0.154381
O O15 0.750000 0.959607 0.754544
O O16 0.955307 0.750000 0.733694
O O17 0.250000 0.250000 0.872397
#
# Coordination Sequence:
#
# PCOD8243185 Si02
#       6
#     8   8   8   4   8   4
#     4   9  18  30  45  67  96 128 161 200 249 303
#     4  10  20  35  57  83 110 142 182 223 261 305
#     4   8  13  25  44  65  91 123 158 202 254 302
#     4  10  20  34  52  76 106 134 168 220 263 296
#     4   9  16  27  47  74 100 126 162 211 263 306
#     4  10  22  38  54  78 112 148 178 210 261 316
#
# _framework density 18.234850000000002
#
# number of rings (size 3 to 8) (size 9 to 14) (size 15 to 20)
#    0.000    2.800    2.000    1.200    0.000    2.800 
#    0.000    2.000    0.000    1.200    0.000    0.000 
#    0.000    0.000    0.000    0.000    0.000    0.000 
#
# Total GULP energy -495611.526586 kJ/mol
# GULP energy per Si atom -12390.288165 kJ/mol
# Density = 1.819335 g / cm^3
# Si number density = 18.234850 Si / 1000 Ang^3
#
#
#
# Elastic Constant Matrix: (Units=GPa)
#
#
# Indices 1 2 3 4 5 6 
#
# 1 133.6267 28.2842 74.9061 0.0000 0.0000 0.0000
# 2 28.2842 41.0707 52.7366 0.0000 0.0000 0.0000
# 3 74.9061 52.7366 158.7199 0.0000 0.0000 0.0000
# 4 0.0000 0.0000 0.0000 28.4991 0.0000 0.0000
# 5 0.0000 0.0000 0.0000 0.0000 25.4073 0.0000
# 6 0.0000 0.0000 0.0000 0.0000 0.0000 15.2478
#
#
#
# Elastic Compliance Matrix: (Units=1/GPa)
#
#
# Indices 1 2 3 4 5 6 
#
# 1 0.010226 -0.001475 -0.004336 0.000000 0.000000 0.000000
# 2 -0.001475 0.042679 -0.013485 0.000000 0.000000 0.000000
# 3 -0.004336 -0.013485 0.012827 0.000000 0.000000 0.000000
# 4 0.000000 0.000000 0.000000 0.035089 0.000000 0.000000
# 5 0.000000 0.000000 0.000000 0.000000 0.039359 0.000000
# 6 0.000000 0.000000 0.000000 0.000000 0.000000 0.065583
#
#
# Mechanical properties :
#
#
# Convention : Reuss Voigt Hill
#
# Bulk Modulus (GPa) = 36.84416 71.69677 54.27047
# Shear Modulus (GPa) = 19.73156 25.66353 22.69755
#
# Velocity S-wave (km/s) = 3.29307 3.75559 3.53191
# Velocity P-wave (km/s) = 5.89137 7.62954 6.81609
#
# Compressibility (1/GPa) = 0.02714134
#
# Stress axis : x y z
#
# Youngs Moduli (GPa) = 97.78593 23.43093 77.95897
#
# Poissons Ratio (x) = 0.03455 0.33805
# Poissons Ratio (y) = 0.14420 1.05124
# Poissons Ratio (z) = 0.42403 0.31596
#
# Static dielectric constant tensor:
#      x y z
#    x 3.697780 0.000000 0.000000 
#    y 0.000000 2.822400 0.000000 
#    z 0.000000 0.000000 3.649830 
# 
# 
# High freq. dielectric constant tensor:
#      x y z
#    x 1.715440 0.000000 0.000000 
#    y 0.000000 1.649360 0.000000 
#    z 0.000000 0.000000 1.711670 
# 
# From -- ./inp_files/32429.got.cif
#   From: 2010.03.12/outbox.cif.g09.slc.cpg/sg59_17_cif.got.tgz:32429.got - 2010.04.16 16:29:54.
