data_PCOD8243802
_publ_section_title
;
Structure prediction by ZEFSAII (Michael W. Deem and Ramdas Pophale) SiO2 
 PCOD8243802
Probable space group: P M M N
;
_chemical_formula_sum "Si O2"
_cell_formula_units_Z 64
_cell_length_a 18.490933
_cell_length_b 8.984585
_cell_length_c 21.126507
_cell_angle_alpha 90.000000
_cell_angle_beta 90.000000
_cell_angle_gamma 90.000000
_cell_volume 3509.817578
_symmetry_space_group_name_H-M "P M M N"
_symmetry_group_IT_number 59
_space_group.IT_coordinate_system_code '2'
_symmetry_cell_setting 'orthorhombic'
loop_
_space_group_symop_operation_xyz
x,y,z
1/2-x,1/2-y,z
1/2+x,-y,-z
-x,1/2+y,-z
-x,-y,-z
1/2+x,1/2+y,-z
1/2-x,y,z
x,1/2-y,z
loop_
_atom_site_type_symbol
_atom_site_label
_atom_site_fract_x
_atom_site_fract_y
_atom_site_fract_z
Si Si1 0.035245 0.074484 0.939726
Si Si2 0.168965 0.579151 0.264447
Si Si3 0.331133 0.927129 0.621225
Si Si4 0.167456 0.923951 0.882345
Si Si5 0.029803 0.577861 0.191763
Si Si6 0.577618 0.426343 0.498720
Si Si7 0.833900 0.579168 0.606195
Si Si8 0.099809 0.575303 0.750220
O O1 0.037151 0.250000 0.949542
O O2 0.986513 0.025431 0.879649
O O3 0.116850 0.015785 0.930115
O O4 0.000000 0.000000 0.000000
O O5 0.250000 0.548047 0.238931
O O6 0.161273 0.750000 0.287118
O O7 0.113515 0.543804 0.207542
O O8 0.150333 0.472419 0.322617
O O9 0.250000 0.990345 0.612766
O O10 0.328960 0.750000 0.622920
O O11 0.380048 0.983974 0.563321
O O12 0.363851 0.990013 0.686793
O O13 0.250000 0.967394 0.896911
O O14 0.153381 0.750000 0.893712
O O15 0.150144 0.967241 0.809800
O O16 0.010723 0.750000 0.198806
O O17 0.979704 0.492861 0.241943
O O18 0.500000 0.500000 0.500000
O O19 0.569122 0.250000 0.498378
O O20 0.621253 0.474628 0.560235
O O21 0.750000 0.559278 0.589441
O O22 0.858708 0.750000 0.599145
O O23 0.090180 0.750000 0.743852
#
# Coordination Sequence:
#
# PCOD8243802 Si02
#       8
#     8   8   8   8   8   8   8   8
#     4  10  20  35  54  77 109 145 182 220 260 309
#     4   9  18  34  56  79 102 133 174 218 268 322
#     4   9  18  33  53  76 101 131 170 214 259 310
#     4   9  17  31  53  80 108 138 175 216 260 313
#     4   9  19  34  52  77 107 138 171 214 262 311
#     4  11  23  37  53  75 104 140 180 223 268 318
#     4  10  21  37  56  77 102 134 175 223 272 322
#     4   9  17  30  52  80 105 133 168 211 260 313
#
# _framework density 18.234566999999998
#
# number of rings (size 3 to 8) (size 9 to 14) (size 15 to 20)
#    0.000    2.500    0.000    1.875    1.750    4.000 
#    0.000    1.250    0.000    4.875    0.000    0.000 
#    0.000    0.000    0.000    0.000    0.000    0.000 
#
# Total GULP energy -793679.048820 kJ/mol
# GULP energy per Si atom -12401.235138 kJ/mol
# Density = 1.819306 g / cm^3
# Si number density = 18.234567 Si / 1000 Ang^3
#
#
#
# Elastic Constant Matrix: (Units=GPa)
#
#
# Indices 1 2 3 4 5 6 
#
# 1 149.5931 46.5913 87.1215 0.0000 0.0000 0.0000
# 2 46.5913 52.4814 35.7615 0.0000 0.0000 0.0000
# 3 87.1215 35.7615 107.0824 0.0000 0.0000 0.0000
# 4 0.0000 0.0000 0.0000 22.8254 0.0000 0.0000
# 5 0.0000 0.0000 0.0000 0.0000 31.4865 0.0000
# 6 0.0000 0.0000 0.0000 0.0000 0.0000 31.3430
#
#
#
# Elastic Compliance Matrix: (Units=1/GPa)
#
#
# Indices 1 2 3 4 5 6 
#
# 1 0.014053 -0.006065 -0.009408 0.000000 0.000000 0.000000
# 2 -0.006065 0.027286 -0.004178 0.000000 0.000000 0.000000
# 3 -0.009408 -0.004178 0.018388 0.000000 0.000000 0.000000
# 4 0.000000 0.000000 0.000000 0.043811 0.000000 0.000000
# 5 0.000000 0.000000 0.000000 0.000000 0.031760 0.000000
# 6 0.000000 0.000000 0.000000 0.000000 0.000000 0.031905
#
#
# Mechanical properties :
#
#
# Convention : Reuss Voigt Hill
#
# Bulk Modulus (GPa) = 48.95973 72.01173 60.48573
# Shear Modulus (GPa) = 23.43991 26.44314 24.94153
#
# Velocity S-wave (km/s) = 3.58923 3.81224 3.70241
# Velocity P-wave (km/s) = 6.63965 7.67822 7.17775
#
# Compressibility (1/GPa) = 0.02042495
#
# Stress axis : x y z
#
# Youngs Moduli (GPa) = 71.16048 36.64941 54.38357
#
# Poissons Ratio (x) = 0.22228 0.51163
# Poissons Ratio (y) = 0.43159 0.22721
# Poissons Ratio (z) = 0.66946 0.15312
#
# Static dielectric constant tensor:
#      x y z
#    x 3.441550 0.000000 0.000000 
#    y 0.000000 3.279860 0.000000 
#    z 0.000000 0.000000 3.349070 
# 
# 
# High freq. dielectric constant tensor:
#      x y z
#    x 1.714760 0.000000 0.000000 
#    y 0.000000 1.695380 0.000000 
#    z 0.000000 0.000000 1.698480 
# 
# From -- ./inp_files/30724.got.cif
#   From: 2010.03.12/outbox.cif.g09.slc.cpg/sg59_16_cif.got.tgz:30724.got - 2010.04.16 16:29:54.
