data_PCOD8243792
_publ_section_title
;
Structure prediction by ZEFSAII (Michael W. Deem and Ramdas Pophale) SiO2 
 PCOD8243792
Probable space group: P M M N
;
_chemical_formula_sum "Si O2"
_cell_formula_units_Z 48
_cell_length_a 23.646180
_cell_length_b 8.734409
_cell_length_c 11.512810
_cell_angle_alpha 90.000000
_cell_angle_beta 90.000000
_cell_angle_gamma 90.000000
_cell_volume 2377.802904
_symmetry_space_group_name_H-M "P M M N"
_symmetry_group_IT_number 59
_space_group.IT_coordinate_system_code '2'
_symmetry_cell_setting 'orthorhombic'
loop_
_space_group_symop_operation_xyz
x,y,z
1/2-x,1/2-y,z
1/2+x,-y,-z
-x,1/2+y,-z
-x,-y,-z
1/2+x,1/2+y,-z
1/2-x,y,z
x,1/2-y,z
loop_
_atom_site_type_symbol
_atom_site_label
_atom_site_fract_x
_atom_site_fract_y
_atom_site_fract_z
Si Si1 0.314071 0.431655 0.871105
Si Si2 0.522803 0.568596 0.759901
Si Si3 0.687502 0.076538 0.688569
Si Si4 0.081475 0.927557 0.455001
Si Si5 0.868825 0.570791 0.894962
Si Si6 0.912515 0.930213 0.295068
O O1 0.250000 0.498272 0.859022
O O2 0.310594 0.250000 0.883301
O O3 0.352044 0.477837 0.760002
O O4 0.346126 0.500952 0.984393
O O5 0.515617 0.750000 0.766955
O O6 0.540337 0.523267 0.628552
O O7 0.569852 0.507199 0.852267
O O8 0.463499 0.485180 0.789919
O O9 0.750000 0.046439 0.639766
O O10 0.679518 0.250000 0.733511
O O11 0.645917 0.041650 0.582629
O O12 0.677105 0.965467 0.796756
O O13 0.064328 0.750000 0.446988
O O14 0.077133 0.983224 0.585577
O O15 0.874594 0.750000 0.910109
O O16 0.915721 0.750000 0.314268
#
# Coordination Sequence:
#
# PCOD8243792 Si02
#       6
#     8   8   8   8   8   8
#     4   9  19  36  56  78 106 140 176 214 256 303
#     4  10  20  35  56  82 108 133 169 218 266 311
#     4   9  18  32  51  77 107 137 170 214 269 318
#     4  10  20  35  54  76 106 142 177 216 262 311
#     4   9  18  34  57  81 103 133 175 218 259 307
#     4  11  22  35  53  77 106 141 177 212 255 309
#
# _framework density 20.186703000000001
#
# number of rings (size 3 to 8) (size 9 to 14) (size 15 to 20)
#    0.000    2.333    0.000    2.500    0.000    3.667 
#    0.000    1.667    0.000    3.500    0.000    0.000 
#    0.000    0.000    0.000    0.000    0.000    0.000 
#
# Total GULP energy -595050.177427 kJ/mol
# GULP energy per Si atom -12396.878696 kJ/mol
# Density = 2.014076 g / cm^3
# Si number density = 20.186703 Si / 1000 Ang^3
#
#
#
# Elastic Constant Matrix: (Units=GPa)
#
#
# Indices 1 2 3 4 5 6 
#
# 1 143.0431 14.6143 39.1465 0.0000 0.0000 0.0000
# 2 14.6143 31.1028 4.6472 0.0000 0.0000 0.0000
# 3 39.1465 4.6472 60.2495 0.0000 0.0000 0.0000
# 4 0.0000 0.0000 0.0000 15.5589 0.0000 0.0000
# 5 0.0000 0.0000 0.0000 0.0000 20.1956 0.0000
# 6 0.0000 0.0000 0.0000 0.0000 0.0000 27.2845
#
#
#
# Elastic Compliance Matrix: (Units=1/GPa)
#
#
# Indices 1 2 3 4 5 6 
#
# 1 0.008831 -0.003331 -0.005481 0.000000 0.000000 0.000000
# 2 -0.003331 0.033782 -0.000442 0.000000 0.000000 0.000000
# 3 -0.005481 -0.000442 0.020193 0.000000 0.000000 0.000000
# 4 0.000000 0.000000 0.000000 0.064272 0.000000 0.000000
# 5 0.000000 0.000000 0.000000 0.000000 0.049516 0.000000
# 6 0.000000 0.000000 0.000000 0.000000 0.000000 0.036651
#
#
# Mechanical properties :
#
#
# Convention : Reuss Voigt Hill
#
# Bulk Modulus (GPa) = 22.57347 39.02350 30.79849
# Shear Modulus (GPa) = 20.28246 24.34028 22.31137
#
# Velocity S-wave (km/s) = 3.17321 3.47617 3.32814
# Velocity P-wave (km/s) = 4.96309 5.95692 5.48257
#
# Compressibility (1/GPa) = 0.04429979
#
# Stress axis : x y z
#
# Youngs Moduli (GPa) = 113.23524 29.60124 49.52211
#
# Poissons Ratio (x) = 0.09859 0.27143
# Poissons Ratio (y) = 0.37714 0.02188
# Poissons Ratio (z) = 0.62065 0.01308
#
# Static dielectric constant tensor:
#      x y z
#    x 4.128940 0.000000 0.000000 
#    y 0.000000 3.443050 0.000000 
#    z 0.000000 0.000000 3.559380 
# 
# 
# High freq. dielectric constant tensor:
#      x y z
#    x 1.806550 0.000000 0.000000 
#    y 0.000000 1.766770 0.000000 
#    z 0.000000 0.000000 1.772420 
# 
# From -- ./inp_files/14353.got.cif
#   From: 2010.03.12/outbox.cif.g09.slc.cpg/sg59_8_cif.got.tgz:14353.got - 2010.04.16 16:29:54.
