data_PCOD8243283
_publ_section_title
;
Structure prediction by ZEFSAII (Michael W. Deem and Ramdas Pophale) SiO2 
 PCOD8243283
Probable space group: P M M N
;
_chemical_formula_sum "Si O2"
_cell_formula_units_Z 64
_cell_length_a 20.095911
_cell_length_b 9.014692
_cell_length_c 19.494131
_cell_angle_alpha 90.000000
_cell_angle_beta 90.000000
_cell_angle_gamma 90.000000
_cell_volume 3531.526519
_symmetry_space_group_name_H-M "P M M N"
_symmetry_group_IT_number 59
_space_group.IT_coordinate_system_code '2'
_symmetry_cell_setting 'orthorhombic'
loop_
_space_group_symop_operation_xyz
x,y,z
1/2-x,1/2-y,z
1/2+x,-y,-z
-x,1/2+y,-z
-x,-y,-z
1/2+x,1/2+y,-z
1/2-x,y,z
x,1/2-y,z
loop_
_atom_site_type_symbol
_atom_site_label
_atom_site_fract_x
_atom_site_fract_y
_atom_site_fract_z
Si Si1 0.325290 0.579746 0.419098
Si Si2 0.326061 0.578908 0.058868
Si Si3 0.565676 0.424707 0.470359
Si Si4 0.960031 0.575701 0.337405
Si Si5 0.573219 0.921926 0.842078
Si Si6 0.173570 0.579787 0.900115
Si Si7 0.561773 0.576487 0.182631
Si Si8 0.405072 0.077636 0.313216
O O1 0.250000 0.551238 0.442730
O O2 0.336818 0.750000 0.397495
O O3 0.371772 0.534537 0.482454
O O4 0.339510 0.476610 0.352950
O O5 0.250000 0.534586 0.075215
O O6 0.338183 0.750000 0.077616
O O7 0.374768 0.478087 0.102473
O O8 0.341961 0.549574 0.979502
O O9 0.500000 0.500000 0.500000
O O10 0.553891 0.250000 0.464873
O O11 0.582683 0.491437 0.395274
O O12 0.958502 0.750000 0.351608
O O13 0.931402 0.533927 0.262741
O O14 0.035466 0.519774 0.344123
O O15 0.560574 0.750000 0.854675
O O16 0.604023 0.954049 0.767335
O O17 0.502221 0.000281 0.851498
O O18 0.250000 0.541733 0.883736
O O19 0.158129 0.750000 0.881754
O O20 0.128639 0.474126 0.854190
O O21 0.552047 0.750000 0.173000
O O22 0.419526 0.250000 0.327127
#
# Coordination Sequence:
#
# PCOD8243283 Si02
#       8
#     8   8   8   8   8   8   8   8
#     4  10  22  38  54  76 108 144 180 219 264 318
#     4   9  19  36  56  78 106 143 185 225 270 329
#     4  11  21  34  57  83 107 139 181 224 266 318
#     4  10  20  35  55  80 108 138 177 221 266 320
#     4  10  21  35  53  80 112 144 181 225 271 321
#     4   9  19  37  59  81 107 141 182 227 276 331
#     4  10  21  36  56  82 111 143 181 226 274 326
#     4  10  20  34  53  77 105 139 178 219 266 317
#
# _framework density 18.122474
#
# number of rings (size 3 to 8) (size 9 to 14) (size 15 to 20)
#    0.000    2.125    1.250    2.625    0.000    5.750 
#    0.000    4.375    0.000    2.250    0.000    0.000 
#    0.000    0.000    0.000    0.000    0.000    0.000 
#
# Total GULP energy -793782.816026 kJ/mol
# GULP energy per Si atom -12402.856500 kJ/mol
# Density = 1.808123 g / cm^3
# Si number density = 18.122474 Si / 1000 Ang^3
#
#
#
# Elastic Constant Matrix: (Units=GPa)
#
#
# Indices 1 2 3 4 5 6 
#
# 1 111.3812 53.1241 66.0053 0.0000 0.0000 0.0000
# 2 53.1241 85.3377 52.8871 0.0000 0.0000 0.0000
# 3 66.0053 52.8871 96.1116 0.0000 0.0000 0.0000
# 4 0.0000 0.0000 0.0000 34.9940 0.0000 0.0000
# 5 0.0000 0.0000 0.0000 0.0000 30.5597 0.0000
# 6 0.0000 0.0000 0.0000 0.0000 0.0000 32.3312
#
#
#
# Elastic Compliance Matrix: (Units=1/GPa)
#
#
# Indices 1 2 3 4 5 6 
#
# 1 0.016385 -0.004896 -0.008559 0.000000 0.000000 0.000000
# 2 -0.004896 0.019245 -0.007228 0.000000 0.000000 0.000000
# 3 -0.008559 -0.007228 0.020259 0.000000 0.000000 0.000000
# 4 0.000000 0.000000 0.000000 0.028576 0.000000 0.000000
# 5 0.000000 0.000000 0.000000 0.000000 0.032723 0.000000
# 6 0.000000 0.000000 0.000000 0.000000 0.000000 0.030930
#
#
# Mechanical properties :
#
#
# Convention : Reuss Voigt Hill
#
# Bulk Modulus (GPa) = 68.84498 70.76263 69.80380
# Shear Modulus (GPa) = 25.73005 27.63123 26.68064
#
# Velocity S-wave (km/s) = 3.77209 3.90897 3.84114
# Velocity P-wave (km/s) = 7.55267 7.71395 7.63374
#
# Compressibility (1/GPa) = 0.01452539
#
# Stress axis : x y z
#
# Youngs Moduli (GPa) = 61.03059 51.96080 49.35986
#
# Poissons Ratio (x) = 0.25440 0.42245
# Poissons Ratio (y) = 0.29881 0.35676
# Poissons Ratio (z) = 0.52233 0.37556
#
# Static dielectric constant tensor:
#      x y z
#    x 3.219450 0.000000 0.000000 
#    y 0.000000 3.367800 0.000000 
#    z 0.000000 0.000000 3.497360 
# 
# 
# High freq. dielectric constant tensor:
#      x y z
#    x 1.688790 0.000000 0.000000 
#    y 0.000000 1.710550 0.000000 
#    z 0.000000 0.000000 1.707050 
# 
# From -- ./inp_files/28141.got.cif
#   From: 2010.03.12/outbox.cif.g09.slc.cpg/sg59_15_cif.got.tgz:28141.got - 2010.04.16 16:29:54.
