data_PCOD8243240
_publ_section_title
;
Structure prediction by ZEFSAII (Michael W. Deem and Ramdas Pophale) SiO2 
 PCOD8243240
Probable space group: P M M N
;
_chemical_formula_sum "Si O2"
_cell_formula_units_Z 40
_cell_length_a 13.291485
_cell_length_b 12.066012
_cell_length_c 12.925123
_cell_angle_alpha 90.000000
_cell_angle_beta 90.000000
_cell_angle_gamma 90.000000
_cell_volume 2072.869412
_symmetry_space_group_name_H-M "P M M N"
_symmetry_group_IT_number 59
_space_group.IT_coordinate_system_code '2'
_symmetry_cell_setting 'orthorhombic'
loop_
_space_group_symop_operation_xyz
x,y,z
1/2-x,1/2-y,z
1/2+x,-y,-z
-x,1/2+y,-z
-x,-y,-z
1/2+x,1/2+y,-z
1/2-x,y,z
x,1/2-y,z
loop_
_atom_site_type_symbol
_atom_site_label
_atom_site_fract_x
_atom_site_fract_y
_atom_site_fract_z
Si Si1 0.638470 0.976626 0.964318
Si Si2 0.863952 0.373300 0.769821
Si Si3 0.046804 0.625385 0.873589
Si Si4 0.866813 0.623251 0.482315
Si Si5 0.995347 0.470544 0.346129
O O1 0.750000 0.924791 0.963453
O O2 0.560880 0.880225 0.933036
O O3 0.624909 0.074178 0.882155
O O4 0.618943 0.032619 0.075917
O O5 0.750000 0.376785 0.730299
O O6 0.905457 0.250000 0.780828
O O7 0.928662 0.432693 0.683627
O O8 0.088948 0.750000 0.887168
O O9 0.039824 0.600494 0.752019
O O10 0.750000 0.600986 0.513042
O O11 0.877763 0.750000 0.441187
O O12 0.899106 0.530934 0.397714
O O13 0.942786 0.611195 0.579038
#
# Coordination Sequence:
#
# PCOD8243240 Si02
#       5
#     8   8   8   8   8
#     4   9  19  34  51  75 108 141 172 206 247 303
#     4   9  16  28  49  75 101 132 168 205 250 305
#     4  10  20  34  54  79 106 138 174 213 258 304
#     4  10  21  37  55  74 100 136 175 218 270 321
#     4  10  20  34  53  76 103 132 173 221 265 311
#
# _framework density 19.296921000000001
#
# number of rings (size 3 to 8) (size 9 to 14) (size 15 to 20)
#    0.000    2.400    0.000    2.400    0.000    3.200 
#    0.000    1.000    0.000   11.400    0.000    0.000 
#    0.000    0.000    0.000    0.000    0.000    0.000 
#
# Total GULP energy -495861.820791 kJ/mol
# GULP energy per Si atom -12396.545520 kJ/mol
# Density = 1.925300 g / cm^3
# Si number density = 19.296921 Si / 1000 Ang^3
#
#
#
# Elastic Constant Matrix: (Units=GPa)
#
#
# Indices 1 2 3 4 5 6 
#
# 1 71.6756 10.6138 13.6625 0.0000 0.0000 0.0000
# 2 10.6138 64.2894 11.3657 0.0000 0.0000 0.0000
# 3 13.6625 11.3657 85.6022 0.0000 0.0000 0.0000
# 4 0.0000 0.0000 0.0000 14.2282 0.0000 0.0000
# 5 0.0000 0.0000 0.0000 0.0000 26.2290 0.0000
# 6 0.0000 0.0000 0.0000 0.0000 0.0000 25.0945
#
#
#
# Elastic Compliance Matrix: (Units=1/GPa)
#
#
# Indices 1 2 3 4 5 6 
#
# 1 0.014650 -0.002053 -0.002065 0.000000 0.000000 0.000000
# 2 -0.002053 0.016216 -0.001825 0.000000 0.000000 0.000000
# 3 -0.002065 -0.001825 0.012254 0.000000 0.000000 0.000000
# 4 0.000000 0.000000 0.000000 0.070283 0.000000 0.000000
# 5 0.000000 0.000000 0.000000 0.000000 0.038126 0.000000
# 6 0.000000 0.000000 0.000000 0.000000 0.000000 0.039849
#
#
# Mechanical properties :
#
#
# Convention : Reuss Voigt Hill
#
# Bulk Modulus (GPa) = 32.01909 32.53900 32.27904
# Shear Modulus (GPa) = 23.39981 25.50535 24.45258
#
# Velocity S-wave (km/s) = 3.48605 3.63951 3.56360
# Velocity P-wave (km/s) = 5.72994 5.87879 5.80484
#
# Compressibility (1/GPa) = 0.03123137
#
# Stress axis : x y z
#
# Youngs Moduli (GPa) = 68.26152 61.66607 81.60619
#
# Poissons Ratio (x) = 0.12662 0.16856
# Poissons Ratio (y) = 0.14017 0.14896
# Poissons Ratio (z) = 0.14099 0.11256
#
# Static dielectric constant tensor:
#      x y z
#    x 3.629900 0.000000 0.000000 
#    y 0.000000 3.393370 0.000000 
#    z 0.000000 0.000000 3.442930 
# 
# 
# High freq. dielectric constant tensor:
#      x y z
#    x 1.745950 0.000000 0.000000 
#    y 0.000000 1.745490 0.000000 
#    z 0.000000 0.000000 1.746450 
# 
# From -- ./inp_files/15509.got.cif
#   From: 2010.03.12/outbox.cif.g09.slc.cpg/sg59_8_cif.got.tgz:15509.got - 2010.04.16 16:29:54.
