data_PCOD8243601
_publ_section_title
;
Structure prediction by ZEFSAII (Michael W. Deem and Ramdas Pophale) SiO2 
 PCOD8243601
Probable space group: P M M N
;
_chemical_formula_sum "Si O2"
_cell_formula_units_Z 40
_cell_length_a 25.956307
_cell_length_b 8.806387
_cell_length_c 9.220594
_cell_angle_alpha 90.000000
_cell_angle_beta 90.000000
_cell_angle_gamma 90.000000
_cell_volume 2107.655221
_symmetry_space_group_name_H-M "P M M N"
_symmetry_group_IT_number 59
_space_group.IT_coordinate_system_code '2'
_symmetry_cell_setting 'orthorhombic'
loop_
_space_group_symop_operation_xyz
x,y,z
1/2-x,1/2-y,z
1/2+x,-y,-z
-x,1/2+y,-z
-x,-y,-z
1/2+x,1/2+y,-z
1/2-x,y,z
x,1/2-y,z
loop_
_atom_site_type_symbol
_atom_site_label
_atom_site_fract_x
_atom_site_fract_y
_atom_site_fract_z
Si Si1 0.250000 0.915836 0.918546
Si Si2 0.145211 0.072970 0.591780
Si Si3 0.859367 0.430754 0.100837
Si Si4 0.750000 0.417878 0.425286
Si Si5 0.954829 0.927790 0.593047
Si Si6 0.045200 0.929422 0.092476
O O1 0.250000 0.750000 0.991782
O O2 0.195880 0.997060 0.959734
O O3 0.250000 0.903129 0.745966
O O4 0.153684 0.250000 0.617160
O O5 0.100221 0.038047 0.478187
O O6 0.127318 0.001015 0.743733
O O7 0.198091 0.004785 0.526209
O O8 0.855134 0.250000 0.122564
O O9 0.901706 0.477045 0.984360
O O10 0.750000 0.250000 0.496583
O O11 0.965503 0.750000 0.607979
O O12 0.955156 0.003099 0.748982
O O13 0.000000 0.000000 0.500000
O O14 0.038069 0.750000 0.099863
O O15 0.000000 0.000000 0.000000
#
# Coordination Sequence:
#
# PCOD8243601 Si02
#       6
#     4   8   8   4   8   8
#     4   7  12  27  50  75 102 132 170 214 258 307
#     4  10  20  34  55  83 113 145 182 227 276 324
#     4   9  18  33  55  81 108 141 181 224 269 322
#     4   9  17  31  54  81 110 146 184 222 266 323
#     4  11  24  40  58  81 111 147 187 233 283 335
#     4  11  23  38  57  81 110 145 185 229 277 332
#
# _framework density 18.978435000000001
#
# number of rings (size 3 to 8) (size 9 to 14) (size 15 to 20)
#    0.000    2.200    0.000    4.500    0.000    8.000 
#    0.000    1.000    0.000    1.200    0.000    0.000 
#    0.000    0.000    0.000    0.000    0.000    0.000 
#
# Total GULP energy -495841.719152 kJ/mol
# GULP energy per Si atom -12396.042979 kJ/mol
# Density = 1.893524 g / cm^3
# Si number density = 18.978435 Si / 1000 Ang^3
#
#
#
# Elastic Constant Matrix: (Units=GPa)
#
#
# Indices 1 2 3 4 5 6 
#
# 1 183.7243 73.5630 85.2827 0.0000 0.0000 0.0000
# 2 73.5630 91.4035 54.6713 0.0000 0.0000 0.0000
# 3 85.2827 54.6713 126.5502 0.0000 0.0000 0.0000
# 4 0.0000 0.0000 0.0000 30.9213 0.0000 0.0000
# 5 0.0000 0.0000 0.0000 0.0000 25.6298 0.0000
# 6 0.0000 0.0000 0.0000 0.0000 0.0000 31.9936
#
#
#
# Elastic Compliance Matrix: (Units=1/GPa)
#
#
# Indices 1 2 3 4 5 6 
#
# 1 0.009402 -0.005093 -0.004136 0.000000 0.000000 0.000000
# 2 -0.005093 0.017512 -0.004133 0.000000 0.000000 0.000000
# 3 -0.004136 -0.004133 0.012475 0.000000 0.000000 0.000000
# 4 0.000000 0.000000 0.000000 0.032340 0.000000 0.000000
# 5 0.000000 0.000000 0.000000 0.000000 0.039017 0.000000
# 6 0.000000 0.000000 0.000000 0.000000 0.000000 0.031256
#
#
# Mechanical properties :
#
#
# Convention : Reuss Voigt Hill
#
# Bulk Modulus (GPa) = 78.96082 92.07911 85.51996
# Shear Modulus (GPa) = 28.91062 30.25301 29.58182
#
# Velocity S-wave (km/s) = 3.90723 3.99692 3.95233
# Velocity P-wave (km/s) = 7.87726 8.36203 8.12326
#
# Compressibility (1/GPa) = 0.01266451
#
# Stress axis : x y z
#
# Youngs Moduli (GPa) = 106.36040 57.10502 80.16318
#
# Poissons Ratio (x) = 0.29085 0.33153
# Poissons Ratio (y) = 0.54171 0.33131
# Poissons Ratio (z) = 0.43988 0.23601
#
# Static dielectric constant tensor:
#      x y z
#    x 4.160750 0.000000 0.000000 
#    y 0.000000 3.545600 0.000000 
#    z 0.000000 0.000000 3.237400 
# 
# 
# High freq. dielectric constant tensor:
#      x y z
#    x 1.765720 0.000000 0.000000 
#    y 0.000000 1.737110 0.000000 
#    z 0.000000 0.000000 1.712420 
# 
# From -- ./inp_files/12409.got.cif
#   From: 2010.03.12/outbox.cif.g09.slc.cpg/sg59_7_cif.got.tgz:12409.got - 2010.04.16 16:29:54.
