data_PCOD8243114
_publ_section_title
;
Structure prediction by ZEFSAII (Michael W. Deem and Ramdas Pophale) SiO2 
 PCOD8243114
Probable space group: P M M N
;
_chemical_formula_sum "Si O2"
_cell_formula_units_Z 56
_cell_length_a 17.671525
_cell_length_b 14.272604
_cell_length_c 12.924597
_cell_angle_alpha 90.000000
_cell_angle_beta 90.000000
_cell_angle_gamma 90.000000
_cell_volume 3259.824774
_symmetry_space_group_name_H-M "P M M N"
_symmetry_group_IT_number 59
_space_group.IT_coordinate_system_code '2'
_symmetry_cell_setting 'orthorhombic'
loop_
_space_group_symop_operation_xyz
x,y,z
1/2-x,1/2-y,z
1/2+x,-y,-z
-x,1/2+y,-z
-x,-y,-z
1/2+x,1/2+y,-z
1/2-x,y,z
x,1/2-y,z
loop_
_atom_site_type_symbol
_atom_site_label
_atom_site_fract_x
_atom_site_fract_y
_atom_site_fract_z
Si Si1 0.337670 0.141429 0.837216
Si Si2 0.582766 0.857794 0.374103
Si Si3 0.905916 0.144023 0.640970
Si Si4 0.840113 0.855541 0.758449
Si Si5 0.162725 0.645715 0.138974
Si Si6 0.338744 0.034844 0.443118
Si Si7 0.338836 0.458829 0.039480
O O1 0.250000 0.118162 0.815496
O O2 0.348414 0.250000 0.866112
O O3 0.385298 0.112835 0.737285
O O4 0.372182 0.080836 0.932283
O O5 0.604024 0.750000 0.398283
O O6 0.493876 0.874655 0.375731
O O7 0.619913 0.924476 0.457817
O O8 0.883587 0.250000 0.609932
O O9 0.887548 0.126106 0.760897
O O10 0.858259 0.074883 0.567984
O O11 0.750000 0.857492 0.760287
O O12 0.871284 0.750000 0.752538
O O13 0.869442 0.911457 0.658372
O O14 0.873152 0.903909 0.861828
O O15 0.250000 0.633270 0.173421
O O16 0.147871 0.750000 0.094034
O O17 0.142322 0.569597 0.050819
O O18 0.250000 0.048775 0.458488
O O19 0.250000 0.439551 0.036585
#
# Coordination Sequence:
#
# PCOD8243114 Si02
#       7
#     8   8   8   8   8   8   8
#     4   9  17  30  49  71  97 130 166 199 234 291
#     4  10  21  35  50  72 102 136 168 199 245 303
#     4  10  20  34  51  72 100 132 166 207 251 298
#     4   9  16  25  41  69  99 122 148 194 254 300
#     4   9  16  28  48  72  96 124 164 210 251 292
#     4  11  20  32  52  75  99 127 164 210 251 295
#     4   9  15  26  45  71  98 122 156 205 252 290
#
# _framework density 17.178837000000001
#
# number of rings (size 3 to 8) (size 9 to 14) (size 15 to 20)
#    0.000    2.429    1.429    2.143    0.000    4.000 
#    0.000    0.714    0.000    0.857    0.000    2.000 
#    0.000    0.000    0.000    0.000    0.000    0.000 
#
# Total GULP energy -694366.233583 kJ/mol
# GULP energy per Si atom -12399.397028 kJ/mol
# Density = 1.713974 g / cm^3
# Si number density = 17.178837 Si / 1000 Ang^3
#
#
#
# Elastic Constant Matrix: (Units=GPa)
#
#
# Indices 1 2 3 4 5 6 
#
# 1 16.6204 11.1230 8.1520 0.0000 0.0000 0.0000
# 2 11.1230 111.0739 54.4029 0.0000 0.0000 0.0000
# 3 8.1520 54.4029 98.9789 0.0000 0.0000 0.0000
# 4 0.0000 0.0000 0.0000 25.5674 0.0000 0.0000
# 5 0.0000 0.0000 0.0000 0.0000 17.7036 0.0000
# 6 0.0000 0.0000 0.0000 0.0000 0.0000 19.2729
#
#
#
# Elastic Compliance Matrix: (Units=1/GPa)
#
#
# Indices 1 2 3 4 5 6 
#
# 1 0.064912 -0.005312 -0.002427 0.000000 0.000000 0.000000
# 2 -0.005312 0.012754 -0.006573 0.000000 0.000000 0.000000
# 3 -0.002427 -0.006573 0.013916 0.000000 0.000000 0.000000
# 4 0.000000 0.000000 0.000000 0.039112 0.000000 0.000000
# 5 0.000000 0.000000 0.000000 0.000000 0.056486 0.000000
# 6 0.000000 0.000000 0.000000 0.000000 0.000000 0.051886
#
#
# Mechanical properties :
#
#
# Convention : Reuss Voigt Hill
#
# Bulk Modulus (GPa) = 15.88317 41.55877 28.72097
# Shear Modulus (GPa) = 17.32048 22.70845 20.01446
#
# Velocity S-wave (km/s) = 3.17873 3.63972 3.41701
# Velocity P-wave (km/s) = 4.76847 6.47362 5.68533
#
# Compressibility (1/GPa) = 0.06295972
#
# Stress axis : x y z
#
# Youngs Moduli (GPa) = 15.40542 78.40535 71.86128
#
# Poissons Ratio (x) = 0.41648 0.17438
# Poissons Ratio (y) = 0.08183 0.47233
# Poissons Ratio (z) = 0.03738 0.51534
#
# Static dielectric constant tensor:
#      x y z
#    x 2.934410 0.000000 0.000000 
#    y 0.000000 3.423730 0.000000 
#    z 0.000000 0.000000 3.166810 
# 
# 
# High freq. dielectric constant tensor:
#      x y z
#    x 1.631130 0.000000 0.000000 
#    y 0.000000 1.671500 0.000000 
#    z 0.000000 0.000000 1.652660 
# 
# From -- ./inp_files/16921.got.cif
#   From: 2010.03.12/outbox.cif.g09.slc.cpg/sg59_9_cif.got.tgz:16921.got - 2010.04.16 16:29:54.
