data_PCOD8243716
_publ_section_title
;
Structure prediction by ZEFSAII (Michael W. Deem and Ramdas Pophale) SiO2 
 PCOD8243716
Probable space group: P M M N
;
_chemical_formula_sum "Si O2"
_cell_formula_units_Z 48
_cell_length_a 8.934762
_cell_length_b 18.981383
_cell_length_c 15.026579
_cell_angle_alpha 90.000000
_cell_angle_beta 90.000000
_cell_angle_gamma 90.000000
_cell_volume 2548.419736
_symmetry_space_group_name_H-M "P M M N"
_symmetry_group_IT_number 59
_space_group.IT_coordinate_system_code '2'
_symmetry_cell_setting 'orthorhombic'
loop_
_space_group_symop_operation_xyz
x,y,z
1/2-x,1/2-y,z
1/2+x,-y,-z
-x,1/2+y,-z
-x,-y,-z
1/2+x,1/2+y,-z
1/2-x,y,z
x,1/2-y,z
loop_
_atom_site_type_symbol
_atom_site_label
_atom_site_fract_x
_atom_site_fract_y
_atom_site_fract_z
Si Si1 0.422347 0.434422 0.723179
Si Si2 0.077441 0.832840 0.621751
Si Si3 0.572521 0.828413 0.126668
Si Si4 0.577655 0.926548 0.479965
Si Si5 0.073771 0.420951 0.231077
Si Si6 0.925988 0.927977 0.971056
O O1 0.250000 0.453734 0.744906
O O2 0.482916 0.373671 0.788792
O O3 0.439369 0.406063 0.623234
O O4 0.522257 0.503109 0.735247
O O5 0.250000 0.855622 0.620130
O O6 0.055621 0.750000 0.618001
O O7 0.997900 0.864844 0.535741
O O8 0.005155 0.860348 0.712595
O O9 0.750000 0.822922 0.128207
O O10 0.502078 0.750000 0.131322
O O11 0.517933 0.865615 0.035752
O O12 0.750000 0.933021 0.508213
O O13 0.500000 0.000000 0.500000
O O14 0.250000 0.415081 0.244741
O O15 0.026760 0.408500 0.128952
O O16 0.750000 0.939001 0.979430
O O17 0.000000 0.000000 0.000000
#
# Coordination Sequence:
#
# PCOD8243716 Si02
#       6
#     8   8   8   8   8   8
#     4  10  20  35  59  86 114 151 192 238 290 350
#     4  11  25  43  61  84 118 159 200 246 301 354
#     4   9  18  34  56  83 115 150 189 234 285 344
#     4  11  22  36  60  91 119 152 196 244 292 352
#     4  11  22  35  58  89 117 152 197 245 294 349
#     4  10  20  34  57  87 115 152 194 238 289 346
#
# _framework density 18.835203
#
# number of rings (size 3 to 8) (size 9 to 14) (size 15 to 20)
#    0.000    1.667    3.333    1.500    0.000    4.000 
#    0.000    3.333    0.000    2.000    0.000    0.000 
#    0.000    0.000    0.000    0.000    0.000    0.000 
#
# Total GULP energy -595348.149475 kJ/mol
# GULP energy per Si atom -12403.086447 kJ/mol
# Density = 1.879233 g / cm^3
# Si number density = 18.835203 Si / 1000 Ang^3
#
#
#
# Elastic Constant Matrix: (Units=GPa)
#
#
# Indices 1 2 3 4 5 6 
#
# 1 88.1032 47.4492 56.9894 0.0000 0.0000 0.0000
# 2 47.4492 101.2677 55.7620 0.0000 0.0000 0.0000
# 3 56.9894 55.7620 155.9670 0.0000 0.0000 0.0000
# 4 0.0000 0.0000 0.0000 36.9700 0.0000 0.0000
# 5 0.0000 0.0000 0.0000 0.0000 25.4511 0.0000
# 6 0.0000 0.0000 0.0000 0.0000 0.0000 24.8078
#
#
#
# Elastic Compliance Matrix: (Units=1/GPa)
#
#
# Indices 1 2 3 4 5 6 
#
# 1 0.017162 -0.005713 -0.004228 0.000000 0.000000 0.000000
# 2 -0.005713 0.014197 -0.002988 0.000000 0.000000 0.000000
# 3 -0.004228 -0.002988 0.009025 0.000000 0.000000 0.000000
# 4 0.000000 0.000000 0.000000 0.027049 0.000000 0.000000
# 5 0.000000 0.000000 0.000000 0.000000 0.039291 0.000000
# 6 0.000000 0.000000 0.000000 0.000000 0.000000 0.040310
#
#
# Mechanical properties :
#
#
# Convention : Reuss Voigt Hill
#
# Bulk Modulus (GPa) = 68.84741 73.97102 71.40922
# Shear Modulus (GPa) = 28.13161 29.78824 28.95992
#
# Velocity S-wave (km/s) = 3.86886 3.98115 3.92540
# Velocity P-wave (km/s) = 7.52259 7.77758 7.65114
#
# Compressibility (1/GPa) = 0.01452487
#
# Stress axis : x y z
#
# Youngs Moduli (GPa) = 58.26704 70.43646 110.80262
#
# Poissons Ratio (x) = 0.40241 0.46852
# Poissons Ratio (y) = 0.33289 0.33111
# Poissons Ratio (z) = 0.24638 0.21049
#
# Static dielectric constant tensor:
#      x y z
#    x 3.425380 0.000000 0.000000 
#    y 0.000000 3.833820 0.000000 
#    z 0.000000 0.000000 4.193960 
# 
# 
# High freq. dielectric constant tensor:
#      x y z
#    x 1.720810 0.000000 0.000000 
#    y 0.000000 1.728050 0.000000 
#    z 0.000000 0.000000 1.752070 
# 
# From -- ./inp_files/20340.got.cif
#   From: 2010.03.12/outbox.cif.g09.slc.cpg/sg59_11_cif.got.tgz:20340.got - 2010.04.16 16:29:54.
