data_PCOD8243472
_publ_section_title
;
Structure prediction by ZEFSAII (Michael W. Deem and Ramdas Pophale) SiO2 
 PCOD8243472
Probable space group: P M M N
;
_chemical_formula_sum "Si O2"
_cell_formula_units_Z 48
_cell_length_a 9.025505
_cell_length_b 9.022119
_cell_length_c 31.094876
_cell_angle_alpha 90.000000
_cell_angle_beta 90.000000
_cell_angle_gamma 90.000000
_cell_volume 2532.030259
_symmetry_space_group_name_H-M "P M M N"
_symmetry_group_IT_number 59
_space_group.IT_coordinate_system_code '2'
_symmetry_cell_setting 'orthorhombic'
loop_
_space_group_symop_operation_xyz
x,y,z
1/2-x,1/2-y,z
1/2+x,-y,-z
-x,1/2+y,-z
-x,-y,-z
1/2+x,1/2+y,-z
1/2-x,y,z
x,1/2-y,z
loop_
_atom_site_type_symbol
_atom_site_label
_atom_site_fract_x
_atom_site_fract_y
_atom_site_fract_z
Si Si1 0.422360 0.077851 0.374469
Si Si2 0.578054 0.424635 0.959964
Si Si3 0.924303 0.420222 0.539437
Si Si4 0.083529 0.074000 0.205662
Si Si5 0.082900 0.926693 0.710768
Si Si6 0.076323 0.922968 0.880850
O O1 0.250000 0.048705 0.366064
O O2 0.455830 0.250000 0.382287
O O3 0.508960 0.015561 0.333129
O O4 0.480985 0.990994 0.416089
O O5 0.750000 0.469008 0.959852
O O6 0.556020 0.250000 0.963722
O O7 0.503774 0.481160 0.916649
O O8 0.500000 0.500000 0.000000
O O9 0.750000 0.442493 0.534880
O O10 0.971650 0.250000 0.539122
O O11 0.000000 0.500000 0.500000
O O12 0.250000 0.010127 0.201853
O O13 0.087757 0.250000 0.208399
O O14 0.007332 0.009006 0.248578
O O15 0.987932 0.023680 0.164751
O O16 0.250000 0.986757 0.713236
O O17 0.079342 0.750000 0.711790
O O18 0.250000 0.956202 0.881655
O O19 0.043597 0.750000 0.889158
#
# Coordination Sequence:
#
# PCOD8243472 Si02
#       6
#     8   8   8   8   8   8
#     4   9  17  30  48  70  98 132 168 207 254 307
#     4  11  24  40  58  81 108 139 177 219 264 316
#     4  10  21  36  54  76 102 133 170 212 259 311
#     4   9  16  27  46  73 105 140 175 212 257 307
#     4   9  16  26  43  70 102 133 168 212 257 301
#     4  10  20  34  54  81 111 142 178 220 265 312
#
# _framework density 18.95712
#
# number of rings (size 3 to 8) (size 9 to 14) (size 15 to 20)
#    0.000    2.333    0.000    3.000    0.000   10.000 
#    0.000    1.667    0.000    1.000    0.000    2.333 
#    0.000    0.000    0.000    0.000    0.000    0.000 
#
# Total GULP energy -595299.666238 kJ/mol
# GULP energy per Si atom -12402.076380 kJ/mol
# Density = 1.891397 g / cm^3
# Si number density = 18.957120 Si / 1000 Ang^3
#
#
#
# Elastic Constant Matrix: (Units=GPa)
#
#
# Indices 1 2 3 4 5 6 
#
# 1 132.2498 46.7812 90.3427 0.0000 0.0000 0.0000
# 2 46.7812 53.6654 56.9571 0.0000 0.0000 0.0000
# 3 90.3427 56.9571 196.0995 0.0000 0.0000 0.0000
# 4 0.0000 0.0000 0.0000 26.2010 0.0000 0.0000
# 5 0.0000 0.0000 0.0000 0.0000 44.8858 0.0000
# 6 0.0000 0.0000 0.0000 0.0000 0.0000 20.5024
#
#
#
# Elastic Compliance Matrix: (Units=1/GPa)
#
#
# Indices 1 2 3 4 5 6 
#
# 1 0.012616 -0.006981 -0.003785 0.000000 0.000000 0.000000
# 2 -0.006981 0.030801 -0.005730 0.000000 0.000000 0.000000
# 3 -0.003785 -0.005730 0.008507 0.000000 0.000000 0.000000
# 4 0.000000 0.000000 0.000000 0.038166 0.000000 0.000000
# 5 0.000000 0.000000 0.000000 0.000000 0.022279 0.000000
# 6 0.000000 0.000000 0.000000 0.000000 0.000000 0.048775
#
#
# Mechanical properties :
#
#
# Convention : Reuss Voigt Hill
#
# Bulk Modulus (GPa) = 52.81739 85.57519 69.19629
# Shear Modulus (GPa) = 24.94426 30.84676 27.89551
#
# Velocity S-wave (km/s) = 3.63137 4.03822 3.84018
# Velocity P-wave (km/s) = 6.74570 8.18428 7.49956
#
# Compressibility (1/GPa) = 0.01893316
#
# Stress axis : x y z
#
# Youngs Moduli (GPa) = 79.26280 32.46650 117.54606
#
# Poissons Ratio (x) = 0.22665 0.44487
# Poissons Ratio (y) = 0.55334 0.67354
# Poissons Ratio (z) = 0.29998 0.18603
#
# Static dielectric constant tensor:
#      x y z
#    x 3.598300 0.000000 0.000000 
#    y 0.000000 2.983260 0.000000 
#    z 0.000000 0.000000 3.748680 
# 
# 
# High freq. dielectric constant tensor:
#      x y z
#    x 1.746170 0.000000 0.000000 
#    y 0.000000 1.695650 0.000000 
#    z 0.000000 0.000000 1.757240 
# 
# From -- ./inp_files/32851.got.cif
#   From: 2010.03.12/outbox.cif.g09.slc.cpg/sg59_17_cif.got.tgz:32851.got - 2010.04.16 16:29:54.
