data_PCOD8243873
_publ_section_title
;
Structure prediction by ZEFSAII (Michael W. Deem and Ramdas Pophale) SiO2 
 PCOD8243873
Probable space group: P M M N
;
_chemical_formula_sum "Si O2"
_cell_formula_units_Z 64
_cell_length_a 8.643616
_cell_length_b 23.091535
_cell_length_c 16.015528
_cell_angle_alpha 90.000000
_cell_angle_beta 90.000000
_cell_angle_gamma 90.000000
_cell_volume 3196.609083
_symmetry_space_group_name_H-M "P M M N"
_symmetry_group_IT_number 59
_space_group.IT_coordinate_system_code '2'
_symmetry_cell_setting 'orthorhombic'
loop_
_space_group_symop_operation_xyz
x,y,z
1/2-x,1/2-y,z
1/2+x,-y,-z
-x,1/2+y,-z
-x,-y,-z
1/2+x,1/2+y,-z
1/2-x,y,z
x,1/2-y,z
loop_
_atom_site_type_symbol
_atom_site_label
_atom_site_fract_x
_atom_site_fract_y
_atom_site_fract_z
Si Si1 0.066791 0.817020 0.832491
Si Si2 0.425862 0.313757 0.652521
Si Si3 0.427062 0.427196 0.729333
Si Si4 0.568396 0.313688 0.484925
Si Si5 0.933990 0.000568 0.593638
Si Si6 0.570368 0.465711 0.894373
Si Si7 0.931554 0.909141 0.953799
Si Si8 0.434526 0.612795 0.668275
O O1 0.250000 0.814849 0.833305
O O2 0.004166 0.750000 0.832204
O O3 0.009303 0.852750 0.750981
O O4 0.010228 0.852264 0.913925
O O5 0.250000 0.311571 0.621082
O O6 0.483526 0.250000 0.681103
O O7 0.441123 0.357223 0.730688
O O8 0.525695 0.338452 0.575372
O O9 0.250000 0.447543 0.743655
O O10 0.489494 0.444453 0.638191
O O11 0.538799 0.453043 0.798513
O O12 0.750000 0.311245 0.474321
O O13 0.494822 0.250000 0.476111
O O14 0.501280 0.352289 0.411093
O O15 0.750000 0.005450 0.588671
O O16 0.983447 0.948704 0.656321
O O17 0.000000 0.000000 0.500000
O O18 0.750000 0.460547 0.915975
O O19 0.512124 0.531512 0.909151
O O20 0.479854 0.417845 0.949584
O O21 0.750000 0.899767 0.946677
O O22 0.250000 0.604325 0.668975
#
# Coordination Sequence:
#
# PCOD8243873 Si02
#       8
#     8   8   8   8   8   8   8   8
#     4  10  21  37  58  85 119 158 196 237 290 353
#     4   9  19  35  53  74 102 136 173 215 263 314
#     4  11  22  37  58  83 111 143 181 224 274 332
#     4   9  17  30  50  75 102 136 180 226 268 313
#     4  12  25  39  55  79 114 153 194 240 290 341
#     4  10  21  38  62  89 115 145 184 231 282 338
#     4  10  21  38  60  86 114 146 186 232 283 338
#     4  10  20  35  55  79 110 148 190 234 281 337
#
# _framework density 20.021214000000001
#
# number of rings (size 3 to 8) (size 9 to 14) (size 15 to 20)
#    0.000    1.875    0.000    4.125    0.000    9.250 
#    0.000    0.625    0.000    4.500    0.000    0.000 
#    0.000    0.000    0.000    0.000    0.000    0.000 
#
# Total GULP energy -793342.355830 kJ/mol
# GULP energy per Si atom -12395.974310 kJ/mol
# Density = 1.997565 g / cm^3
# Si number density = 20.021214 Si / 1000 Ang^3
#
#
#
# Elastic Constant Matrix: (Units=GPa)
#
#
# Indices 1 2 3 4 5 6 
#
# 1 45.9906 23.8937 12.6270 0.0000 0.0000 0.0000
# 2 23.8937 110.3153 43.4109 0.0000 0.0000 0.0000
# 3 12.6270 43.4109 86.1573 0.0000 0.0000 0.0000
# 4 0.0000 0.0000 0.0000 34.8711 0.0000 0.0000
# 5 0.0000 0.0000 0.0000 0.0000 30.2570 0.0000
# 6 0.0000 0.0000 0.0000 0.0000 0.0000 26.5225
#
#
#
# Elastic Compliance Matrix: (Units=1/GPa)
#
#
# Indices 1 2 3 4 5 6 
#
# 1 0.024591 -0.004875 -0.001148 0.000000 0.000000 0.000000
# 2 -0.004875 0.012273 -0.005469 0.000000 0.000000 0.000000
# 3 -0.001148 -0.005469 0.014531 0.000000 0.000000 0.000000
# 4 0.000000 0.000000 0.000000 0.028677 0.000000 0.000000
# 5 0.000000 0.000000 0.000000 0.000000 0.033050 0.000000
# 6 0.000000 0.000000 0.000000 0.000000 0.000000 0.037704
#
#
# Mechanical properties :
#
#
# Convention : Reuss Voigt Hill
#
# Bulk Modulus (GPa) = 35.19755 44.70294 39.95025
# Shear Modulus (GPa) = 27.28060 29.16557 28.22308
#
# Velocity S-wave (km/s) = 3.69533 3.82086 3.75862
# Velocity P-wave (km/s) = 5.98544 6.46850 6.23166
#
# Compressibility (1/GPa) = 0.02841107
#
# Stress axis : x y z
#
# Youngs Moduli (GPa) = 40.66484 81.47931 68.81972
#
# Poissons Ratio (x) = 0.39718 0.07900
# Poissons Ratio (y) = 0.19823 0.37641
# Poissons Ratio (z) = 0.04668 0.44565
#
# Static dielectric constant tensor:
#      x y z
#    x 3.489920 0.000000 0.000000 
#    y 0.000000 3.971230 0.000000 
#    z 0.000000 0.000000 3.531200 
# 
# 
# High freq. dielectric constant tensor:
#      x y z
#    x 1.772560 0.000000 0.000000 
#    y 0.000000 1.790080 0.000000 
#    z 0.000000 0.000000 1.771380 
# 
# From -- ./inp_files/21555.got.cif
#   From: 2010.03.12/outbox.cif.g09.slc.cpg/sg59_11_cif.got.tgz:21555.got - 2010.04.16 16:29:54.
