data_PCOD8243923
_publ_section_title
;
Structure prediction by ZEFSAII (Michael W. Deem and Ramdas Pophale) SiO2 
 PCOD8243923
Probable space group: P M M N
;
_chemical_formula_sum "Si O2"
_cell_formula_units_Z 56
_cell_length_a 14.349007
_cell_length_b 8.781927
_cell_length_c 22.744207
_cell_angle_alpha 90.000000
_cell_angle_beta 90.000000
_cell_angle_gamma 90.000000
_cell_volume 2866.041466
_symmetry_space_group_name_H-M "P M M N"
_symmetry_group_IT_number 59
_space_group.IT_coordinate_system_code '2'
_symmetry_cell_setting 'orthorhombic'
loop_
_space_group_symop_operation_xyz
x,y,z
1/2-x,1/2-y,z
1/2+x,-y,-z
-x,1/2+y,-z
-x,-y,-z
1/2+x,1/2+y,-z
1/2-x,y,z
x,1/2-y,z
loop_
_atom_site_type_symbol
_atom_site_label
_atom_site_fract_x
_atom_site_fract_y
_atom_site_fract_z
Si Si1 0.642439 0.071516 0.750831
Si Si2 0.048840 0.430287 0.137387
Si Si3 0.408263 0.574481 0.024252
Si Si4 0.848537 0.072990 0.099873
Si Si5 0.357923 0.576447 0.463878
Si Si6 0.851433 0.069882 0.404290
Si Si7 0.044358 0.428039 0.358361
O O1 0.750000 0.019612 0.751035
O O2 0.633542 0.250000 0.762124
O O3 0.586170 0.982417 0.800309
O O4 0.596871 0.030438 0.688907
O O5 0.048311 0.250000 0.134116
O O6 0.117763 0.491873 0.085776
O O7 0.943340 0.498768 0.127225
O O8 0.423566 0.750000 0.039325
O O9 0.500000 0.500000 0.000000
O O10 0.336487 0.551118 0.970857
O O11 0.750000 0.006518 0.126220
O O12 0.854298 0.250000 0.114969
O O13 0.250000 0.570974 0.446129
O O14 0.394867 0.750000 0.457102
O O15 0.372580 0.511322 0.529743
O O16 0.413762 0.462382 0.422073
O O17 0.750000 0.007005 0.382243
O O18 0.845219 0.250000 0.409366
O O19 0.934505 0.024307 0.359763
O O20 0.056582 0.250000 0.343348
#
# Coordination Sequence:
#
# PCOD8243923 Si02
#       7
#     8   8   8   8   8   8   8
#     4  11  25  43  59  73  96 136 178 214 261 323
#     4  10  20  35  56  80 106 137 175 224 272 310
#     4   9  16  28  49  76 108 145 181 217 256 301
#     4   8  15  29  51  80 111 141 172 204 246 307
#     4   9  17  31  52  77 108 145 177 206 250 311
#     4   8  16  32  53  78 108 141 175 208 250 311
#     4  11  21  33  54  81 106 134 172 221 265 299
#
# _framework density 19.539145999999999
#
# number of rings (size 3 to 8) (size 9 to 14) (size 15 to 20)
#    0.000    2.571    0.000    4.286    0.000    3.714 
#    0.000    2.857    0.000   22.714    0.000    0.000 
#    0.000    0.000    0.000    0.000    0.000    0.000 
#
# Total GULP energy -693802.687985 kJ/mol
# GULP energy per Si atom -12389.333714 kJ/mol
# Density = 1.949467 g / cm^3
# Si number density = 19.539146 Si / 1000 Ang^3
#
#
#
# Elastic Constant Matrix: (Units=GPa)
#
#
# Indices 1 2 3 4 5 6 
#
# 1 125.1588 30.5052 51.1467 0.0000 0.0000 0.0000
# 2 30.5052 53.0934 20.1913 0.0000 0.0000 0.0000
# 3 51.1467 20.1913 67.4993 0.0000 0.0000 0.0000
# 4 0.0000 0.0000 0.0000 29.4444 0.0000 0.0000
# 5 0.0000 0.0000 0.0000 0.0000 14.1642 0.0000
# 6 0.0000 0.0000 0.0000 0.0000 0.0000 18.9103
#
#
#
# Elastic Compliance Matrix: (Units=1/GPa)
#
#
# Indices 1 2 3 4 5 6 
#
# 1 0.012272 -0.003966 -0.008112 0.000000 0.000000 0.000000
# 2 -0.003966 0.022534 -0.003736 0.000000 0.000000 0.000000
# 3 -0.008112 -0.003736 0.022079 0.000000 0.000000 0.000000
# 4 0.000000 0.000000 0.000000 0.033962 0.000000 0.000000
# 5 0.000000 0.000000 0.000000 0.000000 0.070601 0.000000
# 6 0.000000 0.000000 0.000000 0.000000 0.000000 0.052881
#
#
# Mechanical properties :
#
#
# Convention : Reuss Voigt Hill
#
# Bulk Modulus (GPa) = 39.59221 49.93754 44.76488
# Shear Modulus (GPa) = 19.65595 22.09765 20.87680
#
# Velocity S-wave (km/s) = 3.17516 3.36660 3.27228
# Velocity P-wave (km/s) = 5.80940 6.38163 6.10223
#
# Compressibility (1/GPa) = 0.02525749
#
# Stress axis : x y z
#
# Youngs Moduli (GPa) = 81.48949 44.37754 45.29096
#
# Poissons Ratio (x) = 0.17598 0.36742
# Poissons Ratio (y) = 0.32315 0.16920
# Poissons Ratio (z) = 0.66107 0.16579
#
# Static dielectric constant tensor:
#      x y z
#    x 6.070950 0.000000 0.000000 
#    y 0.000000 3.442100 0.000000 
#    z 0.000000 0.000000 3.672710 
# 
# 
# High freq. dielectric constant tensor:
#      x y z
#    x 1.770060 0.000000 0.000000 
#    y 0.000000 1.736490 0.000000 
#    z 0.000000 0.000000 1.744440 
# 
# From -- ./inp_files/30315.got.cif
#   From: 2010.03.12/outbox.cif.g09.slc.cpg/sg59_16_cif.got.tgz:30315.got - 2010.04.16 16:29:54.
