data_PCOD8243956
_publ_section_title
;
Structure prediction by ZEFSAII (Michael W. Deem and Ramdas Pophale) SiO2 
 PCOD8243956
Probable space group: P M M N
;
_chemical_formula_sum "Si O2"
_cell_formula_units_Z 40
_cell_length_a 8.882153
_cell_length_b 9.494930
_cell_length_c 23.799257
_cell_angle_alpha 90.000000
_cell_angle_beta 90.000000
_cell_angle_gamma 90.000000
_cell_volume 2007.120358
_symmetry_space_group_name_H-M "P M M N"
_symmetry_group_IT_number 59
_space_group.IT_coordinate_system_code '2'
_symmetry_cell_setting 'orthorhombic'
loop_
_space_group_symop_operation_xyz
x,y,z
1/2-x,1/2-y,z
1/2+x,-y,-z
-x,1/2+y,-z
-x,-y,-z
1/2+x,1/2+y,-z
1/2-x,y,z
x,1/2-y,z
loop_
_atom_site_type_symbol
_atom_site_label
_atom_site_fract_x
_atom_site_fract_y
_atom_site_fract_z
Si Si1 0.571110 0.586646 0.550486
Si Si2 0.571179 0.409807 0.657140
Si Si3 0.072585 0.978831 0.873080
Si Si4 0.072632 0.750000 0.085481
Si Si5 0.078255 0.092870 0.239432
Si Si6 0.428127 0.750000 0.960079
O O1 0.500000 0.500000 0.500000
O O2 0.750000 0.579955 0.545602
O O3 0.516624 0.750000 0.550458
O O4 0.512648 0.507697 0.606472
O O5 0.750000 0.405985 0.655957
O O6 0.506600 0.250000 0.652514
O O7 0.516261 0.481079 0.715135
O O8 0.250000 0.003999 0.874631
O O9 0.017182 0.885841 0.925757
O O10 0.028358 0.907649 0.814658
O O11 0.982770 0.121586 0.877800
O O12 0.250000 0.750000 0.081097
O O13 0.000821 0.750000 0.022560
O O14 0.250000 0.056044 0.222192
O O15 0.071562 0.250000 0.265747
O O16 0.250000 0.750000 0.963650
#
# Coordination Sequence:
#
# PCOD8243956 Si02
#       6
#     8   8   8   4   8   4
#     4  10  20  35  57  85 118 156 197 241 287 337
#     4   9  18  33  55  82 112 149 193 240 287 334
#     4  11  22  39  59  84 116 151 185 231 293 348
#     4  11  23  39  59  85 113 147 192 237 278 337
#     4  10  20  35  56  82 110 145 191 238 283 341
#     4   9  20  39  61  83 113 149 188 231 282 345
#
# _framework density 19.929051000000001
#
# number of rings (size 3 to 8) (size 9 to 14) (size 15 to 20)
#    0.000    2.000    1.000    2.700    1.400    3.600 
#    0.000    4.000    0.000    3.600    0.000    0.000 
#    0.000    0.000    0.000    0.000    0.000    0.000 
#
# Total GULP energy -495971.068499 kJ/mol
# GULP energy per Si atom -12399.276712 kJ/mol
# Density = 1.988369 g / cm^3
# Si number density = 19.929051 Si / 1000 Ang^3
#
#
#
# Elastic Constant Matrix: (Units=GPa)
#
#
# Indices 1 2 3 4 5 6 
#
# 1 40.1956 24.8581 20.0314 0.0000 0.0000 0.0000
# 2 24.8581 160.3914 50.7115 0.0000 0.0000 0.0000
# 3 20.0314 50.7115 110.7162 0.0000 0.0000 0.0000
# 4 0.0000 0.0000 0.0000 43.4071 0.0000 0.0000
# 5 0.0000 0.0000 0.0000 0.0000 29.8809 0.0000
# 6 0.0000 0.0000 0.0000 0.0000 0.0000 17.0371
#
#
#
# Elastic Compliance Matrix: (Units=1/GPa)
#
#
# Indices 1 2 3 4 5 6 
#
# 1 0.028754 -0.003288 -0.003696 0.000000 0.000000 0.000000
# 2 -0.003288 0.007666 -0.002917 0.000000 0.000000 0.000000
# 3 -0.003696 -0.002917 0.011037 0.000000 0.000000 0.000000
# 4 0.000000 0.000000 0.000000 0.023038 0.000000 0.000000
# 5 0.000000 0.000000 0.000000 0.000000 0.033466 0.000000
# 6 0.000000 0.000000 0.000000 0.000000 0.000000 0.058695
#
#
# Mechanical properties :
#
#
# Convention : Reuss Voigt Hill
#
# Bulk Modulus (GPa) = 36.15928 55.83392 45.99660
# Shear Modulus (GPa) = 26.08567 32.44518 29.26543
#
# Velocity S-wave (km/s) = 3.62183 4.03927 3.83623
# Velocity P-wave (km/s) = 5.97274 7.05914 6.53854
#
# Compressibility (1/GPa) = 0.02765542
#
# Stress axis : x y z
#
# Youngs Moduli (GPa) = 34.77823 130.43856 90.60596
#
# Poissons Ratio (x) = 0.42883 0.33492
# Poissons Ratio (y) = 0.11434 0.26427
# Poissons Ratio (z) = 0.12856 0.38044
#
# Static dielectric constant tensor:
#      x y z
#    x 3.222240 0.000000 0.000000 
#    y 0.000000 3.896370 0.000000 
#    z 0.000000 0.000000 3.738640 
# 
# 
# High freq. dielectric constant tensor:
#      x y z
#    x 1.738730 0.000000 0.000000 
#    y 0.000000 1.796330 0.000000 
#    z 0.000000 0.000000 1.785530 
# 
# From -- ./inp_files/32424.got.cif
#   From: 2010.03.12/outbox.cif.g09.slc.cpg/sg59_17_cif.got.tgz:32424.got - 2010.04.16 16:29:54.
