data_PCOD8243026
_publ_section_title
;
Structure prediction by ZEFSAII (Michael W. Deem and Ramdas Pophale) SiO2 
 PCOD8243026
Probable space group: P M M N
;
_chemical_formula_sum "Si O2"
_cell_formula_units_Z 64
_cell_length_a 12.639616
_cell_length_b 18.744022
_cell_length_c 15.119355
_cell_angle_alpha 90.000000
_cell_angle_beta 90.000000
_cell_angle_gamma 90.000000
_cell_volume 3582.035863
_symmetry_space_group_name_H-M "P M M N"
_symmetry_group_IT_number 59
_space_group.IT_coordinate_system_code '2'
_symmetry_cell_setting 'orthorhombic'
loop_
_space_group_symop_operation_xyz
x,y,z
1/2-x,1/2-y,z
1/2+x,-y,-z
-x,1/2+y,-z
-x,-y,-z
1/2+x,1/2+y,-z
1/2-x,y,z
x,1/2-y,z
loop_
_atom_site_type_symbol
_atom_site_label
_atom_site_fract_x
_atom_site_fract_y
_atom_site_fract_z
Si Si1 0.128243 0.830539 0.360983
Si Si2 0.513125 0.168150 0.818498
Si Si3 0.871654 0.833353 0.777537
Si Si4 0.626995 0.827276 0.582137
Si Si5 0.965536 0.931821 0.445579
Si Si6 0.375535 0.927227 0.046634
Si Si7 0.495820 0.948046 0.871031
Si Si8 0.625922 0.548637 0.255074
O O1 0.250000 0.848478 0.372495
O O2 0.101303 0.750000 0.391407
O O3 0.099167 0.840685 0.258702
O O4 0.068762 0.886304 0.422658
O O5 0.477578 0.250000 0.831554
O O6 0.567207 0.140391 0.908106
O O7 0.409652 0.122469 0.791843
O O8 0.750000 0.857892 0.789692
O O9 0.883248 0.750000 0.798706
O O10 0.915048 0.850978 0.678706
O O11 0.946137 0.875554 0.844614
O O12 0.750000 0.816410 0.595072
O O13 0.577570 0.750000 0.555177
O O14 0.608476 0.885092 0.507638
O O15 0.899356 0.952064 0.359055
O O16 0.000000 0.000000 0.500000
O O17 0.250000 0.919752 0.054221
O O18 0.413215 0.999132 0.094448
O O19 0.408888 0.929598 0.944600
O O20 0.435400 0.982443 0.788036
O O21 0.750000 0.539834 0.239913
#
# Coordination Sequence:
#
# PCOD8243026 Si02
#       8
#     8   8   8   8   8   8   8   8
#     4   9  18  33  51  70  98 135 168 202 251 308
#     4   9  19  35  54  78 103 128 166 214 258 304
#     4   9  18  34  56  78 100 130 168 212 260 303
#     4   9  18  33  52  73  98 129 166 208 252 298
#     4  11  21  32  49  76 105 133 170 215 255 294
#     4  10  20  33  53  77 102 138 175 209 254 304
#     4  10  20  35  53  75 106 137 172 212 252 306
#     4  10  21  36  53  74 104 143 176 206 255 311
#
# _framework density 17.866935000000002
#
# number of rings (size 3 to 8) (size 9 to 14) (size 15 to 20)
#    0.000    2.375    0.000    3.375    0.000    3.000 
#    0.000    3.750    0.000    1.125    0.000    1.750 
#    0.000    0.000    0.000    0.000    0.000    0.000 
#
# Total GULP energy -793578.647266 kJ/mol
# GULP energy per Si atom -12399.666364 kJ/mol
# Density = 1.782627 g / cm^3
# Si number density = 17.866935 Si / 1000 Ang^3
#
#
#
# Elastic Constant Matrix: (Units=GPa)
#
#
# Indices 1 2 3 4 5 6 
#
# 1 83.5160 38.2993 36.5670 0.0000 0.0000 0.0000
# 2 38.2993 96.7933 48.4677 0.0000 0.0000 0.0000
# 3 36.5670 48.4677 90.2927 0.0000 0.0000 0.0000
# 4 0.0000 0.0000 0.0000 31.5353 0.0000 0.0000
# 5 0.0000 0.0000 0.0000 0.0000 19.9838 0.0000
# 6 0.0000 0.0000 0.0000 0.0000 0.0000 24.3067
#
#
#
# Elastic Compliance Matrix: (Units=1/GPa)
#
#
# Indices 1 2 3 4 5 6 
#
# 1 0.015678 -0.004136 -0.004129 0.000000 0.000000 0.000000
# 2 -0.004136 0.015220 -0.006495 0.000000 0.000000 0.000000
# 3 -0.004129 -0.006495 0.016234 0.000000 0.000000 0.000000
# 4 0.000000 0.000000 0.000000 0.031710 0.000000 0.000000
# 5 0.000000 0.000000 0.000000 0.000000 0.050040 0.000000
# 6 0.000000 0.000000 0.000000 0.000000 0.000000 0.041141
#
#
# Mechanical properties :
#
#
# Convention : Reuss Voigt Hill
#
# Bulk Modulus (GPa) = 56.78006 57.47445 57.12726
# Shear Modulus (GPa) = 24.34093 24.98303 24.66198
#
# Velocity S-wave (km/s) = 3.69500 3.74342 3.71929
# Velocity P-wave (km/s) = 7.07477 7.13597 7.10544
#
# Compressibility (1/GPa) = 0.01761182
#
# Stress axis : x y z
#
# Youngs Moduli (GPa) = 63.78168 65.70286 61.59994
#
# Poissons Ratio (x) = 0.27174 0.25437
# Poissons Ratio (y) = 0.26380 0.40008
# Poissons Ratio (z) = 0.26338 0.42673
#
# Static dielectric constant tensor:
#      x y z
#    x 3.120420 0.000000 0.000000 
#    y 0.000000 3.360030 0.000000 
#    z 0.000000 0.000000 3.377970 
# 
# 
# High freq. dielectric constant tensor:
#      x y z
#    x 1.681470 0.000000 0.000000 
#    y 0.000000 1.694980 0.000000 
#    z 0.000000 0.000000 1.695500 
# 
# From -- ./inp_files/22699.got.cif
#   From: 2010.03.12/outbox.cif.g09.slc.cpg/sg59_12_cif.got.tgz:22699.got - 2010.04.16 16:29:54.
