data_PCOD8243831
_publ_section_title
;
Structure prediction by ZEFSAII (Michael W. Deem and Ramdas Pophale) SiO2 
 PCOD8243831
Probable space group: P M M N
;
_chemical_formula_sum "Si O2"
_cell_formula_units_Z 48
_cell_length_a 9.364463
_cell_length_b 18.115600
_cell_length_c 16.287861
_cell_angle_alpha 90.000000
_cell_angle_beta 90.000000
_cell_angle_gamma 90.000000
_cell_volume 2763.119420
_symmetry_space_group_name_H-M "P M M N"
_symmetry_group_IT_number 59
_space_group.IT_coordinate_system_code '2'
_symmetry_cell_setting 'orthorhombic'
loop_
_space_group_symop_operation_xyz
x,y,z
1/2-x,1/2-y,z
1/2+x,-y,-z
-x,1/2+y,-z
-x,-y,-z
1/2+x,1/2+y,-z
1/2-x,y,z
x,1/2-y,z
loop_
_atom_site_type_symbol
_atom_site_label
_atom_site_fract_x
_atom_site_fract_y
_atom_site_fract_z
Si Si1 0.913788 0.957768 0.271249
Si Si2 0.918690 0.520748 0.581982
Si Si3 0.086187 0.167874 0.329394
Si Si4 0.415858 0.165916 0.852997
Si Si5 0.414823 0.835988 0.989250
Si Si6 0.586028 0.392277 0.183277
O O1 0.750000 0.956922 0.303478
O O2 0.955287 0.881466 0.227205
O O3 0.935177 0.022184 0.204679
O O4 0.021338 0.967918 0.346709
O O5 0.750000 0.507543 0.571811
O O6 0.955692 0.606226 0.603090
O O7 0.000000 0.500000 0.500000
O O8 0.250000 0.156841 0.304372
O O9 0.058743 0.250000 0.366151
O O10 0.997187 0.159336 0.246570
O O11 0.250000 0.158317 0.873850
O O12 0.459913 0.250000 0.833286
O O13 0.499091 0.135153 0.931983
O O14 0.250000 0.852824 0.006439
O O15 0.443799 0.750000 0.974193
O O16 0.470877 0.879298 0.908916
O O17 0.750000 0.367335 0.188611
#
# Coordination Sequence:
#
# PCOD8243831 Si02
#       6
#     8   8   8   8   8   8
#     4   9  18  33  51  70  93 122 157 197 239 282
#     4  10  20  35  55  76  98 124 153 188 232 282
#     4   9  18  32  50  73  99 125 154 189 230 277
#     4   9  18  32  48  66  91 126 166 203 238 276
#     4   9  17  28  42  63  93 127 160 195 236 279
#     4   9  17  29  46  69  96 126 159 194 235 282
#
# _framework density 17.371670999999999
#
# number of rings (size 3 to 8) (size 9 to 14) (size 15 to 20)
#    0.000    2.833    0.000    1.000    0.000    3.667 
#    0.000    2.500    0.000    5.000    0.000    0.000 
#    0.000    0.000    0.000    0.000    0.000    0.000 
#
# Total GULP energy -595194.506893 kJ/mol
# GULP energy per Si atom -12399.885560 kJ/mol
# Density = 1.733213 g / cm^3
# Si number density = 17.371671 Si / 1000 Ang^3
#
#
#
# Elastic Constant Matrix: (Units=GPa)
#
#
# Indices 1 2 3 4 5 6 
#
# 1 73.4302 44.2944 68.0908 0.0000 0.0000 0.0000
# 2 44.2944 88.5998 68.2065 0.0000 0.0000 0.0000
# 3 68.0908 68.2065 135.5990 0.0000 0.0000 0.0000
# 4 0.0000 0.0000 0.0000 22.2818 0.0000 0.0000
# 5 0.0000 0.0000 0.0000 0.0000 35.5690 0.0000
# 6 0.0000 0.0000 0.0000 0.0000 0.0000 22.0713
#
#
#
# Elastic Compliance Matrix: (Units=1/GPa)
#
#
# Indices 1 2 3 4 5 6 
#
# 1 0.026752 -0.004949 -0.010944 0.000000 0.000000 0.000000
# 2 -0.004949 0.019335 -0.007240 0.000000 0.000000 0.000000
# 3 -0.010944 -0.007240 0.016512 0.000000 0.000000 0.000000
# 4 0.000000 0.000000 0.000000 0.044880 0.000000 0.000000
# 5 0.000000 0.000000 0.000000 0.000000 0.028114 0.000000
# 6 0.000000 0.000000 0.000000 0.000000 0.000000 0.045308
#
#
# Mechanical properties :
#
#
# Convention : Reuss Voigt Hill
#
# Bulk Modulus (GPa) = 61.22992 73.20138 67.21565
# Shear Modulus (GPa) = 21.49508 23.78691 22.64099
#
# Velocity S-wave (km/s) = 3.52143 3.70441 3.61408
# Velocity P-wave (km/s) = 7.20122 7.77989 7.49614
#
# Compressibility (1/GPa) = 0.01633188
#
# Stress axis : x y z
#
# Youngs Moduli (GPa) = 37.38014 51.72052 60.56237
#
# Poissons Ratio (x) = 0.25599 0.66279
# Poissons Ratio (y) = 0.18501 0.43847
# Poissons Ratio (z) = 0.40909 0.37446
#
# Static dielectric constant tensor:
#      x y z
#    x 3.270960 0.000000 0.000000 
#    y 0.000000 3.329710 0.000000 
#    z 0.000000 0.000000 3.146900 
# 
# 
# High freq. dielectric constant tensor:
#      x y z
#    x 1.670720 0.000000 0.000000 
#    y 0.000000 1.668040 0.000000 
#    z 0.000000 0.000000 1.658810 
# 
# From -- ./inp_files/20422.got.cif
#   From: 2010.03.12/outbox.cif.g09.slc.cpg/sg59_11_cif.got.tgz:20422.got - 2010.04.16 16:29:54.
