data_PCOD8243129
_publ_section_title
;
Structure prediction by ZEFSAII (Michael W. Deem and Ramdas Pophale) SiO2 
 PCOD8243129
Probable space group: P M M N
;
_chemical_formula_sum "Si O2"
_cell_formula_units_Z 32
_cell_length_a 17.421608
_cell_length_b 10.520869
_cell_length_c 9.673426
_cell_angle_alpha 90.000000
_cell_angle_beta 90.000000
_cell_angle_gamma 90.000000
_cell_volume 1773.046658
_symmetry_space_group_name_H-M "P M M N"
_symmetry_group_IT_number 59
_space_group.IT_coordinate_system_code '2'
_symmetry_cell_setting 'orthorhombic'
loop_
_space_group_symop_operation_xyz
x,y,z
1/2-x,1/2-y,z
1/2+x,-y,-z
-x,1/2+y,-z
-x,-y,-z
1/2+x,1/2+y,-z
1/2-x,y,z
x,1/2-y,z
loop_
_atom_site_type_symbol
_atom_site_label
_atom_site_fract_x
_atom_site_fract_y
_atom_site_fract_z
Si Si1 0.662107 0.102001 0.582204
Si Si2 0.406006 0.892322 0.710697
Si Si3 0.058280 0.018863 0.193005
Si Si4 0.416172 0.109314 0.903430
O O1 0.750000 0.059787 0.566450
O O2 0.654613 0.250000 0.614628
O O3 0.617779 0.066193 0.442394
O O4 0.625774 0.026580 0.708691
O O5 0.374660 0.750000 0.744750
O O6 0.498990 0.891439 0.721612
O O7 0.371518 0.997989 0.817597
O O8 0.098198 0.093927 0.066942
O O9 0.007985 0.902292 0.128502
O O10 0.388070 0.250000 0.858324
#
# Coordination Sequence:
#
# PCOD8243129 Si02
#       4
#     8   8   8   8
#     4  10  20  34  51  76 108 140 176 217 261 311
#     4   9  18  32  54  80 105 134 171 216 261 307
#     4   9  18  30  54  77 106 130 171 217 260 298
#     4   9  18  31  55  81 102 130 171 217 260 304
#
# _framework density 18.048031000000002
#
# number of rings (size 3 to 8) (size 9 to 14) (size 15 to 20)
#    1.500    1.250    0.000    2.250    0.000    1.000 
#    0.000    2.500    0.000   11.250    0.000    0.000 
#    0.000    0.000    0.000    0.000    0.000    0.000 
#
# Total GULP energy -396432.376168 kJ/mol
# GULP energy per Si atom -12388.511755 kJ/mol
# Density = 1.800695 g / cm^3
# Si number density = 18.048031 Si / 1000 Ang^3
#
#
#
# Elastic Constant Matrix: (Units=GPa)
#
#
# Indices 1 2 3 4 5 6 
#
# 1 40.4290 21.7481 42.4802 0.0000 0.0000 0.0000
# 2 21.7481 115.2395 62.0075 0.0000 0.0000 0.0000
# 3 42.4802 62.0075 125.1021 0.0000 0.0000 0.0000
# 4 0.0000 0.0000 0.0000 26.1289 0.0000 0.0000
# 5 0.0000 0.0000 0.0000 0.0000 2.6299 0.0000
# 6 0.0000 0.0000 0.0000 0.0000 0.0000 17.1115
#
#
#
# Elastic Compliance Matrix: (Units=1/GPa)
#
#
# Indices 1 2 3 4 5 6 
#
# 1 0.038464 -0.000315 -0.012905 0.000000 0.000000 0.000000
# 2 -0.000315 0.011836 -0.005760 0.000000 0.000000 0.000000
# 3 -0.012905 -0.005760 0.015230 0.000000 0.000000 0.000000
# 4 0.000000 0.000000 0.000000 0.038272 0.000000 0.000000
# 5 0.000000 0.000000 0.000000 0.000000 0.380247 0.000000
# 6 0.000000 0.000000 0.000000 0.000000 0.000000 0.058440
#
#
# Mechanical properties :
#
#
# Convention : Reuss Voigt Hill
#
# Bulk Modulus (GPa) = 36.26993 59.24911 47.75952
# Shear Modulus (GPa) = 8.47977 19.47637 13.97807
#
# Velocity S-wave (km/s) = 2.16994 3.28859 2.78599
# Velocity P-wave (km/s) = 5.13986 6.87893 6.07198
#
# Compressibility (1/GPa) = 0.02757105
#
# Stress axis : x y z
#
# Youngs Moduli (GPa) = 25.99862 84.48672 65.65902
#
# Poissons Ratio (x) = 0.02663 0.84730
# Poissons Ratio (y) = 0.00820 0.37817
# Poissons Ratio (z) = 0.33550 0.48661
#
# Static dielectric constant tensor:
#      x y z
#    x 2.885200 0.000000 0.000000 
#    y 0.000000 3.154760 0.000000 
#    z 0.000000 0.000000 3.269230 
# 
# 
# High freq. dielectric constant tensor:
#      x y z
#    x 1.649940 0.000000 0.000000 
#    y 0.000000 1.689520 0.000000 
#    z 0.000000 0.000000 1.705290 
# 
# From -- ./inp_files/7015.got.cif
#   From: 2010.03.12/outbox.cif.g09.slc.cpg/sg59_4_cif.got.tgz:7015.got - 2010.04.16 16:29:54.
