data_PCOD8243554
_publ_section_title
;
Structure prediction by ZEFSAII (Michael W. Deem and Ramdas Pophale) SiO2 
 PCOD8243554
Probable space group: P M M N
;
_chemical_formula_sum "Si O2"
_cell_formula_units_Z 64
_cell_length_a 15.025522
_cell_length_b 9.333606
_cell_length_c 23.991825
_cell_angle_alpha 90.000000
_cell_angle_beta 90.000000
_cell_angle_gamma 90.000000
_cell_volume 3364.668774
_symmetry_space_group_name_H-M "P M M N"
_symmetry_group_IT_number 59
_space_group.IT_coordinate_system_code '2'
_symmetry_cell_setting 'orthorhombic'
loop_
_space_group_symop_operation_xyz
x,y,z
1/2-x,1/2-y,z
1/2+x,-y,-z
-x,1/2+y,-z
-x,-y,-z
1/2+x,1/2+y,-z
1/2-x,y,z
x,1/2-y,z
loop_
_atom_site_type_symbol
_atom_site_label
_atom_site_fract_x
_atom_site_fract_y
_atom_site_fract_z
Si Si1 0.352726 0.587283 0.493508
Si Si2 0.389075 0.589364 0.616660
Si Si3 0.407006 0.088584 0.391068
Si Si4 0.652559 0.911898 0.279353
Si Si5 0.145365 0.082388 0.001839
Si Si6 0.486606 0.581628 0.079611
Si Si7 0.150948 0.587757 0.289341
Si Si8 0.995854 0.079844 0.795309
O O1 0.250000 0.582354 0.476858
O O2 0.389789 0.750000 0.489753
O O3 0.367959 0.525959 0.555563
O O4 0.405362 0.487094 0.450983
O O5 0.350040 0.750000 0.619711
O O6 0.492807 0.588506 0.630280
O O7 0.341312 0.494946 0.662686
O O8 0.369840 0.250000 0.396891
O O9 0.349931 0.004416 0.345540
O O10 0.750000 0.916134 0.251415
O O11 0.622800 0.750000 0.293327
O O12 0.584232 0.980312 0.235113
O O13 0.250000 0.035546 0.993110
O O14 0.142228 0.250000 0.016308
O O15 0.097951 0.996334 0.051648
O O16 0.083583 0.049222 0.947744
O O17 0.465975 0.750000 0.077441
O O18 0.491067 0.518990 0.142246
O O19 0.250000 0.583600 0.264645
O O20 0.122342 0.750000 0.304991
O O21 0.087942 0.525524 0.240902
O O22 0.998675 0.250000 0.799308
#
# Coordination Sequence:
#
# PCOD8243554 Si02
#       8
#     8   8   8   8   8   8   8   8
#     4  10  21  36  53  73  98 131 170 212 263 323
#     4  10  21  37  55  75 101 136 174 211 260 322
#     4  11  22  35  53  77 102 131 170 217 267 316
#     4  10  20  34  55  81 106 135 172 217 269 317
#     4   9  18  33  53  80 115 150 181 220 273 321
#     4   9  18  33  55  81 109 146 188 226 263 311
#     4  10  20  35  55  75 100 139 178 213 262 319
#     4   9  18  34  54  79 109 138 176 224 262 303
#
# _framework density 19.021187999999999
#
# number of rings (size 3 to 8) (size 9 to 14) (size 15 to 20)
#    0.000    2.250    1.250    1.500    0.000    5.000 
#    0.000    5.000    0.000    0.000    0.000    1.750 
#    0.000    0.000    0.000    0.000    0.000    0.000 
#
# Total GULP energy -793463.409436 kJ/mol
# GULP energy per Si atom -12397.865772 kJ/mol
# Density = 1.897790 g / cm^3
# Si number density = 19.021188 Si / 1000 Ang^3
#
#
#
# Elastic Constant Matrix: (Units=GPa)
#
#
# Indices 1 2 3 4 5 6 
#
# 1 117.8834 29.3755 48.9873 0.0000 0.0000 0.0000
# 2 29.3755 60.0944 44.9137 0.0000 0.0000 0.0000
# 3 48.9873 44.9137 147.6374 0.0000 0.0000 0.0000
# 4 0.0000 0.0000 0.0000 24.8722 0.0000 0.0000
# 5 0.0000 0.0000 0.0000 0.0000 15.5961 0.0000
# 6 0.0000 0.0000 0.0000 0.0000 0.0000 15.6462
#
#
#
# Elastic Compliance Matrix: (Units=1/GPa)
#
#
# Indices 1 2 3 4 5 6 
#
# 1 0.010297 -0.003210 -0.002440 0.000000 0.000000 0.000000
# 2 -0.003210 0.022538 -0.005791 0.000000 0.000000 0.000000
# 3 -0.002440 -0.005791 0.009345 0.000000 0.000000 0.000000
# 4 0.000000 0.000000 0.000000 0.040206 0.000000 0.000000
# 5 0.000000 0.000000 0.000000 0.000000 0.064119 0.000000
# 6 0.000000 0.000000 0.000000 0.000000 0.000000 0.063913
#
#
# Mechanical properties :
#
#
# Convention : Reuss Voigt Hill
#
# Bulk Modulus (GPa) = 51.82100 63.57423 57.69762
# Shear Modulus (GPa) = 20.85666 24.71214 22.78440
#
# Velocity S-wave (km/s) = 3.31493 3.60834 3.46474
# Velocity P-wave (km/s) = 6.47724 7.13131 6.81213
#
# Compressibility (1/GPa) = 0.01929719
#
# Stress axis : x y z
#
# Youngs Moduli (GPa) = 97.11780 44.36987 107.01072
#
# Poissons Ratio (x) = 0.14241 0.26112
# Poissons Ratio (y) = 0.31171 0.61974
# Poissons Ratio (z) = 0.23698 0.25696
#
# Static dielectric constant tensor:
#      x y z
#    x 3.575440 0.000000 0.000000 
#    y 0.000000 3.346470 0.000000 
#    z 0.000000 0.000000 3.463630 
# 
# 
# High freq. dielectric constant tensor:
#      x y z
#    x 1.751240 0.000000 0.000000 
#    y 0.000000 1.716250 0.000000 
#    z 0.000000 0.000000 1.731330 
# 
# From -- ./inp_files/31612.got.cif
#   From: 2010.03.12/outbox.cif.g09.slc.cpg/sg59_16_cif.got.tgz:31612.got - 2010.04.16 16:29:54.
