data_PCOD8243277
_publ_section_title
;
Structure prediction by ZEFSAII (Michael W. Deem and Ramdas Pophale) SiO2 
 PCOD8243277
Probable space group: P M M N
;
_chemical_formula_sum "Si O2"
_cell_formula_units_Z 48
_cell_length_a 9.175613
_cell_length_b 9.051742
_cell_length_c 30.878710
_cell_angle_alpha 90.000000
_cell_angle_beta 90.000000
_cell_angle_gamma 90.000000
_cell_volume 2564.639954
_symmetry_space_group_name_H-M "P M M N"
_symmetry_group_IT_number 59
_space_group.IT_coordinate_system_code '2'
_symmetry_cell_setting 'orthorhombic'
loop_
_space_group_symop_operation_xyz
x,y,z
1/2-x,1/2-y,z
1/2+x,-y,-z
-x,1/2+y,-z
-x,-y,-z
1/2+x,1/2+y,-z
1/2-x,y,z
x,1/2-y,z
loop_
_atom_site_type_symbol
_atom_site_label
_atom_site_fract_x
_atom_site_fract_y
_atom_site_fract_z
Si Si1 0.421057 0.920117 0.961059
Si Si2 0.921384 0.580119 0.796911
Si Si3 0.576707 0.916471 0.375137
Si Si4 0.417912 0.422832 0.873331
Si Si5 0.421756 0.920968 0.539257
Si Si6 0.918203 0.078160 0.289885
O O1 0.250000 0.939314 0.967994
O O2 0.468572 0.750000 0.959848
O O3 0.471383 0.994449 0.916382
O O4 0.500000 0.000000 0.000000
O O5 0.750000 0.557377 0.794117
O O6 0.963321 0.750000 0.806714
O O7 0.984026 0.476801 0.834050
O O8 0.990093 0.528417 0.751657
O O9 0.750000 0.920063 0.374616
O O10 0.516695 0.750000 0.378317
O O11 0.519101 0.007945 0.416257
O O12 0.518571 0.989859 0.330989
O O13 0.250000 0.460916 0.863105
O O14 0.441689 0.250000 0.880546
O O15 0.250000 0.944787 0.534315
O O16 0.464602 0.750000 0.539465
O O17 0.500000 0.000000 0.500000
O O18 0.750000 0.039009 0.280812
O O19 0.938258 0.250000 0.300195
#
# Coordination Sequence:
#
# PCOD8243277 Si02
#       6
#     8   8   8   8   8   8
#     4  10  21  37  58  83 110 141 177 217 262 311
#     4  10  21  36  54  78 108 141 176 215 262 314
#     4   9  17  30  50  75 101 131 171 217 261 307
#     4  10  21  37  57  80 106 139 180 222 262 308
#     4  10  20  34  53  77 105 137 174 215 259 309
#     4   9  17  31  52  75  99 131 172 216 261 310
#
# _framework density 18.716079000000001
#
# number of rings (size 3 to 8) (size 9 to 14) (size 15 to 20)
#    0.000    2.333    0.000    2.500    0.000    7.333 
#    0.000    2.500    0.000    3.000    0.000    0.000 
#    0.000    0.000    0.000    0.000    0.000    0.000 
#
# Total GULP energy -595368.789497 kJ/mol
# GULP energy per Si atom -12403.516448 kJ/mol
# Density = 1.867348 g / cm^3
# Si number density = 18.716079 Si / 1000 Ang^3
#
#
#
# Elastic Constant Matrix: (Units=GPa)
#
#
# Indices 1 2 3 4 5 6 
#
# 1 48.4303 43.7952 56.4514 0.0000 0.0000 0.0000
# 2 43.7952 134.6150 96.5286 0.0000 0.0000 0.0000
# 3 56.4514 96.5286 185.5511 0.0000 0.0000 0.0000
# 4 0.0000 0.0000 0.0000 43.4166 0.0000 0.0000
# 5 0.0000 0.0000 0.0000 0.0000 32.6999 0.0000
# 6 0.0000 0.0000 0.0000 0.0000 0.0000 25.1979
#
#
#
# Elastic Compliance Matrix: (Units=1/GPa)
#
#
# Indices 1 2 3 4 5 6 
#
# 1 0.034735 -0.005938 -0.007479 0.000000 0.000000 0.000000
# 2 -0.005938 0.012864 -0.004885 0.000000 0.000000 0.000000
# 3 -0.007479 -0.004885 0.010206 0.000000 0.000000 0.000000
# 4 0.000000 0.000000 0.000000 0.023033 0.000000 0.000000
# 5 0.000000 0.000000 0.000000 0.000000 0.030581 0.000000
# 6 0.000000 0.000000 0.000000 0.000000 0.000000 0.039686
#
#
# Mechanical properties :
#
#
# Convention : Reuss Voigt Hill
#
# Bulk Modulus (GPa) = 47.16787 84.68299 65.92543
# Shear Modulus (GPa) = 25.67058 31.71761 28.69410
#
# Velocity S-wave (km/s) = 3.70750 4.12111 3.91976
# Velocity P-wave (km/s) = 6.60181 8.24555 7.46903
#
# Compressibility (1/GPa) = 0.02120087
#
# Stress axis : x y z
#
# Youngs Moduli (GPa) = 28.78940 77.73838 97.97995
#
# Poissons Ratio (x) = 0.46160 0.73275
# Poissons Ratio (y) = 0.17095 0.47868
# Poissons Ratio (z) = 0.21530 0.37979
#
# Static dielectric constant tensor:
#      x y z
#    x 3.191760 0.000000 0.000000 
#    y 0.000000 3.604630 0.000000 
#    z 0.000000 0.000000 3.619800 
# 
# 
# High freq. dielectric constant tensor:
#      x y z
#    x 1.699820 0.000000 0.000000 
#    y 0.000000 1.736170 0.000000 
#    z 0.000000 0.000000 1.742580 
# 
# From -- ./inp_files/32832.got.cif
#   From: 2010.03.12/outbox.cif.g09.slc.cpg/sg59_17_cif.got.tgz:32832.got - 2010.04.16 16:29:54.
