data_PCOD8243722
_publ_section_title
;
Structure prediction by ZEFSAII (Michael W. Deem and Ramdas Pophale) SiO2 
 PCOD8243722
Probable space group: P M M N
;
_chemical_formula_sum "Si O2"
_cell_formula_units_Z 56
_cell_length_a 14.693136
_cell_length_b 16.961237
_cell_length_c 11.517506
_cell_angle_alpha 90.000000
_cell_angle_beta 90.000000
_cell_angle_gamma 90.000000
_cell_volume 2870.320999
_symmetry_space_group_name_H-M "P M M N"
_symmetry_group_IT_number 59
_space_group.IT_coordinate_system_code '2'
_symmetry_cell_setting 'orthorhombic'
loop_
_space_group_symop_operation_xyz
x,y,z
1/2-x,1/2-y,z
1/2+x,-y,-z
-x,1/2+y,-z
-x,-y,-z
1/2+x,1/2+y,-z
1/2-x,y,z
x,1/2-y,z
loop_
_atom_site_type_symbol
_atom_site_label
_atom_site_fract_x
_atom_site_fract_y
_atom_site_fract_z
Si Si1 0.356076 0.992212 0.704173
Si Si2 0.648298 0.537583 0.035851
Si Si3 0.474504 0.163512 0.083737
Si Si4 0.028224 0.659225 0.665459
Si Si5 0.014362 0.416748 0.555796
Si Si6 0.853385 0.161116 0.690570
Si Si7 0.647876 0.371451 0.951839
O O1 0.250000 0.994772 0.677146
O O2 0.378885 0.002019 0.839707
O O3 0.400380 0.069430 0.641700
O O4 0.391377 0.906206 0.661585
O O5 0.750000 0.573296 0.038314
O O6 0.579143 0.604385 0.998053
O O7 0.640701 0.466297 0.944778
O O8 0.432884 0.250000 0.062872
O O9 0.466865 0.142642 0.220479
O O10 0.580464 0.164111 0.047595
O O11 0.064969 0.750000 0.668384
O O12 0.967724 0.646487 0.548112
O O13 0.923256 0.394572 0.624934
O O14 0.000000 0.500000 0.500000
O O15 0.750000 0.130355 0.670676
O O16 0.863861 0.250000 0.642970
O O17 0.877169 0.162140 0.826475
O O18 0.750000 0.346303 0.989237
#
# Coordination Sequence:
#
# PCOD8243722 Si02
#       7
#     8   8   8   8   8   8   8
#     4  10  21  39  61  88 115 152 199 239 285 342
#     4  10  21  37  59  84 118 155 193 239 282 341
#     4  11  22  35  58  86 118 158 192 233 292 349
#     4  10  22  38  58  85 117 152 191 239 298 349
#     4  10  22  37  57  81 113 153 193 242 283 335
#     4  10  21  37  59  87 116 148 190 240 295 347
#     4  10  20  34  57  88 118 148 183 231 290 351
#
# _framework density 19.510014000000002
#
# number of rings (size 3 to 8) (size 9 to 14) (size 15 to 20)
#    0.000    1.857    1.429    2.143    4.000    3.714 
#    0.000    2.857    0.000    4.286    0.000    0.000 
#    0.000    0.000    0.000    0.000    0.000    0.000 
#
# Total GULP energy -694131.051072 kJ/mol
# GULP energy per Si atom -12395.197341 kJ/mol
# Density = 1.946561 g / cm^3
# Si number density = 19.510014 Si / 1000 Ang^3
#
#
#
# Elastic Constant Matrix: (Units=GPa)
#
#
# Indices 1 2 3 4 5 6 
#
# 1 86.0640 55.7927 46.6442 0.0000 0.0000 0.0000
# 2 55.7927 102.2363 46.4877 0.0000 0.0000 0.0000
# 3 46.6442 46.4877 85.5673 0.0000 0.0000 0.0000
# 4 0.0000 0.0000 0.0000 32.2222 0.0000 0.0000
# 5 0.0000 0.0000 0.0000 0.0000 23.2695 0.0000
# 6 0.0000 0.0000 0.0000 0.0000 0.0000 16.5310
#
#
#
# Elastic Compliance Matrix: (Units=1/GPa)
#
#
# Indices 1 2 3 4 5 6 
#
# 1 0.020580 -0.008141 -0.006796 0.000000 0.000000 0.000000
# 2 -0.008141 0.016211 -0.004369 0.000000 0.000000 0.000000
# 3 -0.006796 -0.004369 0.017765 0.000000 0.000000 0.000000
# 4 0.000000 0.000000 0.000000 0.031034 0.000000 0.000000
# 5 0.000000 0.000000 0.000000 0.000000 0.042975 0.000000
# 6 0.000000 0.000000 0.000000 0.000000 0.000000 0.060492
#
#
# Mechanical properties :
#
#
# Convention : Reuss Voigt Hill
#
# Bulk Modulus (GPa) = 62.72022 63.52409 63.12215
# Shear Modulus (GPa) = 21.46080 22.73409 22.09744
#
# Velocity S-wave (km/s) = 3.32021 3.41728 3.36909
# Velocity P-wave (km/s) = 6.84952 6.94268 6.89626
#
# Compressibility (1/GPa) = 0.01594382
#
# Stress axis : x y z
#
# Youngs Moduli (GPa) = 48.59150 61.68760 56.29078
#
# Poissons Ratio (x) = 0.50219 0.38253
# Poissons Ratio (y) = 0.39558 0.24596
# Poissons Ratio (z) = 0.33021 0.26954
#
# Static dielectric constant tensor:
#      x y z
#    x 3.598180 0.000000 0.000000 
#    y 0.000000 3.808390 0.000000 
#    z 0.000000 0.000000 3.941800 
# 
# 
# High freq. dielectric constant tensor:
#      x y z
#    x 1.735550 0.000000 0.000000 
#    y 0.000000 1.760470 0.000000 
#    z 0.000000 0.000000 1.771630 
# 
# From -- ./inp_files/16973.got.cif
#   From: 2010.03.12/outbox.cif.g09.slc.cpg/sg59_9_cif.got.tgz:16973.got - 2010.04.16 16:29:54.
