data_PCOD8243550
_publ_section_title
;
Structure prediction by ZEFSAII (Michael W. Deem and Ramdas Pophale) SiO2 
 PCOD8243550
Probable space group: P M M N
;
_chemical_formula_sum "Si O2"
_cell_formula_units_Z 48
_cell_length_a 9.247098
_cell_length_b 9.337725
_cell_length_c 30.630497
_cell_angle_alpha 90.000000
_cell_angle_beta 90.000000
_cell_angle_gamma 90.000000
_cell_volume 2644.847180
_symmetry_space_group_name_H-M "P M M N"
_symmetry_group_IT_number 59
_space_group.IT_coordinate_system_code '2'
_symmetry_cell_setting 'orthorhombic'
loop_
_space_group_symop_operation_xyz
x,y,z
1/2-x,1/2-y,z
1/2+x,-y,-z
-x,1/2+y,-z
-x,-y,-z
1/2+x,1/2+y,-z
1/2-x,y,z
x,1/2-y,z
loop_
_atom_site_type_symbol
_atom_site_label
_atom_site_fract_x
_atom_site_fract_y
_atom_site_fract_z
Si Si1 0.417276 0.089396 0.964565
Si Si2 0.580073 0.917762 0.792539
Si Si3 0.583290 0.582629 0.134280
Si Si4 0.580156 0.412387 0.536537
Si Si5 0.910114 0.080114 0.632707
Si Si6 0.418402 0.418119 0.716414
O O1 0.250000 0.082666 0.976345
O O2 0.476130 0.250000 0.967628
O O3 0.443338 0.032877 0.915491
O O4 0.500000 0.000000 0.000000
O O5 0.750000 0.946883 0.789316
O O6 0.544002 0.750000 0.792154
O O7 0.521382 0.985883 0.837002
O O8 0.502644 0.992686 0.752254
O O9 0.750000 0.556421 0.147751
O O10 0.545908 0.750000 0.140533
O O11 0.500000 0.500000 0.500000
O O12 0.750000 0.422743 0.528471
O O13 0.525604 0.250000 0.532947
O O14 0.542064 0.475663 0.584761
O O15 0.750000 0.020800 0.644838
O O16 0.901771 0.250000 0.629959
O O17 0.024566 0.030814 0.669104
O O18 0.250000 0.454173 0.719355
O O19 0.448026 0.250000 0.724120
#
# Coordination Sequence:
#
# PCOD8243550 Si02
#       6
#     8   8   8   8   8   8
#     4   9  19  35  54  78 108 139 172 212 255 300
#     4  11  24  38  52  75 106 137 169 207 253 304
#     4   9  19  37  58  78 102 135 175 215 254 299
#     4   9  18  32  50  74 103 134 170 210 251 299
#     4   8  15  30  51  73  99 132 169 209 251 296
#     4  10  20  34  55  81 103 127 165 210 254 303
#
# _framework density 18.148496000000002
#
# number of rings (size 3 to 8) (size 9 to 14) (size 15 to 20)
#    0.000    2.667    0.000    3.500    0.000    7.333 
#    0.000    7.500    0.000    1.000    0.000    0.000 
#    0.000    0.000    0.000    0.000    0.000    0.000 
#
# Total GULP energy -595089.241868 kJ/mol
# GULP energy per Si atom -12397.692539 kJ/mol
# Density = 1.810719 g / cm^3
# Si number density = 18.148496 Si / 1000 Ang^3
#
#
#
# Elastic Constant Matrix: (Units=GPa)
#
#
# Indices 1 2 3 4 5 6 
#
# 1 101.0018 58.9474 80.8671 0.0000 0.0000 0.0000
# 2 58.9474 73.6212 65.4035 0.0000 0.0000 0.0000
# 3 80.8671 65.4035 150.4264 0.0000 0.0000 0.0000
# 4 0.0000 0.0000 0.0000 31.8097 0.0000 0.0000
# 5 0.0000 0.0000 0.0000 0.0000 42.0153 0.0000
# 6 0.0000 0.0000 0.0000 0.0000 0.0000 30.5262
#
#
#
# Elastic Compliance Matrix: (Units=1/GPa)
#
#
# Indices 1 2 3 4 5 6 
#
# 1 0.022219 -0.011697 -0.006859 0.000000 0.000000 0.000000
# 2 -0.011697 0.028290 -0.006012 0.000000 0.000000 0.000000
# 3 -0.006859 -0.006012 0.012949 0.000000 0.000000 0.000000
# 4 0.000000 0.000000 0.000000 0.031437 0.000000 0.000000
# 5 0.000000 0.000000 0.000000 0.000000 0.023801 0.000000
# 6 0.000000 0.000000 0.000000 0.000000 0.000000 0.032759
#
#
# Mechanical properties :
#
#
# Convention : Reuss Voigt Hill
#
# Bulk Modulus (GPa) = 69.82322 81.72059 75.77191
# Shear Modulus (GPa) = 24.34704 28.85901 26.60302
#
# Velocity S-wave (km/s) = 3.66669 3.99201 3.83280
# Velocity P-wave (km/s) = 7.51551 8.14707 7.83766
#
# Compressibility (1/GPa) = 0.01432188
#
# Stress axis : x y z
#
# Youngs Moduli (GPa) = 45.00598 35.34880 77.22727
#
# Poissons Ratio (x) = 0.41349 0.52969
# Poissons Ratio (y) = 0.52645 0.46426
# Poissons Ratio (z) = 0.30869 0.21250
#
# Static dielectric constant tensor:
#      x y z
#    x 3.011790 0.000000 0.000000 
#    y 0.000000 3.194940 0.000000 
#    z 0.000000 0.000000 3.595100 
# 
# 
# High freq. dielectric constant tensor:
#      x y z
#    x 1.702990 0.000000 0.000000 
#    y 0.000000 1.679030 0.000000 
#    z 0.000000 0.000000 1.720130 
# 
# From -- ./inp_files/32826.got.cif
#   From: 2010.03.12/outbox.cif.g09.slc.cpg/sg59_17_cif.got.tgz:32826.got - 2010.04.16 16:29:54.
