data_PCOD8243034
_publ_section_title
;
Structure prediction by ZEFSAII (Michael W. Deem and Ramdas Pophale) SiO2 
 PCOD8243034
Probable space group: P M M N
;
_chemical_formula_sum "Si O2"
_cell_formula_units_Z 32
_cell_length_a 18.702199
_cell_length_b 12.927274
_cell_length_c 7.699059
_cell_angle_alpha 90.000000
_cell_angle_beta 90.000000
_cell_angle_gamma 90.000000
_cell_volume 1861.389568
_symmetry_space_group_name_H-M "P M M N"
_symmetry_group_IT_number 59
_space_group.IT_coordinate_system_code '2'
_symmetry_cell_setting 'orthorhombic'
loop_
_space_group_symop_operation_xyz
x,y,z
1/2-x,1/2-y,z
1/2+x,-y,-z
-x,1/2+y,-z
-x,-y,-z
1/2+x,1/2+y,-z
1/2-x,y,z
x,1/2-y,z
loop_
_atom_site_type_symbol
_atom_site_label
_atom_site_fract_x
_atom_site_fract_y
_atom_site_fract_z
Si Si1 0.917663 0.944946 0.341399
Si Si2 0.063350 0.632428 0.443809
Si Si3 0.167501 0.130101 0.974125
Si Si4 0.166586 0.028155 0.335761
O O1 0.880395 0.937314 0.155492
O O2 0.862376 0.910078 0.494202
O O3 0.987477 0.872380 0.344930
O O4 0.941145 0.064928 0.377079
O O5 0.083396 0.750000 0.488091
O O6 0.125220 0.582202 0.321799
O O7 0.250000 0.107231 0.932602
O O8 0.149077 0.250000 0.949831
O O9 0.148881 0.097546 0.169400
O O10 0.250000 0.005633 0.356032
#
# Coordination Sequence:
#
# PCOD8243034 Si02
#       4
#     8   8   8   8
#     4   9  19  36  54  76 107 136 173 219 257 303
#     4   9  19  36  55  77 105 140 177 211 259 313
#     4  10  20  33  53  80 106 136 174 216 264 312
#     4   9  19  35  53  77 107 135 173 216 259 312
#
# _framework density 17.191457
#
# number of rings (size 3 to 8) (size 9 to 14) (size 15 to 20)
#    1.500    1.250    0.000    1.500    0.000    3.500 
#    0.000    3.750    0.000    1.500    0.000    0.000 
#    0.000    0.000    0.000    0.000    0.000    0.000 
#
# Total GULP energy -396543.010428 kJ/mol
# GULP energy per Si atom -12391.969076 kJ/mol
# Density = 1.715233 g / cm^3
# Si number density = 17.191457 Si / 1000 Ang^3
#
#
#
# Elastic Constant Matrix: (Units=GPa)
#
#
# Indices 1 2 3 4 5 6 
#
# 1 107.8156 25.8763 46.2685 0.0000 0.0000 0.0000
# 2 25.8763 63.6976 4.8167 0.0000 0.0000 0.0000
# 3 46.2685 4.8167 71.6625 0.0000 0.0000 0.0000
# 4 0.0000 0.0000 0.0000 21.3345 0.0000 0.0000
# 5 0.0000 0.0000 0.0000 0.0000 23.6197 0.0000
# 6 0.0000 0.0000 0.0000 0.0000 0.0000 17.6658
#
#
#
# Elastic Compliance Matrix: (Units=1/GPa)
#
#
# Indices 1 2 3 4 5 6 
#
# 1 0.014334 -0.005149 -0.008909 0.000000 0.000000 0.000000
# 2 -0.005149 0.017629 0.002140 0.000000 0.000000 0.000000
# 3 -0.008909 0.002140 0.019562 0.000000 0.000000 0.000000
# 4 0.000000 0.000000 0.000000 0.046872 0.000000 0.000000
# 5 0.000000 0.000000 0.000000 0.000000 0.042337 0.000000
# 6 0.000000 0.000000 0.000000 0.000000 0.000000 0.056607
#
#
# Mechanical properties :
#
#
# Convention : Reuss Voigt Hill
#
# Bulk Modulus (GPa) = 36.11533 44.12208 40.11871
# Shear Modulus (GPa) = 21.70064 23.60496 22.65280
#
# Velocity S-wave (km/s) = 3.55673 3.70951 3.63392
# Velocity P-wave (km/s) = 6.15796 6.63838 6.40268
#
# Compressibility (1/GPa) = 0.02768907
#
# Stress axis : x y z
#
# Youngs Moduli (GPa) = 69.76401 56.72400 51.11889
#
# Poissons Ratio (x) = 0.29209 0.45540
# Poissons Ratio (y) = 0.35924 -0.10938
# Poissons Ratio (z) = 0.62150 -0.12137
#
# Static dielectric constant tensor:
#      x y z
#    x 3.262050 0.000000 0.000000 
#    y 0.000000 2.943750 0.000000 
#    z 0.000000 0.000000 2.957320 
# 
# 
# High freq. dielectric constant tensor:
#      x y z
#    x 1.675750 0.000000 0.000000 
#    y 0.000000 1.643620 0.000000 
#    z 0.000000 0.000000 1.645010 
# 
# From -- ./inp_files/3712.got.cif
#   From: 2010.03.12/outbox.cif.g09.slc.cpg/sg59_2_cif.got.tgz:3712.got - 2010.04.16 16:29:54.
