data_PCOD8243907
_publ_section_title
;
Structure prediction by ZEFSAII (Michael W. Deem and Ramdas Pophale) SiO2 
 PCOD8243907
Probable space group: P M M N
;
_chemical_formula_sum "Si O2"
_cell_formula_units_Z 56
_cell_length_a 8.631929
_cell_length_b 14.421216
_cell_length_c 23.990569
_cell_angle_alpha 90.000000
_cell_angle_beta 90.000000
_cell_angle_gamma 90.000000
_cell_volume 2986.415904
_symmetry_space_group_name_H-M "P M M N"
_symmetry_group_IT_number 59
_space_group.IT_coordinate_system_code '2'
_symmetry_cell_setting 'orthorhombic'
loop_
_space_group_symop_operation_xyz
x,y,z
1/2-x,1/2-y,z
1/2+x,-y,-z
-x,1/2+y,-z
-x,-y,-z
1/2+x,1/2+y,-z
1/2-x,y,z
x,1/2-y,z
loop_
_atom_site_type_symbol
_atom_site_label
_atom_site_fract_x
_atom_site_fract_y
_atom_site_fract_z
Si Si1 0.432362 0.648109 0.590723
Si Si2 0.065896 0.142824 0.744527
Si Si3 0.434224 0.459111 0.634893
Si Si4 0.932592 0.426603 0.856839
Si Si5 0.427219 0.357474 0.526177
Si Si6 0.567217 0.446084 0.053299
Si Si7 0.077882 0.250000 0.038377
Si Si8 0.077694 0.250000 0.908381
O O1 0.250000 0.656732 0.592902
O O2 0.505743 0.750000 0.605318
O O3 0.486401 0.567959 0.634128
O O4 0.477450 0.616039 0.528742
O O5 0.250000 0.138109 0.746739
O O6 0.009569 0.250000 0.747573
O O7 0.999400 0.094302 0.688698
O O8 0.996930 0.082764 0.794626
O O9 0.250000 0.449943 0.635248
O O10 0.498965 0.411661 0.578827
O O11 0.750000 0.439659 0.855355
O O12 0.008783 0.513212 0.888115
O O13 0.977090 0.337185 0.891906
O O14 0.250000 0.385850 0.515393
O O15 0.442678 0.250000 0.540678
O O16 0.750000 0.455509 0.049273
O O17 0.518314 0.339555 0.055933
O O18 0.500000 0.500000 0.000000
O O19 0.250000 0.250000 0.065991
O O20 0.102330 0.250000 0.973132
O O21 0.250000 0.250000 0.879437
#
# Coordination Sequence:
#
# PCOD8243907 Si02
#       8
#     8   8   8   8   8   8   4   4
#     4   9  17  29  46  69  98 131 168 208 259 316
#     4  10  20  35  56  77 101 135 179 226 274 326
#     4   9  17  30  49  72  97 131 172 216 262 316
#     4  12  24  38  58  84 116 150 187 231 281 335
#     4   9  16  27  45  70  99 128 165 208 256 314
#     4  12  24  39  61  89 120 155 194 233 279 334
#     4  11  23  39  61  91 124 154 188 233 284 333
#     4  11  21  35  59  87 118 154 190 227 272 331
#
# _framework density 18.751574999999999
#
# number of rings (size 3 to 8) (size 9 to 14) (size 15 to 20)
#    0.000    1.714    2.143    3.857    0.000    2.286 
#    0.000    1.429    1.571    1.714    0.000    0.000 
#    0.000    0.000    0.000    0.000    0.000    0.000 
#
# Total GULP energy -694250.724186 kJ/mol
# GULP energy per Si atom -12397.334360 kJ/mol
# Density = 1.870890 g / cm^3
# Si number density = 18.751575 Si / 1000 Ang^3
#
#
#
# Elastic Constant Matrix: (Units=GPa)
#
#
# Indices 1 2 3 4 5 6 
#
# 1 64.3852 36.6838 28.6693 0.0000 0.0000 0.0000
# 2 36.6838 131.1649 72.0595 0.0000 0.0000 0.0000
# 3 28.6693 72.0595 104.5478 0.0000 0.0000 0.0000
# 4 0.0000 0.0000 0.0000 32.3883 0.0000 0.0000
# 5 0.0000 0.0000 0.0000 0.0000 24.7593 0.0000
# 6 0.0000 0.0000 0.0000 0.0000 0.0000 24.3005
#
#
#
# Elastic Compliance Matrix: (Units=1/GPa)
#
#
# Indices 1 2 3 4 5 6 
#
# 1 0.018865 -0.003917 -0.002473 0.000000 0.000000 0.000000
# 2 -0.003917 0.013084 -0.007944 0.000000 0.000000 0.000000
# 3 -0.002473 -0.007944 0.015718 0.000000 0.000000 0.000000
# 4 0.000000 0.000000 0.000000 0.030875 0.000000 0.000000
# 5 0.000000 0.000000 0.000000 0.000000 0.040389 0.000000
# 6 0.000000 0.000000 0.000000 0.000000 0.000000 0.041151
#
#
# Mechanical properties :
#
#
# Convention : Reuss Voigt Hill
#
# Bulk Modulus (GPa) = 52.63583 63.88034 58.25808
# Shear Modulus (GPa) = 25.63006 27.13531 26.38268
#
# Velocity S-wave (km/s) = 3.70107 3.80820 3.75501
# Velocity P-wave (km/s) = 6.81138 7.31280 7.06654
#
# Compressibility (1/GPa) = 0.01899847
#
# Stress axis : x y z
#
# Youngs Moduli (GPa) = 53.00923 76.43086 63.61979
#
# Poissons Ratio (x) = 0.29941 0.15734
# Poissons Ratio (y) = 0.20766 0.50538
# Poissons Ratio (z) = 0.13109 0.60715
#
# Static dielectric constant tensor:
#      x y z
#    x -14.670620 0.000000 0.000000 
#    y 0.000000 3.298190 0.000000 
#    z 0.000000 0.000000 3.520750 
# 
# 
# High freq. dielectric constant tensor:
#      x y z
#    x 1.714240 0.000000 0.000000 
#    y 0.000000 1.738170 0.000000 
#    z 0.000000 0.000000 1.713400 
# 
# From -- ./inp_files/29187.got.cif
#   From: 2010.03.12/outbox.cif.g09.slc.cpg/sg59_15_cif.got.tgz:29187.got - 2010.04.16 16:29:54.
