data_PCOD8243794
_publ_section_title
;
Structure prediction by ZEFSAII (Michael W. Deem and Ramdas Pophale) SiO2 
 PCOD8243794
Probable space group: P M M N
;
_chemical_formula_sum "Si O2"
_cell_formula_units_Z 64
_cell_length_a 18.636296
_cell_length_b 8.965410
_cell_length_c 19.817239
_cell_angle_alpha 90.000000
_cell_angle_beta 90.000000
_cell_angle_gamma 90.000000
_cell_volume 3311.104611
_symmetry_space_group_name_H-M "P M M N"
_symmetry_group_IT_number 59
_space_group.IT_coordinate_system_code '2'
_symmetry_cell_setting 'orthorhombic'
loop_
_space_group_symop_operation_xyz
x,y,z
1/2-x,1/2-y,z
1/2+x,-y,-z
-x,1/2+y,-z
-x,-y,-z
1/2+x,1/2+y,-z
1/2-x,y,z
x,1/2-y,z
loop_
_atom_site_type_symbol
_atom_site_label
_atom_site_fract_x
_atom_site_fract_y
_atom_site_fract_z
Si Si1 0.596180 0.418332 0.045608
Si Si2 0.575924 0.073458 0.415264
Si Si3 0.069831 0.419068 0.083737
Si Si4 0.166245 0.426177 0.465552
Si Si5 0.170230 0.081314 0.686390
Si Si6 0.933325 0.072093 0.633050
Si Si7 0.959013 0.423470 0.785787
Si Si8 0.118295 0.080953 0.826870
O O1 0.619592 0.250000 0.034236
O O2 0.513421 0.435941 0.065626
O O3 0.641154 0.483719 0.108458
O O4 0.614517 0.502798 0.976122
O O5 0.569750 0.250000 0.427318
O O6 0.620933 0.996633 0.474041
O O7 0.617830 0.039719 0.345949
O O8 0.497297 0.001556 0.410509
O O9 0.095213 0.250000 0.087686
O O10 0.086694 0.493097 0.156250
O O11 0.250000 0.461427 0.476147
O O12 0.152090 0.250000 0.462136
O O13 0.140521 0.505636 0.396529
O O14 0.250000 0.063118 0.656400
O O15 0.141217 0.250000 0.671690
O O16 0.174974 0.056099 0.766929
O O17 0.937170 0.250000 0.624932
O O18 0.936096 0.023276 0.711305
O O19 0.943984 0.250000 0.795059
O O20 0.042024 0.464590 0.794931
O O21 0.115945 0.250000 0.852879
#
# Coordination Sequence:
#
# PCOD8243794 Si02
#       8
#     8   8   8   8   8   8   8   8
#     4   9  16  25  39  62  93 132 173 214 262 314
#     4  12  24  38  59  85 114 146 185 230 276 329
#     4   9  16  25  40  65  97 132 170 213 260 313
#     4  11  25  44  63  84 113 147 183 226 277 331
#     4  10  20  35  54  76 106 146 189 232 281 336
#     4  11  22  39  62  87 115 147 185 227 277 333
#     4   9  17  30  49  73 104 138 171 215 266 320
#     4   9  16  29  46  67  98 136 177 220 269 322
#
# _framework density 19.328897999999999
#
# number of rings (size 3 to 8) (size 9 to 14) (size 15 to 20)
#    0.000    2.000    1.250    3.375    0.000    7.250 
#    0.000    0.000    0.000    0.000    0.000    0.875 
#    0.000    5.000    0.000    0.000    0.000    0.000 
#
# Total GULP energy -793531.309417 kJ/mol
# GULP energy per Si atom -12398.926710 kJ/mol
# Density = 1.928491 g / cm^3
# Si number density = 19.328898 Si / 1000 Ang^3
#
#
#
# Elastic Constant Matrix: (Units=GPa)
#
#
# Indices 1 2 3 4 5 6 
#
# 1 45.1256 30.2970 33.3546 0.0000 0.0000 0.0000
# 2 30.2970 109.7323 64.1921 0.0000 0.0000 0.0000
# 3 33.3546 64.1921 136.9127 0.0000 0.0000 0.0000
# 4 0.0000 0.0000 0.0000 39.4042 0.0000 0.0000
# 5 0.0000 0.0000 0.0000 0.0000 11.1784 0.0000
# 6 0.0000 0.0000 0.0000 0.0000 0.0000 19.0826
#
#
#
# Elastic Compliance Matrix: (Units=1/GPa)
#
#
# Indices 1 2 3 4 5 6 
#
# 1 0.029153 -0.005366 -0.004586 0.000000 0.000000 0.000000
# 2 -0.005366 0.013545 -0.005043 0.000000 0.000000 0.000000
# 3 -0.004586 -0.005043 0.010786 0.000000 0.000000 0.000000
# 4 0.000000 0.000000 0.000000 0.025378 0.000000 0.000000
# 5 0.000000 0.000000 0.000000 0.000000 0.089459 0.000000
# 6 0.000000 0.000000 0.000000 0.000000 0.000000 0.052404
#
#
# Mechanical properties :
#
#
# Convention : Reuss Voigt Hill
#
# Bulk Modulus (GPa) = 42.56716 60.82867 51.69792
# Shear Modulus (GPa) = 19.33886 24.86149 22.10017
#
# Velocity S-wave (km/s) = 3.16652 3.59030 3.38505
# Velocity P-wave (km/s) = 5.95311 6.98038 6.48711
#
# Compressibility (1/GPa) = 0.02349229
#
# Stress axis : x y z
#
# Youngs Moduli (GPa) = 34.30157 73.82820 92.71449
#
# Poissons Ratio (x) = 0.39618 0.42522
# Poissons Ratio (y) = 0.18407 0.46759
# Poissons Ratio (z) = 0.15732 0.37234
#
# Static dielectric constant tensor:
#      x y z
#    x 3.170320 0.000000 0.000000 
#    y 0.000000 3.544500 0.000000 
#    z 0.000000 0.000000 3.783590 
# 
# 
# High freq. dielectric constant tensor:
#      x y z
#    x 1.702480 0.000000 0.000000 
#    y 0.000000 1.753940 0.000000 
#    z 0.000000 0.000000 1.767350 
# 
# From -- ./inp_files/30661.got.cif
#   From: 2010.03.12/outbox.cif.g09.slc.cpg/sg59_16_cif.got.tgz:30661.got - 2010.04.16 16:29:54.
