data_PCOD8243055
_publ_section_title
;
Structure prediction by ZEFSAII (Michael W. Deem and Ramdas Pophale) SiO2 
 PCOD8243055
Probable space group: P M M N
;
_chemical_formula_sum "Si O2"
_cell_formula_units_Z 48
_cell_length_a 23.182214
_cell_length_b 8.815616
_cell_length_c 12.759131
_cell_angle_alpha 90.000000
_cell_angle_beta 90.000000
_cell_angle_gamma 90.000000
_cell_volume 2607.526144
_symmetry_space_group_name_H-M "P M M N"
_symmetry_group_IT_number 59
_space_group.IT_coordinate_system_code '2'
_symmetry_cell_setting 'orthorhombic'
loop_
_space_group_symop_operation_xyz
x,y,z
1/2-x,1/2-y,z
1/2+x,-y,-z
-x,1/2+y,-z
-x,-y,-z
1/2+x,1/2+y,-z
1/2-x,y,z
x,1/2-y,z
loop_
_atom_site_type_symbol
_atom_site_label
_atom_site_fract_x
_atom_site_fract_y
_atom_site_fract_z
Si Si1 0.497079 0.428885 0.114721
Si Si2 0.109842 0.071678 0.807836
Si Si3 0.684509 0.071886 0.601224
Si Si4 0.118333 0.927793 0.191680
Si Si5 0.183550 0.423887 0.010391
Si Si6 0.815180 0.570420 0.386731
O O1 0.498378 0.250000 0.101235
O O2 0.549798 0.483361 0.186321
O O3 0.439146 0.477247 0.173135
O O4 0.500000 0.500000 0.000000
O O5 0.097342 0.250000 0.800993
O O6 0.143782 0.011467 0.706040
O O7 0.147495 0.030595 0.908735
O O8 0.750000 0.018755 0.625207
O O9 0.682104 0.250000 0.583493
O O10 0.643913 0.022008 0.696674
O O11 0.660730 0.992189 0.496566
O O12 0.104395 0.750000 0.187453
O O13 0.165843 0.966289 0.104399
O O14 0.250000 0.449713 0.982680
O O15 0.171265 0.250000 0.042678
O O16 0.750000 0.510487 0.367199
O O17 0.815608 0.750000 0.389836
#
# Coordination Sequence:
#
# PCOD8243055 Si02
#       6
#     8   8   8   8   8   8
#     4  12  24  39  58  81 110 148 190 232 280 336
#     4  10  20  36  57  82 114 148 185 229 278 332
#     4   9  19  36  57  82 114 149 184 228 280 330
#     4  11  22  37  57  81 111 148 190 234 281 332
#     4  10  20  33  53  82 114 146 180 224 280 338
#     4   9  18  34  58  86 115 148 185 226 275 332
#
# _framework density 18.408252999999998
#
# number of rings (size 3 to 8) (size 9 to 14) (size 15 to 20)
#    0.000    1.833    1.667    3.000    0.000    5.000 
#    0.000    2.500    0.000    3.000    0.000    0.000 
#    0.000    0.000    0.000    0.000    0.000    0.000 
#
# Total GULP energy -595388.430369 kJ/mol
# GULP energy per Si atom -12403.925633 kJ/mol
# Density = 1.836635 g / cm^3
# Si number density = 18.408253 Si / 1000 Ang^3
#
#
#
# Elastic Constant Matrix: (Units=GPa)
#
#
# Indices 1 2 3 4 5 6 
#
# 1 95.9531 27.6639 51.2746 0.0000 0.0000 0.0000
# 2 27.6639 57.1370 39.1453 0.0000 0.0000 0.0000
# 3 51.2746 39.1453 134.2920 0.0000 0.0000 0.0000
# 4 0.0000 0.0000 0.0000 30.2012 0.0000 0.0000
# 5 0.0000 0.0000 0.0000 0.0000 28.8951 0.0000
# 6 0.0000 0.0000 0.0000 0.0000 0.0000 29.6139
#
#
#
# Elastic Compliance Matrix: (Units=1/GPa)
#
#
# Indices 1 2 3 4 5 6 
#
# 1 0.013729 -0.003818 -0.004129 0.000000 0.000000 0.000000
# 2 -0.003818 0.022931 -0.005226 0.000000 0.000000 0.000000
# 3 -0.004129 -0.005226 0.010546 0.000000 0.000000 0.000000
# 4 0.000000 0.000000 0.000000 0.033111 0.000000 0.000000
# 5 0.000000 0.000000 0.000000 0.000000 0.034608 0.000000
# 6 0.000000 0.000000 0.000000 0.000000 0.000000 0.033768
#
#
# Mechanical properties :
#
#
# Convention : Reuss Voigt Hill
#
# Bulk Modulus (GPa) = 47.94036 58.17221 53.05628
# Shear Modulus (GPa) = 27.47341 29.02859 28.25100
#
# Velocity S-wave (km/s) = 3.86742 3.97537 3.92176
# Velocity P-wave (km/s) = 6.78542 7.26231 7.02791
#
# Compressibility (1/GPa) = 0.02085925
#
# Stress axis : x y z
#
# Youngs Moduli (GPa) = 72.83860 43.60867 94.81920
#
# Poissons Ratio (x) = 0.16651 0.39150
# Poissons Ratio (y) = 0.27813 0.49556
# Poissons Ratio (z) = 0.30074 0.22792
#
# Static dielectric constant tensor:
#      x y z
#    x 3.565780 0.000000 0.000000 
#    y 0.000000 3.306510 0.000000 
#    z 0.000000 0.000000 3.481620 
# 
# 
# High freq. dielectric constant tensor:
#      x y z
#    x 1.716490 0.000000 0.000000 
#    y 0.000000 1.709290 0.000000 
#    z 0.000000 0.000000 1.715570 
# 
# From -- ./inp_files/14329.got.cif
#   From: 2010.03.12/outbox.cif.g09.slc.cpg/sg59_8_cif.got.tgz:14329.got - 2010.04.16 16:29:54.
