data_PCOD8243166
_publ_section_title
;
Structure prediction by ZEFSAII (Michael W. Deem and Ramdas Pophale) SiO2 
 PCOD8243166
Probable space group: P M M N
;
_chemical_formula_sum "Si O2"
_cell_formula_units_Z 56
_cell_length_a 9.107150
_cell_length_b 23.653846
_cell_length_c 13.829092
_cell_angle_alpha 90.000000
_cell_angle_beta 90.000000
_cell_angle_gamma 90.000000
_cell_volume 2979.050879
_symmetry_space_group_name_H-M "P M M N"
_symmetry_group_IT_number 59
_space_group.IT_coordinate_system_code '2'
_symmetry_cell_setting 'orthorhombic'
loop_
_space_group_symop_operation_xyz
x,y,z
1/2-x,1/2-y,z
1/2+x,-y,-z
-x,1/2+y,-z
-x,-y,-z
1/2+x,1/2+y,-z
1/2-x,y,z
x,1/2-y,z
loop_
_atom_site_type_symbol
_atom_site_label
_atom_site_fract_x
_atom_site_fract_y
_atom_site_fract_z
Si Si1 0.078520 0.407652 0.842967
Si Si2 0.921487 0.184481 0.721359
Si Si3 0.577125 0.093428 0.039186
Si Si4 0.920048 0.684720 0.851978
Si Si5 0.078814 0.184942 0.524060
Si Si6 0.078959 0.117455 0.338221
Si Si7 0.418442 0.527157 0.770695
O O1 0.250000 0.395216 0.858270
O O2 0.054702 0.459819 0.768716
O O3 0.000344 0.351770 0.803683
O O4 0.007319 0.426478 0.943866
O O5 0.750000 0.170534 0.721339
O O6 0.952403 0.250000 0.744652
O O7 0.986947 0.167755 0.617806
O O8 0.750000 0.094037 0.019072
O O9 0.521588 0.156022 0.067076
O O10 0.530909 0.051022 0.125097
O O11 0.750000 0.673315 0.876816
O O12 0.959222 0.750000 0.852188
O O13 0.960440 0.661032 0.746607
O O14 0.250000 0.174910 0.546425
O O15 0.050763 0.250000 0.494535
O O16 0.021554 0.144922 0.437729
O O17 0.250000 0.106344 0.345885
O O18 0.005512 0.056685 0.317064
O O19 0.250000 0.542653 0.754466
#
# Coordination Sequence:
#
# PCOD8243166 Si02
#       7
#     8   8   8   8   8   8   8
#     4  11  22  37  57  77  99 133 175 214 256 305
#     4  10  22  39  57  79 105 132 168 214 260 306
#     4  10  20  34  52  75 104 136 171 213 259 304
#     4   9  17  30  48  73 106 140 173 209 250 300
#     4   9  17  32  55  81 108 138 172 210 253 302
#     4   9  17  30  52  80 107 137 172 209 251 301
#     4   9  20  36  53  77 107 136 169 211 255 303
#
# _framework density 18.797934999999999
#
# number of rings (size 3 to 8) (size 9 to 14) (size 15 to 20)
#    0.000    2.429    0.000    2.143    0.000    5.714 
#    0.000    0.714    0.000    2.571    0.000    0.000 
#    0.000    0.000    0.000    0.000    0.000    0.000 
#
# Total GULP energy -694501.675374 kJ/mol
# GULP energy per Si atom -12401.815632 kJ/mol
# Density = 1.875515 g / cm^3
# Si number density = 18.797935 Si / 1000 Ang^3
#
#
#
# Elastic Constant Matrix: (Units=GPa)
#
#
# Indices 1 2 3 4 5 6 
#
# 1 74.1919 34.9246 34.2898 0.0000 0.0000 0.0000
# 2 34.9246 76.5060 25.3702 0.0000 0.0000 0.0000
# 3 34.2898 25.3702 65.3355 0.0000 0.0000 0.0000
# 4 0.0000 0.0000 0.0000 27.1113 0.0000 0.0000
# 5 0.0000 0.0000 0.0000 0.0000 32.7354 0.0000
# 6 0.0000 0.0000 0.0000 0.0000 0.0000 31.0104
#
#
#
# Elastic Compliance Matrix: (Units=1/GPa)
#
#
# Indices 1 2 3 4 5 6 
#
# 1 0.020329 -0.006591 -0.008110 0.000000 0.000000 0.000000
# 2 -0.006591 0.017140 -0.003196 0.000000 0.000000 0.000000
# 3 -0.008110 -0.003196 0.020803 0.000000 0.000000 0.000000
# 4 0.000000 0.000000 0.000000 0.036885 0.000000 0.000000
# 5 0.000000 0.000000 0.000000 0.000000 0.030548 0.000000
# 6 0.000000 0.000000 0.000000 0.000000 0.000000 0.032247
#
#
# Mechanical properties :
#
#
# Convention : Reuss Voigt Hill
#
# Bulk Modulus (GPa) = 44.48903 45.02251 44.75577
# Shear Modulus (GPa) = 24.84602 26.26801 25.55702
#
# Velocity S-wave (km/s) = 3.63952 3.74222 3.69123
# Velocity P-wave (km/s) = 6.43272 6.53261 6.48286
#
# Compressibility (1/GPa) = 0.02247745
#
# Stress axis : x y z
#
# Youngs Moduli (GPa) = 49.18973 58.34474 48.06958
#
# Poissons Ratio (x) = 0.38454 0.38985
# Poissons Ratio (y) = 0.32420 0.15364
# Poissons Ratio (z) = 0.39894 0.18649
#
# Static dielectric constant tensor:
#      x y z
#    x 3.415170 0.000000 0.000000 
#    y 0.000000 3.438900 0.000000 
#    z 0.000000 0.000000 3.385960 
# 
# 
# High freq. dielectric constant tensor:
#      x y z
#    x 1.729720 0.000000 0.000000 
#    y 0.000000 1.728690 0.000000 
#    z 0.000000 0.000000 1.719160 
# 
# From -- ./inp_files/20919.got.cif
#   From: 2010.03.12/outbox.cif.g09.slc.cpg/sg59_11_cif.got.tgz:20919.got - 2010.04.16 16:29:54.
