data_PCOD8243684
_publ_section_title
;
Structure prediction by ZEFSAII (Michael W. Deem and Ramdas Pophale) SiO2 
 PCOD8243684
Probable space group: P M M N
;
_chemical_formula_sum "Si O2"
_cell_formula_units_Z 56
_cell_length_a 15.646567
_cell_length_b 9.098546
_cell_length_c 20.540332
_cell_angle_alpha 90.000000
_cell_angle_beta 90.000000
_cell_angle_gamma 90.000000
_cell_volume 2924.142401
_symmetry_space_group_name_H-M "P M M N"
_symmetry_group_IT_number 59
_space_group.IT_coordinate_system_code '2'
_symmetry_cell_setting 'orthorhombic'
loop_
_space_group_symop_operation_xyz
x,y,z
1/2-x,1/2-y,z
1/2+x,-y,-z
-x,1/2+y,-z
-x,-y,-z
1/2+x,1/2+y,-z
1/2-x,y,z
x,1/2-y,z
loop_
_atom_site_type_symbol
_atom_site_label
_atom_site_fract_x
_atom_site_fract_y
_atom_site_fract_z
Si Si1 0.250000 0.924894 0.404921
Si Si2 0.090140 0.422341 0.194371
Si Si3 0.989871 0.079483 0.067720
Si Si4 0.443831 0.416011 0.735212
Si Si5 0.250000 0.575793 0.254332
Si Si6 0.153016 0.414768 0.862714
Si Si7 0.846569 0.414972 0.366772
Si Si8 0.090489 0.916875 0.490337
O O1 0.250000 0.750000 0.411902
O O2 0.250000 0.977845 0.329578
O O3 0.160049 0.982512 0.437725
O O4 0.107455 0.250000 0.203366
O O5 0.171273 0.515575 0.213647
O O6 0.064750 0.459687 0.119470
O O7 0.016158 0.471574 0.242996
O O8 0.987917 0.250000 0.053198
O O9 0.899901 0.032914 0.097473
O O10 0.000000 0.000000 0.000000
O O11 0.480388 0.250000 0.728704
O O12 0.366245 0.422680 0.786109
O O13 0.410134 0.468706 0.665709
O O14 0.250000 0.750000 0.251953
O O15 0.250000 0.458004 0.874199
O O16 0.132809 0.250000 0.888443
O O17 0.750000 0.458112 0.349156
O O18 0.866893 0.250000 0.341726
O O19 0.857395 0.424026 0.443401
O O20 0.066986 0.750000 0.470982
O O21 0.000000 0.000000 0.500000
#
# Coordination Sequence:
#
# PCOD8243684 Si02
#       8
#     4   8   8   8   4   8   8   8
#     4   9  20  41  63  83 117 156 197 248 309 363
#     4  10  22  41  61  86 119 155 195 240 291 351
#     4  10  21  38  61  86 116 153 190 232 284 337
#     4  10  20  34  56  84 115 149 187 235 287 341
#     4  11  23  39  63  91 117 154 203 254 301 347
#     4   9  18  34  55  81 113 148 184 224 274 333
#     4  10  20  35  55  79 111 150 189 233 293 358
#     4  10  21  39  59  81 111 150 194 245 300 365
#
# _framework density 19.150914
#
# number of rings (size 3 to 8) (size 9 to 14) (size 15 to 20)
#    0.000    2.143    0.714    1.929    2.000    4.000 
#    1.286    1.071    0.000    0.000    0.000    0.000 
#    0.000    0.000    0.000    0.000    0.000    0.000 
#
# Total GULP energy -694188.098717 kJ/mol
# GULP energy per Si atom -12396.216049 kJ/mol
# Density = 1.910733 g / cm^3
# Si number density = 19.150914 Si / 1000 Ang^3
#
#
#
# Elastic Constant Matrix: (Units=GPa)
#
#
# Indices 1 2 3 4 5 6 
#
# 1 120.7496 52.9448 55.3771 0.0000 0.0000 0.0000
# 2 52.9448 79.1474 51.3034 0.0000 0.0000 0.0000
# 3 55.3771 51.3034 103.2515 0.0000 0.0000 0.0000
# 4 0.0000 0.0000 0.0000 31.4204 0.0000 0.0000
# 5 0.0000 0.0000 0.0000 0.0000 17.6001 0.0000
# 6 0.0000 0.0000 0.0000 0.0000 0.0000 30.3373
#
#
#
# Elastic Compliance Matrix: (Units=1/GPa)
#
#
# Indices 1 2 3 4 5 6 
#
# 1 0.012659 -0.005999 -0.003808 0.000000 0.000000 0.000000
# 2 -0.005999 0.021481 -0.007456 0.000000 0.000000 0.000000
# 3 -0.003808 -0.007456 0.015432 0.000000 0.000000 0.000000
# 4 0.000000 0.000000 0.000000 0.031826 0.000000 0.000000
# 5 0.000000 0.000000 0.000000 0.000000 0.056818 0.000000
# 6 0.000000 0.000000 0.000000 0.000000 0.000000 0.032963
#
#
# Mechanical properties :
#
#
# Convention : Reuss Voigt Hill
#
# Bulk Modulus (GPa) = 66.46773 69.15545 67.81159
# Shear Modulus (GPa) = 23.72818 25.43975 24.58396
#
# Velocity S-wave (km/s) = 3.52378 3.64865 3.58676
# Velocity P-wave (km/s) = 7.16510 7.34434 7.25528
#
# Compressibility (1/GPa) = 0.01504490
#
# Stress axis : x y z
#
# Youngs Moduli (GPa) = 78.99736 46.55376 64.79988
#
# Poissons Ratio (x) = 0.27929 0.24678
# Poissons Ratio (y) = 0.47393 0.48312
# Poissons Ratio (z) = 0.30085 0.34709
#
# Static dielectric constant tensor:
#      x y z
#    x 2.337630 0.000000 0.000000 
#    y 0.000000 2.202420 0.000000 
#    z 0.000000 0.000000 3.578320 
# 
# 
# High freq. dielectric constant tensor:
#      x y z
#    x 1.747810 0.000000 0.000000 
#    y 0.000000 1.740100 0.000000 
#    z 0.000000 0.000000 1.743780 
# 
# From -- ./inp_files/30427.got.cif
#   From: 2010.03.12/outbox.cif.g09.slc.cpg/sg59_16_cif.got.tgz:30427.got - 2010.04.16 16:29:54.
