data_PCOD8243552
_publ_section_title
;
Structure prediction by ZEFSAII (Michael W. Deem and Ramdas Pophale) SiO2 
 PCOD8243552
Probable space group: P M M N
;
_chemical_formula_sum "Si O2"
_cell_formula_units_Z 48
_cell_length_a 9.187369
_cell_length_b 17.929861
_cell_length_c 15.801017
_cell_angle_alpha 90.000000
_cell_angle_beta 90.000000
_cell_angle_gamma 90.000000
_cell_volume 2602.873865
_symmetry_space_group_name_H-M "P M M N"
_symmetry_group_IT_number 59
_space_group.IT_coordinate_system_code '2'
_symmetry_cell_setting 'orthorhombic'
loop_
_space_group_symop_operation_xyz
x,y,z
1/2-x,1/2-y,z
1/2+x,-y,-z
-x,1/2+y,-z
-x,-y,-z
1/2+x,1/2+y,-z
1/2-x,y,z
x,1/2-y,z
loop_
_atom_site_type_symbol
_atom_site_label
_atom_site_fract_x
_atom_site_fract_y
_atom_site_fract_z
Si Si1 0.577914 0.750000 0.086883
Si Si2 0.915259 0.391022 0.964341
Si Si3 0.923377 0.750000 0.279104
Si Si4 0.577822 0.663796 0.570884
Si Si5 0.079797 0.546211 0.681822
Si Si6 0.577170 0.888147 0.387483
Si Si7 0.585765 0.013562 0.127490
O O1 0.750000 0.750000 0.082972
O O2 0.517809 0.679814 0.036887
O O3 0.520106 0.750000 0.183167
O O4 0.750000 0.370547 0.940757
O O5 0.972283 0.449283 0.894932
O O6 0.926664 0.421033 0.059426
O O7 0.750000 0.750000 0.282878
O O8 0.984630 0.675784 0.324927
O O9 0.750000 0.656183 0.579426
O O10 0.529841 0.750000 0.577621
O O11 0.503254 0.617267 0.645080
O O12 0.522899 0.630051 0.481840
O O13 0.250000 0.555223 0.662679
O O14 0.019177 0.469294 0.640815
O O15 0.046228 0.546444 0.781418
O O16 0.750000 0.886721 0.382663
O O17 0.750000 0.979898 0.128362
#
# Coordination Sequence:
#
# PCOD8243552 Si02
#       7
#     4   8   4   8   8   8   8
#     4  11  21  33  53  82 111 142 182 221 261 321
#     4  10  20  35  56  79 110 143 174 220 276 324
#     4   9  16  29  53  80 105 136 174 221 265 311
#     4  10  20  35  53  75 107 142 176 217 268 320
#     4  10  20  34  55  81 105 136 182 225 261 316
#     4   9  16  30  53  79 105 135 173 217 268 319
#     4   9  19  37  57  79 105 139 181 223 268 321
#
# _framework density 18.441154000000001
#
# number of rings (size 3 to 8) (size 9 to 14) (size 15 to 20)
#    0.000    2.333    0.833    2.250    0.000    4.333 
#    1.500    0.000    0.000    2.000    0.000    0.000 
#    0.000    0.000    0.000    0.000    0.000    0.000 
#
# Total GULP energy -595270.941219 kJ/mol
# GULP energy per Si atom -12401.477942 kJ/mol
# Density = 1.839918 g / cm^3
# Si number density = 18.441154 Si / 1000 Ang^3
#
#
#
# Elastic Constant Matrix: (Units=GPa)
#
#
# Indices 1 2 3 4 5 6 
#
# 1 59.4078 46.3077 44.2319 0.0000 0.0000 0.0000
# 2 46.3077 126.3190 70.0634 0.0000 0.0000 0.0000
# 3 44.2319 70.0634 115.0353 0.0000 0.0000 0.0000
# 4 0.0000 0.0000 0.0000 22.4487 0.0000 0.0000
# 5 0.0000 0.0000 0.0000 0.0000 25.4937 0.0000
# 6 0.0000 0.0000 0.0000 0.0000 0.0000 25.7766
#
#
#
# Elastic Compliance Matrix: (Units=1/GPa)
#
#
# Indices 1 2 3 4 5 6 
#
# 1 0.026374 -0.006107 -0.006422 0.000000 0.000000 0.000000
# 2 -0.006107 0.013369 -0.005794 0.000000 0.000000 0.000000
# 3 -0.006422 -0.005794 0.014691 0.000000 0.000000 0.000000
# 4 0.000000 0.000000 0.000000 0.044546 0.000000 0.000000
# 5 0.000000 0.000000 0.000000 0.000000 0.039225 0.000000
# 6 0.000000 0.000000 0.000000 0.000000 0.000000 0.038795
#
#
# Mechanical properties :
#
#
# Convention : Reuss Voigt Hill
#
# Bulk Modulus (GPa) = 56.21524 69.10757 62.66140
# Shear Modulus (GPa) = 22.77111 24.08774 23.42942
#
# Velocity S-wave (km/s) = 3.51778 3.61805 3.56827
# Velocity P-wave (km/s) = 6.85926 7.41685 7.14350
#
# Compressibility (1/GPa) = 0.01778877
#
# Stress axis : x y z
#
# Youngs Moduli (GPa) = 37.91581 74.79927 68.06723
#
# Poissons Ratio (x) = 0.45678 0.43711
# Poissons Ratio (y) = 0.23154 0.39441
# Poissons Ratio (z) = 0.24348 0.43342
#
# Static dielectric constant tensor:
#      x y z
#    x 3.152350 0.000000 0.000000 
#    y 0.000000 3.505980 0.000000 
#    z 0.000000 0.000000 3.460550 
# 
# 
# High freq. dielectric constant tensor:
#      x y z
#    x 1.688060 0.000000 0.000000 
#    y 0.000000 1.720570 0.000000 
#    z 0.000000 0.000000 1.721810 
# 
# From -- ./inp_files/20552.got.cif
#   From: 2010.03.12/outbox.cif.g09.slc.cpg/sg59_11_cif.got.tgz:20552.got - 2010.04.16 16:29:54.
