data_PCOD8243173
_publ_section_title
;
Structure prediction by ZEFSAII (Michael W. Deem and Ramdas Pophale) SiO2 
 PCOD8243173
Probable space group: P M M N
;
_chemical_formula_sum "Si O2"
_cell_formula_units_Z 64
_cell_length_a 17.887329
_cell_length_b 9.372282
_cell_length_c 20.050818
_cell_angle_alpha 90.000000
_cell_angle_beta 90.000000
_cell_angle_gamma 90.000000
_cell_volume 3361.421221
_symmetry_space_group_name_H-M "P M M N"
_symmetry_group_IT_number 59
_space_group.IT_coordinate_system_code '2'
_symmetry_cell_setting 'orthorhombic'
loop_
_space_group_symop_operation_xyz
x,y,z
1/2-x,1/2-y,z
1/2+x,-y,-z
-x,1/2+y,-z
-x,-y,-z
1/2+x,1/2+y,-z
1/2-x,y,z
x,1/2-y,z
loop_
_atom_site_type_symbol
_atom_site_label
_atom_site_fract_x
_atom_site_fract_y
_atom_site_fract_z
Si Si1 0.663946 0.907076 0.841088
Si Si2 0.942835 0.085763 0.091142
Si Si3 0.428878 0.084814 0.526867
Si Si4 0.337963 0.407844 0.399687
Si Si5 0.160479 0.909438 0.279404
Si Si6 0.412306 0.585367 0.059594
Si Si7 0.335827 0.915981 0.787758
Si Si8 0.836142 0.581615 0.344987
O O1 0.750000 0.886035 0.825292
O O2 0.626145 0.750000 0.846472
O O3 0.626981 0.996360 0.780760
O O4 0.656023 0.997295 0.908978
O O5 0.968141 0.250000 0.100343
O O6 0.885488 0.038238 0.148672
O O7 0.904042 0.066429 0.019364
O O8 0.013780 0.982649 0.092545
O O9 0.451523 0.250000 0.532398
O O10 0.363935 0.057648 0.473707
O O11 0.393492 0.030747 0.596881
O O12 0.500000 0.000000 0.500000
O O13 0.250000 0.416861 0.399874
O O14 0.364588 0.250000 0.377246
O O15 0.370696 0.522432 0.347730
O O16 0.250000 0.907610 0.277570
O O17 0.128220 0.750000 0.273669
O O18 0.408691 0.750000 0.080684
O O19 0.250000 0.950757 0.806021
O O20 0.346495 0.750000 0.771293
O O21 0.361454 0.004085 0.722926
O O22 0.750000 0.540887 0.363107
O O23 0.842799 0.750000 0.334132
#
# Coordination Sequence:
#
# PCOD8243173 Si02
#       8
#     8   8   8   8   8   8   8   8
#     4  10  20  34  52  75 105 140 177 217 263 316
#     4   9  19  36  55  76 107 144 179 219 269 325
#     4  10  21  36  53  76 107 140 173 215 265 317
#     4   9  17  32  54  75  96 131 177 216 256 311
#     4   9  17  30  49  74 102 129 163 210 256 299
#     4  10  20  34  54  78 105 141 183 225 268 318
#     4   9  18  34  57  84 110 138 177 224 272 324
#     4   9  18  35  58  81 106 139 179 222 267 316
#
# _framework density 19.039565
#
# number of rings (size 3 to 8) (size 9 to 14) (size 15 to 20)
#    0.000    2.625    0.000    1.500    0.000    6.250 
#    2.250    1.250    0.000    5.250    0.000    0.000 
#    0.000    0.000    0.000    0.000    0.000    0.000 
#
# Total GULP energy -793351.544318 kJ/mol
# GULP energy per Si atom -12396.117880 kJ/mol
# Density = 1.899623 g / cm^3
# Si number density = 19.039565 Si / 1000 Ang^3
#
#
#
# Elastic Constant Matrix: (Units=GPa)
#
#
# Indices 1 2 3 4 5 6 
#
# 1 43.7060 30.9220 51.7369 0.0000 0.0000 0.0000
# 2 30.9220 118.7291 74.6314 0.0000 0.0000 0.0000
# 3 51.7369 74.6314 146.3844 0.0000 0.0000 0.0000
# 4 0.0000 0.0000 0.0000 36.1452 0.0000 0.0000
# 5 0.0000 0.0000 0.0000 0.0000 30.5866 0.0000
# 6 0.0000 0.0000 0.0000 0.0000 0.0000 26.8682
#
#
#
# Elastic Compliance Matrix: (Units=1/GPa)
#
#
# Indices 1 2 3 4 5 6 
#
# 1 0.039739 -0.002239 -0.012904 0.000000 0.000000 0.000000
# 2 -0.002239 0.012521 -0.005592 0.000000 0.000000 0.000000
# 3 -0.012904 -0.005592 0.014243 0.000000 0.000000 0.000000
# 4 0.000000 0.000000 0.000000 0.027666 0.000000 0.000000
# 5 0.000000 0.000000 0.000000 0.000000 0.032694 0.000000
# 6 0.000000 0.000000 0.000000 0.000000 0.000000 0.037219
#
#
# Mechanical properties :
#
#
# Convention : Reuss Voigt Hill
#
# Bulk Modulus (GPa) = 39.94659 69.26668 54.60664
# Shear Modulus (GPa) = 23.37599 28.82194 26.09897
#
# Velocity S-wave (km/s) = 3.50774 3.89497 3.70641
# Velocity P-wave (km/s) = 6.11817 7.52908 6.86000
#
# Compressibility (1/GPa) = 0.02503342
#
# Stress axis : x y z
#
# Youngs Moduli (GPa) = 25.16450 79.86710 70.20989
#
# Poissons Ratio (x) = 0.17879 0.90596
# Poissons Ratio (y) = 0.05633 0.39264
# Poissons Ratio (z) = 0.32471 0.44664
#
# Static dielectric constant tensor:
#      x y z
#    x 3.300790 0.000000 0.000000 
#    y 0.000000 3.674970 0.000000 
#    z 0.000000 0.000000 3.702320 
# 
# 
# High freq. dielectric constant tensor:
#      x y z
#    x 1.712310 0.000000 0.000000 
#    y 0.000000 1.744310 0.000000 
#    z 0.000000 0.000000 1.748670 
# 
# From -- ./inp_files/28265.got.cif
#   From: 2010.03.12/outbox.cif.g09.slc.cpg/sg59_15_cif.got.tgz:28265.got - 2010.04.16 16:29:54.
