data_PCOD8243236
_publ_section_title
;
Structure prediction by ZEFSAII (Michael W. Deem and Ramdas Pophale) SiO2 
 PCOD8243236
Probable space group: P M M N
;
_chemical_formula_sum "Si O2"
_cell_formula_units_Z 48
_cell_length_a 13.761030
_cell_length_b 8.898411
_cell_length_c 20.490147
_cell_angle_alpha 90.000000
_cell_angle_beta 90.000000
_cell_angle_gamma 90.000000
_cell_volume 2509.045152
_symmetry_space_group_name_H-M "P M M N"
_symmetry_group_IT_number 59
_space_group.IT_coordinate_system_code '2'
_symmetry_cell_setting 'orthorhombic'
loop_
_space_group_symop_operation_xyz
x,y,z
1/2-x,1/2-y,z
1/2+x,-y,-z
-x,1/2+y,-z
-x,-y,-z
1/2+x,1/2+y,-z
1/2-x,y,z
x,1/2-y,z
loop_
_atom_site_type_symbol
_atom_site_label
_atom_site_fract_x
_atom_site_fract_y
_atom_site_fract_z
Si Si1 0.362166 0.424044 0.720396
Si Si2 0.063592 0.928451 0.849991
Si Si3 0.953125 0.076225 0.401199
Si Si4 0.140188 0.422110 0.479078
Si Si5 0.147998 0.076645 0.115854
Si Si6 0.095573 0.422307 0.975687
O O1 0.250000 0.453268 0.702135
O O2 0.381958 0.250000 0.734964
O O3 0.389723 0.520527 0.782992
O O4 0.429586 0.475979 0.661142
O O5 0.064560 0.750000 0.854641
O O6 0.952499 0.995361 0.857046
O O7 0.129648 0.993373 0.909441
O O8 0.934114 0.250000 0.384595
O O9 0.065952 0.046492 0.419713
O O10 0.883594 0.030341 0.460771
O O11 0.250000 0.453971 0.454712
O O12 0.128637 0.250000 0.503107
O O13 0.250000 0.009565 0.146113
O O14 0.140968 0.250000 0.135266
O O15 0.165694 0.061060 0.037665
O O16 0.077923 0.250000 0.956925
O O17 0.000000 0.500000 0.000000
#
# Coordination Sequence:
#
# PCOD8243236 Si02
#       6
#     8   8   8   8   8   8
#     4  11  24  40  56  73  99 138 176 211 260 320
#     4  10  20  34  53  76 102 133 171 218 265 309
#     4  10  20  34  55  83 111 139 175 218 256 294
#     4   9  18  34  56  82 113 146 176 207 251 306
#     4   8  15  29  50  75 101 131 167 205 251 309
#     4   9  16  28  48  72 100 134 171 213 258 304
#
# _framework density 19.130784999999999
#
# number of rings (size 3 to 8) (size 9 to 14) (size 15 to 20)
#    0.000    2.500    0.000    3.500    0.000    5.000 
#    0.000    2.500    0.000   22.500    0.000    0.000 
#    0.000    0.000    0.000    0.000    0.000    0.000 
#
# Total GULP energy -594699.114833 kJ/mol
# GULP energy per Si atom -12389.564892 kJ/mol
# Density = 1.908724 g / cm^3
# Si number density = 19.130785 Si / 1000 Ang^3
#
#
#
# Elastic Constant Matrix: (Units=GPa)
#
#
# Indices 1 2 3 4 5 6 
#
# 1 97.6360 31.3409 22.2315 0.0000 0.0000 0.0000
# 2 31.3409 77.4597 28.2681 0.0000 0.0000 0.0000
# 3 22.2315 28.2681 79.5849 0.0000 0.0000 0.0000
# 4 0.0000 0.0000 0.0000 34.4977 0.0000 0.0000
# 5 0.0000 0.0000 0.0000 0.0000 -5.3545 0.0000
# 6 0.0000 0.0000 0.0000 0.0000 0.0000 20.6241
#
#
#
# Elastic Compliance Matrix: (Units=1/GPa)
#
#
# Indices 1 2 3 4 5 6 
#
# 1 0.012009 -0.004176 -0.001871 0.000000 0.000000 0.000000
# 2 -0.004176 0.016285 -0.004618 0.000000 0.000000 0.000000
# 3 -0.001871 -0.004618 0.014728 0.000000 0.000000 0.000000
# 4 0.000000 0.000000 0.000000 0.028987 0.000000 0.000000
# 5 0.000000 0.000000 0.000000 0.000000 -0.186760 0.000000
# 6 0.000000 0.000000 0.000000 0.000000 0.000000 0.048487
#
#
# Mechanical properties :
#
#
# Convention : Reuss Voigt Hill
#
# Bulk Modulus (GPa) = 46.10064 46.48463 46.29264
# Shear Modulus (GPa) = -132.61290 21.47613 -55.56838
#
# Velocity S-wave (km/s) = -8.33484 3.35415 -5.39533
# Velocity P-wave (km/s) = 8.27503 6.27308 3.81606
#
# Compressibility (1/GPa) = 0.02169167
#
# Stress axis : x y z
#
# Youngs Moduli (GPa) = 83.27316 61.40714 67.89733
#
# Poissons Ratio (x) = 0.25643 0.12705
# Poissons Ratio (y) = 0.34774 0.31353
# Poissons Ratio (z) = 0.15583 0.28356
#
# Static dielectric constant tensor:
#      x y z
#    x 1.367860 0.000000 0.000000 
#    y 0.000000 3.761630 0.000000 
#    z 0.000000 0.000000 3.650810 
# 
# 
# High freq. dielectric constant tensor:
#      x y z
#    x 1.750230 0.000000 0.000000 
#    y 0.000000 1.736690 0.000000 
#    z 0.000000 0.000000 1.724400 
# 
# From -- ./inp_files/30198.got.cif
#   From: 2010.03.12/outbox.cif.g09.slc.cpg/sg59_16_cif.got.tgz:30198.got - 2010.04.16 16:29:54.
