data_PCOD8243268
_publ_section_title
;
Structure prediction by ZEFSAII (Michael W. Deem and Ramdas Pophale) SiO2 
 PCOD8243268
Probable space group: P M M N
;
_chemical_formula_sum "Si O2"
_cell_formula_units_Z 48
_cell_length_a 9.064203
_cell_length_b 9.282222
_cell_length_c 31.060812
_cell_angle_alpha 90.000000
_cell_angle_beta 90.000000
_cell_angle_gamma 90.000000
_cell_volume 2613.330755
_symmetry_space_group_name_H-M "P M M N"
_symmetry_group_IT_number 59
_space_group.IT_coordinate_system_code '2'
_symmetry_cell_setting 'orthorhombic'
loop_
_space_group_symop_operation_xyz
x,y,z
1/2-x,1/2-y,z
1/2+x,-y,-z
-x,1/2+y,-z
-x,-y,-z
1/2+x,1/2+y,-z
1/2-x,y,z
x,1/2-y,z
loop_
_atom_site_type_symbol
_atom_site_label
_atom_site_fract_x
_atom_site_fract_y
_atom_site_fract_z
Si Si1 0.420610 0.581363 0.461849
Si Si2 0.083719 0.921191 0.123905
Si Si3 0.421653 0.082949 0.624978
Si Si4 0.421374 0.080427 0.961441
Si Si5 0.425497 0.912710 0.707877
Si Si6 0.077466 0.082525 0.790944
O O1 0.500000 0.500000 0.500000
O O2 0.250000 0.539217 0.461765
O O3 0.446109 0.750000 0.468741
O O4 0.489963 0.530829 0.416797
O O5 0.250000 0.981664 0.121303
O O6 0.082613 0.750000 0.124433
O O7 0.992519 0.976946 0.082865
O O8 0.006935 0.978150 0.167306
O O9 0.250000 0.051966 0.616531
O O10 0.449931 0.250000 0.635217
O O11 0.483791 0.992716 0.665262
O O12 0.250000 0.040111 0.960964
O O13 0.446678 0.250000 0.967103
O O14 0.500000 0.000000 0.000000
O O15 0.250000 0.916618 0.707915
O O16 0.486136 0.750000 0.708213
O O17 0.484054 0.995208 0.750023
O O18 0.250000 0.056112 0.798569
O O19 0.044015 0.250000 0.782664
#
# Coordination Sequence:
#
# PCOD8243268 Si02
#       6
#     8   8   8   8   8   8
#     4  10  21  36  54  77 104 134 169 209 253 301
#     4   9  17  30  49  72  97 127 165 207 248 292
#     4   9  17  31  51  73  98 130 167 205 245 292
#     4  10  20  34  53  77 104 134 169 209 253 302
#     4   9  17  29  47  72  99 126 159 200 245 293
#     4   9  16  28  48  71  93 121 160 202 242 288
#
# _framework density 18.367363999999998
#
# number of rings (size 3 to 8) (size 9 to 14) (size 15 to 20)
#    0.000    2.667    0.000    2.000    0.000    6.667 
#    0.000    3.333    0.000    8.500    0.000    0.000 
#    0.000    0.000    0.000    0.000    0.000    0.000 
#
# Total GULP energy -595266.047492 kJ/mol
# GULP energy per Si atom -12401.375989 kJ/mol
# Density = 1.832556 g / cm^3
# Si number density = 18.367364 Si / 1000 Ang^3
#
#
#
# Elastic Constant Matrix: (Units=GPa)
#
#
# Indices 1 2 3 4 5 6 
#
# 1 102.5793 42.3091 87.7649 0.0000 0.0000 0.0000
# 2 42.3091 64.1554 74.1823 0.0000 0.0000 0.0000
# 3 87.7649 74.1823 215.3788 0.0000 0.0000 0.0000
# 4 0.0000 0.0000 0.0000 33.3143 0.0000 0.0000
# 5 0.0000 0.0000 0.0000 0.0000 33.7174 0.0000
# 6 0.0000 0.0000 0.0000 0.0000 0.0000 18.0191
#
#
#
# Elastic Compliance Matrix: (Units=1/GPa)
#
#
# Indices 1 2 3 4 5 6 
#
# 1 0.015864 -0.004964 -0.004755 0.000000 0.000000 0.000000
# 2 -0.004964 0.027457 -0.007434 0.000000 0.000000 0.000000
# 3 -0.004755 -0.007434 0.009141 0.000000 0.000000 0.000000
# 4 0.000000 0.000000 0.000000 0.030017 0.000000 0.000000
# 5 0.000000 0.000000 0.000000 0.000000 0.029658 0.000000
# 6 0.000000 0.000000 0.000000 0.000000 0.000000 0.055497
#
#
# Mechanical properties :
#
#
# Convention : Reuss Voigt Hill
#
# Bulk Modulus (GPa) = 55.07811 87.84735 71.46273
# Shear Modulus (GPa) = 24.03943 28.86731 26.45337
#
# Velocity S-wave (km/s) = 3.62168 3.96872 3.79916
# Velocity P-wave (km/s) = 6.89498 8.30258 7.63130
#
# Compressibility (1/GPa) = 0.01815603
#
# Stress axis : x y z
#
# Youngs Moduli (GPa) = 63.03555 36.42081 109.39822
#
# Poissons Ratio (x) = 0.18080 0.52015
# Poissons Ratio (y) = 0.31293 0.81326
# Poissons Ratio (z) = 0.29971 0.27075
#
# Static dielectric constant tensor:
#      x y z
#    x 6.207880 0.000000 0.000000 
#    y 0.000000 3.218880 0.000000 
#    z 0.000000 0.000000 3.634920 
# 
# 
# High freq. dielectric constant tensor:
#      x y z
#    x 1.698530 0.000000 0.000000 
#    y 0.000000 1.687310 0.000000 
#    z 0.000000 0.000000 1.730110 
# 
# From -- ./inp_files/32863.got.cif
#   From: 2010.03.12/outbox.cif.g09.slc.cpg/sg59_17_cif.got.tgz:32863.got - 2010.04.16 16:29:54.
