data_PCOD8243867
_publ_section_title
;
Structure prediction by ZEFSAII (Michael W. Deem and Ramdas Pophale) SiO2 
 PCOD8243867
Probable space group: P M M N
;
_chemical_formula_sum "Si O2"
_cell_formula_units_Z 64
_cell_length_a 19.851032
_cell_length_b 8.797560
_cell_length_c 19.813891
_cell_angle_alpha 90.000000
_cell_angle_beta 90.000000
_cell_angle_gamma 90.000000
_cell_volume 3460.310706
_symmetry_space_group_name_H-M "P M M N"
_symmetry_group_IT_number 59
_space_group.IT_coordinate_system_code '2'
_symmetry_cell_setting 'orthorhombic'
loop_
_space_group_symop_operation_xyz
x,y,z
1/2-x,1/2-y,z
1/2+x,-y,-z
-x,1/2+y,-z
-x,-y,-z
1/2+x,1/2+y,-z
1/2-x,y,z
x,1/2-y,z
loop_
_atom_site_type_symbol
_atom_site_label
_atom_site_fract_x
_atom_site_fract_y
_atom_site_fract_z
Si Si1 0.171867 0.573795 0.410000
Si Si2 0.326248 0.075365 0.921772
Si Si3 0.173239 0.074069 0.550503
Si Si4 0.405972 0.924211 0.812073
Si Si5 0.569134 0.571683 0.690909
Si Si6 0.933890 0.928680 0.967883
Si Si7 0.581746 0.076190 0.340707
Si Si8 0.453666 0.928699 0.169649
O O1 0.250000 0.540420 0.394744
O O2 0.154033 0.750000 0.401215
O O3 0.153393 0.524544 0.485604
O O4 0.128349 0.475695 0.358684
O O5 0.250000 0.044232 0.943344
O O6 0.338458 0.250000 0.901569
O O7 0.342338 0.972429 0.856605
O O8 0.371225 0.027616 0.985180
O O9 0.250000 0.038559 0.572913
O O10 0.164418 0.250000 0.531756
O O11 0.122784 0.033187 0.610369
O O12 0.426662 0.750000 0.825734
O O13 0.387539 0.946372 0.733764
O O14 0.467741 0.030125 0.833648
O O15 0.571181 0.750000 0.704755
O O16 0.496754 0.527063 0.659062
O O17 0.580575 0.489372 0.762144
O O18 0.944628 0.750000 0.961550
O O19 0.917134 0.997257 0.894632
O O20 0.000000 0.000000 0.000000
O O21 0.589918 0.250000 0.364887
O O22 0.444561 0.750000 0.166190
#
# Coordination Sequence:
#
# PCOD8243867 Si02
#       8
#     8   8   8   8   8   8   8   8
#     4  10  21  38  60  84 111 146 187 231 282 340
#     4  10  22  38  55  79 112 148 186 229 279 335
#     4  10  21  36  55  80 109 146 191 233 276 333
#     4  10  20  35  55  79 109 145 186 228 275 334
#     4  10  21  38  59  85 115 146 185 234 281 335
#     4  11  21  35  58  84 110 145 189 234 278 334
#     4   9  20  36  54  80 112 146 184 228 277 328
#     4  11  21  35  57  84 112 144 184 231 279 332
#
# _framework density 18.495449000000001
#
# number of rings (size 3 to 8) (size 9 to 14) (size 15 to 20)
#    0.000    1.875    1.250    3.750    0.000    6.250 
#    0.000    3.125    0.000    2.250    0.000    0.000 
#    0.000    0.000    0.000    0.000    0.000    0.000 
#
# Total GULP energy -793863.454804 kJ/mol
# GULP energy per Si atom -12404.116481 kJ/mol
# Density = 1.845335 g / cm^3
# Si number density = 18.495449 Si / 1000 Ang^3
#
#
#
# Elastic Constant Matrix: (Units=GPa)
#
#
# Indices 1 2 3 4 5 6 
#
# 1 92.4950 39.7409 63.5517 0.0000 0.0000 0.0000
# 2 39.7409 87.7343 44.0247 0.0000 0.0000 0.0000
# 3 63.5517 44.0247 112.2994 0.0000 0.0000 0.0000
# 4 0.0000 0.0000 0.0000 37.8741 0.0000 0.0000
# 5 0.0000 0.0000 0.0000 0.0000 31.4268 0.0000
# 6 0.0000 0.0000 0.0000 0.0000 0.0000 28.2134
#
#
#
# Elastic Compliance Matrix: (Units=1/GPa)
#
#
# Indices 1 2 3 4 5 6 
#
# 1 0.018723 -0.003939 -0.009051 0.000000 0.000000 0.000000
# 2 -0.003939 0.015018 -0.003658 0.000000 0.000000 0.000000
# 3 -0.009051 -0.003658 0.015461 0.000000 0.000000 0.000000
# 4 0.000000 0.000000 0.000000 0.026403 0.000000 0.000000
# 5 0.000000 0.000000 0.000000 0.000000 0.031820 0.000000
# 6 0.000000 0.000000 0.000000 0.000000 0.000000 0.035444
#
#
# Mechanical properties :
#
#
# Convention : Reuss Voigt Hill
#
# Bulk Modulus (GPa) = 62.87433 65.24039 64.05736
# Shear Modulus (GPa) = 27.55303 29.18362 28.36832
#
# Velocity S-wave (km/s) = 3.86388 3.97656 3.92062
# Velocity P-wave (km/s) = 7.34672 7.51228 7.42996
#
# Compressibility (1/GPa) = 0.01590474
#
# Stress axis : x y z
#
# Youngs Moduli (GPa) = 53.41096 66.58655 64.67792
#
# Poissons Ratio (x) = 0.26228 0.58542
# Poissons Ratio (y) = 0.21038 0.23662
# Poissons Ratio (z) = 0.48344 0.24360
#
# Static dielectric constant tensor:
#      x y z
#    x 3.109320 0.000000 0.000000 
#    y 0.000000 3.444710 0.000000 
#    z 0.000000 0.000000 3.524750 
# 
# 
# High freq. dielectric constant tensor:
#      x y z
#    x 1.701660 0.000000 0.000000 
#    y 0.000000 1.729160 0.000000 
#    z 0.000000 0.000000 1.724580 
# 
# From -- ./inp_files/28132.got.cif
#   From: 2010.03.12/outbox.cif.g09.slc.cpg/sg59_15_cif.got.tgz:28132.got - 2010.04.16 16:29:54.
