data_PCOD8243781
_publ_section_title
;
Structure prediction by ZEFSAII (Michael W. Deem and Ramdas Pophale) SiO2 
 PCOD8243781
Probable space group: P M M N
;
_chemical_formula_sum "Si O2"
_cell_formula_units_Z 64
_cell_length_a 20.915440
_cell_length_b 8.732185
_cell_length_c 17.690645
_cell_angle_alpha 90.000000
_cell_angle_beta 90.000000
_cell_angle_gamma 90.000000
_cell_volume 3230.975025
_symmetry_space_group_name_H-M "P M M N"
_symmetry_group_IT_number 59
_space_group.IT_coordinate_system_code '2'
_symmetry_cell_setting 'orthorhombic'
loop_
_space_group_symop_operation_xyz
x,y,z
1/2-x,1/2-y,z
1/2+x,-y,-z
-x,1/2+y,-z
-x,-y,-z
1/2+x,1/2+y,-z
1/2-x,y,z
x,1/2-y,z
loop_
_atom_site_type_symbol
_atom_site_label
_atom_site_fract_x
_atom_site_fract_y
_atom_site_fract_z
Si Si1 0.569441 0.569754 0.919724
Si Si2 0.642008 0.923607 0.642363
Si Si3 0.388808 0.067840 0.655369
Si Si4 0.424813 0.572091 0.918038
Si Si5 0.501089 0.923881 0.583115
Si Si6 0.320749 0.078698 0.512123
Si Si7 0.322263 0.431885 0.196008
Si Si8 0.677049 0.568278 0.193193
O O1 0.576748 0.750000 0.936722
O O2 0.497312 0.535623 0.888810
O O3 0.623491 0.508531 0.861756
O O4 0.581335 0.475777 0.995374
O O5 0.667221 0.750000 0.649468
O O6 0.568072 0.932363 0.624490
O O7 0.676136 0.004541 0.569713
O O8 0.661187 0.003962 0.721391
O O9 0.383709 0.250000 0.656170
O O10 0.359164 0.994846 0.578408
O O11 0.352073 0.002159 0.728425
O O12 0.460982 0.011158 0.648212
O O13 0.409700 0.750000 0.909671
O O14 0.370386 0.482296 0.872855
O O15 0.477887 0.750000 0.572797
O O16 0.500000 0.000000 0.500000
O O17 0.250000 0.088835 0.543509
O O18 0.350277 0.250000 0.500840
O O19 0.250000 0.482156 0.172005
O O20 0.327585 0.250000 0.198385
O O21 0.750000 0.506627 0.181770
O O22 0.678335 0.750000 0.194822
#
# Coordination Sequence:
#
# PCOD8243781 Si02
#       8
#     8   8   8   8   8   8   8   8
#     4   9  19  36  58  84 116 149 184 226 277 336
#     4   9  17  28  46  75 107 136 173 221 269 317
#     4  10  20  35  53  79 109 140 183 231 279 331
#     4  10  21  37  59  85 115 149 186 229 278 336
#     4  11  21  34  53  77 107 143 185 232 282 333
#     4   9  15  26  47  72 100 136 177 221 266 313
#     4   9  17  30  51  81 111 138 176 226 274 322
#     4  10  22  39  59  84 115 150 190 237 287 343
#
# _framework density 19.808261999999999
#
# number of rings (size 3 to 8) (size 9 to 14) (size 15 to 20)
#    0.000    2.375    1.250    1.500    1.750    4.750 
#    0.000    1.250    0.000    1.125    0.000    0.000 
#    0.000    0.000    0.000    0.000    0.000    0.000 
#
# Total GULP energy -792922.327738 kJ/mol
# GULP energy per Si atom -12389.411371 kJ/mol
# Density = 1.976318 g / cm^3
# Si number density = 19.808262 Si / 1000 Ang^3
#
#
#
# Elastic Constant Matrix: (Units=GPa)
#
#
# Indices 1 2 3 4 5 6 
#
# 1 124.5291 16.7725 56.3607 0.0000 0.0000 0.0000
# 2 16.7725 19.1594 12.5842 0.0000 0.0000 0.0000
# 3 56.3607 12.5842 98.8544 0.0000 0.0000 0.0000
# 4 0.0000 0.0000 0.0000 16.8400 0.0000 0.0000
# 5 0.0000 0.0000 0.0000 0.0000 35.1056 0.0000
# 6 0.0000 0.0000 0.0000 0.0000 0.0000 23.0628
#
#
#
# Elastic Compliance Matrix: (Units=1/GPa)
#
#
# Indices 1 2 3 4 5 6 
#
# 1 0.011475 -0.006273 -0.005744 0.000000 0.000000 0.000000
# 2 -0.006273 0.060385 -0.004111 0.000000 0.000000 0.000000
# 3 -0.005744 -0.004111 0.013914 0.000000 0.000000 0.000000
# 4 0.000000 0.000000 0.000000 0.059382 0.000000 0.000000
# 5 0.000000 0.000000 0.000000 0.000000 0.028485 0.000000
# 6 0.000000 0.000000 0.000000 0.000000 0.000000 0.043360
#
#
# Mechanical properties :
#
#
# Convention : Reuss Voigt Hill
#
# Bulk Modulus (GPa) = 18.68479 45.99750 32.34114
# Shear Modulus (GPa) = 18.71995 25.45673 22.08834
#
# Velocity S-wave (km/s) = 3.07751 3.58880 3.34294
# Velocity P-wave (km/s) = 4.69909 6.35959 5.59133
#
# Compressibility (1/GPa) = 0.05351947
#
# Stress axis : x y z
#
# Youngs Moduli (GPa) = 87.14916 16.56042 71.87097
#
# Poissons Ratio (x) = 0.10388 0.41280
# Poissons Ratio (y) = 0.54665 0.29544
# Poissons Ratio (z) = 0.50055 0.06808
#
# Static dielectric constant tensor:
#      x y z
#    x 3.822680 0.000000 0.000000 
#    y 0.000000 3.200380 0.000000 
#    z 0.000000 0.000000 3.801500 
# 
# 
# High freq. dielectric constant tensor:
#      x y z
#    x 1.788750 0.000000 0.000000 
#    y 0.000000 1.718020 0.000000 
#    z 0.000000 0.000000 1.778880 
# 
# From -- ./inp_files/28279.got.cif
#   From: 2010.03.12/outbox.cif.g09.slc.cpg/sg59_15_cif.got.tgz:28279.got - 2010.04.16 16:29:54.
