data_PCOD8243814
_publ_section_title
;
Structure prediction by ZEFSAII (Michael W. Deem and Ramdas Pophale) SiO2 
 PCOD8243814
Probable space group: P M M N
;
_chemical_formula_sum "Si O2"
_cell_formula_units_Z 40
_cell_length_a 14.323997
_cell_length_b 9.001417
_cell_length_c 17.296462
_cell_angle_alpha 90.000000
_cell_angle_beta 90.000000
_cell_angle_gamma 90.000000
_cell_volume 2230.141296
_symmetry_space_group_name_H-M "P M M N"
_symmetry_group_IT_number 59
_space_group.IT_coordinate_system_code '2'
_symmetry_cell_setting 'orthorhombic'
loop_
_space_group_symop_operation_xyz
x,y,z
1/2-x,1/2-y,z
1/2+x,-y,-z
-x,1/2+y,-z
-x,-y,-z
1/2+x,1/2+y,-z
1/2-x,y,z
x,1/2-y,z
loop_
_atom_site_type_symbol
_atom_site_label
_atom_site_fract_x
_atom_site_fract_y
_atom_site_fract_z
Si Si1 0.020271 0.923979 0.114889
Si Si2 0.250000 0.574242 0.346774
Si Si3 0.750000 0.075623 0.481077
Si Si4 0.948599 0.074715 0.710670
Si Si5 0.050986 0.925971 0.571745
Si Si6 0.644639 0.924904 0.005490
O O1 0.037527 0.750000 0.106080
O O2 0.018829 0.971728 0.204020
O O3 0.921439 0.972568 0.077204
O O4 0.106673 0.003086 0.073064
O O5 0.250000 0.750000 0.352042
O O6 0.250000 0.503428 0.432937
O O7 0.158046 0.521047 0.301154
O O8 0.750000 0.250000 0.494039
O O9 0.659367 0.026916 0.433142
O O10 0.959040 0.250000 0.695684
O O11 0.014566 0.987835 0.652273
O O12 0.036454 0.750000 0.567380
O O13 0.000000 0.000000 0.500000
O O14 0.750000 0.981114 0.021995
O O15 0.642820 0.750000 0.993652
#
# Coordination Sequence:
#
# PCOD8243814 Si02
#       6
#     8   4   4   8   8   8
#     4   9  19  34  54  79 106 136 175 215 258 316
#     4   9  16  30  52  74 103 136 165 207 266 314
#     4   9  18  34  54  72  99 140 175 207 260 314
#     4  10  20  35  54  79 106 136 173 217 263 310
#     4  11  21  36  56  76 104 141 178 216 261 311
#     4   9  18  34  54  76 107 142 171 211 265 310
#
# _framework density 17.936081999999999
#
# number of rings (size 3 to 8) (size 9 to 14) (size 15 to 20)
#    0.000    2.400    2.000    0.600    1.400    1.200 
#    1.800    3.500    0.000    0.000    0.000    0.000 
#    0.000    0.000    0.000    0.000    0.000    0.000 
#
# Total GULP energy -495976.583273 kJ/mol
# GULP energy per Si atom -12399.414582 kJ/mol
# Density = 1.789526 g / cm^3
# Si number density = 17.936082 Si / 1000 Ang^3
#
#
#
# Elastic Constant Matrix: (Units=GPa)
#
#
# Indices 1 2 3 4 5 6 
#
# 1 170.8077 42.8058 87.7964 0.0000 0.0000 0.0000
# 2 42.8058 39.8049 43.6276 0.0000 0.0000 0.0000
# 3 87.7964 43.6276 156.3957 0.0000 0.0000 0.0000
# 4 0.0000 0.0000 0.0000 28.9449 0.0000 0.0000
# 5 0.0000 0.0000 0.0000 0.0000 23.9703 0.0000
# 6 0.0000 0.0000 0.0000 0.0000 0.0000 24.5552
#
#
#
# Elastic Compliance Matrix: (Units=1/GPa)
#
#
# Indices 1 2 3 4 5 6 
#
# 1 0.009142 -0.006059 -0.003442 0.000000 0.000000 0.000000
# 2 -0.006059 0.040202 -0.007813 0.000000 0.000000 0.000000
# 3 -0.003442 -0.007813 0.010506 0.000000 0.000000 0.000000
# 4 0.000000 0.000000 0.000000 0.034548 0.000000 0.000000
# 5 0.000000 0.000000 0.000000 0.000000 0.041718 0.000000
# 6 0.000000 0.000000 0.000000 0.000000 0.000000 0.040725
#
#
# Mechanical properties :
#
#
# Convention : Reuss Voigt Hill
#
# Bulk Modulus (GPa) = 39.64859 79.49641 59.57250
# Shear Modulus (GPa) = 22.74005 28.34599 25.54302
#
# Velocity S-wave (km/s) = 3.56453 3.97972 3.77784
# Velocity P-wave (km/s) = 6.25257 8.09542 7.23293
#
# Compressibility (1/GPa) = 0.02522158
#
# Stress axis : x y z
#
# Youngs Moduli (GPa) = 109.38358 24.87451 95.18495
#
# Poissons Ratio (x) = 0.15071 0.32763
# Poissons Ratio (y) = 0.66273 0.74371
# Poissons Ratio (z) = 0.37650 0.19435
#
# Static dielectric constant tensor:
#      x y z
#    x 4.175390 0.000000 0.000000 
#    y 0.000000 3.129930 0.000000 
#    z 0.000000 0.000000 3.388570 
# 
# 
# High freq. dielectric constant tensor:
#      x y z
#    x 1.704750 0.000000 0.000000 
#    y 0.000000 1.672750 0.000000 
#    z 0.000000 0.000000 1.694150 
# 
# From -- ./inp_files/19953.got.cif
#   From: 2010.03.12/outbox.cif.g09.slc.cpg/sg59_10_cif.got.tgz:19953.got - 2010.04.16 16:29:54.
