data_PCOD8243074
_publ_section_title
;
Structure prediction by ZEFSAII (Michael W. Deem and Ramdas Pophale) SiO2 
 PCOD8243074
Probable space group: P M M N
;
_chemical_formula_sum "Si O2"
_cell_formula_units_Z 40
_cell_length_a 8.778363
_cell_length_b 14.926388
_cell_length_c 15.237645
_cell_angle_alpha 90.000000
_cell_angle_beta 90.000000
_cell_angle_gamma 90.000000
_cell_volume 1996.577229
_symmetry_space_group_name_H-M "P M M N"
_symmetry_group_IT_number 59
_space_group.IT_coordinate_system_code '2'
_symmetry_cell_setting 'orthorhombic'
loop_
_space_group_symop_operation_xyz
x,y,z
1/2-x,1/2-y,z
1/2+x,-y,-z
-x,1/2+y,-z
-x,-y,-z
1/2+x,1/2+y,-z
1/2-x,y,z
x,1/2-y,z
loop_
_atom_site_type_symbol
_atom_site_label
_atom_site_fract_x
_atom_site_fract_y
_atom_site_fract_z
Si Si1 0.424766 0.382967 0.176988
Si Si2 0.572386 0.069019 0.751258
Si Si3 0.068373 0.750000 0.497355
Si Si4 0.930607 0.930721 0.431785
Si Si5 0.571154 0.250000 0.304297
Si Si6 0.570235 0.250000 0.840776
Si Si7 0.926978 0.750000 0.971279
O O1 0.250000 0.358340 0.194935
O O2 0.451614 0.489896 0.176807
O O3 0.517769 0.339788 0.256456
O O4 0.472970 0.338939 0.084206
O O5 0.750000 0.078089 0.725785
O O6 0.475796 0.040972 0.666451
O O7 0.507645 0.161187 0.792331
O O8 0.250000 0.750000 0.490798
O O9 0.007627 0.750000 0.596851
O O10 0.002380 0.834351 0.446959
O O11 0.750000 0.929387 0.442516
O O12 0.000000 0.000000 0.500000
O O13 0.750000 0.250000 0.307419
O O14 0.750000 0.250000 0.837737
O O15 0.522959 0.250000 0.941205
O O16 0.750000 0.750000 0.996270
#
# Coordination Sequence:
#
# PCOD8243074 Si02
#       7
#     8   8   4   8   4   4   4
#     4   9  19  36  58  81 110 149 188 229 284 345
#     4  10  21  39  60  82 113 153 194 238 288 341
#     4  11  23  39  58  83 117 156 199 247 296 347
#     4  12  25  40  60  88 120 156 199 244 294 350
#     4  10  20  33  54  84 112 140 182 238 289 334
#     4  10  22  38  58  85 116 149 188 235 288 343
#     4   9  19  36  56  82 113 145 187 236 283 342
#
# _framework density 20.034286999999999
#
# number of rings (size 3 to 8) (size 9 to 14) (size 15 to 20)
#    0.000    1.800    0.000    4.800    0.000    9.600 
#    0.000    0.000    0.000    0.000    0.000    0.000 
#    0.000    0.000    0.000    0.000    0.000    0.000 
#
# Total GULP energy -496081.175102 kJ/mol
# GULP energy per Si atom -12402.029378 kJ/mol
# Density = 1.998869 g / cm^3
# Si number density = 20.034287 Si / 1000 Ang^3
#
#
#
# Elastic Constant Matrix: (Units=GPa)
#
#
# Indices 1 2 3 4 5 6 
#
# 1 65.7578 28.2046 26.7825 0.0000 0.0000 0.0000
# 2 28.2046 155.8227 48.5591 0.0000 0.0000 0.0000
# 3 26.7825 48.5591 115.3699 0.0000 0.0000 0.0000
# 4 0.0000 0.0000 0.0000 18.8155 0.0000 0.0000
# 5 0.0000 0.0000 0.0000 0.0000 35.6261 0.0000
# 6 0.0000 0.0000 0.0000 0.0000 0.0000 24.8394
#
#
#
# Elastic Compliance Matrix: (Units=1/GPa)
#
#
# Indices 1 2 3 4 5 6 
#
# 1 0.017415 -0.002178 -0.003126 0.000000 0.000000 0.000000
# 2 -0.002178 0.007659 -0.002718 0.000000 0.000000 0.000000
# 3 -0.003126 -0.002718 0.010537 0.000000 0.000000 0.000000
# 4 0.000000 0.000000 0.000000 0.053148 0.000000 0.000000
# 5 0.000000 0.000000 0.000000 0.000000 0.028069 0.000000
# 6 0.000000 0.000000 0.000000 0.000000 0.000000 0.040259
#
#
# Mechanical properties :
#
#
# Convention : Reuss Voigt Hill
#
# Bulk Modulus (GPa) = 51.10647 60.44921 55.77784
# Shear Modulus (GPa) = 27.83147 31.41649 29.62398
#
# Velocity S-wave (km/s) = 3.73123 3.96427 3.84951
# Velocity P-wave (km/s) = 6.64286 7.15488 6.90362
#
# Compressibility (1/GPa) = 0.01956699
#
# Stress axis : x y z
#
# Youngs Moduli (GPa) = 57.42277 130.56927 94.89962
#
# Poissons Ratio (x) = 0.28438 0.29666
# Poissons Ratio (y) = 0.12506 0.25793
# Poissons Ratio (z) = 0.17951 0.35488
#
# Static dielectric constant tensor:
#      x y z
#    x 3.552760 0.000000 0.000000 
#    y 0.000000 3.846890 0.000000 
#    z 0.000000 0.000000 3.594380 
# 
# 
# High freq. dielectric constant tensor:
#      x y z
#    x 1.774060 0.000000 0.000000 
#    y 0.000000 1.796860 0.000000 
#    z 0.000000 0.000000 1.779730 
# 
# From -- ./inp_files/20025.got.cif
#   From: 2010.03.12/outbox.cif.g09.slc.cpg/sg59_11_cif.got.tgz:20025.got - 2010.04.16 16:29:54.
