data_PCOD8243254
_publ_section_title
;
Structure prediction by ZEFSAII (Michael W. Deem and Ramdas Pophale) SiO2 
 PCOD8243254
Probable space group: P M M N
;
_chemical_formula_sum "Si O2"
_cell_formula_units_Z 64
_cell_length_a 18.092356
_cell_length_b 9.506188
_cell_length_c 20.577239
_cell_angle_alpha 90.000000
_cell_angle_beta 90.000000
_cell_angle_gamma 90.000000
_cell_volume 3539.065703
_symmetry_space_group_name_H-M "P M M N"
_symmetry_group_IT_number 59
_space_group.IT_coordinate_system_code '2'
_symmetry_cell_setting 'orthorhombic'
loop_
_space_group_symop_operation_xyz
x,y,z
1/2-x,1/2-y,z
1/2+x,-y,-z
-x,1/2+y,-z
-x,-y,-z
1/2+x,1/2+y,-z
1/2-x,y,z
x,1/2-y,z
loop_
_atom_site_type_symbol
_atom_site_label
_atom_site_fract_x
_atom_site_fract_y
_atom_site_fract_z
Si Si1 0.089704 0.584879 0.622517
Si Si2 0.664031 0.588380 0.488756
Si Si3 0.161696 0.091732 0.011671
Si Si4 0.338067 0.907313 0.893150
Si Si5 0.167937 0.916908 0.751042
Si Si6 0.580489 0.914532 0.618069
Si Si7 0.665164 0.414967 0.725135
Si Si8 0.162261 0.905812 0.129033
O O1 0.104369 0.750000 0.614149
O O2 0.140789 0.505964 0.571448
O O3 0.112669 0.532547 0.694553
O O4 0.005035 0.545506 0.610590
O O5 0.750000 0.566907 0.503017
O O6 0.645018 0.750000 0.472774
O O7 0.620523 0.537070 0.552388
O O8 0.250000 0.091078 0.011552
O O9 0.130739 0.250000 0.010825
O O10 0.130598 0.010948 0.948370
O O11 0.130704 0.015471 0.076369
O O12 0.250000 0.901952 0.895574
O O13 0.369360 0.750000 0.905670
O O14 0.362124 0.966045 0.821904
O O15 0.250000 0.979090 0.737448
O O16 0.173292 0.750000 0.753020
O O17 0.592033 0.750000 0.631665
O O18 0.613079 0.998236 0.678170
O O19 0.750000 0.459928 0.713624
O O20 0.655402 0.250000 0.711808
O O21 0.639735 0.452995 0.798401
O O22 0.250000 0.899179 0.124771
O O23 0.130682 0.750000 0.113702
#
# Coordination Sequence:
#
# PCOD8243254 Si02
#       8
#     8   8   8   8   8   8   8   8
#     4  10  20  34  53  76  99 126 164 204 240 284
#     4  10  21  36  52  72 100 132 163 196 240 292
#     4   9  15  21  32  56  89 120 150 187 232 281
#     4   8  13  22  37  56  81 116 152 186 231 282
#     4   8  14  26  45  68  92 119 156 201 241 278
#     4  10  21  35  51  73 102 133 160 193 243 296
#     4   9  18  32  50  72  96 125 165 207 241 281
#     4   8  14  25  40  59  86 119 154 193 236 281
#
# _framework density 18.083867999999999
#
# number of rings (size 3 to 8) (size 9 to 14) (size 15 to 20)
#    0.000    3.000    0.000    3.000    0.000    4.500 
#    0.000    1.875    0.000    2.250    0.000    0.875 
#    0.000    0.000    0.000    0.000    0.000    0.000 
#
# Total GULP energy -793411.628095 kJ/mol
# GULP energy per Si atom -12397.056689 kJ/mol
# Density = 1.804271 g / cm^3
# Si number density = 18.083868 Si / 1000 Ang^3
#
#
#
# Elastic Constant Matrix: (Units=GPa)
#
#
# Indices 1 2 3 4 5 6 
#
# 1 38.7161 17.6892 23.5608 0.0000 0.0000 0.0000
# 2 17.6892 70.7417 57.2538 0.0000 0.0000 0.0000
# 3 23.5608 57.2538 136.1376 0.0000 0.0000 0.0000
# 4 0.0000 0.0000 0.0000 24.1369 0.0000 0.0000
# 5 0.0000 0.0000 0.0000 0.0000 -0.6164 0.0000
# 6 0.0000 0.0000 0.0000 0.0000 0.0000 16.3508
#
#
#
# Elastic Compliance Matrix: (Units=1/GPa)
#
#
# Indices 1 2 3 4 5 6 
#
# 1 0.029993 -0.005001 -0.003088 0.000000 0.000000 0.000000
# 2 -0.005001 0.022264 -0.008498 0.000000 0.000000 0.000000
# 3 -0.003088 -0.008498 0.011454 0.000000 0.000000 0.000000
# 4 0.000000 0.000000 0.000000 0.041430 0.000000 0.000000
# 5 0.000000 0.000000 0.000000 0.000000 -1.622415 0.000000
# 6 0.000000 0.000000 0.000000 0.000000 0.000000 0.061159
#
#
# Mechanical properties :
#
#
# Convention : Reuss Voigt Hill
#
# Bulk Modulus (GPa) = 32.74613 49.17811 40.96212
# Shear Modulus (GPa) = -3.53916 17.78037 7.12060
#
# Velocity S-wave (km/s) = -1.40048 3.13903 1.98648
# Velocity P-wave (km/s) = 3.94108 6.35543 5.28789
#
# Compressibility (1/GPa) = 0.03053796
#
# Stress axis : x y z
#
# Youngs Moduli (GPa) = 33.34117 44.91555 87.30814
#
# Poissons Ratio (x) = 0.22462 0.26957
# Poissons Ratio (y) = 0.16674 0.74193
# Poissons Ratio (z) = 0.10294 0.38168
#
# Static dielectric constant tensor:
#      x y z
#    x 3.008860 0.000000 0.000000 
#    y 0.000000 3.282630 0.000000 
#    z 0.000000 0.000000 3.663220 
# 
# 
# High freq. dielectric constant tensor:
#      x y z
#    x 1.657040 0.000000 0.000000 
#    y 0.000000 1.684430 0.000000 
#    z 0.000000 0.000000 1.717670 
# 
# From -- ./inp_files/28226.got.cif
#   From: 2010.03.12/outbox.cif.g09.slc.cpg/sg59_15_cif.got.tgz:28226.got - 2010.04.16 16:29:54.
