data_PCOD8243967
_publ_section_title
;
Structure prediction by ZEFSAII (Michael W. Deem and Ramdas Pophale) SiO2 
 PCOD8243967
Probable space group: P M M N
;
_chemical_formula_sum "Si O2"
_cell_formula_units_Z 48
_cell_length_a 8.941110
_cell_length_b 14.607048
_cell_length_c 19.658399
_cell_angle_alpha 90.000000
_cell_angle_beta 90.000000
_cell_angle_gamma 90.000000
_cell_volume 2567.450267
_symmetry_space_group_name_H-M "P M M N"
_symmetry_group_IT_number 59
_space_group.IT_coordinate_system_code '2'
_symmetry_cell_setting 'orthorhombic'
loop_
_space_group_symop_operation_xyz
x,y,z
1/2-x,1/2-y,z
1/2+x,-y,-z
-x,1/2+y,-z
-x,-y,-z
1/2+x,1/2+y,-z
1/2-x,y,z
x,1/2-y,z
loop_
_atom_site_type_symbol
_atom_site_label
_atom_site_fract_x
_atom_site_fract_y
_atom_site_fract_z
Si Si1 0.916803 0.250000 0.786762
Si Si2 0.928873 0.750000 0.475239
Si Si3 0.427398 0.250000 0.369353
Si Si4 0.916950 0.250000 0.947951
Si Si5 0.574591 0.930619 0.050240
Si Si6 0.076960 0.442077 0.311415
Si Si7 0.575709 0.062639 0.556388
Si Si8 0.425577 0.065553 0.793087
O O1 0.750000 0.250000 0.755084
O O2 0.909981 0.250000 0.867273
O O3 0.000816 0.341883 0.762600
O O4 0.750000 0.750000 0.469194
O O5 0.985217 0.750000 0.553222
O O6 0.994761 0.839460 0.438551
O O7 0.250000 0.250000 0.371820
O O8 0.485317 0.158570 0.331570
O O9 0.750000 0.250000 0.978923
O O10 0.009327 0.164849 0.974940
O O11 0.750000 0.931329 0.040014
O O12 0.530496 0.950452 0.128364
O O13 0.500000 0.000000 0.000000
O O14 0.250000 0.435774 0.290595
O O15 0.053180 0.512649 0.372330
O O16 0.983797 0.477026 0.246979
O O17 0.750000 0.075283 0.538708
O O18 0.500000 0.000000 0.500000
O O19 0.250000 0.076632 0.783890
#
# Coordination Sequence:
#
# PCOD8243967 Si02
#       8
#     4   4   4   4   8   8   8   8
#     4   9  17  32  56  80 106 144 183 219 272 337
#     4  11  21  38  60  84 116 149 186 236 286 332
#     4   9  18  37  59  79 105 146 189 226 271 329
#     4   9  17  31  53  81 109 141 182 227 277 334
#     4  10  20  35  56  82 113 149 189 233 279 334
#     4  10  21  38  59  80 110 149 189 230 278 338
#     4  11  22  37  58  85 112 144 187 233 279 333
#     4  10  21  36  55  83 116 146 183 233 283 329
#
# _framework density 18.695592000000001
#
# number of rings (size 3 to 8) (size 9 to 14) (size 15 to 20)
#    0.000    2.000    1.667    2.250    0.000    6.000 
#    0.000    2.083    0.000    4.000    0.000    0.000 
#    0.000    0.000    0.000    0.000    0.000    0.000 
#
# Total GULP energy -595244.645608 kJ/mol
# GULP energy per Si atom -12400.930117 kJ/mol
# Density = 1.865304 g / cm^3
# Si number density = 18.695592 Si / 1000 Ang^3
#
#
#
# Elastic Constant Matrix: (Units=GPa)
#
#
# Indices 1 2 3 4 5 6 
#
# 1 102.1087 61.7041 49.7948 0.0000 0.0000 0.0000
# 2 61.7041 171.4552 59.1978 0.0000 0.0000 0.0000
# 3 49.7948 59.1978 69.7770 0.0000 0.0000 0.0000
# 4 0.0000 0.0000 0.0000 31.3352 0.0000 0.0000
# 5 0.0000 0.0000 0.0000 0.0000 29.9578 0.0000
# 6 0.0000 0.0000 0.0000 0.0000 0.0000 37.9836
#
#
#
# Elastic Compliance Matrix: (Units=1/GPa)
#
#
# Indices 1 2 3 4 5 6 
#
# 1 0.015760 -0.002530 -0.009101 0.000000 0.000000 0.000000
# 2 -0.002530 0.008655 -0.005537 0.000000 0.000000 0.000000
# 3 -0.009101 -0.005537 0.025524 0.000000 0.000000 0.000000
# 4 0.000000 0.000000 0.000000 0.031913 0.000000 0.000000
# 5 0.000000 0.000000 0.000000 0.000000 0.033380 0.000000
# 6 0.000000 0.000000 0.000000 0.000000 0.000000 0.026327
#
#
# Mechanical properties :
#
#
# Convention : Reuss Voigt Hill
#
# Bulk Modulus (GPa) = 64.08967 76.08158 70.08563
# Shear Modulus (GPa) = 27.60972 31.36493 29.48732
#
# Velocity S-wave (km/s) = 3.84709 4.10037 3.97575
# Velocity P-wave (km/s) = 7.35449 7.94989 7.65798
#
# Compressibility (1/GPa) = 0.01560314
#
# Stress axis : x y z
#
# Youngs Moduli (GPa) = 63.45042 115.54499 39.17930
#
# Poissons Ratio (x) = 0.29229 0.35657
# Poissons Ratio (y) = 0.16051 0.21694
# Poissons Ratio (z) = 0.57745 0.63980
#
# Static dielectric constant tensor:
#      x y z
#    x 3.520240 0.000000 0.000000 
#    y 0.000000 3.770720 0.000000 
#    z 0.000000 0.000000 3.283260 
# 
# 
# High freq. dielectric constant tensor:
#      x y z
#    x 1.730710 0.000000 0.000000 
#    y 0.000000 1.737480 0.000000 
#    z 0.000000 0.000000 1.705510 
# 
# From -- ./inp_files/25640.got.cif
#   From: 2010.03.12/outbox.cif.g09.slc.cpg/sg59_13_cif.got.tgz:25640.got - 2010.04.16 16:29:54.
