data_PCOD8243279
_publ_section_title
;
Structure prediction by ZEFSAII (Michael W. Deem and Ramdas Pophale) SiO2 
 PCOD8243279
Probable space group: P M M N
;
_chemical_formula_sum "Si O2"
_cell_formula_units_Z 48
_cell_length_a 8.991674
_cell_length_b 9.159294
_cell_length_c 30.956171
_cell_angle_alpha 90.000000
_cell_angle_beta 90.000000
_cell_angle_gamma 90.000000
_cell_volume 2549.469315
_symmetry_space_group_name_H-M "P M M N"
_symmetry_group_IT_number 59
_space_group.IT_coordinate_system_code '2'
_symmetry_cell_setting 'orthorhombic'
loop_
_space_group_symop_operation_xyz
x,y,z
1/2-x,1/2-y,z
1/2+x,-y,-z
-x,1/2+y,-z
-x,-y,-z
1/2+x,1/2+y,-z
1/2-x,y,z
x,1/2-y,z
loop_
_atom_site_type_symbol
_atom_site_label
_atom_site_fract_x
_atom_site_fract_y
_atom_site_fract_z
Si Si1 0.921698 0.421336 0.039257
Si Si2 0.422544 0.919743 0.291453
Si Si3 0.426809 0.414769 0.375979
Si Si4 0.573847 0.418166 0.539538
Si Si5 0.422881 0.080275 0.126538
Si Si6 0.080265 0.077800 0.795870
O O1 0.750000 0.465500 0.040020
O O2 0.945899 0.250000 0.033402
O O3 0.994047 0.476251 0.083793
O O4 0.000000 0.500000 0.000000
O O5 0.250000 0.953281 0.282196
O O6 0.447233 0.750000 0.301793
O O7 0.516121 0.971713 0.250227
O O8 0.484371 0.010289 0.332127
O O9 0.250000 0.415495 0.376013
O O10 0.489119 0.250000 0.378767
O O11 0.485834 0.506740 0.416699
O O12 0.500000 0.500000 0.500000
O O13 0.750000 0.433074 0.535533
O O14 0.523570 0.250000 0.539807
O O15 0.250000 0.046760 0.120559
O O16 0.454786 0.250000 0.134285
O O17 0.482787 0.994381 0.167320
O O18 0.250000 0.024601 0.799514
O O19 0.066433 0.250000 0.801223
#
# Coordination Sequence:
#
# PCOD8243279 Si02
#       6
#     8   8   8   8   8   8
#     4  10  21  37  57  81 109 142 179 219 265 316
#     4   9  17  31  51  73  98 130 169 213 259 307
#     4   9  17  30  50  75 101 131 171 217 262 310
#     4  10  20  34  53  77 105 138 176 217 262 313
#     4  10  21  37  57  80 106 138 177 220 265 313
#     4  10  21  36  54  78 108 141 176 214 259 312
#
# _framework density 18.827445999999998
#
# number of rings (size 3 to 8) (size 9 to 14) (size 15 to 20)
#    0.000    2.333    0.000    2.500    0.000    7.333 
#    0.000    2.500    0.000    3.000    0.000    0.000 
#    0.000    0.000    0.000    0.000    0.000    0.000 
#
# Total GULP energy -595351.876763 kJ/mol
# GULP energy per Si atom -12403.164099 kJ/mol
# Density = 1.878459 g / cm^3
# Si number density = 18.827446 Si / 1000 Ang^3
#
#
#
# Elastic Constant Matrix: (Units=GPa)
#
#
# Indices 1 2 3 4 5 6 
#
# 1 70.8218 36.5087 55.7470 0.0000 0.0000 0.0000
# 2 36.5087 89.8583 76.1191 0.0000 0.0000 0.0000
# 3 55.7470 76.1191 178.7848 0.0000 0.0000 0.0000
# 4 0.0000 0.0000 0.0000 41.6953 0.0000 0.0000
# 5 0.0000 0.0000 0.0000 0.0000 35.8139 0.0000
# 6 0.0000 0.0000 0.0000 0.0000 0.0000 25.1479
#
#
#
# Elastic Compliance Matrix: (Units=1/GPa)
#
#
# Indices 1 2 3 4 5 6 
#
# 1 0.019763 -0.004394 -0.004291 0.000000 0.000000 0.000000
# 2 -0.004394 0.018384 -0.006457 0.000000 0.000000 0.000000
# 3 -0.004291 -0.006457 0.009680 0.000000 0.000000 0.000000
# 4 0.000000 0.000000 0.000000 0.023983 0.000000 0.000000
# 5 0.000000 0.000000 0.000000 0.000000 0.027922 0.000000
# 6 0.000000 0.000000 0.000000 0.000000 0.000000 0.039765
#
#
# Mechanical properties :
#
#
# Convention : Reuss Voigt Hill
#
# Bulk Modulus (GPa) = 57.00558 75.13493 66.07026
# Shear Modulus (GPa) = 28.46895 31.93745 30.20320
#
# Velocity S-wave (km/s) = 3.89279 4.12311 4.00961
# Velocity P-wave (km/s) = 7.10976 7.91584 7.52360
#
# Compressibility (1/GPa) = 0.01754214
#
# Stress axis : x y z
#
# Youngs Moduli (GPa) = 50.59902 54.39652 103.30100
#
# Poissons Ratio (x) = 0.23904 0.44331
# Poissons Ratio (y) = 0.22235 0.66699
# Poissons Ratio (z) = 0.21714 0.35122
#
# Static dielectric constant tensor:
#      x y z
#    x 3.195890 0.000000 0.000000 
#    y 0.000000 3.484010 0.000000 
#    z 0.000000 0.000000 3.620560 
# 
# 
# High freq. dielectric constant tensor:
#      x y z
#    x 1.717510 0.000000 0.000000 
#    y 0.000000 1.729980 0.000000 
#    z 0.000000 0.000000 1.748260 
# 
# From -- ./inp_files/32813.got.cif
#   From: 2010.03.12/outbox.cif.g09.slc.cpg/sg59_17_cif.got.tgz:32813.got - 2010.04.16 16:29:54.
