data_PCOD8243798
_publ_section_title
;
Structure prediction by ZEFSAII (Michael W. Deem and Ramdas Pophale) SiO2 
 PCOD8243798
Probable space group: P M M N
;
_chemical_formula_sum "Si O2"
_cell_formula_units_Z 56
_cell_length_a 8.946736
_cell_length_b 22.620125
_cell_length_c 14.813399
_cell_angle_alpha 90.000000
_cell_angle_beta 90.000000
_cell_angle_gamma 90.000000
_cell_volume 2997.880682
_symmetry_space_group_name_H-M "P M M N"
_symmetry_group_IT_number 59
_space_group.IT_coordinate_system_code '2'
_symmetry_cell_setting 'orthorhombic'
loop_
_space_group_symop_operation_xyz
x,y,z
1/2-x,1/2-y,z
1/2+x,-y,-z
-x,1/2+y,-z
-x,-y,-z
1/2+x,1/2+y,-z
1/2-x,y,z
x,1/2-y,z
loop_
_atom_site_type_symbol
_atom_site_label
_atom_site_fract_x
_atom_site_fract_y
_atom_site_fract_z
Si Si1 0.927650 0.913363 0.711779
Si Si2 0.424620 0.927191 0.086677
Si Si3 0.078184 0.490871 0.595097
Si Si4 0.579497 0.645811 0.380140
Si Si5 0.574261 0.184191 0.799231
Si Si6 0.424057 0.951285 0.882339
Si Si7 0.427281 0.184079 0.426119
O O1 0.750000 0.915017 0.714948
O O2 0.988974 0.859035 0.651611
O O3 0.989361 0.973602 0.670392
O O4 0.992829 0.907752 0.812520
O O5 0.250000 0.937630 0.106070
O O6 0.484547 0.866318 0.131777
O O7 0.513595 0.982314 0.127829
O O8 0.456251 0.923479 0.980074
O O9 0.250000 0.511561 0.587671
O O10 0.067263 0.424091 0.627661
O O11 0.000000 0.500000 0.500000
O O12 0.750000 0.667407 0.373128
O O13 0.490346 0.676271 0.300228
O O14 0.508773 0.666080 0.475873
O O15 0.750000 0.178205 0.790968
O O16 0.529956 0.250000 0.834892
O O17 0.250000 0.953506 0.859353
O O18 0.250000 0.177983 0.430016
O O19 0.479297 0.250000 0.401293
#
# Coordination Sequence:
#
# PCOD8243798 Si02
#       7
#     8   8   8   8   8   8   8
#     4  11  21  35  54  79 109 143 179 218 268 318
#     4   9  19  37  58  79 107 141 175 217 272 329
#     4  11  21  34  53  80 110 141 178 222 270 317
#     4  10  20  35  54  77 105 141 182 218 262 317
#     4  10  21  36  54  79 109 142 180 221 269 324
#     4  10  20  35  57  84 108 136 177 223 273 325
#     4   9  18  34  53  71  98 140 185 220 254 307
#
# _framework density 18.679862
#
# number of rings (size 3 to 8) (size 9 to 14) (size 15 to 20)
#    0.000    2.000    1.429    2.571    0.000    5.429 
#    0.000    0.714    0.000    3.429    0.000    0.000 
#    0.000    0.000    0.000    0.000    0.000    0.000 
#
# Total GULP energy -694447.642353 kJ/mol
# GULP energy per Si atom -12400.850756 kJ/mol
# Density = 1.863735 g / cm^3
# Si number density = 18.679862 Si / 1000 Ang^3
#
#
#
# Elastic Constant Matrix: (Units=GPa)
#
#
# Indices 1 2 3 4 5 6 
#
# 1 51.3617 34.0743 39.4855 0.0000 0.0000 0.0000
# 2 34.0743 125.0496 71.7662 0.0000 0.0000 0.0000
# 3 39.4855 71.7662 128.8214 0.0000 0.0000 0.0000
# 4 0.0000 0.0000 0.0000 24.4165 0.0000 0.0000
# 5 0.0000 0.0000 0.0000 0.0000 34.2214 0.0000
# 6 0.0000 0.0000 0.0000 0.0000 0.0000 21.1008
#
#
#
# Elastic Compliance Matrix: (Units=1/GPa)
#
#
# Indices 1 2 3 4 5 6 
#
# 1 0.026635 -0.003781 -0.006057 0.000000 0.000000 0.000000
# 2 -0.003781 0.012292 -0.005689 0.000000 0.000000 0.000000
# 3 -0.006057 -0.005689 0.012789 0.000000 0.000000 0.000000
# 4 0.000000 0.000000 0.000000 0.040956 0.000000 0.000000
# 5 0.000000 0.000000 0.000000 0.000000 0.029221 0.000000
# 6 0.000000 0.000000 0.000000 0.000000 0.000000 0.047392
#
#
# Mechanical properties :
#
#
# Convention : Reuss Voigt Hill
#
# Bulk Modulus (GPa) = 48.40143 66.20941 57.30542
# Shear Modulus (GPa) = 24.12814 26.60819 25.36817
#
# Velocity S-wave (km/s) = 3.59787 3.77826 3.68917
# Velocity P-wave (km/s) = 6.57471 7.38613 6.99220
#
# Compressibility (1/GPa) = 0.02066055
#
# Stress axis : x y z
#
# Youngs Moduli (GPa) = 37.54435 81.35365 78.19456
#
# Poissons Ratio (x) = 0.30762 0.47366
# Poissons Ratio (y) = 0.14197 0.44484
# Poissons Ratio (z) = 0.22742 0.46281
#
# Static dielectric constant tensor:
#      x y z
#    x 3.349440 0.000000 0.000000 
#    y 0.000000 3.621710 0.000000 
#    z 0.000000 0.000000 3.356470 
# 
# 
# High freq. dielectric constant tensor:
#      x y z
#    x 1.712770 0.000000 0.000000 
#    y 0.000000 1.723200 0.000000 
#    z 0.000000 0.000000 1.730520 
# 
# From -- ./inp_files/20964.got.cif
#   From: 2010.03.12/outbox.cif.g09.slc.cpg/sg59_11_cif.got.tgz:20964.got - 2010.04.16 16:29:54.
