data_PCOD8243698
_publ_section_title
;
Structure prediction by ZEFSAII (Michael W. Deem and Ramdas Pophale) SiO2 
 PCOD8243698
Probable space group: P M M N
;
_chemical_formula_sum "Si O2"
_cell_formula_units_Z 56
_cell_length_a 15.183051
_cell_length_b 8.944213
_cell_length_c 20.826771
_cell_angle_alpha 90.000000
_cell_angle_beta 90.000000
_cell_angle_gamma 90.000000
_cell_volume 2828.284710
_symmetry_space_group_name_H-M "P M M N"
_symmetry_group_IT_number 59
_space_group.IT_coordinate_system_code '2'
_symmetry_cell_setting 'orthorhombic'
loop_
_space_group_symop_operation_xyz
x,y,z
1/2-x,1/2-y,z
1/2+x,-y,-z
-x,1/2+y,-z
-x,-y,-z
1/2+x,1/2+y,-z
1/2-x,y,z
x,1/2-y,z
loop_
_atom_site_type_symbol
_atom_site_label
_atom_site_fract_x
_atom_site_fract_y
_atom_site_fract_z
Si Si1 0.146907 0.573450 0.989791
Si Si2 0.521854 0.925278 0.909471
Si Si3 0.012531 0.577704 0.222712
Si Si4 0.413419 0.925621 0.583887
Si Si5 0.918765 0.076652 0.643381
Si Si6 0.153156 0.416246 0.462866
Si Si7 0.154229 0.080277 0.699700
O O1 0.250000 0.518409 0.978685
O O2 0.148863 0.750000 0.999361
O O3 0.102367 0.502130 0.052583
O O4 0.077984 0.529181 0.932374
O O5 0.534919 0.750000 0.917165
O O6 0.535960 0.972492 0.836242
O O7 0.009858 0.750000 0.199850
O O8 0.085007 0.554830 0.279431
O O9 0.917795 0.523462 0.249495
O O10 0.403644 0.750000 0.577127
O O11 0.505655 0.974852 0.612782
O O12 0.406019 0.996203 0.513616
O O13 0.341134 0.984688 0.634521
O O14 0.933304 0.250000 0.627391
O O15 0.836447 0.008266 0.604824
O O16 0.250000 0.404024 0.492368
O O17 0.113664 0.250000 0.451679
O O18 0.250000 0.071225 0.733014
O O19 0.128721 0.250000 0.680380
#
# Coordination Sequence:
#
# PCOD8243698 Si02
#       7
#     8   8   8   8   8   8   8
#     4   9  19  37  59  83 114 150 184 219 263 314
#     4  10  20  34  56  86 116 145 181 226 268 310
#     4   9  19  35  54  76 105 144 180 211 258 316
#     4  11  21  33  52  76 102 133 171 215 266 323
#     4  10  21  38  57  75  99 133 175 217 257 310
#     4  11  23  37  53  74 101 131 166 215 272 321
#     4   9  18  33  51  73 104 140 179 222 267 318
#
# _framework density 19.799987000000002
#
# number of rings (size 3 to 8) (size 9 to 14) (size 15 to 20)
#    0.000    2.143    0.000    4.286    0.000    7.429 
#    0.000    0.714    0.000    0.857    0.000    0.000 
#    0.000    0.000    0.000    0.000    0.000    0.000 
#
# Total GULP energy -693822.012024 kJ/mol
# GULP energy per Si atom -12389.678786 kJ/mol
# Density = 1.975492 g / cm^3
# Si number density = 19.799987 Si / 1000 Ang^3
#
#
#
# Elastic Constant Matrix: (Units=GPa)
#
#
# Indices 1 2 3 4 5 6 
#
# 1 72.1479 17.8517 19.9284 0.0000 0.0000 0.0000
# 2 17.8517 77.2263 40.2553 0.0000 0.0000 0.0000
# 3 19.9284 40.2553 113.4253 0.0000 0.0000 0.0000
# 4 0.0000 0.0000 0.0000 32.9855 0.0000 0.0000
# 5 0.0000 0.0000 0.0000 0.0000 19.1272 0.0000
# 6 0.0000 0.0000 0.0000 0.0000 0.0000 23.2795
#
#
#
# Elastic Compliance Matrix: (Units=1/GPa)
#
#
# Indices 1 2 3 4 5 6 
#
# 1 0.014970 -0.002564 -0.001720 0.000000 0.000000 0.000000
# 2 -0.002564 0.016327 -0.005344 0.000000 0.000000 0.000000
# 3 -0.001720 -0.005344 0.011015 0.000000 0.000000 0.000000
# 4 0.000000 0.000000 0.000000 0.030316 0.000000 0.000000
# 5 0.000000 0.000000 0.000000 0.000000 0.052282 0.000000
# 6 0.000000 0.000000 0.000000 0.000000 0.000000 0.042956
#
#
# Mechanical properties :
#
#
# Convention : Reuss Voigt Hill
#
# Bulk Modulus (GPa) = 43.37246 46.54114 44.95680
# Shear Modulus (GPa) = 25.66620 27.39604 26.53112
#
# Velocity S-wave (km/s) = 3.60429 3.72377 3.66451
# Velocity P-wave (km/s) = 6.26690 6.48423 6.37649
#
# Compressibility (1/GPa) = 0.02305611
#
# Stress axis : x y z
#
# Youngs Moduli (GPa) = 66.80057 61.24700 90.78267
#
# Poissons Ratio (x) = 0.15702 0.15617
# Poissons Ratio (y) = 0.17126 0.48516
# Poissons Ratio (z) = 0.11492 0.32732
#
# Static dielectric constant tensor:
#      x y z
#    x 3.900360 0.000000 0.000000 
#    y 0.000000 3.688130 0.000000 
#    z 0.000000 0.000000 3.628170 
# 
# 
# High freq. dielectric constant tensor:
#      x y z
#    x 1.766770 0.000000 0.000000 
#    y 0.000000 1.773290 0.000000 
#    z 0.000000 0.000000 1.760310 
# 
# From -- ./inp_files/30332.got.cif
#   From: 2010.03.12/outbox.cif.g09.slc.cpg/sg59_16_cif.got.tgz:30332.got - 2010.04.16 16:29:54.
