data_PCOD8243284
_publ_section_title
;
Structure prediction by ZEFSAII (Michael W. Deem and Ramdas Pophale) SiO2 
 PCOD8243284
Probable space group: P M M N
;
_chemical_formula_sum "Si O2"
_cell_formula_units_Z 56
_cell_length_a 8.903293
_cell_length_b 19.349171
_cell_length_c 16.445874
_cell_angle_alpha 90.000000
_cell_angle_beta 90.000000
_cell_angle_gamma 90.000000
_cell_volume 2833.152730
_symmetry_space_group_name_H-M "P M M N"
_symmetry_group_IT_number 59
_space_group.IT_coordinate_system_code '2'
_symmetry_cell_setting 'orthorhombic'
loop_
_space_group_symop_operation_xyz
x,y,z
1/2-x,1/2-y,z
1/2+x,-y,-z
-x,1/2+y,-z
-x,-y,-z
1/2+x,1/2+y,-z
1/2-x,y,z
x,1/2-y,z
loop_
_atom_site_type_symbol
_atom_site_label
_atom_site_fract_x
_atom_site_fract_y
_atom_site_fract_z
Si Si1 0.924862 0.330571 0.981414
Si Si2 0.575096 0.670695 0.470617
Si Si3 0.072307 0.456242 0.248742
Si Si4 0.427146 0.902135 0.326459
Si Si5 0.928657 0.826109 0.655293
Si Si6 0.082840 0.168679 0.819183
Si Si7 0.572099 0.550483 0.934324
O O1 0.750000 0.348223 0.987001
O O2 0.957615 0.250000 0.994697
O O3 0.982422 0.358046 0.894115
O O4 0.015770 0.371455 0.050341
O O5 0.750000 0.653614 0.459164
O O6 0.542945 0.750000 0.445203
O O7 0.479671 0.617647 0.416526
O O8 0.522298 0.658071 0.562932
O O9 0.250000 0.449210 0.248887
O O10 0.021041 0.520018 0.305026
O O11 0.003388 0.385265 0.285827
O O12 0.016838 0.469096 0.156524
O O13 0.250000 0.893731 0.318839
O O14 0.504639 0.849935 0.264621
O O15 0.750000 0.825406 0.658839
O O16 0.989037 0.750000 0.681921
O O17 0.250000 0.136046 0.824567
O O18 0.094999 0.250000 0.823709
O O19 0.750000 0.546616 0.942298
O O20 0.500000 0.500000 0.000000
#
# Coordination Sequence:
#
# PCOD8243284 Si02
#       7
#     8   8   8   8   8   8   8
#     4  10  21  37  56  79 109 142 177 223 280 337
#     4   9  18  33  54  79 105 136 176 218 258 307
#     4   9  20  35  51  77 107 135 174 223 269 314
#     4  11  21  32  49  76 112 146 174 211 264 323
#     4   8  15  32  57  79 101 133 174 221 269 312
#     4  10  20  34  53  77 105 139 183 229 266 310
#     4  11  22  37  58  81 109 145 186 232 279 330
#
# _framework density 19.765965999999999
#
# number of rings (size 3 to 8) (size 9 to 14) (size 15 to 20)
#    0.000    2.286    0.000    3.857    0.000    6.000 
#    0.000    3.571    0.000    2.571    0.000    0.000 
#    0.000    0.000    0.000    0.000    0.000    0.000 
#
# Total GULP energy -694365.190622 kJ/mol
# GULP energy per Si atom -12399.378404 kJ/mol
# Density = 1.972098 g / cm^3
# Si number density = 19.765966 Si / 1000 Ang^3
#
#
#
# Elastic Constant Matrix: (Units=GPa)
#
#
# Indices 1 2 3 4 5 6 
#
# 1 71.7679 39.4809 34.3558 0.0000 0.0000 0.0000
# 2 39.4809 95.9966 73.8403 0.0000 0.0000 0.0000
# 3 34.3558 73.8403 119.6787 0.0000 0.0000 0.0000
# 4 0.0000 0.0000 0.0000 36.3139 0.0000 0.0000
# 5 0.0000 0.0000 0.0000 0.0000 25.5632 0.0000
# 6 0.0000 0.0000 0.0000 0.0000 0.0000 26.7704
#
#
#
# Elastic Compliance Matrix: (Units=1/GPa)
#
#
# Indices 1 2 3 4 5 6 
#
# 1 0.018091 -0.006558 -0.001147 0.000000 0.000000 0.000000
# 2 -0.006558 0.022204 -0.011817 0.000000 0.000000 0.000000
# 3 -0.001147 -0.011817 0.015976 0.000000 0.000000 0.000000
# 4 0.000000 0.000000 0.000000 0.027538 0.000000 0.000000
# 5 0.000000 0.000000 0.000000 0.000000 0.039119 0.000000
# 6 0.000000 0.000000 0.000000 0.000000 0.000000 0.037355
#
#
# Mechanical properties :
#
#
# Convention : Reuss Voigt Hill
#
# Bulk Modulus (GPa) = 58.05017 64.75523 61.40270
# Shear Modulus (GPa) = 24.38233 27.04725 25.71479
#
# Velocity S-wave (km/s) = 3.51601 3.70317 3.61080
# Velocity P-wave (km/s) = 6.77610 7.14959 6.96535
#
# Compressibility (1/GPa) = 0.01722648
#
# Stress axis : x y z
#
# Youngs Moduli (GPa) = 55.27760 45.03784 62.59458
#
# Poissons Ratio (x) = 0.29535 0.07180
# Poissons Ratio (y) = 0.36250 0.73967
# Poissons Ratio (z) = 0.06341 0.53220
#
# Static dielectric constant tensor:
#      x y z
#    x 3.416820 0.000000 0.000000 
#    y 0.000000 3.790940 0.000000 
#    z 0.000000 0.000000 3.738380 
# 
# 
# High freq. dielectric constant tensor:
#      x y z
#    x 1.746140 0.000000 0.000000 
#    y 0.000000 1.775870 0.000000 
#    z 0.000000 0.000000 1.771310 
# 
# From -- ./inp_files/20953.got.cif
#   From: 2010.03.12/outbox.cif.g09.slc.cpg/sg59_11_cif.got.tgz:20953.got - 2010.04.16 16:29:54.
