data_PCOD8243298
_publ_section_title
;
Structure prediction by ZEFSAII (Michael W. Deem and Ramdas Pophale) SiO2 
 PCOD8243298
Probable space group: P M M N
;
_chemical_formula_sum "Si O2"
_cell_formula_units_Z 40
_cell_length_a 9.021596
_cell_length_b 26.141272
_cell_length_c 9.158284
_cell_angle_alpha 90.000000
_cell_angle_beta 90.000000
_cell_angle_gamma 90.000000
_cell_volume 2159.853019
_symmetry_space_group_name_H-M "P M M N"
_symmetry_group_IT_number 59
_space_group.IT_coordinate_system_code '2'
_symmetry_cell_setting 'orthorhombic'
loop_
_space_group_symop_operation_xyz
x,y,z
1/2-x,1/2-y,z
1/2+x,-y,-z
-x,1/2+y,-z
-x,-y,-z
1/2+x,1/2+y,-z
1/2-x,y,z
x,1/2-y,z
loop_
_atom_site_type_symbol
_atom_site_label
_atom_site_fract_x
_atom_site_fract_y
_atom_site_fract_z
Si Si1 0.916703 0.337988 0.835965
Si Si2 0.919335 0.448826 0.867281
Si Si3 0.424001 0.250000 0.670541
Si Si4 0.925911 0.750000 0.659949
Si Si5 0.078836 0.657353 0.819244
Si Si6 0.580924 0.941776 0.836675
O O1 0.750000 0.318846 0.806381
O O2 0.940027 0.396150 0.775732
O O3 0.026265 0.300885 0.752888
O O4 0.949790 0.337001 0.008574
O O5 0.750000 0.448388 0.932444
O O6 0.941049 0.500543 0.769153
O O7 0.041708 0.448450 0.993434
O O8 0.250000 0.250000 0.669855
O O9 0.484987 0.250000 0.505953
O O10 0.750000 0.750000 0.669114
O O11 0.985722 0.699886 0.737908
O O12 0.250000 0.663579 0.778124
O O13 0.023168 0.601405 0.764245
O O14 0.750000 0.923367 0.820430
#
# Coordination Sequence:
#
# PCOD8243298 Si02
#       6
#     8   8   4   4   8   8
#     4   9  18  33  53  76 102 131 164 202 243 292
#     4   8  15  27  44  71 104 133 164 202 243 291
#     4  11  24  37  50  72 100 129 166 211 254 298
#     4  11  24  39  52  70  98 131 168 211 256 298
#     4  10  20  34  53  78 104 131 167 207 246 296
#     4   9  15  25  45  73 104 134 161 198 248 293
#
# _framework density 18.519779
#
# number of rings (size 3 to 8) (size 9 to 14) (size 15 to 20)
#    0.000    2.600    0.000    3.600    0.000    8.800 
#    0.000    0.000    0.000    1.200    0.000    0.000 
#    0.000    0.000    0.000    0.000    0.000    0.000 
#
# Total GULP energy -495645.525993 kJ/mol
# GULP energy per Si atom -12391.138150 kJ/mol
# Density = 1.847763 g / cm^3
# Si number density = 18.519779 Si / 1000 Ang^3
#
#
#
# Elastic Constant Matrix: (Units=GPa)
#
#
# Indices 1 2 3 4 5 6 
#
# 1 69.8016 46.4798 25.4879 0.0000 0.0000 0.0000
# 2 46.4798 171.8913 41.9444 0.0000 0.0000 0.0000
# 3 25.4879 41.9444 41.9365 0.0000 0.0000 0.0000
# 4 0.0000 0.0000 0.0000 -7.1829 0.0000 0.0000
# 5 0.0000 0.0000 0.0000 0.0000 17.1855 0.0000
# 6 0.0000 0.0000 0.0000 0.0000 0.0000 34.6158
#
#
#
# Elastic Compliance Matrix: (Units=1/GPa)
#
#
# Indices 1 2 3 4 5 6 
#
# 1 0.019638 -0.003172 -0.008763 0.000000 0.000000 0.000000
# 2 -0.003172 0.008208 -0.006282 0.000000 0.000000 0.000000
# 3 -0.008763 -0.006282 0.035455 0.000000 0.000000 0.000000
# 4 0.000000 0.000000 0.000000 -0.139220 0.000000 0.000000
# 5 0.000000 0.000000 0.000000 0.000000 0.058188 0.000000
# 6 0.000000 0.000000 0.000000 0.000000 0.000000 0.028889
#
#
# Mechanical properties :
#
#
# Convention : Reuss Voigt Hill
#
# Bulk Modulus (GPa) = 37.22006 56.82818 47.02412
# Shear Modulus (GPa) = 88.42111 20.23819 54.32965
#
# Velocity S-wave (km/s) = 6.91721 3.30932 5.42215
# Velocity P-wave (km/s) = 9.16178 6.73453 8.04027
#
# Compressibility (1/GPa) = 0.02686723
#
# Stress axis : x y z
#
# Youngs Moduli (GPa) = 50.92098 121.82905 28.20495
#
# Poissons Ratio (x) = 0.38643 0.24716
# Poissons Ratio (y) = 0.16152 0.17718
# Poissons Ratio (z) = 0.44623 0.76533
#
# Static dielectric constant tensor:
#      x y z
#    x 3.454120 0.000000 0.000000 
#    y 0.000000 3.991150 0.000000 
#    z 0.000000 0.000000 2.901640 
# 
# 
# High freq. dielectric constant tensor:
#      x y z
#    x 1.728230 0.000000 0.000000 
#    y 0.000000 1.752670 0.000000 
#    z 0.000000 0.000000 1.644860 
# 
# From -- ./inp_files/5913.got.cif
#   From: 2010.03.12/outbox.cif.g09.slc.cpg/sg59_3_cif.got.tgz:5913.got - 2010.04.16 16:29:54.
