data_PCOD8243951
_publ_section_title
;
Structure prediction by ZEFSAII (Michael W. Deem and Ramdas Pophale) SiO2 
 PCOD8243951
Probable space group: P M M N
;
_chemical_formula_sum "Si O2"
_cell_formula_units_Z 64
_cell_length_a 9.005851
_cell_length_b 28.712830
_cell_length_c 12.518468
_cell_angle_alpha 90.000000
_cell_angle_beta 90.000000
_cell_angle_gamma 90.000000
_cell_volume 3237.068879
_symmetry_space_group_name_H-M "P M M N"
_symmetry_group_IT_number 59
_space_group.IT_coordinate_system_code '2'
_symmetry_cell_setting 'orthorhombic'
loop_
_space_group_symop_operation_xyz
x,y,z
1/2-x,1/2-y,z
1/2+x,-y,-z
-x,1/2+y,-z
-x,-y,-z
1/2+x,1/2+y,-z
1/2-x,y,z
x,1/2-y,z
loop_
_atom_site_type_symbol
_atom_site_label
_atom_site_fract_x
_atom_site_fract_y
_atom_site_fract_z
Si Si1 0.075758 0.303648 0.417226
Si Si2 0.421453 0.802747 0.998580
Si Si3 0.577728 0.148722 0.218877
Si Si4 0.573340 0.980229 0.106279
Si Si5 0.582049 0.547294 0.517612
Si Si6 0.580253 0.943679 0.764603
Si Si7 0.574475 0.625346 0.153458
Si Si8 0.925946 0.634110 0.391021
O O1 0.250000 0.311841 0.396515
O O2 0.031156 0.250000 0.412730
O O3 0.029189 0.322124 0.534869
O O4 0.986747 0.331052 0.327725
O O5 0.250000 0.808617 0.029035
O O6 0.475817 0.750000 0.019210
O O7 0.513719 0.837739 0.070365
O O8 0.447402 0.813715 0.874125
O O9 0.750000 0.137041 0.235983
O O10 0.494509 0.101574 0.182144
O O11 0.750000 0.985387 0.100961
O O12 0.524152 0.926762 0.122285
O O13 0.510035 0.009916 0.205086
O O14 0.500000 0.000000 0.000000
O O15 0.500000 0.500000 0.500000
O O16 0.750000 0.538721 0.482433
O O17 0.571846 0.564111 0.638752
O O18 0.508447 0.587174 0.444316
O O19 0.750000 0.947926 0.805318
O O20 0.750000 0.628904 0.152243
O O21 0.511013 0.638793 0.271006
O O22 0.750000 0.629462 0.386942
#
# Coordination Sequence:
#
# PCOD8243951 Si02
#       8
#     8   8   8   8   8   8   8   8
#     4  10  20  36  60  87 117 154 194 241 301 365
#     4  10  23  42  61  83 115 154 194 244 308 365
#     4  11  22  38  61  87 119 157 199 251 306 363
#     4  11  23  39  59  87 122 161 205 253 304 358
#     4  10  20  35  56  81 115 154 193 238 288 348
#     4  11  22  37  59  87 120 158 200 246 299 360
#     4  10  22  39  62  88 117 154 200 249 292 352
#     4   9  18  37  58  82 117 153 189 237 294 349
#
# _framework density 19.770972
#
# number of rings (size 3 to 8) (size 9 to 14) (size 15 to 20)
#    0.000    1.750    1.250    3.000    0.000    7.500 
#    0.000    2.500    0.000    0.000    0.000    0.000 
#    0.000    0.000    0.000    0.000    0.000    0.000 
#
# Total GULP energy -793718.040145 kJ/mol
# GULP energy per Si atom -12401.844377 kJ/mol
# Density = 1.972597 g / cm^3
# Si number density = 19.770972 Si / 1000 Ang^3
#
#
#
# Elastic Constant Matrix: (Units=GPa)
#
#
# Indices 1 2 3 4 5 6 
#
# 1 63.2222 48.4524 34.1078 0.0000 0.0000 0.0000
# 2 48.4524 148.6820 47.7514 0.0000 0.0000 0.0000
# 3 34.1078 47.7514 107.7320 0.0000 0.0000 0.0000
# 4 0.0000 0.0000 0.0000 36.6229 0.0000 0.0000
# 5 0.0000 0.0000 0.0000 0.0000 25.6676 0.0000
# 6 0.0000 0.0000 0.0000 0.0000 0.0000 32.0882
#
#
#
# Elastic Compliance Matrix: (Units=1/GPa)
#
#
# Indices 1 2 3 4 5 6 
#
# 1 0.022878 -0.005981 -0.004592 0.000000 0.000000 0.000000
# 2 -0.005981 0.009406 -0.002275 0.000000 0.000000 0.000000
# 3 -0.004592 -0.002275 0.011745 0.000000 0.000000 0.000000
# 4 0.000000 0.000000 0.000000 0.027305 0.000000 0.000000
# 5 0.000000 0.000000 0.000000 0.000000 0.038960 0.000000
# 6 0.000000 0.000000 0.000000 0.000000 0.000000 0.031164
#
#
# Mechanical properties :
#
#
# Convention : Reuss Voigt Hill
#
# Bulk Modulus (GPa) = 54.55044 64.47326 59.51185
# Shear Modulus (GPa) = 28.85753 31.49738 30.17745
#
# Velocity S-wave (km/s) = 3.82460 3.99571 3.91109
# Velocity P-wave (km/s) = 6.86692 7.34632 7.11066
#
# Compressibility (1/GPa) = 0.01833166
#
# Stress axis : x y z
#
# Youngs Moduli (GPa) = 43.70975 106.32047 85.14409
#
# Poissons Ratio (x) = 0.63586 0.39101
# Poissons Ratio (y) = 0.26141 0.19374
# Poissons Ratio (z) = 0.20073 0.24193
#
# Static dielectric constant tensor:
#      x y z
#    x 3.569470 0.000000 0.000000 
#    y 0.000000 3.603270 0.000000 
#    z 0.000000 0.000000 2.808160 
# 
# 
# High freq. dielectric constant tensor:
#      x y z
#    x 1.754150 0.000000 0.000000 
#    y 0.000000 1.782980 0.000000 
#    z 0.000000 0.000000 1.779640 
# 
# From -- ./inp_files/14880.got.cif
#   From: 2010.03.12/outbox.cif.g09.slc.cpg/sg59_8_cif.got.tgz:14880.got - 2010.04.16 16:29:54.
