data_PCOD8243788
_publ_section_title
;
Structure prediction by ZEFSAII (Michael W. Deem and Ramdas Pophale) SiO2 
 PCOD8243788
Probable space group: P M M N
;
_chemical_formula_sum "Si O2"
_cell_formula_units_Z 64
_cell_length_a 31.126886
_cell_length_b 9.051096
_cell_length_c 12.099296
_cell_angle_alpha 90.000000
_cell_angle_beta 90.000000
_cell_angle_gamma 90.000000
_cell_volume 3408.764104
_symmetry_space_group_name_H-M "P M M N"
_symmetry_group_IT_number 59
_space_group.IT_coordinate_system_code '2'
_symmetry_cell_setting 'orthorhombic'
loop_
_space_group_symop_operation_xyz
x,y,z
1/2-x,1/2-y,z
1/2+x,-y,-z
-x,1/2+y,-z
-x,-y,-z
1/2+x,1/2+y,-z
1/2-x,y,z
x,1/2-y,z
loop_
_atom_site_type_symbol
_atom_site_label
_atom_site_fract_x
_atom_site_fract_y
_atom_site_fract_z
Si Si1 0.546247 0.577604 0.495653
Si Si2 0.378669 0.924666 0.367903
Si Si3 0.369173 0.425271 0.904354
Si Si4 0.298729 0.078317 0.739510
Si Si5 0.612006 0.582153 0.855318
Si Si6 0.488479 0.083835 0.111004
Si Si7 0.946608 0.920379 0.244870
Si Si8 0.298477 0.576548 0.514787
O O1 0.500000 0.500000 0.500000
O O2 0.540909 0.750000 0.526982
O O3 0.580118 0.504262 0.578883
O O4 0.565570 0.558344 0.372840
O O5 0.386443 0.750000 0.374077
O O6 0.333866 0.971798 0.425346
O O7 0.372683 0.975633 0.242073
O O8 0.373065 0.250000 0.908186
O O9 0.326034 0.478731 0.843715
O O10 0.409113 0.486130 0.832803
O O11 0.368732 0.483653 0.030108
O O12 0.250000 0.044097 0.770931
O O13 0.307336 0.250000 0.716976
O O14 0.312951 0.994839 0.629615
O O15 0.627914 0.750000 0.832947
O O16 0.561353 0.579106 0.866047
O O17 0.505258 0.250000 0.098309
O O18 0.510276 0.009423 0.217511
O O19 0.500000 0.000000 0.000000
O O20 0.955432 0.750000 0.217580
O O21 0.250000 0.523655 0.480518
O O22 0.298733 0.750000 0.532033
#
# Coordination Sequence:
#
# PCOD8243788 Si02
#       8
#     8   8   8   8   8   8   8   8
#     4  11  23  38  58  82 113 149 186 229 279 335
#     4  11  23  38  57  81 112 148 191 237 283 336
#     4   9  17  33  53  75 105 136 170 214 267 319
#     4   9  17  31  56  86 110 135 172 220 273 331
#     4  10  21  37  55  74 105 147 185 224 273 326
#     4  11  21  34  53  76 104 140 180 222 265 315
#     4  10  20  35  54  76 102 137 178 219 266 317
#     4   9  19  37  59  82 111 146 182 226 282 338
#
# _framework density 18.775133
#
# number of rings (size 3 to 8) (size 9 to 14) (size 15 to 20)
#    0.000    2.000    1.250    2.625    0.000    6.000 
#    0.000    1.875    0.000    0.750    0.000    0.000 
#    0.000    0.000    0.000    0.000    0.000    0.000 
#
# Total GULP energy -793601.437328 kJ/mol
# GULP energy per Si atom -12400.022458 kJ/mol
# Density = 1.873240 g / cm^3
# Si number density = 18.775133 Si / 1000 Ang^3
#
#
#
# Elastic Constant Matrix: (Units=GPa)
#
#
# Indices 1 2 3 4 5 6 
#
# 1 101.9096 41.0107 68.6780 0.0000 0.0000 0.0000
# 2 41.0107 61.4896 44.4981 0.0000 0.0000 0.0000
# 3 68.6780 44.4981 143.2946 0.0000 0.0000 0.0000
# 4 0.0000 0.0000 0.0000 27.7905 0.0000 0.0000
# 5 0.0000 0.0000 0.0000 0.0000 34.9245 0.0000
# 6 0.0000 0.0000 0.0000 0.0000 0.0000 21.9207
#
#
#
# Elastic Compliance Matrix: (Units=1/GPa)
#
#
# Indices 1 2 3 4 5 6 
#
# 1 0.016429 -0.006784 -0.005768 0.000000 0.000000 0.000000
# 2 -0.006784 0.023778 -0.004133 0.000000 0.000000 0.000000
# 3 -0.005768 -0.004133 0.011026 0.000000 0.000000 0.000000
# 4 0.000000 0.000000 0.000000 0.035984 0.000000 0.000000
# 5 0.000000 0.000000 0.000000 0.000000 0.028633 0.000000
# 6 0.000000 0.000000 0.000000 0.000000 0.000000 0.045619
#
#
# Mechanical properties :
#
#
# Convention : Reuss Voigt Hill
#
# Bulk Modulus (GPa) = 55.97345 68.34081 62.15713
# Shear Modulus (GPa) = 24.90130 27.09428 25.99779
#
# Velocity S-wave (km/s) = 3.64578 3.80293 3.72518
# Velocity P-wave (km/s) = 6.89924 7.46737 7.18892
#
# Compressibility (1/GPa) = 0.01786561
#
# Stress axis : x y z
#
# Youngs Moduli (GPa) = 60.86627 42.05566 90.69247
#
# Poissons Ratio (x) = 0.28530 0.52308
# Poissons Ratio (y) = 0.41290 0.37480
# Poissons Ratio (z) = 0.35106 0.17380
#
# Static dielectric constant tensor:
#      x y z
#    x 3.520540 0.000000 0.000000 
#    y 0.000000 3.446320 0.000000 
#    z 0.000000 0.000000 3.518800 
# 
# 
# High freq. dielectric constant tensor:
#      x y z
#    x 1.725470 0.000000 0.000000 
#    y 0.000000 1.717320 0.000000 
#    z 0.000000 0.000000 1.736760 
# 
# From -- ./inp_files/19242.got.cif
#   From: 2010.03.12/outbox.cif.g09.slc.cpg/sg59_10_cif.got.tgz:19242.got - 2010.04.16 16:29:54.
