data_PCOD8243535
_publ_section_title
;
Structure prediction by ZEFSAII (Michael W. Deem and Ramdas Pophale) SiO2 
 PCOD8243535
Probable space group: P M M N
;
_chemical_formula_sum "Si O2"
_cell_formula_units_Z 64
_cell_length_a 14.546165
_cell_length_b 8.828129
_cell_length_c 25.804175
_cell_angle_alpha 90.000000
_cell_angle_beta 90.000000
_cell_angle_gamma 90.000000
_cell_volume 3313.653998
_symmetry_space_group_name_H-M "P M M N"
_symmetry_group_IT_number 59
_space_group.IT_coordinate_system_code '2'
_symmetry_cell_setting 'orthorhombic'
loop_
_space_group_symop_operation_xyz
x,y,z
1/2-x,1/2-y,z
1/2+x,-y,-z
-x,1/2+y,-z
-x,-y,-z
1/2+x,1/2+y,-z
1/2-x,y,z
x,1/2-y,z
loop_
_atom_site_type_symbol
_atom_site_label
_atom_site_fract_x
_atom_site_fract_y
_atom_site_fract_z
Si Si1 0.644993 0.571070 0.862203
Si Si2 0.647938 0.579943 0.395471
Si Si3 0.004124 0.925996 0.676265
Si Si4 0.855601 0.927780 0.131285
Si Si5 0.507412 0.427305 0.786804
Si Si6 0.352810 0.920142 0.387021
Si Si7 0.098677 0.926787 0.502445
Si Si8 0.506642 0.071298 0.055958
O O1 0.750000 0.511087 0.868429
O O2 0.644779 0.750000 0.856112
O O3 0.598397 0.503386 0.810805
O O4 0.583874 0.520670 0.911652
O O5 0.750000 0.586423 0.372224
O O6 0.605453 0.750000 0.397694
O O7 0.589873 0.472898 0.358489
O O8 0.654645 0.510738 0.452794
O O9 0.009381 0.750000 0.689569
O O10 0.006272 0.019669 0.728704
O O11 0.912228 0.959247 0.644159
O O12 0.750000 0.980794 0.139154
O O13 0.860322 0.750000 0.119925
O O14 0.914642 0.971347 0.182077
O O15 0.899766 0.013031 0.082418
O O16 0.524549 0.250000 0.787849
O O17 0.250000 0.934190 0.365569
O O18 0.391347 0.750000 0.377717
O O19 0.351437 0.955825 0.448053
O O20 0.091986 0.750000 0.515942
O O21 0.000000 0.000000 0.500000
O O22 0.512043 0.250000 0.051029
O O23 0.500000 0.000000 0.000000
#
# Coordination Sequence:
#
# PCOD8243535 Si02
#       8
#     8   8   8   8   8   8   8   8
#     4   9  19  37  59  82 111 150 195 239 285 337
#     4  11  24  41  61  85 115 151 190 233 283 340
#     4  12  25  40  60  85 115 150 188 236 288 342
#     4   9  19  37  60  84 111 148 192 235 284 340
#     4  10  21  38  60  84 112 145 185 236 289 343
#     4  10  22  40  61  84 113 149 188 231 280 337
#     4  11  21  36  61  88 116 150 186 227 281 340
#     4  10  20  34  54  84 121 158 195 237 284 331
#
# _framework density 19.314025999999998
#
# number of rings (size 3 to 8) (size 9 to 14) (size 15 to 20)
#    0.000    1.750    1.250    3.000    0.000    5.250 
#    0.000    2.500    0.000    0.000    0.000    0.000 
#    0.000    0.000    0.000    0.000    0.000    0.000 
#
# Total GULP energy -793729.297035 kJ/mol
# GULP energy per Si atom -12402.020266 kJ/mol
# Density = 1.927007 g / cm^3
# Si number density = 19.314026 Si / 1000 Ang^3
#
#
#
# Elastic Constant Matrix: (Units=GPa)
#
#
# Indices 1 2 3 4 5 6 
#
# 1 136.2848 26.5163 40.6648 0.0000 0.0000 0.0000
# 2 26.5163 29.7576 10.4197 0.0000 0.0000 0.0000
# 3 40.6648 10.4197 107.4574 0.0000 0.0000 0.0000
# 4 0.0000 0.0000 0.0000 34.6990 0.0000 0.0000
# 5 0.0000 0.0000 0.0000 0.0000 34.1192 0.0000
# 6 0.0000 0.0000 0.0000 0.0000 0.0000 15.5175
#
#
#
# Elastic Compliance Matrix: (Units=1/GPa)
#
#
# Indices 1 2 3 4 5 6 
#
# 1 0.009693 -0.007611 -0.002930 0.000000 0.000000 0.000000
# 2 -0.007611 0.040762 -0.001072 0.000000 0.000000 0.000000
# 3 -0.002930 -0.001072 0.010519 0.000000 0.000000 0.000000
# 4 0.000000 0.000000 0.000000 0.028819 0.000000 0.000000
# 5 0.000000 0.000000 0.000000 0.000000 0.029309 0.000000
# 6 0.000000 0.000000 0.000000 0.000000 0.000000 0.064443
#
#
# Mechanical properties :
#
#
# Convention : Reuss Voigt Hill
#
# Bulk Modulus (GPa) = 26.49207 47.63351 37.06279
# Shear Modulus (GPa) = 22.79416 29.92705 26.36061
#
# Velocity S-wave (km/s) = 3.43911 3.94064 3.69839
# Velocity P-wave (km/s) = 5.43289 6.73951 6.12116
#
# Compressibility (1/GPa) = 0.03774714
#
# Stress axis : x y z
#
# Youngs Moduli (GPa) = 103.17087 24.53248 95.06809
#
# Poissons Ratio (x) = 0.18672 0.27855
# Poissons Ratio (y) = 0.78523 0.10195
# Poissons Ratio (z) = 0.30229 0.02631
#
# Static dielectric constant tensor:
#      x y z
#    x 3.646870 0.000000 0.000000 
#    y 0.000000 6.662020 0.000000 
#    z 0.000000 0.000000 3.670050 
# 
# 
# High freq. dielectric constant tensor:
#      x y z
#    x 1.759710 0.000000 0.000000 
#    y 0.000000 1.756060 0.000000 
#    z 0.000000 0.000000 1.748210 
# 
# From -- ./inp_files/32199.got.cif
#   From: 2010.03.12/outbox.cif.g09.slc.cpg/sg59_17_cif.got.tgz:32199.got - 2010.04.16 16:29:54.
