data_PCOD8243098
_publ_section_title
;
Structure prediction by ZEFSAII (Michael W. Deem and Ramdas Pophale) SiO2 
 PCOD8243098
Probable space group: P M M N
;
_chemical_formula_sum "Si O2"
_cell_formula_units_Z 64
_cell_length_a 8.865913
_cell_length_b 19.259215
_cell_length_c 21.520275
_cell_angle_alpha 90.000000
_cell_angle_beta 90.000000
_cell_angle_gamma 90.000000
_cell_volume 3674.598247
_symmetry_space_group_name_H-M "P M M N"
_symmetry_group_IT_number 59
_space_group.IT_coordinate_system_code '2'
_symmetry_cell_setting 'orthorhombic'
loop_
_space_group_symop_operation_xyz
x,y,z
1/2-x,1/2-y,z
1/2+x,-y,-z
-x,1/2+y,-z
-x,-y,-z
1/2+x,1/2+y,-z
1/2-x,y,z
x,1/2-y,z
loop_
_atom_site_type_symbol
_atom_site_label
_atom_site_fract_x
_atom_site_fract_y
_atom_site_fract_z
Si Si1 0.923293 0.828370 0.522637
Si Si2 0.081235 0.034198 0.090078
Si Si3 0.924375 0.672137 0.122888
Si Si4 0.427432 0.461051 0.801579
Si Si5 0.922085 0.671259 0.377170
Si Si6 0.427717 0.537257 0.559017
Si Si7 0.073253 0.542163 0.328205
Si Si8 0.082032 0.893983 0.012651
O O1 0.750000 0.840230 0.541787
O O2 0.973502 0.750000 0.539227
O O3 0.943576 0.842418 0.449839
O O4 0.028549 0.881465 0.559966
O O5 0.250000 0.053409 0.112493
O O6 0.085971 0.967097 0.047089
O O7 0.973632 0.019484 0.148664
O O8 0.013749 0.098525 0.050792
O O9 0.750000 0.659494 0.107921
O O10 0.954773 0.750000 0.148580
O O11 0.976363 0.615793 0.174206
O O12 0.010476 0.663361 0.057838
O O13 0.250000 0.465116 0.788444
O O14 0.519297 0.479035 0.739911
O O15 0.750000 0.654667 0.357756
O O16 0.962979 0.750000 0.360073
O O17 0.034878 0.622954 0.338971
O O18 0.500000 0.500000 0.500000
O O19 0.250000 0.528097 0.554555
O O20 0.485140 0.504155 0.622376
O O21 0.250000 0.529385 0.335346
O O22 0.250000 0.869741 0.994975
#
# Coordination Sequence:
#
# PCOD8243098 Si02
#       8
#     8   8   8   8   8   8   8   8
#     4   9  18  34  56  80 105 132 163 204 259 319
#     4   9  16  28  46  68  94 123 158 202 248 293
#     4   9  18  32  49  70  99 137 176 210 248 296
#     4  10  20  34  50  69  97 134 174 215 256 305
#     4   9  18  33  52  72  98 133 170 210 258 312
#     4  12  23  36  55  79 106 136 172 219 272 322
#     4  12  24  36  51  74 103 138 179 222 267 320
#     4   9  16  26  44  70  96 124 159 201 246 287
#
# _framework density 17.416869999999999
#
# number of rings (size 3 to 8) (size 9 to 14) (size 15 to 20)
#    0.000    2.125    1.250    4.125    0.000    4.750 
#    0.000    2.500    0.000    0.000    0.000    0.875 
#    0.000    7.000    0.000    0.000    0.000    0.000 
#
# Total GULP energy -793619.890087 kJ/mol
# GULP energy per Si atom -12400.310783 kJ/mol
# Density = 1.737723 g / cm^3
# Si number density = 17.416870 Si / 1000 Ang^3
#
#
#
# Elastic Constant Matrix: (Units=GPa)
#
#
# Indices 1 2 3 4 5 6 
#
# 1 107.5459 31.1692 40.5430 0.0000 0.0000 0.0000
# 2 31.1692 52.3099 36.3423 0.0000 0.0000 0.0000
# 3 40.5430 36.3423 87.4622 0.0000 0.0000 0.0000
# 4 0.0000 0.0000 0.0000 19.2520 0.0000 0.0000
# 5 0.0000 0.0000 0.0000 0.0000 30.2852 0.0000
# 6 0.0000 0.0000 0.0000 0.0000 0.0000 26.0894
#
#
#
# Elastic Compliance Matrix: (Units=1/GPa)
#
#
# Indices 1 2 3 4 5 6 
#
# 1 0.012014 -0.004624 -0.003647 0.000000 0.000000 0.000000
# 2 -0.004624 0.028655 -0.009763 0.000000 0.000000 0.000000
# 3 -0.003647 -0.009763 0.017181 0.000000 0.000000 0.000000
# 4 0.000000 0.000000 0.000000 0.051943 0.000000 0.000000
# 5 0.000000 0.000000 0.000000 0.000000 0.033019 0.000000
# 6 0.000000 0.000000 0.000000 0.000000 0.000000 0.038330
#
#
# Mechanical properties :
#
#
# Convention : Reuss Voigt Hill
#
# Bulk Modulus (GPa) = 45.91365 51.49190 48.70277
# Shear Modulus (GPa) = 22.27451 24.40955 23.34203
#
# Velocity S-wave (km/s) = 3.58006 3.74771 3.66484
# Velocity P-wave (km/s) = 6.59605 6.95382 6.77730
#
# Compressibility (1/GPa) = 0.02178002
#
# Stress axis : x y z
#
# Youngs Moduli (GPa) = 83.23895 34.89752 58.20361
#
# Poissons Ratio (x) = 0.16138 0.21229
# Poissons Ratio (y) = 0.38493 0.56826
# Poissons Ratio (z) = 0.30360 0.34071
#
# Static dielectric constant tensor:
#      x y z
#    x 3.334530 0.000000 0.000000 
#    y 0.000000 3.178250 0.000000 
#    z 0.000000 0.000000 3.106360 
# 
# 
# High freq. dielectric constant tensor:
#      x y z
#    x 1.681080 0.000000 0.000000 
#    y 0.000000 1.649540 0.000000 
#    z 0.000000 0.000000 1.652870 
# 
# From -- ./inp_files/26307.got.cif
#   From: 2010.03.12/outbox.cif.g09.slc.cpg/sg59_14_cif.got.tgz:26307.got - 2010.04.16 16:29:54.
