data_PCOD8243190
_publ_section_title
;
Structure prediction by ZEFSAII (Michael W. Deem and Ramdas Pophale) SiO2 
 PCOD8243190
Probable space group: P M M N
;
_chemical_formula_sum "Si O2"
_cell_formula_units_Z 64
_cell_length_a 29.173075
_cell_length_b 8.868087
_cell_length_c 12.533473
_cell_angle_alpha 90.000000
_cell_angle_beta 90.000000
_cell_angle_gamma 90.000000
_cell_volume 3242.526868
_symmetry_space_group_name_H-M "P M M N"
_symmetry_group_IT_number 59
_space_group.IT_coordinate_system_code '2'
_symmetry_cell_setting 'orthorhombic'
loop_
_space_group_symop_operation_xyz
x,y,z
1/2-x,1/2-y,z
1/2+x,-y,-z
-x,1/2+y,-z
-x,-y,-z
1/2+x,1/2+y,-z
1/2-x,y,z
x,1/2-y,z
loop_
_atom_site_type_symbol
_atom_site_label
_atom_site_fract_x
_atom_site_fract_y
_atom_site_fract_z
Si Si1 0.333631 0.926368 0.507920
Si Si2 0.801346 0.570587 0.923334
Si Si3 0.199014 0.928278 0.732006
Si Si4 0.526558 0.570023 0.100647
Si Si5 0.564958 0.072384 0.512844
Si Si6 0.997793 0.927474 0.677324
Si Si7 0.197194 0.413152 0.306204
Si Si8 0.867666 0.928704 0.105219
O O1 0.337686 0.750000 0.513182
O O2 0.304796 0.982948 0.609270
O O3 0.384649 0.992832 0.507761
O O4 0.308444 0.969026 0.399843
O O5 0.750000 0.504928 0.946303
O O6 0.799418 0.750000 0.931124
O O7 0.838097 0.505148 0.006852
O O8 0.821449 0.523159 0.806939
O O9 0.250000 0.976500 0.772781
O O10 0.192539 0.750000 0.743023
O O11 0.157131 0.008337 0.790397
O O12 0.522528 0.750000 0.095580
O O13 0.504444 0.511634 0.210559
O O14 0.579749 0.516398 0.097089
O O15 0.500000 0.500000 0.000000
O O16 0.562329 0.250000 0.536219
O O17 0.538392 0.031112 0.404460
O O18 0.547834 0.986257 0.618714
O O19 0.994258 0.750000 0.699888
O O20 0.250000 0.386247 0.283015
O O21 0.174777 0.250000 0.335317
O O22 0.866032 0.750000 0.109443
#
# Coordination Sequence:
#
# PCOD8243190 Si02
#       8
#     8   8   8   8   8   8   8   8
#     4  10  20  34  52  76 109 146 180 216 265 322
#     4   8  15  31  54  77 103 135 172 219 273 323
#     4  10  21  36  55  82 118 156 188 223 273 332
#     4  11  24  40  58  83 115 149 188 237 293 350
#     4   9  19  35  56  82 109 139 179 229 280 329
#     4  10  20  37  60  81 105 141 182 225 278 337
#     4   9  18  32  50  73 102 137 176 218 262 309
#     4  10  21  37  59  84 108 140 186 235 280 332
#
# _framework density 19.737693
#
# number of rings (size 3 to 8) (size 9 to 14) (size 15 to 20)
#    0.000    2.375    0.000    3.000    0.000    6.000 
#    0.000    1.875    0.000    0.750    0.000    0.000 
#    0.000    0.000    0.000    0.000    0.000    0.000 
#
# Total GULP energy -793251.073851 kJ/mol
# GULP energy per Si atom -12394.548029 kJ/mol
# Density = 1.969277 g / cm^3
# Si number density = 19.737693 Si / 1000 Ang^3
#
#
#
# Elastic Constant Matrix: (Units=GPa)
#
#
# Indices 1 2 3 4 5 6 
#
# 1 99.0607 31.0708 48.2170 0.0000 0.0000 0.0000
# 2 31.0708 33.7453 29.8426 0.0000 0.0000 0.0000
# 3 48.2170 29.8426 144.0864 0.0000 0.0000 0.0000
# 4 0.0000 0.0000 0.0000 27.1408 0.0000 0.0000
# 5 0.0000 0.0000 0.0000 0.0000 27.7464 0.0000
# 6 0.0000 0.0000 0.0000 0.0000 0.0000 20.2118
#
#
#
# Elastic Compliance Matrix: (Units=1/GPa)
#
#
# Indices 1 2 3 4 5 6 
#
# 1 0.014971 -0.011451 -0.002638 0.000000 0.000000 0.000000
# 2 -0.011451 0.045038 -0.005496 0.000000 0.000000 0.000000
# 3 -0.002638 -0.005496 0.008961 0.000000 0.000000 0.000000
# 4 0.000000 0.000000 0.000000 0.036845 0.000000 0.000000
# 5 0.000000 0.000000 0.000000 0.000000 0.036041 0.000000
# 6 0.000000 0.000000 0.000000 0.000000 0.000000 0.049476
#
#
# Mechanical properties :
#
#
# Convention : Reuss Voigt Hill
#
# Bulk Modulus (GPa) = 33.55785 55.01704 44.28744
# Shear Modulus (GPa) = 20.79566 26.20393 23.49979
#
# Velocity S-wave (km/s) = 3.24944 3.64759 3.45426
# Velocity P-wave (km/s) = 5.57829 6.75829 6.19644
#
# Compressibility (1/GPa) = 0.02979929
#
# Stress axis : x y z
#
# Youngs Moduli (GPa) = 66.79780 22.20361 111.58985
#
# Poissons Ratio (x) = 0.25426 0.29438
# Poissons Ratio (y) = 0.76491 0.61330
# Poissons Ratio (z) = 0.17621 0.12203
#
# Static dielectric constant tensor:
#      x y z
#    x 3.860000 0.000000 0.000000 
#    y 0.000000 3.366240 0.000000 
#    z 0.000000 0.000000 3.801760 
# 
# 
# High freq. dielectric constant tensor:
#      x y z
#    x 1.770430 0.000000 0.000000 
#    y 0.000000 1.746020 0.000000 
#    z 0.000000 0.000000 1.781480 
# 
# From -- ./inp_files/19363.got.cif
#   From: 2010.03.12/outbox.cif.g09.slc.cpg/sg59_10_cif.got.tgz:19363.got - 2010.04.16 16:29:54.
