data_PCOD8243435
_publ_section_title
;
Structure prediction by ZEFSAII (Michael W. Deem and Ramdas Pophale) SiO2 
 PCOD8243435
Probable space group: P M M N
;
_chemical_formula_sum "Si O2"
_cell_formula_units_Z 48
_cell_length_a 9.547169
_cell_length_b 18.751279
_cell_length_c 13.700710
_cell_angle_alpha 90.000000
_cell_angle_beta 90.000000
_cell_angle_gamma 90.000000
_cell_volume 2452.723431
_symmetry_space_group_name_H-M "P M M N"
_symmetry_group_IT_number 59
_space_group.IT_coordinate_system_code '2'
_symmetry_cell_setting 'orthorhombic'
loop_
_space_group_symop_operation_xyz
x,y,z
1/2-x,1/2-y,z
1/2+x,-y,-z
-x,1/2+y,-z
-x,-y,-z
1/2+x,1/2+y,-z
1/2-x,y,z
x,1/2-y,z
loop_
_atom_site_type_symbol
_atom_site_label
_atom_site_fract_x
_atom_site_fract_y
_atom_site_fract_z
Si Si1 0.413079 0.947397 0.302483
Si Si2 0.412277 0.094250 0.389982
Si Si3 0.093379 0.834408 0.773598
Si Si4 0.085156 0.166384 0.591942
Si Si5 0.086968 0.826453 0.985013
Si Si6 0.088560 0.964681 0.085234
O O1 0.250000 0.925230 0.299846
O O2 0.502424 0.876288 0.323986
O O3 0.457197 0.980587 0.196595
O O4 0.441843 0.009039 0.383076
O O5 0.250000 0.110134 0.372957
O O6 0.493208 0.133904 0.306185
O O7 0.461388 0.127613 0.492157
O O8 0.250000 0.865431 0.757913
O O9 0.094893 0.750000 0.763323
O O10 0.029964 0.855539 0.880386
O O11 0.250000 0.158186 0.610751
O O12 0.041951 0.250000 0.590563
O O13 0.250000 0.814905 0.964981
O O14 0.018154 0.750000 0.012834
O O15 0.060954 0.880102 0.073318
O O16 0.250000 0.985546 0.067418
O O17 0.000000 0.000000 0.000000
#
# Coordination Sequence:
#
# PCOD8243435 Si02
#       6
#     8   8   8   8   8   8
#     4  10  22  37  55  82 110 138 177 223 268 315
#     4  10  20  35  54  77 108 141 173 214 267 325
#     4   9  17  29  48  76 105 135 177 222 261 308
#     4  10  22  39  57  77 103 140 182 219 265 326
#     4   8  15  29  48  70  99 136 175 212 253 306
#     4  10  20  34  54  80 108 139 176 216 260 311
#
# _framework density 19.570081999999999
#
# number of rings (size 3 to 8) (size 9 to 14) (size 15 to 20)
#    0.000    2.500    0.000    3.000    0.000    4.000 
#    0.000    1.667    0.000    1.500    0.000    0.000 
#    0.000    0.000    0.000    0.000    0.000    0.000 
#
# Total GULP energy -594874.616313 kJ/mol
# GULP energy per Si atom -12393.221173 kJ/mol
# Density = 1.952554 g / cm^3
# Si number density = 19.570082 Si / 1000 Ang^3
#
#
#
# Elastic Constant Matrix: (Units=GPa)
#
#
# Indices 1 2 3 4 5 6 
#
# 1 39.2623 31.1123 36.2321 0.0000 0.0000 0.0000
# 2 31.1123 81.2545 52.5452 0.0000 0.0000 0.0000
# 3 36.2321 52.5452 89.8954 0.0000 0.0000 0.0000
# 4 0.0000 0.0000 0.0000 29.9799 0.0000 0.0000
# 5 0.0000 0.0000 0.0000 0.0000 25.4822 0.0000
# 6 0.0000 0.0000 0.0000 0.0000 0.0000 28.2928
#
#
#
# Elastic Compliance Matrix: (Units=1/GPa)
#
#
# Indices 1 2 3 4 5 6 
#
# 1 0.044040 -0.008656 -0.012691 0.000000 0.000000 0.000000
# 2 -0.008656 0.021487 -0.009071 0.000000 0.000000 0.000000
# 3 -0.012691 -0.009071 0.021541 0.000000 0.000000 0.000000
# 4 0.000000 0.000000 0.000000 0.033356 0.000000 0.000000
# 5 0.000000 0.000000 0.000000 0.000000 0.039243 0.000000
# 6 0.000000 0.000000 0.000000 0.000000 0.000000 0.035345
#
#
# Mechanical properties :
#
#
# Convention : Reuss Voigt Hill
#
# Bulk Modulus (GPa) = 38.11951 50.02126 44.07039
# Shear Modulus (GPa) = 18.89702 22.78581 20.84142
#
# Velocity S-wave (km/s) = 3.11079 3.41591 3.26692
# Velocity P-wave (km/s) = 5.69416 6.41666 6.06618
#
# Compressibility (1/GPa) = 0.02623328
#
# Stress axis : x y z
#
# Youngs Moduli (GPa) = 22.70643 46.53901 46.42325
#
# Poissons Ratio (x) = 0.40286 0.58914
# Poissons Ratio (y) = 0.19655 0.42109
# Poissons Ratio (z) = 0.28816 0.42214
#
# Static dielectric constant tensor:
#      x y z
#    x 3.377850 0.000000 0.000000 
#    y 0.000000 4.026900 0.000000 
#    z 0.000000 0.000000 3.595220 
# 
# 
# High freq. dielectric constant tensor:
#      x y z
#    x 1.736090 0.000000 0.000000 
#    y 0.000000 1.769220 0.000000 
#    z 0.000000 0.000000 1.763750 
# 
# From -- ./inp_files/20430.got.cif
#   From: 2010.03.12/outbox.cif.g09.slc.cpg/sg59_11_cif.got.tgz:20430.got - 2010.04.16 16:29:54.
