data_PCOD8243107
_publ_section_title
;
Structure prediction by ZEFSAII (Michael W. Deem and Ramdas Pophale) SiO2 
 PCOD8243107
Probable space group: P M M N
;
_chemical_formula_sum "Si O2"
_cell_formula_units_Z 48
_cell_length_a 9.070217
_cell_length_b 18.778981
_cell_length_c 16.175277
_cell_angle_alpha 90.000000
_cell_angle_beta 90.000000
_cell_angle_gamma 90.000000
_cell_volume 2755.125755
_symmetry_space_group_name_H-M "P M M N"
_symmetry_group_IT_number 59
_space_group.IT_coordinate_system_code '2'
_symmetry_cell_setting 'orthorhombic'
loop_
_space_group_symop_operation_xyz
x,y,z
1/2-x,1/2-y,z
1/2+x,-y,-z
-x,1/2+y,-z
-x,-y,-z
1/2+x,1/2+y,-z
1/2-x,y,z
x,1/2-y,z
loop_
_atom_site_type_symbol
_atom_site_label
_atom_site_fract_x
_atom_site_fract_y
_atom_site_fract_z
Si Si1 0.077898 0.034039 0.746312
Si Si2 0.575122 0.828526 0.165893
Si Si3 0.423686 0.962157 0.576345
Si Si4 0.575025 0.829389 0.982989
Si Si5 0.423230 0.093038 0.176614
Si Si6 0.077139 0.331951 0.345032
O O1 0.250000 0.026180 0.763654
O O2 0.022610 0.114484 0.765517
O O3 0.038598 0.013855 0.652848
O O4 0.996541 0.982859 0.809890
O O5 0.750000 0.822524 0.165566
O O6 0.509385 0.750000 0.186834
O O7 0.523353 0.854440 0.074372
O O8 0.250000 0.954905 0.560913
O O9 0.489185 0.883266 0.591954
O O10 0.500000 0.000000 0.500000
O O11 0.750000 0.830083 0.976451
O O12 0.515659 0.750000 0.967852
O O13 0.510161 0.878194 0.909783
O O14 0.250000 0.081638 0.171735
O O15 0.462995 0.147527 0.250800
O O16 0.250000 0.342450 0.362043
O O17 0.029945 0.250000 0.360422
#
# Coordination Sequence:
#
# PCOD8243107 Si02
#       6
#     8   8   8   8   8   8
#     4   9  18  31  46  66  90 116 149 188 230 275
#     4   8  14  26  44  64  87 117 153 190 223 257
#     4  10  20  34  51  70  94 122 152 190 237 287
#     4   8  13  22  39  64  91 119 153 189 219 251
#     4   9  16  26  43  68  95 122 151 183 221 265
#     4   9  17  30  49  72  97 124 154 188 226 271
#
# _framework density 17.422072
#
# number of rings (size 3 to 8) (size 9 to 14) (size 15 to 20)
#    0.000    3.167    0.000    2.000    0.000    3.667 
#    0.000    0.833    0.000    5.000    0.000    2.333 
#    0.000    0.000    0.000    0.000    0.000    0.000 
#
# Total GULP energy -594884.029394 kJ/mol
# GULP energy per Si atom -12393.417279 kJ/mol
# Density = 1.738242 g / cm^3
# Si number density = 17.422072 Si / 1000 Ang^3
#
#
#
# Elastic Constant Matrix: (Units=GPa)
#
#
# Indices 1 2 3 4 5 6 
#
# 1 29.9237 37.8029 29.5729 0.0000 0.0000 0.0000
# 2 37.8029 152.3992 81.5359 0.0000 0.0000 0.0000
# 3 29.5729 81.5359 96.2856 0.0000 0.0000 0.0000
# 4 0.0000 0.0000 0.0000 31.3136 0.0000 0.0000
# 5 0.0000 0.0000 0.0000 0.0000 15.1960 0.0000
# 6 0.0000 0.0000 0.0000 0.0000 0.0000 24.3140
#
#
#
# Elastic Compliance Matrix: (Units=1/GPa)
#
#
# Indices 1 2 3 4 5 6 
#
# 1 0.052945 -0.008105 -0.009398 0.000000 0.000000 0.000000
# 2 -0.008105 0.013238 -0.008721 0.000000 0.000000 0.000000
# 3 -0.009398 -0.008721 0.020657 0.000000 0.000000 0.000000
# 4 0.000000 0.000000 0.000000 0.031935 0.000000 0.000000
# 5 0.000000 0.000000 0.000000 0.000000 0.065807 0.000000
# 6 0.000000 0.000000 0.000000 0.000000 0.000000 0.041129
#
#
# Mechanical properties :
#
#
# Convention : Reuss Voigt Hill
#
# Bulk Modulus (GPa) = 29.07584 64.04799 46.56192
# Shear Modulus (GPa) = 17.26385 22.81117 20.03751
#
# Velocity S-wave (km/s) = 3.15130 3.62239 3.39502
# Velocity P-wave (km/s) = 5.47414 7.37143 6.49246
#
# Compressibility (1/GPa) = 0.03439282
#
# Stress axis : x y z
#
# Youngs Moduli (GPa) = 18.88735 75.54091 48.40976
#
# Poissons Ratio (x) = 0.61227 0.45496
# Poissons Ratio (y) = 0.15308 0.42216
# Poissons Ratio (z) = 0.17750 0.65876
#
# Static dielectric constant tensor:
#      x y z
#    x 2.911130 0.000000 0.000000 
#    y 0.000000 3.542450 0.000000 
#    z 0.000000 0.000000 3.309090 
# 
# 
# High freq. dielectric constant tensor:
#      x y z
#    x 1.636600 0.000000 0.000000 
#    y 0.000000 1.676150 0.000000 
#    z 0.000000 0.000000 1.666580 
# 
# From -- ./inp_files/20386.got.cif
#   From: 2010.03.12/outbox.cif.g09.slc.cpg/sg59_11_cif.got.tgz:20386.got - 2010.04.16 16:29:54.
