data_PCOD8243573
_publ_section_title
;
Structure prediction by ZEFSAII (Michael W. Deem and Ramdas Pophale) SiO2 
 PCOD8243573
Probable space group: P M M N
;
_chemical_formula_sum "Si O2"
_cell_formula_units_Z 64
_cell_length_a 14.512325
_cell_length_b 9.025495
_cell_length_c 24.624232
_cell_angle_alpha 90.000000
_cell_angle_beta 90.000000
_cell_angle_gamma 90.000000
_cell_volume 3225.304481
_symmetry_space_group_name_H-M "P M M N"
_symmetry_group_IT_number 59
_space_group.IT_coordinate_system_code '2'
_symmetry_cell_setting 'orthorhombic'
loop_
_space_group_symop_operation_xyz
x,y,z
1/2-x,1/2-y,z
1/2+x,-y,-z
-x,1/2+y,-z
-x,-y,-z
1/2+x,1/2+y,-z
1/2-x,y,z
x,1/2-y,z
loop_
_atom_site_type_symbol
_atom_site_label
_atom_site_fract_x
_atom_site_fract_y
_atom_site_fract_z
Si Si1 0.037849 0.075716 0.132825
Si Si2 0.144594 0.573495 0.347316
Si Si3 0.149043 0.574526 0.918116
Si Si4 0.642447 0.417355 0.960451
Si Si5 0.850714 0.912828 0.368934
Si Si6 0.646642 0.421454 0.262296
Si Si7 0.517460 0.080788 0.555839
Si Si8 0.963578 0.424901 0.760424
O O1 0.046801 0.250000 0.141675
O O2 0.930409 0.027374 0.124149
O O3 0.093832 0.029962 0.080031
O O4 0.081791 0.994418 0.185504
O O5 0.250000 0.514940 0.345059
O O6 0.141868 0.750000 0.347150
O O7 0.087978 0.516548 0.294216
O O8 0.095983 0.515406 0.403068
O O9 0.250000 0.511745 0.899862
O O10 0.155977 0.750000 0.921166
O O11 0.123850 0.520213 0.978885
O O12 0.750000 0.417888 0.947639
O O13 0.603526 0.250000 0.953175
O O14 0.750000 0.912076 0.395756
O O15 0.871488 0.750000 0.341675
O O16 0.919973 0.941653 0.416622
O O17 0.857606 0.044346 0.326043
O O18 0.750000 0.457568 0.240077
O O19 0.622670 0.250000 0.252046
O O20 0.569605 0.522959 0.235061
O O21 0.542095 0.250000 0.543165
O O22 0.500000 0.000000 0.500000
O O23 0.956537 0.250000 0.763630
#
# Coordination Sequence:
#
# PCOD8243573 Si02
#       8
#     8   8   8   8   8   8   8   8
#     4  11  22  34  53  84 117 147 183 236 296 341
#     4   9  19  38  61  81 105 144 192 234 273 321
#     4   8  16  33  56  80 109 147 187 228 281 345
#     4   9  18  35  58  80 105 145 194 235 277 338
#     4   9  17  32  54  78 106 139 175 215 265 328
#     4  10  20  34  55  82 109 138 175 223 279 333
#     4  10  20  35  55  83 112 143 179 223 276 330
#     4  11  22  38  58  80 109 150 196 236 276 330
#
# _framework density 19.843088000000002
#
# number of rings (size 3 to 8) (size 9 to 14) (size 15 to 20)
#    0.000    2.375    1.250    2.250    0.000    3.000 
#    0.000    3.125    0.000    5.250    0.000    0.000 
#    0.000    0.000    0.000    0.000    0.000    0.000 
#
# Total GULP energy -793069.156940 kJ/mol
# GULP energy per Si atom -12391.705577 kJ/mol
# Density = 1.979792 g / cm^3
# Si number density = 19.843088 Si / 1000 Ang^3
#
#
#
# Elastic Constant Matrix: (Units=GPa)
#
#
# Indices 1 2 3 4 5 6 
#
# 1 91.5250 27.4079 46.5114 0.0000 0.0000 0.0000
# 2 27.4079 51.3432 32.6695 0.0000 0.0000 0.0000
# 3 46.5114 32.6695 120.8551 0.0000 0.0000 0.0000
# 4 0.0000 0.0000 0.0000 30.5187 0.0000 0.0000
# 5 0.0000 0.0000 0.0000 0.0000 13.9137 0.0000
# 6 0.0000 0.0000 0.0000 0.0000 0.0000 23.2072
#
#
#
# Elastic Compliance Matrix: (Units=1/GPa)
#
#
# Indices 1 2 3 4 5 6 
#
# 1 0.014610 -0.005098 -0.004244 0.000000 0.000000 0.000000
# 2 -0.005098 0.025302 -0.004878 0.000000 0.000000 0.000000
# 3 -0.004244 -0.004878 0.011226 0.000000 0.000000 0.000000
# 4 0.000000 0.000000 0.000000 0.032767 0.000000 0.000000
# 5 0.000000 0.000000 0.000000 0.000000 0.071872 0.000000
# 6 0.000000 0.000000 0.000000 0.000000 0.000000 0.043090
#
#
# Mechanical properties :
#
#
# Convention : Reuss Voigt Hill
#
# Bulk Modulus (GPa) = 44.05762 52.98898 48.52330
# Shear Modulus (GPa) = 21.28816 24.00355 22.64585
#
# Velocity S-wave (km/s) = 3.27895 3.48180 3.38190
# Velocity P-wave (km/s) = 6.04869 6.55179 6.30526
#
# Compressibility (1/GPa) = 0.02269755
#
# Stress axis : x y z
#
# Youngs Moduli (GPa) = 68.44813 39.52291 89.07626
#
# Poissons Ratio (x) = 0.20149 0.37808
# Poissons Ratio (y) = 0.34896 0.43447
# Poissons Ratio (z) = 0.29052 0.19277
#
# Static dielectric constant tensor:
#      x y z
#    x 4.219900 0.000000 0.000000 
#    y 0.000000 3.430880 0.000000 
#    z 0.000000 0.000000 3.648500 
# 
# 
# High freq. dielectric constant tensor:
#      x y z
#    x 1.779800 0.000000 0.000000 
#    y 0.000000 1.741630 0.000000 
#    z 0.000000 0.000000 1.773300 
# 
# From -- ./inp_files/32128.got.cif
#   From: 2010.03.12/outbox.cif.g09.slc.cpg/sg59_17_cif.got.tgz:32128.got - 2010.04.16 16:29:54.
