data_PCOD8243914
_publ_section_title
;
Structure prediction by ZEFSAII (Michael W. Deem and Ramdas Pophale) SiO2 
 PCOD8243914
Probable space group: P M M N
;
_chemical_formula_sum "Si O2"
_cell_formula_units_Z 64
_cell_length_a 17.625922
_cell_length_b 19.910259
_cell_length_c 10.042391
_cell_angle_alpha 90.000000
_cell_angle_beta 90.000000
_cell_angle_gamma 90.000000
_cell_volume 3524.243278
_symmetry_space_group_name_H-M "P M M N"
_symmetry_group_IT_number 59
_space_group.IT_coordinate_system_code '2'
_symmetry_cell_setting 'orthorhombic'
loop_
_space_group_symop_operation_xyz
x,y,z
1/2-x,1/2-y,z
1/2+x,-y,-z
-x,1/2+y,-z
-x,-y,-z
1/2+x,1/2+y,-z
1/2-x,y,z
x,1/2-y,z
loop_
_atom_site_type_symbol
_atom_site_label
_atom_site_fract_x
_atom_site_fract_y
_atom_site_fract_z
Si Si1 0.920862 0.326930 0.356471
Si Si2 0.338021 0.071148 0.542593
Si Si3 0.080244 0.440256 0.806039
Si Si4 0.590993 0.589518 0.908140
Si Si5 0.901019 0.443431 0.829645
Si Si6 0.912951 0.413678 0.115417
Si Si7 0.900347 0.826517 0.664898
Si Si8 0.162099 0.924498 0.446960
O O1 0.895941 0.250000 0.370875
O O2 0.889619 0.353224 0.213548
O O3 0.885251 0.368907 0.475312
O O4 0.010995 0.335862 0.364940
O O5 0.250000 0.068613 0.578257
O O6 0.384314 0.092024 0.674125
O O7 0.352094 0.128087 0.433773
O O8 0.366120 0.998964 0.487806
O O9 0.112730 0.516083 0.818705
O O10 0.989638 0.437372 0.793609
O O11 0.110856 0.399217 0.935908
O O12 0.625481 0.520379 0.851057
O O13 0.501857 0.580201 0.901984
O O14 0.618450 0.651373 0.817049
O O15 0.852488 0.412723 0.709554
O O16 0.879550 0.403417 0.966300
O O17 0.874301 0.750000 0.647795
O O18 0.250000 0.914156 0.479512
#
# Coordination Sequence:
#
# PCOD8243914 Si02
#       8
#     8   8   8   8   8   8   8   8
#     4  10  20  35  56  79 103 136 177 220 268 319
#     4  11  22  34  50  77 110 144 179 217 261 310
#     4   9  16  30  54  78 103 134 170 217 266 307
#     4   8  15  29  51  79 104 129 167 218 268 311
#     4   9  16  30  54  78 103 134 170 217 266 307
#     4   8  15  29  51  79 104 129 167 218 268 311
#     4  10  20  35  56  79 103 136 177 220 268 319
#     4  11  22  34  50  77 110 144 179 217 261 310
#
# _framework density 18.159927
#
# number of rings (size 3 to 8) (size 9 to 14) (size 15 to 20)
#    0.000    2.500    2.500    2.250    0.000    1.500 
#    0.000    5.000    0.000    4.500    0.000    0.000 
#    0.000    0.000    0.000    0.000    0.000    0.000 
#
# Total GULP energy -793345.481064 kJ/mol
# GULP energy per Si atom -12396.023142 kJ/mol
# Density = 1.811859 g / cm^3
# Si number density = 18.159927 Si / 1000 Ang^3
#
#
#
# Elastic Constant Matrix: (Units=GPa)
#
#
# Indices 1 2 3 4 5 6 
#
# 1 25.1551 13.7145 12.1818 0.0000 0.0000 0.0000
# 2 13.7145 90.9271 36.2453 0.0000 0.0000 0.0000
# 3 12.1818 36.2453 109.0864 0.0000 0.0000 0.0000
# 4 0.0000 0.0000 0.0000 27.8479 0.0000 0.0000
# 5 0.0000 0.0000 0.0000 0.0000 9.5636 0.0000
# 6 0.0000 0.0000 0.0000 0.0000 0.0000 16.1820
#
#
#
# Elastic Compliance Matrix: (Units=1/GPa)
#
#
# Indices 1 2 3 4 5 6 
#
# 1 0.044228 -0.005420 -0.003138 0.000000 0.000000 0.000000
# 2 -0.005420 0.013341 -0.003827 0.000000 0.000000 0.000000
# 3 -0.003138 -0.003827 0.010789 0.000000 0.000000 0.000000
# 4 0.000000 0.000000 0.000000 0.035909 0.000000 0.000000
# 5 0.000000 0.000000 0.000000 0.000000 0.104563 0.000000
# 6 0.000000 0.000000 0.000000 0.000000 0.000000 0.061797
#
#
# Mechanical properties :
#
#
# Convention : Reuss Voigt Hill
#
# Bulk Modulus (GPa) = 22.94259 38.82801 30.88530
# Shear Modulus (GPa) = 16.13279 21.58718 18.85998
#
# Velocity S-wave (km/s) = 2.98379 3.45153 3.22615
# Velocity P-wave (km/s) = 4.95295 6.10833 5.56073
#
# Compressibility (1/GPa) = 0.04358707
#
# Stress axis : x y z
#
# Youngs Moduli (GPa) = 22.61008 74.95684 92.68524
#
# Poissons Ratio (x) = 0.40627 0.29086
# Poissons Ratio (y) = 0.12255 0.35475
# Poissons Ratio (z) = 0.07095 0.28689
#
# Static dielectric constant tensor:
#      x y z
#    x 2.992490 0.000000 0.000000 
#    y 0.000000 3.243460 0.000000 
#    z 0.000000 0.000000 3.659590 
# 
# 
# High freq. dielectric constant tensor:
#      x y z
#    x 1.671780 0.000000 0.000000 
#    y 0.000000 1.673650 0.000000 
#    z 0.000000 0.000000 1.721310 
# 
# From -- ./inp_files/11752.got.cif
#   From: 2010.03.12/outbox.cif.g09.slc.cpg/sg59_6_cif.got.tgz:11752.got - 2010.04.16 16:29:54.
