data_PCOD8243690
_publ_section_title
;
Structure prediction by ZEFSAII (Michael W. Deem and Ramdas Pophale) SiO2 
 PCOD8243690
Probable space group: P M M N
;
_chemical_formula_sum "Si O2"
_cell_formula_units_Z 64
_cell_length_a 12.940473
_cell_length_b 17.130008
_cell_length_c 14.913732
_cell_angle_alpha 90.000000
_cell_angle_beta 90.000000
_cell_angle_gamma 90.000000
_cell_volume 3305.933028
_symmetry_space_group_name_H-M "P M M N"
_symmetry_group_IT_number 59
_space_group.IT_coordinate_system_code '2'
_symmetry_cell_setting 'orthorhombic'
loop_
_space_group_symop_operation_xyz
x,y,z
1/2-x,1/2-y,z
1/2+x,-y,-z
-x,1/2+y,-z
-x,-y,-z
1/2+x,1/2+y,-z
1/2-x,y,z
x,1/2-y,z
loop_
_atom_site_type_symbol
_atom_site_label
_atom_site_fract_x
_atom_site_fract_y
_atom_site_fract_z
Si Si1 0.131623 0.159151 0.855880
Si Si2 0.633793 0.159673 0.153515
Si Si3 0.475640 0.413332 0.024650
Si Si4 0.636740 0.957531 0.807644
Si Si5 0.019400 0.065754 0.707800
Si Si6 0.056745 0.556358 0.566317
Si Si7 0.364721 0.658840 0.420204
Si Si8 0.462982 0.160692 0.301811
O O1 0.250000 0.138107 0.878244
O O2 0.116726 0.250000 0.837218
O O3 0.100461 0.115327 0.764610
O O4 0.059934 0.136450 0.939542
O O5 0.750000 0.125044 0.166761
O O6 0.641254 0.250000 0.132329
O O7 0.579886 0.121967 0.067013
O O8 0.566714 0.145185 0.242897
O O9 0.384078 0.417749 0.096653
O O10 0.500000 0.500000 0.000000
O O11 0.750000 0.995740 0.806580
O O12 0.633993 0.884942 0.739146
O O13 0.554224 0.022750 0.779502
O O14 0.950126 0.123016 0.646338
O O15 0.085368 0.001188 0.650190
O O16 0.142736 0.605533 0.511434
O O17 0.000000 0.500000 0.500000
O O18 0.981012 0.624834 0.600333
O O19 0.250000 0.654037 0.376967
O O20 0.391554 0.750000 0.441336
O O21 0.432661 0.250000 0.309877
#
# Coordination Sequence:
#
# PCOD8243690 Si02
#       8
#     8   8   8   8   8   8   8   8
#     4  11  24  41  61  84 113 151 195 237 276 329
#     4   9  19  35  55  80 112 148 184 228 280 332
#     4  11  21  38  55  83 115 150 186 233 281 323
#     4  10  20  35  56  82 112 147 190 234 281 336
#     4  10  20  39  57  82 113 151 188 232 284 333
#     4   9  19  34  54  78 110 145 186 230 281 333
#     4  10  20  34  56  85 115 147 183 229 285 343
#     4   9  18  33  53  80 114 149 188 235 287 340
#
# _framework density 19.359134000000001
#
# number of rings (size 3 to 8) (size 9 to 14) (size 15 to 20)
#    0.000    2.125    1.250    1.875    0.000    2.750 
#    0.000    1.250    0.000    3.000    0.000    0.000 
#    0.000    0.000    0.000    0.000    0.000    0.000 
#
# Total GULP energy -792940.817335 kJ/mol
# GULP energy per Si atom -12389.700271 kJ/mol
# Density = 1.931507 g / cm^3
# Si number density = 19.359134 Si / 1000 Ang^3
#
#
#
# Elastic Constant Matrix: (Units=GPa)
#
#
# Indices 1 2 3 4 5 6 
#
# 1 71.8047 24.8033 16.0706 0.0000 0.0000 0.0000
# 2 24.8033 103.8812 27.8613 0.0000 0.0000 0.0000
# 3 16.0706 27.8613 76.7365 0.0000 0.0000 0.0000
# 4 0.0000 0.0000 0.0000 39.3039 0.0000 0.0000
# 5 0.0000 0.0000 0.0000 0.0000 17.9111 0.0000
# 6 0.0000 0.0000 0.0000 0.0000 0.0000 24.4446
#
#
#
# Elastic Compliance Matrix: (Units=1/GPa)
#
#
# Indices 1 2 3 4 5 6 
#
# 1 0.015479 -0.003131 -0.002105 0.000000 0.000000 0.000000
# 2 -0.003131 0.011298 -0.003446 0.000000 0.000000 0.000000
# 3 -0.002105 -0.003446 0.014724 0.000000 0.000000 0.000000
# 4 0.000000 0.000000 0.000000 0.025443 0.000000 0.000000
# 5 0.000000 0.000000 0.000000 0.000000 0.055831 0.000000
# 6 0.000000 0.000000 0.000000 0.000000 0.000000 0.040909
#
#
# Mechanical properties :
#
#
# Convention : Reuss Voigt Hill
#
# Bulk Modulus (GPa) = 41.43152 43.32144 42.37648
# Shear Modulus (GPa) = 26.44174 28.57776 27.50975
#
# Velocity S-wave (km/s) = 3.69975 3.84629 3.77373
# Velocity P-wave (km/s) = 6.30071 6.49243 6.39729
#
# Compressibility (1/GPa) = 0.02413621
#
# Stress axis : x y z
#
# Youngs Moduli (GPa) = 64.60190 88.50819 67.91762
#
# Poissons Ratio (x) = 0.27716 0.14296
# Poissons Ratio (y) = 0.20230 0.23407
# Poissons Ratio (z) = 0.13598 0.30503
#
# Static dielectric constant tensor:
#      x y z
#    x 3.603560 0.000000 0.000000 
#    y 0.000000 3.696790 0.000000 
#    z 0.000000 0.000000 3.580170 
# 
# 
# High freq. dielectric constant tensor:
#      x y z
#    x 1.730280 0.000000 0.000000 
#    y 0.000000 1.770190 0.000000 
#    z 0.000000 0.000000 1.757180 
# 
# From -- ./inp_files/22725.got.cif
#   From: 2010.03.12/outbox.cif.g09.slc.cpg/sg59_12_cif.got.tgz:22725.got - 2010.04.16 16:29:54.
