data_PCOD8243752
_publ_section_title
;
Structure prediction by ZEFSAII (Michael W. Deem and Ramdas Pophale) SiO2 
 PCOD8243752
Probable space group: P M M N
;
_chemical_formula_sum "Si O2"
_cell_formula_units_Z 64
_cell_length_a 9.172528
_cell_length_b 23.679722
_cell_length_c 16.705771
_cell_angle_alpha 90.000000
_cell_angle_beta 90.000000
_cell_angle_gamma 90.000000
_cell_volume 3628.542126
_symmetry_space_group_name_H-M "P M M N"
_symmetry_group_IT_number 59
_space_group.IT_coordinate_system_code '2'
_symmetry_cell_setting 'orthorhombic'
loop_
_space_group_symop_operation_xyz
x,y,z
1/2-x,1/2-y,z
1/2+x,-y,-z
-x,1/2+y,-z
-x,-y,-z
1/2+x,1/2+y,-z
1/2-x,y,z
x,1/2-y,z
loop_
_atom_site_type_symbol
_atom_site_label
_atom_site_fract_x
_atom_site_fract_y
_atom_site_fract_z
Si Si1 0.420729 0.615066 0.221019
Si Si2 0.417351 0.094906 0.539776
Si Si3 0.922162 0.979272 0.310305
Si Si4 0.920256 0.587146 0.642358
Si Si5 0.076942 0.685610 0.072139
Si Si6 0.079823 0.816764 0.725608
Si Si7 0.080708 0.812939 0.375736
Si Si8 0.577642 0.187802 0.100601
O O1 0.250000 0.599587 0.215663
O O2 0.511490 0.558379 0.238733
O O3 0.483171 0.643110 0.139618
O O4 0.452000 0.660453 0.289728
O O5 0.250000 0.110497 0.552361
O O6 0.464928 0.047418 0.603673
O O7 0.449065 0.073191 0.450723
O O8 0.505967 0.152154 0.553651
O O9 0.750000 0.985005 0.298184
O O10 0.994998 0.040728 0.305311
O O11 0.750000 0.585254 0.663124
O O12 0.983378 0.649063 0.662139
O O13 0.250000 0.687825 0.080523
O O14 0.017759 0.750000 0.083390
O O15 0.030102 0.659673 0.984436
O O16 0.250000 0.828639 0.709494
O O17 0.047229 0.750000 0.717377
O O18 0.031724 0.840206 0.814683
O O19 0.250000 0.812459 0.395120
O O20 0.016030 0.750000 0.375604
O O21 0.750000 0.193254 0.101973
O O22 0.508716 0.250000 0.099236
#
# Coordination Sequence:
#
# PCOD8243752 Si02
#       8
#     8   8   8   8   8   8   8   8
#     4   9  16  27  45  70  99 127 156 192 230 267
#     4   9  20  35  49  67  90 119 155 196 239 279
#     4  10  20  35  52  68  90 121 157 194 234 280
#     4  11  22  35  52  72  92 116 152 197 240 280
#     4   8  12  20  41  73 102 127 157 191 226 267
#     4   9  18  33  52  74 100 127 154 186 228 278
#     4   9  17  28  43  66  97 130 159 187 223 270
#     4   7  11  22  42  69  98 125 154 188 224 265
#
# _framework density 17.637937000000001
#
# number of rings (size 3 to 8) (size 9 to 14) (size 15 to 20)
#    0.000    3.000    0.000    3.000    0.000    4.000 
#    0.000    2.500    0.000    2.625    0.000    1.750 
#    0.000    0.000    0.000    0.000    0.000    0.000 
#
# Total GULP energy -793054.525266 kJ/mol
# GULP energy per Si atom -12391.476957 kJ/mol
# Density = 1.759779 g / cm^3
# Si number density = 17.637937 Si / 1000 Ang^3
#
#
#
# Elastic Constant Matrix: (Units=GPa)
#
#
# Indices 1 2 3 4 5 6 
#
# 1 48.1770 33.8017 24.5893 0.0000 0.0000 0.0000
# 2 33.8017 80.3072 23.0813 0.0000 0.0000 0.0000
# 3 24.5893 23.0813 71.3333 0.0000 0.0000 0.0000
# 4 0.0000 0.0000 0.0000 19.1861 0.0000 0.0000
# 5 0.0000 0.0000 0.0000 0.0000 15.0313 0.0000
# 6 0.0000 0.0000 0.0000 0.0000 0.0000 25.5666
#
#
#
# Elastic Compliance Matrix: (Units=1/GPa)
#
#
# Indices 1 2 3 4 5 6 
#
# 1 0.032755 -0.011622 -0.007530 0.000000 0.000000 0.000000
# 2 -0.011622 0.017853 -0.001770 0.000000 0.000000 0.000000
# 3 -0.007530 -0.001770 0.017187 0.000000 0.000000 0.000000
# 4 0.000000 0.000000 0.000000 0.052121 0.000000 0.000000
# 5 0.000000 0.000000 0.000000 0.000000 0.066528 0.000000
# 6 0.000000 0.000000 0.000000 0.000000 0.000000 0.039114
#
#
# Mechanical properties :
#
#
# Convention : Reuss Voigt Hill
#
# Bulk Modulus (GPa) = 38.53704 40.30689 39.42197
# Shear Modulus (GPa) = 18.11250 19.84648 18.97949
#
# Velocity S-wave (km/s) = 3.20801 3.35806 3.28390
# Velocity P-wave (km/s) = 5.96810 6.15934 6.06447
#
# Compressibility (1/GPa) = 0.02594906
#
# Stress axis : x y z
#
# Youngs Moduli (GPa) = 30.53013 56.01339 58.18268
#
# Poissons Ratio (x) = 0.65100 0.43813
# Poissons Ratio (y) = 0.35483 0.10300
# Poissons Ratio (z) = 0.22990 0.09916
#
# Static dielectric constant tensor:
#      x y z
#    x 2.986680 0.000000 0.000000 
#    y 0.000000 3.132120 0.000000 
#    z 0.000000 0.000000 3.526690 
# 
# 
# High freq. dielectric constant tensor:
#      x y z
#    x 1.653420 0.000000 0.000000 
#    y 0.000000 1.662720 0.000000 
#    z 0.000000 0.000000 1.682240 
# 
# From -- ./inp_files/26452.got.cif
#   From: 2010.03.12/outbox.cif.g09.slc.cpg/sg59_14_cif.got.tgz:26452.got - 2010.04.16 16:29:54.
