data_PCOD8243671
_publ_section_title
;
Structure prediction by ZEFSAII (Michael W. Deem and Ramdas Pophale) SiO2 
 PCOD8243671
Probable space group: P M M N
;
_chemical_formula_sum "Si O2"
_cell_formula_units_Z 56
_cell_length_a 22.707126
_cell_length_b 9.058018
_cell_length_c 14.632178
_cell_angle_alpha 90.000000
_cell_angle_beta 90.000000
_cell_angle_gamma 90.000000
_cell_volume 3009.569139
_symmetry_space_group_name_H-M "P M M N"
_symmetry_group_IT_number 59
_space_group.IT_coordinate_system_code '2'
_symmetry_cell_setting 'orthorhombic'
loop_
_space_group_symop_operation_xyz
x,y,z
1/2-x,1/2-y,z
1/2+x,-y,-z
-x,1/2+y,-z
-x,-y,-z
1/2+x,1/2+y,-z
1/2-x,y,z
x,1/2-y,z
loop_
_atom_site_type_symbol
_atom_site_label
_atom_site_fract_x
_atom_site_fract_y
_atom_site_fract_z
Si Si1 0.072678 0.078070 0.583981
Si Si2 0.405873 0.583175 0.214561
Si Si3 0.519129 0.917644 0.090985
Si Si4 0.635575 0.425486 0.127578
Si Si5 0.183805 0.079472 0.701571
Si Si6 0.815718 0.425654 0.933671
Si Si7 0.955275 0.577448 0.620940
O O1 0.060336 0.250000 0.599386
O O2 0.135823 0.030538 0.625638
O O3 0.072586 0.037205 0.477100
O O4 0.019896 0.992651 0.634153
O O5 0.389134 0.750000 0.242654
O O6 0.467112 0.580558 0.162674
O O7 0.356233 0.513332 0.148207
O O8 0.409586 0.485591 0.305327
O O9 0.536925 0.750000 0.066258
O O10 0.571995 0.001844 0.140777
O O11 0.500000 0.000000 0.000000
O O12 0.630109 0.250000 0.130952
O O13 0.677696 0.480294 0.208271
O O14 0.661423 0.482525 0.031355
O O15 0.250000 0.055265 0.662327
O O16 0.173811 0.250000 0.728407
O O17 0.750000 0.485058 0.917506
O O18 0.818357 0.250000 0.934349
O O19 0.962189 0.750000 0.635594
#
# Coordination Sequence:
#
# PCOD8243671 Si02
#       7
#     8   8   8   8   8   8   8
#     4   9  19  37  57  78 107 140 173 215 271 330
#     4  10  20  35  53  76 106 140 176 214 264 319
#     4  11  21  34  52  78 109 142 179 222 271 321
#     4  11  21  35  54  80 110 143 182 223 271 322
#     4  10  21  37  56  79 108 145 185 223 269 328
#     4   9  18  34  53  71  98 140 183 215 251 308
#     4  10  20  34  56  84 107 134 175 222 272 322
#
# _framework density 18.607315
#
# number of rings (size 3 to 8) (size 9 to 14) (size 15 to 20)
#    0.000    2.000    1.429    2.571    0.000    6.571 
#    0.000    0.714    0.000    3.000    0.000    0.000 
#    0.000    0.000    0.000    0.000    0.000    0.000 
#
# Total GULP energy -694512.925244 kJ/mol
# GULP energy per Si atom -12402.016522 kJ/mol
# Density = 1.856496 g / cm^3
# Si number density = 18.607315 Si / 1000 Ang^3
#
#
#
# Elastic Constant Matrix: (Units=GPa)
#
#
# Indices 1 2 3 4 5 6 
#
# 1 138.1172 37.9843 60.3855 0.0000 0.0000 0.0000
# 2 37.9843 66.4216 42.6575 0.0000 0.0000 0.0000
# 3 60.3855 42.6575 112.1458 0.0000 0.0000 0.0000
# 4 0.0000 0.0000 0.0000 32.1919 0.0000 0.0000
# 5 0.0000 0.0000 0.0000 0.0000 28.8001 0.0000
# 6 0.0000 0.0000 0.0000 0.0000 0.0000 23.0872
#
#
#
# Elastic Compliance Matrix: (Units=1/GPa)
#
#
# Indices 1 2 3 4 5 6 
#
# 1 0.009890 -0.002958 -0.004200 0.000000 0.000000 0.000000
# 2 -0.002958 0.020807 -0.006321 0.000000 0.000000 0.000000
# 3 -0.004200 -0.006321 0.013583 0.000000 0.000000 0.000000
# 4 0.000000 0.000000 0.000000 0.031064 0.000000 0.000000
# 5 0.000000 0.000000 0.000000 0.000000 0.034722 0.000000
# 6 0.000000 0.000000 0.000000 0.000000 0.000000 0.043314
#
#
# Mechanical properties :
#
#
# Convention : Reuss Voigt Hill
#
# Bulk Modulus (GPa) = 57.73612 66.52656 62.13134
# Shear Modulus (GPa) = 26.86533 28.52632 27.69582
#
# Velocity S-wave (km/s) = 3.80387 3.91969 3.86221
# Velocity P-wave (km/s) = 7.09849 7.50439 7.30426
#
# Compressibility (1/GPa) = 0.01732018
#
# Stress axis : x y z
#
# Youngs Moduli (GPa) = 101.11084 48.06078 73.62119
#
# Poissons Ratio (x) = 0.14219 0.30921
# Poissons Ratio (y) = 0.29913 0.46539
# Poissons Ratio (z) = 0.42467 0.30381
#
# Static dielectric constant tensor:
#      x y z
#    x 3.532070 0.000000 0.000000 
#    y 0.000000 3.367860 0.000000 
#    z 0.000000 0.000000 3.544700 
# 
# 
# High freq. dielectric constant tensor:
#      x y z
#    x 1.720750 0.000000 0.000000 
#    y 0.000000 1.711070 0.000000 
#    z 0.000000 0.000000 1.721670 
# 
# From -- ./inp_files/20963.got.cif
#   From: 2010.03.12/outbox.cif.g09.slc.cpg/sg59_11_cif.got.tgz:20963.got - 2010.04.16 16:29:54.
