data_PCOD8243122
_publ_section_title
;
Structure prediction by ZEFSAII (Michael W. Deem and Ramdas Pophale) SiO2 
 PCOD8243122
Probable space group: P M M N
;
_chemical_formula_sum "Si O2"
_cell_formula_units_Z 48
_cell_length_a 15.119408
_cell_length_b 8.697023
_cell_length_c 18.529495
_cell_angle_alpha 90.000000
_cell_angle_beta 90.000000
_cell_angle_gamma 90.000000
_cell_volume 2436.514435
_symmetry_space_group_name_H-M "P M M N"
_symmetry_group_IT_number 59
_space_group.IT_coordinate_system_code '2'
_symmetry_cell_setting 'orthorhombic'
loop_
_space_group_symop_operation_xyz
x,y,z
1/2-x,1/2-y,z
1/2+x,-y,-z
-x,1/2+y,-z
-x,-y,-z
1/2+x,1/2+y,-z
1/2-x,y,z
x,1/2-y,z
loop_
_atom_site_type_symbol
_atom_site_label
_atom_site_fract_x
_atom_site_fract_y
_atom_site_fract_z
Si Si1 0.847135 0.428191 0.110372
Si Si2 0.852046 0.071318 0.563549
Si Si3 0.916449 0.426906 0.964716
Si Si4 0.350579 0.071227 0.589288
Si Si5 0.991727 0.570672 0.669123
Si Si6 0.483801 0.929742 0.179979
O O1 0.750000 0.463943 0.142333
O O2 0.873471 0.250000 0.123235
O O3 0.917472 0.535212 0.150509
O O4 0.838961 0.459293 0.022731
O O5 0.750000 0.035159 0.581711
O O6 0.874341 0.250000 0.573662
O O7 0.874043 0.024953 0.481897
O O8 0.912467 0.972636 0.616119
O O9 0.937540 0.250000 0.956428
O O10 0.910217 0.482982 0.880867
O O11 0.000000 0.500000 0.000000
O O12 0.250000 0.038006 0.614700
O O13 0.364186 0.250000 0.571840
O O14 0.417450 0.018942 0.651617
O O15 0.011013 0.750000 0.663449
O O16 0.961837 0.527270 0.749479
O O17 0.477487 0.750000 0.199399
#
# Coordination Sequence:
#
# PCOD8243122 Si02
#       6
#     8   8   8   8   8   8
#     4   9  17  31  52  77 103 132 169 213 264 323
#     4  10  21  39  62  85 110 142 183 230 277 328
#     4   8  15  29  49  70  93 125 164 205 248 300
#     4  10  21  38  60  85 113 145 184 230 276 326
#     4  12  24  37  56  81 113 151 188 228 276 331
#     4  10  20  34  51  73 104 139 177 219 265 319
#
# _framework density 19.700271999999998
#
# number of rings (size 3 to 8) (size 9 to 14) (size 15 to 20)
#    0.000    2.167    0.000    3.500    0.000    3.667 
#    0.000    0.833    0.000    3.000    0.000    0.000 
#    0.000    0.000    0.000    0.000    0.000    0.000 
#
# Total GULP energy -594782.907257 kJ/mol
# GULP energy per Si atom -12391.310568 kJ/mol
# Density = 1.965543 g / cm^3
# Si number density = 19.700272 Si / 1000 Ang^3
#
#
#
# Elastic Constant Matrix: (Units=GPa)
#
#
# Indices 1 2 3 4 5 6 
#
# 1 41.8643 17.4295 8.6568 0.0000 0.0000 0.0000
# 2 17.4295 54.3348 16.0365 0.0000 0.0000 0.0000
# 3 8.6568 16.0365 78.2508 0.0000 0.0000 0.0000
# 4 0.0000 0.0000 0.0000 32.8014 0.0000 0.0000
# 5 0.0000 0.0000 0.0000 0.0000 18.5302 0.0000
# 6 0.0000 0.0000 0.0000 0.0000 0.0000 24.8240
#
#
#
# Elastic Compliance Matrix: (Units=1/GPa)
#
#
# Indices 1 2 3 4 5 6 
#
# 1 0.027697 -0.008494 -0.001323 0.000000 0.000000 0.000000
# 2 -0.008494 0.022194 -0.003609 0.000000 0.000000 0.000000
# 3 -0.001323 -0.003609 0.013665 0.000000 0.000000 0.000000
# 4 0.000000 0.000000 0.000000 0.030487 0.000000 0.000000
# 5 0.000000 0.000000 0.000000 0.000000 0.053966 0.000000
# 6 0.000000 0.000000 0.000000 0.000000 0.000000 0.040284
#
#
# Mechanical properties :
#
#
# Convention : Reuss Voigt Hill
#
# Bulk Modulus (GPa) = 27.24485 28.74395 27.99440
# Shear Modulus (GPa) = 21.98971 24.05293 23.02132
#
# Velocity S-wave (km/s) = 3.34460 3.49799 3.42216
# Velocity P-wave (km/s) = 5.36422 5.56210 5.46405
#
# Compressibility (1/GPa) = 0.03670419
#
# Stress axis : x y z
#
# Youngs Moduli (GPa) = 36.10541 45.05681 73.17762
#
# Poissons Ratio (x) = 0.38271 0.09684
# Poissons Ratio (y) = 0.30668 0.26408
# Poissons Ratio (z) = 0.04778 0.16260
#
# Static dielectric constant tensor:
#      x y z
#    x 5.424490 0.000000 0.000000 
#    y 0.000000 3.659510 0.000000 
#    z 0.000000 0.000000 3.879560 
# 
# 
# High freq. dielectric constant tensor:
#      x y z
#    x 1.750180 0.000000 0.000000 
#    y 0.000000 1.771570 0.000000 
#    z 0.000000 0.000000 1.771330 
# 
# From -- ./inp_files/25435.got.cif
#   From: 2010.03.12/outbox.cif.g09.slc.cpg/sg59_13_cif.got.tgz:25435.got - 2010.04.16 16:29:54.
