data_PCOD8243662
_publ_section_title
;
Structure prediction by ZEFSAII (Michael W. Deem and Ramdas Pophale) SiO2 
 PCOD8243662
Probable space group: P M M N
;
_chemical_formula_sum "Si O2"
_cell_formula_units_Z 64
_cell_length_a 9.336356
_cell_length_b 29.269989
_cell_length_c 12.290142
_cell_angle_alpha 90.000000
_cell_angle_beta 90.000000
_cell_angle_gamma 90.000000
_cell_volume 3358.589015
_symmetry_space_group_name_H-M "P M M N"
_symmetry_group_IT_number 59
_space_group.IT_coordinate_system_code '2'
_symmetry_cell_setting 'orthorhombic'
loop_
_space_group_symop_operation_xyz
x,y,z
1/2-x,1/2-y,z
1/2+x,-y,-z
-x,1/2+y,-z
-x,-y,-z
1/2+x,1/2+y,-z
1/2-x,y,z
x,1/2-y,z
loop_
_atom_site_type_symbol
_atom_site_label
_atom_site_fract_x
_atom_site_fract_y
_atom_site_fract_z
Si Si1 0.583235 0.472562 0.092903
Si Si2 0.588664 0.004552 0.335775
Si Si3 0.079998 0.866824 0.897009
Si Si4 0.418263 0.656345 0.490245
Si Si5 0.416377 0.198315 0.947198
Si Si6 0.411674 0.066864 0.488094
Si Si7 0.080393 0.699732 0.710295
Si Si8 0.091972 0.197652 0.695611
O O1 0.750000 0.473869 0.062386
O O2 0.553346 0.497887 0.207563
O O3 0.530267 0.419745 0.102598
O O4 0.500000 0.500000 0.000000
O O5 0.750000 0.025543 0.351188
O O6 0.465371 0.032681 0.395251
O O7 0.584314 0.954506 0.390392
O O8 0.250000 0.863775 0.906046
O O9 0.022664 0.840625 0.788735
O O10 0.012257 0.840044 0.997427
O O11 0.250000 0.652345 0.481929
O O12 0.479599 0.607729 0.519467
O O13 0.466856 0.690516 0.586232
O O14 0.475053 0.671705 0.374096
O O15 0.250000 0.189778 0.973498
O O16 0.459116 0.250000 0.983426
O O17 0.448602 0.192204 0.820609
O O18 0.250000 0.081819 0.459339
O O19 0.250000 0.700138 0.718332
O O20 0.020125 0.750000 0.744014
O O21 0.250000 0.176834 0.673051
O O22 0.091291 0.250000 0.660786
#
# Coordination Sequence:
#
# PCOD8243662 Si02
#       8
#     8   8   8   8   8   8   8   8
#     4  10  22  39  57  79 109 144 182 226 280 336
#     4   9  19  38  59  77 102 137 177 221 269 321
#     4  10  20  35  57  82 106 136 179 228 272 319
#     4  11  21  33  52  79 112 145 178 216 260 318
#     4   9  19  36  56  78 107 143 180 220 271 329
#     4  10  20  34  56  83 107 136 176 220 267 319
#     4   9  18  33  54  80 110 144 179 218 267 319
#     4   9  19  36  54  72 101 140 177 217 264 309
#
# _framework density 19.055622
#
# number of rings (size 3 to 8) (size 9 to 14) (size 15 to 20)
#    0.000    2.375    0.000    3.000    0.000    6.500 
#    0.000    7.500    0.000    3.000    0.000    0.000 
#    0.000    0.000    0.000    0.000    0.000    0.000 
#
# Total GULP energy -793362.630412 kJ/mol
# GULP energy per Si atom -12396.291100 kJ/mol
# Density = 1.901225 g / cm^3
# Si number density = 19.055622 Si / 1000 Ang^3
#
#
#
# Elastic Constant Matrix: (Units=GPa)
#
#
# Indices 1 2 3 4 5 6 
#
# 1 60.4504 32.4164 42.1904 0.0000 0.0000 0.0000
# 2 32.4164 93.5466 39.6982 0.0000 0.0000 0.0000
# 3 42.1904 39.6982 90.0888 0.0000 0.0000 0.0000
# 4 0.0000 0.0000 0.0000 27.3803 0.0000 0.0000
# 5 0.0000 0.0000 0.0000 0.0000 30.2445 0.0000
# 6 0.0000 0.0000 0.0000 0.0000 0.0000 28.9203
#
#
#
# Elastic Compliance Matrix: (Units=1/GPa)
#
#
# Indices 1 2 3 4 5 6 
#
# 1 0.026193 -0.004761 -0.010168 0.000000 0.000000 0.000000
# 2 -0.004761 0.014014 -0.003946 0.000000 0.000000 0.000000
# 3 -0.010168 -0.003946 0.017601 0.000000 0.000000 0.000000
# 4 0.000000 0.000000 0.000000 0.036523 0.000000 0.000000
# 5 0.000000 0.000000 0.000000 0.000000 0.033064 0.000000
# 6 0.000000 0.000000 0.000000 0.000000 0.000000 0.034578
#
#
# Mechanical properties :
#
#
# Convention : Reuss Voigt Hill
#
# Bulk Modulus (GPa) = 49.85794 52.52177 51.18985
# Shear Modulus (GPa) = 24.22383 25.96107 25.09245
#
# Velocity S-wave (km/s) = 3.56928 3.69505 3.63271
# Velocity P-wave (km/s) = 6.57325 6.76954 6.67212
#
# Compressibility (1/GPa) = 0.02005699
#
# Stress axis : x y z
#
# Youngs Moduli (GPa) = 38.17869 71.35630 56.81519
#
# Poissons Ratio (x) = 0.33975 0.57772
# Poissons Ratio (y) = 0.18178 0.22417
# Poissons Ratio (z) = 0.38822 0.28155
#
# Static dielectric constant tensor:
#      x y z
#    x 3.349480 0.000000 0.000000 
#    y 0.000000 3.603420 0.000000 
#    z 0.000000 0.000000 3.529690 
# 
# 
# High freq. dielectric constant tensor:
#      x y z
#    x 1.728130 0.000000 0.000000 
#    y 0.000000 1.740830 0.000000 
#    z 0.000000 0.000000 1.745160 
# 
# From -- ./inp_files/14945.got.cif
#   From: 2010.03.12/outbox.cif.g09.slc.cpg/sg59_8_cif.got.tgz:14945.got - 2010.04.16 16:29:54.
