data_PCOD8243878
_publ_section_title
;
Structure prediction by ZEFSAII (Michael W. Deem and Ramdas Pophale) SiO2 
 PCOD8243878
Probable space group: P M M N
;
_chemical_formula_sum "Si O2"
_cell_formula_units_Z 56
_cell_length_a 9.235187
_cell_length_b 13.418381
_cell_length_c 23.379659
_cell_angle_alpha 90.000000
_cell_angle_beta 90.000000
_cell_angle_gamma 90.000000
_cell_volume 2897.236750
_symmetry_space_group_name_H-M "P M M N"
_symmetry_group_IT_number 59
_space_group.IT_coordinate_system_code '2'
_symmetry_cell_setting 'orthorhombic'
loop_
_space_group_symop_operation_xyz
x,y,z
1/2-x,1/2-y,z
1/2+x,-y,-z
-x,1/2+y,-z
-x,-y,-z
1/2+x,1/2+y,-z
1/2-x,y,z
x,1/2-y,z
loop_
_atom_site_type_symbol
_atom_site_label
_atom_site_fract_x
_atom_site_fract_y
_atom_site_fract_z
Si Si1 0.578634 0.944610 0.713335
Si Si2 0.580560 0.102526 0.998977
Si Si3 0.419499 0.865747 0.215506
Si Si4 0.415721 0.860684 0.485957
Si Si5 0.914960 0.250000 0.099537
Si Si6 0.407319 0.141146 0.891418
Si Si7 0.922451 0.750000 0.782047
Si Si8 0.920676 0.952189 0.585306
O O1 0.750000 0.937763 0.711992
O O2 0.519894 0.850240 0.750149
O O3 0.516577 0.936885 0.649009
O O4 0.532459 0.054217 0.736444
O O5 0.750000 0.093860 0.985198
O O6 0.502619 0.159108 0.947709
O O7 0.554569 0.154122 0.059965
O O8 0.500000 0.000000 0.000000
O O9 0.250000 0.873535 0.202757
O O10 0.457837 0.750000 0.232344
O O11 0.500121 0.908924 0.159095
O O12 0.250000 0.880229 0.503104
O O13 0.438925 0.750000 0.461079
O O14 0.508777 0.871503 0.543488
O O15 0.464200 0.937318 0.436621
O O16 0.750000 0.250000 0.121456
O O17 0.020002 0.250000 0.153318
O O18 0.250000 0.086172 0.902266
O O19 0.371043 0.250000 0.868072
O O20 0.750000 0.750000 0.785124
O O21 0.750000 0.935524 0.584582
#
# Coordination Sequence:
#
# PCOD8243878 Si02
#       8
#     8   8   8   8   4   8   4   8
#     4   9  19  35  55  81 107 142 190 234 275 324
#     4  11  23  39  59  83 110 142 180 227 278 333
#     4   9  18  33  54  78 106 140 180 230 283 335
#     4   9  18  32  51  79 114 146 177 223 280 328
#     4  10  24  44  60  82 116 146 183 228 277 336
#     4  10  20  35  55  80 108 138 176 219 273 337
#     4  10  22  38  56  78 110 148 189 232 271 322
#     4   9  18  33  54  79 108 143 188 230 270 324
#
# _framework density 19.328764
#
# number of rings (size 3 to 8) (size 9 to 14) (size 15 to 20)
#    0.000    2.429    0.714    0.857    3.000    2.571 
#    0.000    4.286    0.000    0.000    0.000    2.000 
#    0.000    0.000    0.000    0.000    0.000    0.000 
#
# Total GULP energy -693864.394673 kJ/mol
# GULP energy per Si atom -12390.435619 kJ/mol
# Density = 1.928477 g / cm^3
# Si number density = 19.328764 Si / 1000 Ang^3
#
#
#
# Elastic Constant Matrix: (Units=GPa)
#
#
# Indices 1 2 3 4 5 6 
#
# 1 64.5729 29.7900 42.1149 0.0000 0.0000 0.0000
# 2 29.7900 114.4746 43.0755 0.0000 0.0000 0.0000
# 3 42.1149 43.0755 130.6421 0.0000 0.0000 0.0000
# 4 0.0000 0.0000 0.0000 22.3428 0.0000 0.0000
# 5 0.0000 0.0000 0.0000 0.0000 28.3371 0.0000
# 6 0.0000 0.0000 0.0000 0.0000 0.0000 19.5594
#
#
#
# Elastic Compliance Matrix: (Units=1/GPa)
#
#
# Indices 1 2 3 4 5 6 
#
# 1 0.020630 -0.003272 -0.005572 0.000000 0.000000 0.000000
# 2 -0.003272 0.010492 -0.002405 0.000000 0.000000 0.000000
# 3 -0.005572 -0.002405 0.010243 0.000000 0.000000 0.000000
# 4 0.000000 0.000000 0.000000 0.044757 0.000000 0.000000
# 5 0.000000 0.000000 0.000000 0.000000 0.035289 0.000000
# 6 0.000000 0.000000 0.000000 0.000000 0.000000 0.051126
#
#
# Mechanical properties :
#
#
# Convention : Reuss Voigt Hill
#
# Bulk Modulus (GPa) = 52.99775 59.96115 56.47945
# Shear Modulus (GPa) = 24.83563 27.02847 25.93205
#
# Velocity S-wave (km/s) = 3.58845 3.74352 3.66680
# Velocity P-wave (km/s) = 6.68191 7.05509 6.87103
#
# Compressibility (1/GPa) = 0.01886873
#
# Stress axis : x y z
#
# Youngs Moduli (GPa) = 48.47392 95.31194 97.62353
#
# Poissons Ratio (x) = 0.31186 0.54391
# Poissons Ratio (y) = 0.15861 0.23475
# Poissons Ratio (z) = 0.27007 0.22919
#
# Static dielectric constant tensor:
#      x y z
#    x 4.048310 0.000000 0.000000 
#    y 0.000000 3.638580 0.000000 
#    z 0.000000 0.000000 3.614910 
# 
# 
# High freq. dielectric constant tensor:
#      x y z
#    x 1.735040 0.000000 0.000000 
#    y 0.000000 1.757840 0.000000 
#    z 0.000000 0.000000 1.746220 
# 
# From -- ./inp_files/29196.got.cif
#   From: 2010.03.12/outbox.cif.g09.slc.cpg/sg59_15_cif.got.tgz:29196.got - 2010.04.16 16:29:54.
