data_PCOD8243971
_publ_section_title
;
Structure prediction by ZEFSAII (Michael W. Deem and Ramdas Pophale) SiO2 
 PCOD8243971
Probable space group: P M M N
;
_chemical_formula_sum "Si O2"
_cell_formula_units_Z 64
_cell_length_a 9.011605
_cell_length_b 19.110350
_cell_length_c 19.907276
_cell_angle_alpha 90.000000
_cell_angle_beta 90.000000
_cell_angle_gamma 90.000000
_cell_volume 3428.330055
_symmetry_space_group_name_H-M "P M M N"
_symmetry_group_IT_number 59
_space_group.IT_coordinate_system_code '2'
_symmetry_cell_setting 'orthorhombic'
loop_
_space_group_symop_operation_xyz
x,y,z
1/2-x,1/2-y,z
1/2+x,-y,-z
-x,1/2+y,-z
-x,-y,-z
1/2+x,1/2+y,-z
1/2-x,y,z
x,1/2-y,z
loop_
_atom_site_type_symbol
_atom_site_label
_atom_site_fract_x
_atom_site_fract_y
_atom_site_fract_z
Si Si1 0.913526 0.667178 0.034343
Si Si2 0.922638 0.043581 0.596422
Si Si3 0.079158 0.170649 0.347394
Si Si4 0.078319 0.594917 0.546795
Si Si5 0.424952 0.330323 0.115519
Si Si6 0.080452 0.832851 0.164501
Si Si7 0.577059 0.929199 0.268452
Si Si8 0.422884 0.586309 0.768398
O O1 0.750000 0.635637 0.049946
O O2 0.901012 0.750000 0.034745
O O3 0.028629 0.641252 0.090653
O O4 0.966353 0.644764 0.959941
O O5 0.750000 0.026172 0.607085
O O6 0.945198 0.095868 0.533334
O O7 0.988907 0.080047 0.661989
O O8 0.009706 0.972912 0.581873
O O9 0.250000 0.149464 0.352368
O O10 0.059662 0.250000 0.323073
O O11 0.004025 0.161577 0.420746
O O12 0.000677 0.120212 0.295248
O O13 0.250000 0.596650 0.566254
O O14 0.250000 0.337097 0.128577
O O15 0.474811 0.250000 0.128359
O O16 0.511742 0.382542 0.163550
O O17 0.250000 0.856191 0.174203
O O18 0.061241 0.750000 0.171919
O O19 0.978292 0.868279 0.219968
O O20 0.750000 0.918797 0.283323
O O21 0.545238 0.003650 0.233535
O O22 0.250000 0.603523 0.764917
#
# Coordination Sequence:
#
# PCOD8243971 Si02
#       8
#     8   8   8   8   8   8   8   8
#     4   8  15  31  55  80 107 141 181 224 272 330
#     4  10  20  35  58  83 109 142 180 225 274 325
#     4  11  23  37  55  80 112 152 193 232 278 331
#     4  10  20  35  56  83 109 139 182 227 274 326
#     4   9  18  33  54  80 110 147 189 229 273 328
#     4  10  21  37  59  86 111 137 176 227 283 341
#     4  11  23  38  57  82 112 147 187 228 274 332
#     4  11  23  36  52  79 112 147 189 233 276 326
#
# _framework density 18.667981000000001
#
# number of rings (size 3 to 8) (size 9 to 14) (size 15 to 20)
#    0.000    2.000    1.250    3.375    0.000    7.000 
#    0.000    2.500    0.000    0.750    0.000    0.000 
#    0.000    0.000    0.000    0.000    0.000    0.000 
#
# Total GULP energy -793645.856084 kJ/mol
# GULP energy per Si atom -12400.716501 kJ/mol
# Density = 1.862549 g / cm^3
# Si number density = 18.667981 Si / 1000 Ang^3
#
#
#
# Elastic Constant Matrix: (Units=GPa)
#
#
# Indices 1 2 3 4 5 6 
#
# 1 81.8020 32.5294 50.2236 0.0000 0.0000 0.0000
# 2 32.5294 45.9662 34.4253 0.0000 0.0000 0.0000
# 3 50.2236 34.4253 121.7592 0.0000 0.0000 0.0000
# 4 0.0000 0.0000 0.0000 27.2331 0.0000 0.0000
# 5 0.0000 0.0000 0.0000 0.0000 37.7671 0.0000
# 6 0.0000 0.0000 0.0000 0.0000 0.0000 28.5808
#
#
#
# Elastic Compliance Matrix: (Units=1/GPa)
#
#
# Indices 1 2 3 4 5 6 
#
# 1 0.019300 -0.009764 -0.005201 0.000000 0.000000 0.000000
# 2 -0.009764 0.032538 -0.005172 0.000000 0.000000 0.000000
# 3 -0.005201 -0.005172 0.011820 0.000000 0.000000 0.000000
# 4 0.000000 0.000000 0.000000 0.036720 0.000000 0.000000
# 5 0.000000 0.000000 0.000000 0.000000 0.026478 0.000000
# 6 0.000000 0.000000 0.000000 0.000000 0.000000 0.034988
#
#
# Mechanical properties :
#
#
# Convention : Reuss Voigt Hill
#
# Bulk Modulus (GPa) = 42.76049 53.76491 48.26270
# Shear Modulus (GPa) = 23.81933 27.53949 25.67941
#
# Velocity S-wave (km/s) = 3.57591 3.84503 3.71291
# Velocity P-wave (km/s) = 6.32496 6.96961 6.65509
#
# Compressibility (1/GPa) = 0.02338607
#
# Stress axis : x y z
#
# Youngs Moduli (GPa) = 51.81304 30.73304 84.59920
#
# Poissons Ratio (x) = 0.30006 0.43996
# Poissons Ratio (y) = 0.50588 0.43757
# Poissons Ratio (z) = 0.26945 0.15896
#
# Static dielectric constant tensor:
#      x y z
#    x 3.613890 0.000000 0.000000 
#    y 0.000000 3.187570 0.000000 
#    z 0.000000 0.000000 3.740590 
# 
# 
# High freq. dielectric constant tensor:
#      x y z
#    x 1.737470 0.000000 0.000000 
#    y 0.000000 1.694570 0.000000 
#    z 0.000000 0.000000 1.736840 
# 
# From -- ./inp_files/29714.got.cif
#   From: 2010.03.12/outbox.cif.g09.slc.cpg/sg59_15_cif.got.tgz:29714.got - 2010.04.16 16:29:54.
