data_PCOD8243124
_publ_section_title
;
Structure prediction by ZEFSAII (Michael W. Deem and Ramdas Pophale) SiO2 
 PCOD8243124
Probable space group: P M M N
;
_chemical_formula_sum "Si O2"
_cell_formula_units_Z 56
_cell_length_a 29.713451
_cell_length_b 18.316905
_cell_length_c 5.304838
_cell_angle_alpha 90.000000
_cell_angle_beta 90.000000
_cell_angle_gamma 90.000000
_cell_volume 2887.202956
_symmetry_space_group_name_H-M "P M M N"
_symmetry_group_IT_number 59
_space_group.IT_coordinate_system_code '2'
_symmetry_cell_setting 'orthorhombic'
loop_
_space_group_symop_operation_xyz
x,y,z
1/2-x,1/2-y,z
1/2+x,-y,-z
-x,1/2+y,-z
-x,-y,-z
1/2+x,1/2+y,-z
1/2-x,y,z
x,1/2-y,z
loop_
_atom_site_type_symbol
_atom_site_label
_atom_site_fract_x
_atom_site_fract_y
_atom_site_fract_z
Si Si1 0.401654 0.129648 0.455217
Si Si2 0.145252 0.170641 0.969010
Si Si3 0.696958 0.523212 0.032630
Si Si4 0.560222 0.433605 0.427028
Si Si5 0.485644 0.438602 0.811583
Si Si6 0.649767 0.016467 0.544807
Si Si7 0.510199 0.663882 0.780033
O O1 0.384982 0.157845 0.722932
O O2 0.382283 0.050869 0.392206
O O3 0.457043 0.137006 0.452602
O O4 0.385288 0.178346 0.219343
O O5 0.169202 0.250000 0.937550
O O6 0.182676 0.107639 0.997716
O O7 0.750000 0.519007 0.019747
O O8 0.681620 0.492594 0.303134
O O9 0.678186 0.472504 0.802533
O O10 0.531227 0.417428 0.671900
O O11 0.554166 0.520231 0.346575
O O12 0.613380 0.419136 0.481950
O O13 0.539445 0.374068 0.232143
O O14 0.500000 0.500000 0.000000
O O15 0.466990 0.367666 0.963246
O O16 0.504713 0.750000 0.787669
#
# Coordination Sequence:
#
# PCOD8243124 Si02
#       7
#     8   8   8   8   8   8   8
#     4  10  21  34  50  76 108 149 195 230 264 308
#     4  10  20  34  51  73 105 147 190 225 272 333
#     4  10  22  37  56  82 107 134 176 239 300 338
#     4  10  21  35  54  78 105 149 196 228 278 334
#     4   9  19  33  52  74 108 142 201 231 259 315
#     4  10  21  36  60  78 107 143 184 235 277 338
#     4  11  23  34  51  79 118 153 189 238 277 322
#
# _framework density 19.395934
#
# number of rings (size 3 to 8) (size 9 to 14) (size 15 to 20)
#    0.000    2.000    0.000    4.286   12.000    0.857 
#    0.000    0.000    0.000    5.143    0.000    0.000 
#    0.000    3.429    0.000    0.000    0.000    0.000 
#
# Total GULP energy -693739.949009 kJ/mol
# GULP energy per Si atom -12388.213375 kJ/mol
# Density = 1.935179 g / cm^3
# Si number density = 19.395934 Si / 1000 Ang^3
#
#
#
# Elastic Constant Matrix: (Units=GPa)
#
#
# Indices 1 2 3 4 5 6 
#
# 1 134.4497 29.4938 46.1123 0.0000 0.0000 0.0000
# 2 29.4938 67.5212 19.2300 0.0000 0.0000 0.0000
# 3 46.1123 19.2300 116.8475 0.0000 0.0000 0.0000
# 4 0.0000 0.0000 0.0000 10.2857 0.0000 0.0000
# 5 0.0000 0.0000 0.0000 0.0000 23.9028 0.0000
# 6 0.0000 0.0000 0.0000 0.0000 0.0000 13.2600
#
#
#
# Elastic Compliance Matrix: (Units=1/GPa)
#
#
# Indices 1 2 3 4 5 6 
#
# 1 0.009191 -0.003128 -0.003112 0.000000 0.000000 0.000000
# 2 -0.003128 0.016603 -0.001498 0.000000 0.000000 0.000000
# 3 -0.003112 -0.001498 0.010033 0.000000 0.000000 0.000000
# 4 0.000000 0.000000 0.000000 0.097223 0.000000 0.000000
# 5 0.000000 0.000000 0.000000 0.000000 0.041836 0.000000
# 6 0.000000 0.000000 0.000000 0.000000 0.000000 0.075415
#
#
# Mechanical properties :
#
#
# Convention : Reuss Voigt Hill
#
# Bulk Modulus (GPa) = 49.13959 56.49897 52.81928
# Shear Modulus (GPa) = 18.34444 24.42185 21.38314
#
# Velocity S-wave (km/s) = 3.07870 3.55226 3.32393
# Velocity P-wave (km/s) = 6.16667 6.78360 6.48248
#
# Compressibility (1/GPa) = 0.02035019
#
# Stress axis : x y z
#
# Youngs Moduli (GPa) = 108.79633 60.22899 99.67160
#
# Poissons Ratio (x) = 0.18843 0.31022
# Poissons Ratio (y) = 0.34037 0.14929
# Poissons Ratio (z) = 0.33862 0.09021
#
# Static dielectric constant tensor:
#      x y z
#    x 3.379890 0.000000 0.000000 
#    y 0.000000 3.445440 0.000000 
#    z 0.000000 0.000000 4.072580 
# 
# 
# High freq. dielectric constant tensor:
#      x y z
#    x 1.730830 0.000000 0.000000 
#    y 0.000000 1.710460 0.000000 
#    z 0.000000 0.000000 1.786550 
# 
# From -- ./inp_files/4294.got.cif
#   From: 2010.03.12/outbox.cif.g09.slc.cpg/sg59_3_cif.got.tgz:4294.got - 2010.04.16 16:29:54.
