data_PCOD8243882
_publ_section_title
;
Structure prediction by ZEFSAII (Michael W. Deem and Ramdas Pophale) SiO2 
 PCOD8243882
Probable space group: P M M N
;
_chemical_formula_sum "Si O2"
_cell_formula_units_Z 48
_cell_length_a 30.592604
_cell_length_b 8.750713
_cell_length_c 9.346110
_cell_angle_alpha 90.000000
_cell_angle_beta 90.000000
_cell_angle_gamma 90.000000
_cell_volume 2502.019981
_symmetry_space_group_name_H-M "P M M N"
_symmetry_group_IT_number 59
_space_group.IT_coordinate_system_code '2'
_symmetry_cell_setting 'orthorhombic'
loop_
_space_group_symop_operation_xyz
x,y,z
1/2-x,1/2-y,z
1/2+x,-y,-z
-x,1/2+y,-z
-x,-y,-z
1/2+x,1/2+y,-z
1/2-x,y,z
x,1/2-y,z
loop_
_atom_site_type_symbol
_atom_site_label
_atom_site_fract_x
_atom_site_fract_y
_atom_site_fract_z
Si Si1 0.618447 0.428064 0.691120
Si Si2 0.250000 0.576787 0.676183
Si Si3 0.452285 0.067609 0.510966
Si Si4 0.342924 0.574079 0.010240
Si Si5 0.750000 0.928475 0.025606
Si Si6 0.321147 0.083420 0.512441
Si Si7 0.608688 0.583790 0.247587
O O1 0.619600 0.250000 0.650508
O O2 0.574913 0.500597 0.623570
O O3 0.661384 0.513960 0.634488
O O4 0.622512 0.453201 0.861757
O O5 0.250000 0.750000 0.733664
O O6 0.250000 0.457968 0.805486
O O7 0.209082 0.546591 0.576814
O O8 0.452604 0.250000 0.498006
O O9 0.434230 0.017619 0.669987
O O10 0.500000 0.000000 0.500000
O O11 0.330975 0.750000 0.991565
O O12 0.295746 0.493884 0.036913
O O13 0.368945 0.524562 0.868228
O O14 0.750000 0.750000 0.995118
O O15 0.298491 0.250000 0.484790
O O16 0.360276 0.110755 0.619179
O O17 0.599326 0.750000 0.175664
#
# Coordination Sequence:
#
# PCOD8243882 Si02
#       7
#     8   4   8   8   4   8   8
#     4  10  22  39  58  84 118 152 189 238 292 347
#     4  12  22  33  54  81 110 146 192 244 288 335
#     4  10  21  39  64  91 117 148 190 240 294 357
#     4  11  23  38  58  85 118 157 200 242 289 345
#     4  12  24  37  56  81 116 158 200 244 288 341
#     4  10  20  35  55  80 109 146 191 237 284 338
#     4   9  19  35  57  83 113 147 187 235 285 343
#
# _framework density 19.184498999999999
#
# number of rings (size 3 to 8) (size 9 to 14) (size 15 to 20)
#    0.000    1.667    1.667    4.500    0.000    6.667 
#    0.000    1.667    0.000    0.000    0.000    0.000 
#    0.000    0.000    0.000    0.000    0.000    0.000 
#
# Total GULP energy -594736.590382 kJ/mol
# GULP energy per Si atom -12390.345633 kJ/mol
# Density = 1.914083 g / cm^3
# Si number density = 19.184499 Si / 1000 Ang^3
#
#
#
# Elastic Constant Matrix: (Units=GPa)
#
#
# Indices 1 2 3 4 5 6 
#
# 1 112.8479 44.9087 40.9437 0.0000 0.0000 0.0000
# 2 44.9087 127.6948 46.7283 0.0000 0.0000 0.0000
# 3 40.9437 46.7283 88.0224 0.0000 0.0000 0.0000
# 4 0.0000 0.0000 0.0000 27.1903 0.0000 0.0000
# 5 0.0000 0.0000 0.0000 0.0000 33.5145 0.0000
# 6 0.0000 0.0000 0.0000 0.0000 0.0000 33.6651
#
#
#
# Elastic Compliance Matrix: (Units=1/GPa)
#
#
# Indices 1 2 3 4 5 6 
#
# 1 0.011289 -0.002543 -0.003901 0.000000 0.000000 0.000000
# 2 -0.002543 0.010292 -0.004281 0.000000 0.000000 0.000000
# 3 -0.003901 -0.004281 0.015448 0.000000 0.000000 0.000000
# 4 0.000000 0.000000 0.000000 0.036778 0.000000 0.000000
# 5 0.000000 0.000000 0.000000 0.000000 0.029838 0.000000
# 6 0.000000 0.000000 0.000000 0.000000 0.000000 0.029704
#
#
# Mechanical properties :
#
#
# Convention : Reuss Voigt Hill
#
# Bulk Modulus (GPa) = 64.18803 65.96962 65.07882
# Shear Modulus (GPa) = 31.25171 31.93961 31.59566
#
# Velocity S-wave (km/s) = 4.04048 4.08470 4.06265
# Velocity P-wave (km/s) = 7.43627 7.53047 7.48352
#
# Compressibility (1/GPa) = 0.01557923
#
# Stress axis : x y z
#
# Youngs Moduli (GPa) = 88.58376 97.16354 64.73310
#
# Poissons Ratio (x) = 0.24704 0.25254
# Poissons Ratio (y) = 0.22523 0.27712
# Poissons Ratio (z) = 0.34559 0.41596
#
# Static dielectric constant tensor:
#      x y z
#    x 3.520320 0.000000 0.000000 
#    y 0.000000 3.759290 0.000000 
#    z 0.000000 0.000000 3.443320 
# 
# 
# High freq. dielectric constant tensor:
#      x y z
#    x 1.736280 0.000000 0.000000 
#    y 0.000000 1.761020 0.000000 
#    z 0.000000 0.000000 1.736130 
# 
# From -- ./inp_files/13041.got.cif
#   From: 2010.03.12/outbox.cif.g09.slc.cpg/sg59_7_cif.got.tgz:13041.got - 2010.04.16 16:29:54.
