data_PCOD8243146
_publ_section_title
;
Structure prediction by ZEFSAII (Michael W. Deem and Ramdas Pophale) SiO2 
 PCOD8243146
Probable space group: P M M N
;
_chemical_formula_sum "Si O2"
_cell_formula_units_Z 56
_cell_length_a 14.622419
_cell_length_b 9.114378
_cell_length_c 21.321083
_cell_angle_alpha 90.000000
_cell_angle_beta 90.000000
_cell_angle_gamma 90.000000
_cell_volume 2841.551432
_symmetry_space_group_name_H-M "P M M N"
_symmetry_group_IT_number 59
_space_group.IT_coordinate_system_code '2'
_symmetry_cell_setting 'orthorhombic'
loop_
_space_group_symop_operation_xyz
x,y,z
1/2-x,1/2-y,z
1/2+x,-y,-z
-x,1/2+y,-z
-x,-y,-z
1/2+x,1/2+y,-z
1/2-x,y,z
x,1/2-y,z
loop_
_atom_site_type_symbol
_atom_site_label
_atom_site_fract_x
_atom_site_fract_y
_atom_site_fract_z
Si Si1 0.352240 0.923782 0.835292
Si Si2 0.149894 0.090858 0.083032
Si Si3 0.857608 0.080575 0.799121
Si Si4 0.355094 0.923244 0.482601
Si Si5 0.493157 0.580475 0.589457
Si Si6 0.493813 0.920845 0.731813
Si Si7 0.409447 0.575830 0.973823
O O1 0.250000 0.989404 0.827392
O O2 0.346781 0.750000 0.832730
O O3 0.415538 0.982469 0.778689
O O4 0.392505 0.972936 0.902509
O O5 0.250000 0.126777 0.108136
O O6 0.098052 0.250000 0.073607
O O7 0.102126 0.996833 0.137852
O O8 0.164620 0.997350 0.019568
O O9 0.750000 0.057827 0.788251
O O10 0.882586 0.250000 0.804600
O O11 0.911575 0.008092 0.741536
O O12 0.250000 0.982088 0.483547
O O13 0.354471 0.750000 0.473104
O O14 0.406741 0.968732 0.547034
O O15 0.413536 0.993023 0.425948
O O16 0.516068 0.750000 0.577892
O O17 0.462367 0.550542 0.660712
O O18 0.512418 0.750000 0.744804
O O19 0.408151 0.750000 0.982000
O O20 0.500000 0.500000 0.000000
#
# Coordination Sequence:
#
# PCOD8243146 Si02
#       7
#     8   8   8   8   8   8   8
#     4   9  19  35  54  77 105 139 180 223 267 320
#     4  10  20  34  52  73  98 129 168 217 272 326
#     4  10  21  36  54  77 106 142 183 226 275 332
#     4   9  18  34  56  81 110 144 181 221 264 312
#     4   9  19  34  53  81 112 141 177 221 268 318
#     4  10  20  35  56  80 108 142 179 222 271 321
#     4  11  21  33  52  76 102 134 175 224 278 332
#
# _framework density 19.707543999999999
#
# number of rings (size 3 to 8) (size 9 to 14) (size 15 to 20)
#    0.000    2.286    0.000    2.571    0.000    5.429 
#    0.000    6.429    0.000    2.143    0.000    2.000 
#    0.000    0.000    0.000    0.000    0.000    0.000 
#
# Total GULP energy -694020.066614 kJ/mol
# GULP energy per Si atom -12393.215475 kJ/mol
# Density = 1.966269 g / cm^3
# Si number density = 19.707544 Si / 1000 Ang^3
#
#
#
# Elastic Constant Matrix: (Units=GPa)
#
#
# Indices 1 2 3 4 5 6 
#
# 1 119.6349 35.8159 50.3695 0.0000 0.0000 0.0000
# 2 35.8159 76.1808 38.5945 0.0000 0.0000 0.0000
# 3 50.3695 38.5945 122.1064 0.0000 0.0000 0.0000
# 4 0.0000 0.0000 0.0000 28.2204 0.0000 0.0000
# 5 0.0000 0.0000 0.0000 0.0000 24.1266 0.0000
# 6 0.0000 0.0000 0.0000 0.0000 0.0000 25.6100
#
#
#
# Elastic Compliance Matrix: (Units=1/GPa)
#
#
# Indices 1 2 3 4 5 6 
#
# 1 0.010791 -0.003355 -0.003391 0.000000 0.000000 0.000000
# 2 -0.003355 0.016673 -0.003886 0.000000 0.000000 0.000000
# 3 -0.003391 -0.003886 0.010816 0.000000 0.000000 0.000000
# 4 0.000000 0.000000 0.000000 0.035435 0.000000 0.000000
# 5 0.000000 0.000000 0.000000 0.000000 0.041448 0.000000
# 6 0.000000 0.000000 0.000000 0.000000 0.000000 0.039047
#
#
# Mechanical properties :
#
#
# Convention : Reuss Voigt Hill
#
# Bulk Modulus (GPa) = 58.76692 63.05354 60.91023
# Shear Modulus (GPa) = 27.60197 28.46755 28.03476
#
# Velocity S-wave (km/s) = 3.74649 3.80478 3.77575
# Velocity P-wave (km/s) = 6.97131 7.16700 7.06983
#
# Compressibility (1/GPa) = 0.01701638
#
# Stress axis : x y z
#
# Youngs Moduli (GPa) = 92.67063 59.97805 92.45208
#
# Poissons Ratio (x) = 0.20126 0.31348
# Poissons Ratio (y) = 0.31095 0.35924
# Poissons Ratio (z) = 0.31422 0.23305
#
# Static dielectric constant tensor:
#      x y z
#    x 3.518490 0.000000 0.000000 
#    y 0.000000 3.901910 0.000000 
#    z 0.000000 0.000000 4.089290 
# 
# 
# High freq. dielectric constant tensor:
#      x y z
#    x 1.771540 0.000000 0.000000 
#    y 0.000000 1.753610 0.000000 
#    z 0.000000 0.000000 1.763920 
# 
# From -- ./inp_files/30341.got.cif
#   From: 2010.03.12/outbox.cif.g09.slc.cpg/sg59_16_cif.got.tgz:30341.got - 2010.04.16 16:29:54.
