data_PCOD8243820
_publ_section_title
;
Structure prediction by ZEFSAII (Michael W. Deem and Ramdas Pophale) SiO2 
 PCOD8243820
Probable space group: P M M N
;
_chemical_formula_sum "Si O2"
_cell_formula_units_Z 40
_cell_length_a 25.656206
_cell_length_b 8.648489
_cell_length_c 9.624325
_cell_angle_alpha 90.000000
_cell_angle_beta 90.000000
_cell_angle_gamma 90.000000
_cell_volume 2135.516599
_symmetry_space_group_name_H-M "P M M N"
_symmetry_group_IT_number 59
_space_group.IT_coordinate_system_code '2'
_symmetry_cell_setting 'orthorhombic'
loop_
_space_group_symop_operation_xyz
x,y,z
1/2-x,1/2-y,z
1/2+x,-y,-z
-x,1/2+y,-z
-x,-y,-z
1/2+x,1/2+y,-z
1/2-x,y,z
x,1/2-y,z
loop_
_atom_site_type_symbol
_atom_site_label
_atom_site_fract_x
_atom_site_fract_y
_atom_site_fract_z
Si Si1 0.250000 0.066083 0.905933
Si Si2 0.345540 0.434208 0.090723
Si Si3 0.955300 0.432433 0.905497
Si Si4 0.158169 0.069464 0.402393
Si Si5 0.250000 0.064889 0.592398
Si Si6 0.041147 0.068384 0.394956
O O1 0.250000 0.250000 0.905529
O O2 0.250000 0.999408 0.749403
O O3 0.198929 0.005754 0.986443
O O4 0.350608 0.250000 0.090580
O O5 0.400095 0.503937 0.039751
O O6 0.332658 0.495559 0.246473
O O7 0.955366 0.250000 0.915053
O O8 0.967116 0.484482 0.749894
O O9 0.000000 0.500000 0.000000
O O10 0.169017 0.250000 0.396457
O O11 0.199130 0.998110 0.512112
O O12 0.099344 0.033752 0.452408
O O13 0.250000 0.250000 0.597724
O O14 0.032448 0.250000 0.374165
O O15 0.000000 0.000000 0.500000
#
# Coordination Sequence:
#
# PCOD8243820 Si02
#       6
#     4   8   8   8   4   8
#     4   9  17  27  46  75 106 136 172 217 264 313
#     4   9  17  32  51  74 103 138 176 215 261 320
#     4  11  22  37  56  79 106 141 182 229 280 332
#     4   8  15  27  45  67  98 134 169 207 251 302
#     4   9  15  25  43  73 102 126 162 211 258 301
#     4  10  20  35  54  80 110 143 180 221 268 323
#
# _framework density 18.730831999999999
#
# number of rings (size 3 to 8) (size 9 to 14) (size 15 to 20)
#    0.000    2.600    0.000    4.200    0.000    4.000 
#    0.000    4.500    0.000    0.000    0.000    9.100 
#    0.000    0.000    0.000    0.000    0.000    0.000 
#
# Total GULP energy -495905.766827 kJ/mol
# GULP energy per Si atom -12397.644171 kJ/mol
# Density = 1.868820 g / cm^3
# Si number density = 18.730832 Si / 1000 Ang^3
#
#
#
# Elastic Constant Matrix: (Units=GPa)
#
#
# Indices 1 2 3 4 5 6 
#
# 1 181.9643 40.4406 106.3241 0.0000 0.0000 0.0000
# 2 40.4406 58.6138 27.6067 0.0000 0.0000 0.0000
# 3 106.3241 27.6067 123.7729 0.0000 0.0000 0.0000
# 4 0.0000 0.0000 0.0000 20.7037 0.0000 0.0000
# 5 0.0000 0.0000 0.0000 0.0000 43.5856 0.0000
# 6 0.0000 0.0000 0.0000 0.0000 0.0000 25.5573
#
#
#
# Elastic Compliance Matrix: (Units=1/GPa)
#
#
# Indices 1 2 3 4 5 6 
#
# 1 0.011724 -0.003738 -0.009237 0.000000 0.000000 0.000000
# 2 -0.003738 0.020255 -0.001307 0.000000 0.000000 0.000000
# 3 -0.009237 -0.001307 0.016306 0.000000 0.000000 0.000000
# 4 0.000000 0.000000 0.000000 0.048301 0.000000 0.000000
# 5 0.000000 0.000000 0.000000 0.000000 0.022943 0.000000
# 6 0.000000 0.000000 0.000000 0.000000 0.000000 0.039128
#
#
# Mechanical properties :
#
#
# Convention : Reuss Voigt Hill
#
# Bulk Modulus (GPa) = 50.70782 79.23265 64.97023
# Shear Modulus (GPa) = 25.80051 30.63463 28.21757
#
# Velocity S-wave (km/s) = 3.71541 4.04854 3.88555
# Velocity P-wave (km/s) = 6.74806 8.01541 7.40888
#
# Compressibility (1/GPa) = 0.01972083
#
# Stress axis : x y z
#
# Youngs Moduli (GPa) = 85.29627 49.36956 61.32773
#
# Poissons Ratio (x) = 0.18455 0.56650
# Poissons Ratio (y) = 0.31885 0.08013
# Poissons Ratio (z) = 0.78791 0.06451
#
# Static dielectric constant tensor:
#      x y z
#    x 3.739370 0.000000 0.000000 
#    y 0.000000 3.096270 0.000000 
#    z 0.000000 0.000000 3.679630 
# 
# 
# High freq. dielectric constant tensor:
#      x y z
#    x 1.742880 0.000000 0.000000 
#    y 0.000000 1.689260 0.000000 
#    z 0.000000 0.000000 1.726560 
# 
# From -- ./inp_files/12399.got.cif
#   From: 2010.03.12/outbox.cif.g09.slc.cpg/sg59_7_cif.got.tgz:12399.got - 2010.04.16 16:29:54.
