data_PCOD8243850
_publ_section_title
;
Structure prediction by ZEFSAII (Michael W. Deem and Ramdas Pophale) SiO2 
 PCOD8243850
Probable space group: P M M N
;
_chemical_formula_sum "Si O2"
_cell_formula_units_Z 48
_cell_length_a 15.328450
_cell_length_b 9.064363
_cell_length_c 17.263466
_cell_angle_alpha 90.000000
_cell_angle_beta 90.000000
_cell_angle_gamma 90.000000
_cell_volume 2398.631456
_symmetry_space_group_name_H-M "P M M N"
_symmetry_group_IT_number 59
_space_group.IT_coordinate_system_code '2'
_symmetry_cell_setting 'orthorhombic'
loop_
_space_group_symop_operation_xyz
x,y,z
1/2-x,1/2-y,z
1/2+x,-y,-z
-x,1/2+y,-z
-x,-y,-z
1/2+x,1/2+y,-z
1/2-x,y,z
x,1/2-y,z
loop_
_atom_site_type_symbol
_atom_site_label
_atom_site_fract_x
_atom_site_fract_y
_atom_site_fract_z
Si Si1 0.589148 0.587099 0.348819
Si Si2 0.250000 0.075433 0.076102
Si Si3 0.613889 0.088010 0.661175
Si Si4 0.100144 0.575127 0.803469
Si Si5 0.250000 0.426608 0.899836
Si Si6 0.101097 0.076771 0.188850
Si Si7 0.650837 0.083146 0.492524
O O1 0.633600 0.750000 0.345678
O O2 0.488498 0.604669 0.333478
O O3 0.627925 0.481034 0.282206
O O4 0.598233 0.517717 0.433539
O O5 0.250000 0.250000 0.077767
O O6 0.161425 0.018533 0.118305
O O7 0.250000 0.018987 0.988515
O O8 0.657671 0.250000 0.668518
O O9 0.642461 0.016519 0.579207
O O10 0.643602 0.987868 0.732674
O O11 0.115254 0.750000 0.806929
O O12 0.162347 0.493082 0.863627
O O13 0.000117 0.531292 0.824430
O O14 0.250000 0.250000 0.890975
O O15 0.107250 0.250000 0.198136
O O16 0.750000 0.082308 0.464739
O O17 0.612577 0.250000 0.491663
#
# Coordination Sequence:
#
# PCOD8243850 Si02
#       7
#     8   4   8   8   4   8   8
#     4  10  20  35  55  78 106 142 188 235 277 326
#     4   9  20  39  61  88 119 148 181 227 284 339
#     4   9  19  35  54  78 108 144 185 231 280 328
#     4  10  21  38  60  85 115 150 189 232 282 338
#     4  11  23  39  61  86 115 150 185 229 284 339
#     4   9  19  37  61  86 114 151 189 229 280 339
#     4  10  21  34  49  74 110 148 184 227 279 326
#
# _framework density 20.011410000000001
#
# number of rings (size 3 to 8) (size 9 to 14) (size 15 to 20)
#    0.000    2.333    0.000    1.750    2.333    3.000 
#    0.000    1.667    0.000    0.000    0.000    0.000 
#    0.000    0.000    0.000    0.000    0.000    0.000 
#
# Total GULP energy -595043.637269 kJ/mol
# GULP energy per Si atom -12396.742443 kJ/mol
# Density = 1.996586 g / cm^3
# Si number density = 20.011410 Si / 1000 Ang^3
#
#
#
# Elastic Constant Matrix: (Units=GPa)
#
#
# Indices 1 2 3 4 5 6 
#
# 1 76.4814 37.9448 59.0946 0.0000 0.0000 0.0000
# 2 37.9448 85.7412 57.9772 0.0000 0.0000 0.0000
# 3 59.0946 57.9772 170.6953 0.0000 0.0000 0.0000
# 4 0.0000 0.0000 0.0000 31.6460 0.0000 0.0000
# 5 0.0000 0.0000 0.0000 0.0000 32.9199 0.0000
# 6 0.0000 0.0000 0.0000 0.0000 0.0000 15.7715
#
#
#
# Elastic Compliance Matrix: (Units=1/GPa)
#
#
# Indices 1 2 3 4 5 6 
#
# 1 0.019536 -0.005287 -0.004968 0.000000 0.000000 0.000000
# 2 -0.005287 0.016571 -0.003798 0.000000 0.000000 0.000000
# 3 -0.004968 -0.003798 0.008868 0.000000 0.000000 0.000000
# 4 0.000000 0.000000 0.000000 0.031600 0.000000 0.000000
# 5 0.000000 0.000000 0.000000 0.000000 0.030377 0.000000
# 6 0.000000 0.000000 0.000000 0.000000 0.000000 0.063405
#
#
# Mechanical properties :
#
#
# Convention : Reuss Voigt Hill
#
# Bulk Modulus (GPa) = 59.27559 71.43899 65.35729
# Shear Modulus (GPa) = 24.49947 27.92758 26.21352
#
# Velocity S-wave (km/s) = 3.50276 3.73980 3.62322
# Velocity P-wave (km/s) = 6.78560 7.37732 7.08763
#
# Compressibility (1/GPa) = 0.01687035
#
# Stress axis : x y z
#
# Youngs Moduli (GPa) = 51.18637 60.34693 112.76106
#
# Poissons Ratio (x) = 0.31903 0.56018
# Poissons Ratio (y) = 0.27060 0.42828
# Poissons Ratio (z) = 0.25429 0.22920
#
# Static dielectric constant tensor:
#      x y z
#    x 3.646760 0.000000 0.000000 
#    y 0.000000 3.796470 0.000000 
#    z 0.000000 0.000000 3.783590 
# 
# 
# High freq. dielectric constant tensor:
#      x y z
#    x 1.781510 0.000000 0.000000 
#    y 0.000000 1.770290 0.000000 
#    z 0.000000 0.000000 1.781020 
# 
# From -- ./inp_files/27442.got.cif
#   From: 2010.03.12/outbox.cif.g09.slc.cpg/sg59_14_cif.got.tgz:27442.got - 2010.04.16 16:29:54.
