data_PCOD8243358
_publ_section_title
;
Structure prediction by ZEFSAII (Michael W. Deem and Ramdas Pophale) SiO2 
 PCOD8243358
Probable space group: P M M N
;
_chemical_formula_sum "Si O2"
_cell_formula_units_Z 64
_cell_length_a 23.666680
_cell_length_b 14.522964
_cell_length_c 9.992907
_cell_angle_alpha 90.000000
_cell_angle_beta 90.000000
_cell_angle_gamma 90.000000
_cell_volume 3434.665479
_symmetry_space_group_name_H-M "P M M N"
_symmetry_group_IT_number 59
_space_group.IT_coordinate_system_code '2'
_symmetry_cell_setting 'orthorhombic'
loop_
_space_group_symop_operation_xyz
x,y,z
1/2-x,1/2-y,z
1/2+x,-y,-z
-x,1/2+y,-z
-x,-y,-z
1/2+x,1/2+y,-z
1/2-x,y,z
x,1/2-y,z
loop_
_atom_site_type_symbol
_atom_site_label
_atom_site_fract_x
_atom_site_fract_y
_atom_site_fract_z
Si Si1 0.983554 0.355875 0.474950
Si Si2 0.572182 0.646082 0.308599
Si Si3 0.600679 0.645195 0.016062
Si Si4 0.685410 0.528448 0.672048
Si Si5 0.577958 0.644193 0.724283
Si Si6 0.373550 0.531516 0.578980
Si Si7 0.686066 0.011125 0.965481
Si Si8 0.316323 0.645804 0.810326
O O1 0.966425 0.250000 0.442804
O O2 0.930326 0.422119 0.474625
O O3 0.011220 0.363316 0.622026
O O4 0.027694 0.397830 0.365544
O O5 0.596180 0.750000 0.333292
O O6 0.563427 0.628807 0.149370
O O7 0.616070 0.572813 0.370458
O O8 0.623496 0.750000 0.010023
O O9 0.564414 0.624896 0.881174
O O10 0.653706 0.578061 0.018778
O O11 0.750000 0.566106 0.662422
O O12 0.639789 0.609833 0.680549
O O13 0.671503 0.467335 0.542185
O O14 0.677995 0.468178 0.807619
O O15 0.579202 0.750000 0.687581
O O16 0.348985 0.591730 0.696929
O O17 0.750000 0.986607 0.000157
O O18 0.667426 0.102047 0.046167
O O19 0.250000 0.640834 0.781207
O O20 0.338328 0.750000 0.812728
#
# Coordination Sequence:
#
# PCOD8243358 Si02
#       8
#     8   8   8   8   8   8   8   8
#     4  10  21  37  56  80 109 148 191 231 276 332
#     4  10  20  34  53  80 114 146 178 220 276 332
#     4   9  17  32  54  80 111 146 178 220 273 330
#     4  10  21  34  54  82 113 145 185 227 276 331
#     4   9  18  34  55  80 112 146 186 226 272 330
#     4  12  21  36  58  82 113 148 190 229 278 325
#     4   9  18  35  54  78 108 143 183 228 274 326
#     4  10  21  38  59  80 106 144 187 233 282 329
#
# _framework density 18.633545999999999
#
# number of rings (size 3 to 8) (size 9 to 14) (size 15 to 20)
#    0.000    2.125    2.500    1.125    0.000    0.500 
#    0.000    5.625    0.000    5.625    0.000    0.000 
#    0.000    0.000    0.000    0.000    0.000    0.000 
#
# Total GULP energy -793279.390229 kJ/mol
# GULP energy per Si atom -12394.990472 kJ/mol
# Density = 1.859114 g / cm^3
# Si number density = 18.633546 Si / 1000 Ang^3
#
#
#
# Elastic Constant Matrix: (Units=GPa)
#
#
# Indices 1 2 3 4 5 6 
#
# 1 61.0627 26.0853 40.8110 0.0000 0.0000 0.0000
# 2 26.0853 81.3631 26.5612 0.0000 0.0000 0.0000
# 3 40.8110 26.5612 117.0639 0.0000 0.0000 0.0000
# 4 0.0000 0.0000 0.0000 18.6678 0.0000 0.0000
# 5 0.0000 0.0000 0.0000 0.0000 20.1378 0.0000
# 6 0.0000 0.0000 0.0000 0.0000 0.0000 26.5173
#
#
#
# Elastic Compliance Matrix: (Units=1/GPa)
#
#
# Indices 1 2 3 4 5 6 
#
# 1 0.023214 -0.005185 -0.006917 0.000000 0.000000 0.000000
# 2 -0.005185 0.014432 -0.001467 0.000000 0.000000 0.000000
# 3 -0.006917 -0.001467 0.011286 0.000000 0.000000 0.000000
# 4 0.000000 0.000000 0.000000 0.053568 0.000000 0.000000
# 5 0.000000 0.000000 0.000000 0.000000 0.049658 0.000000
# 6 0.000000 0.000000 0.000000 0.000000 0.000000 0.037711
#
#
# Mechanical properties :
#
#
# Convention : Reuss Voigt Hill
#
# Bulk Modulus (GPa) = 45.88023 49.60054 47.74039
# Shear Modulus (GPa) = 22.29444 24.13339 23.21391
#
# Velocity S-wave (km/s) = 3.46275 3.60273 3.53344
# Velocity P-wave (km/s) = 6.37678 6.63197 6.50563
#
# Compressibility (1/GPa) = 0.02179588
#
# Stress axis : x y z
#
# Youngs Moduli (GPa) = 43.07734 69.29192 88.60167
#
# Poissons Ratio (x) = 0.35925 0.61282
# Poissons Ratio (y) = 0.22334 0.12998
# Poissons Ratio (z) = 0.29795 0.10165
#
# Static dielectric constant tensor:
#      x y z
#    x 3.235090 0.000000 0.000000 
#    y 0.000000 3.458830 0.000000 
#    z 0.000000 0.000000 3.801940 
# 
# 
# High freq. dielectric constant tensor:
#      x y z
#    x 1.700030 0.000000 0.000000 
#    y 0.000000 1.717670 0.000000 
#    z 0.000000 0.000000 1.743300 
# 
# From -- ./inp_files/12244.got.cif
#   From: 2010.03.12/outbox.cif.g09.slc.cpg/sg59_7_cif.got.tgz:12244.got - 2010.04.16 16:29:54.
