data_PCOD8243976
_publ_section_title
;
Structure prediction by ZEFSAII (Michael W. Deem and Ramdas Pophale) SiO2 
 PCOD8243976
Probable space group: P M M N
;
_chemical_formula_sum "Si O2"
_cell_formula_units_Z 48
_cell_length_a 8.584860
_cell_length_b 17.891919
_cell_length_c 15.435840
_cell_angle_alpha 90.000000
_cell_angle_beta 90.000000
_cell_angle_gamma 90.000000
_cell_volume 2370.939154
_symmetry_space_group_name_H-M "P M M N"
_symmetry_group_IT_number 59
_space_group.IT_coordinate_system_code '2'
_symmetry_cell_setting 'orthorhombic'
loop_
_space_group_symop_operation_xyz
x,y,z
1/2-x,1/2-y,z
1/2+x,-y,-z
-x,1/2+y,-z
-x,-y,-z
1/2+x,1/2+y,-z
1/2-x,y,z
x,1/2-y,z
loop_
_atom_site_type_symbol
_atom_site_label
_atom_site_fract_x
_atom_site_fract_y
_atom_site_fract_z
Si Si1 0.570206 0.584209 0.833690
Si Si2 0.923085 0.838762 0.499006
Si Si3 0.430617 0.665052 0.990158
Si Si4 0.067495 0.075139 0.853170
Si Si5 0.071331 0.662532 0.674252
Si Si6 0.064547 0.333389 0.689249
O O1 0.750000 0.561380 0.840335
O O2 0.463784 0.512515 0.851190
O O3 0.537468 0.617437 0.739297
O O4 0.529589 0.646196 0.905025
O O5 0.750000 0.871678 0.515067
O O6 0.913420 0.750000 0.495759
O O7 0.990800 0.864613 0.405091
O O8 0.034916 0.865431 0.576653
O O9 0.250000 0.654661 0.967356
O O10 0.468816 0.750000 0.017232
O O11 0.474977 0.610808 0.067896
O O12 0.250000 0.090292 0.866228
O O13 0.004111 0.111644 0.764146
O O14 0.250000 0.644933 0.695666
O O15 0.033856 0.750000 0.683748
O O16 0.250000 0.330344 0.687932
O O17 0.998098 0.250000 0.707060
#
# Coordination Sequence:
#
# PCOD8243976 Si02
#       6
#     8   8   8   8   8   8
#     4  12  25  40  58  81 112 149 189 230 277 333
#     4   8  14  28  52  81 111 143 182 227 273 322
#     4  11  24  42  63  87 114 143 180 228 278 329
#     4  11  22  38  60  85 116 151 187 227 276 332
#     4  10  20  35  56  83 113 144 183 232 283 333
#     4   8  15  30  55  85 113 144 185 230 273 322
#
# _framework density 20.245142999999999
#
# number of rings (size 3 to 8) (size 9 to 14) (size 15 to 20)
#    0.000    2.000    0.000    5.500    0.000    5.000 
#    0.000    2.500    0.000    4.000    0.000    0.000 
#    0.000    0.000    0.000    0.000    0.000    0.000 
#
# Total GULP energy -595256.533619 kJ/mol
# GULP energy per Si atom -12401.177784 kJ/mol
# Density = 2.019906 g / cm^3
# Si number density = 20.245143 Si / 1000 Ang^3
#
#
#
# Elastic Constant Matrix: (Units=GPa)
#
#
# Indices 1 2 3 4 5 6 
#
# 1 50.5544 18.1246 24.6826 0.0000 0.0000 0.0000
# 2 18.1246 64.7170 26.0255 0.0000 0.0000 0.0000
# 3 24.6826 26.0255 126.1190 0.0000 0.0000 0.0000
# 4 0.0000 0.0000 0.0000 8.3606 0.0000 0.0000
# 5 0.0000 0.0000 0.0000 0.0000 24.5214 0.0000
# 6 0.0000 0.0000 0.0000 0.0000 0.0000 18.9108
#
#
#
# Elastic Compliance Matrix: (Units=1/GPa)
#
#
# Indices 1 2 3 4 5 6 
#
# 1 0.023330 -0.005123 -0.003509 0.000000 0.000000 0.000000
# 2 -0.005123 0.017975 -0.002707 0.000000 0.000000 0.000000
# 3 -0.003509 -0.002707 0.009174 0.000000 0.000000 0.000000
# 4 0.000000 0.000000 0.000000 0.119609 0.000000 0.000000
# 5 0.000000 0.000000 0.000000 0.000000 0.040781 0.000000
# 6 0.000000 0.000000 0.000000 0.000000 0.000000 0.052880
#
#
# Mechanical properties :
#
#
# Convention : Reuss Voigt Hill
#
# Bulk Modulus (GPa) = 35.96729 42.11730 39.04229
# Shear Modulus (GPa) = 16.90939 21.86239 19.38589
#
# Velocity S-wave (km/s) = 2.89317 3.28972 3.09780
# Velocity P-wave (km/s) = 5.38192 5.93957 5.66761
#
# Compressibility (1/GPa) = 0.02780304
#
# Stress axis : x y z
#
# Youngs Moduli (GPa) = 42.86246 55.63259 109.00048
#
# Poissons Ratio (x) = 0.28500 0.38246
# Poissons Ratio (y) = 0.21958 0.29503
# Poissons Ratio (z) = 0.15040 0.15058
#
# Static dielectric constant tensor:
#      x y z
#    x 3.472040 0.000000 0.000000 
#    y 0.000000 3.508290 0.000000 
#    z 0.000000 0.000000 4.078370 
# 
# 
# High freq. dielectric constant tensor:
#      x y z
#    x 1.775610 0.000000 0.000000 
#    y 0.000000 1.768740 0.000000 
#    z 0.000000 0.000000 1.810520 
# 
# From -- ./inp_files/20301.got.cif
#   From: 2010.03.12/outbox.cif.g09.slc.cpg/sg59_11_cif.got.tgz:20301.got - 2010.04.16 16:29:54.
