data_PCOD8243093
_publ_section_title
;
Structure prediction by ZEFSAII (Michael W. Deem and Ramdas Pophale) SiO2 
 PCOD8243093
Probable space group: P M M N
;
_chemical_formula_sum "Si O2"
_cell_formula_units_Z 48
_cell_length_a 14.078736
_cell_length_b 9.164805
_cell_length_c 20.064757
_cell_angle_alpha 90.000000
_cell_angle_beta 90.000000
_cell_angle_gamma 90.000000
_cell_volume 2588.932924
_symmetry_space_group_name_H-M "P M M N"
_symmetry_group_IT_number 59
_space_group.IT_coordinate_system_code '2'
_symmetry_cell_setting 'orthorhombic'
loop_
_space_group_symop_operation_xyz
x,y,z
1/2-x,1/2-y,z
1/2+x,-y,-z
-x,1/2+y,-z
-x,-y,-z
1/2+x,1/2+y,-z
1/2-x,y,z
x,1/2-y,z
loop_
_atom_site_type_symbol
_atom_site_label
_atom_site_fract_x
_atom_site_fract_y
_atom_site_fract_z
Si Si1 0.250000 0.422571 0.110223
Si Si2 0.951479 0.084161 0.698252
Si Si3 0.451105 0.081157 0.560438
Si Si4 0.250000 0.076541 0.766960
Si Si5 0.250000 0.914155 0.247752
Si Si6 0.250000 0.076584 0.613972
Si Si7 0.434121 0.579555 0.806186
Si Si8 0.048066 0.420269 0.061033
O O1 0.250000 0.250000 0.117932
O O2 0.250000 0.480557 0.185032
O O3 0.156559 0.475755 0.070450
O O4 0.980676 0.250000 0.718908
O O5 0.839490 0.058147 0.704600
O O6 0.980753 0.054271 0.622880
O O7 0.002964 0.966851 0.743821
O O8 0.443628 0.250000 0.541627
O O9 0.344863 0.019828 0.576388
O O10 0.500000 0.000000 0.500000
O O11 0.250000 0.250000 0.770764
O O12 0.250000 0.020093 0.690401
O O13 0.160866 0.014456 0.806818
O O14 0.250000 0.750000 0.219240
O O15 0.250000 0.250000 0.616865
O O16 0.410171 0.750000 0.800837
O O17 0.490660 0.540838 0.872779
O O18 0.046215 0.250000 0.045628
O O19 0.000000 0.500000 0.000000
#
# Coordination Sequence:
#
# PCOD8243093 Si02
#       8
#     4   8   8   4   4   4   8   8
#     4  10  20  39  60  83 115 155 192 234 297 351
#     4  10  20  36  58  85 117 154 196 240 289 350
#     4  10  21  38  58  83 117 153 194 241 290 348
#     4  11  21  38  63  88 117 157 196 238 295 354
#     4  10  20  33  58  92 117 147 197 244 283 343
#     4   9  18  36  59  81 111 153 193 236 289 348
#     4  11  22  37  59  90 120 148 193 250 293 339
#     4  10  23  40  60  85 120 156 194 242 291 347
#
# _framework density 18.540457
#
# number of rings (size 3 to 8) (size 9 to 14) (size 15 to 20)
#    0.000    1.833    3.333    0.750    0.000    4.000 
#    0.000    2.917    0.000    0.000    0.000    0.000 
#    0.000    0.000    0.000    0.000    0.000    0.000 
#
# Total GULP energy -595258.848718 kJ/mol
# GULP energy per Si atom -12401.226015 kJ/mol
# Density = 1.849826 g / cm^3
# Si number density = 18.540457 Si / 1000 Ang^3
#
#
#
# Elastic Constant Matrix: (Units=GPa)
#
#
# Indices 1 2 3 4 5 6 
#
# 1 182.0556 53.6379 76.6860 0.0000 0.0000 0.0000
# 2 53.6379 59.8573 52.6349 0.0000 0.0000 0.0000
# 3 76.6860 52.6349 117.2886 0.0000 0.0000 0.0000
# 4 0.0000 0.0000 0.0000 36.3533 0.0000 0.0000
# 5 0.0000 0.0000 0.0000 0.0000 30.0613 0.0000
# 6 0.0000 0.0000 0.0000 0.0000 0.0000 30.3802
#
#
#
# Elastic Compliance Matrix: (Units=1/GPa)
#
#
# Indices 1 2 3 4 5 6 
#
# 1 0.008216 -0.004359 -0.003416 0.000000 0.000000 0.000000
# 2 -0.004359 0.029909 -0.010572 0.000000 0.000000 0.000000
# 3 -0.003416 -0.010572 0.015504 0.000000 0.000000 0.000000
# 4 0.000000 0.000000 0.000000 0.027508 0.000000 0.000000
# 5 0.000000 0.000000 0.000000 0.000000 0.033265 0.000000
# 6 0.000000 0.000000 0.000000 0.000000 0.000000 0.032916
#
#
# Mechanical properties :
#
#
# Convention : Reuss Voigt Hill
#
# Bulk Modulus (GPa) = 59.04875 80.56878 69.80876
# Shear Modulus (GPa) = 26.36365 31.10847 28.73606
#
# Velocity S-wave (km/s) = 3.77497 4.10062 3.94116
# Velocity P-wave (km/s) = 7.13570 8.12220 7.64488
#
# Compressibility (1/GPa) = 0.01693516
#
# Stress axis : x y z
#
# Youngs Moduli (GPa) = 121.71804 33.43525 64.50101
#
# Poissons Ratio (x) = 0.14573 0.22031
# Poissons Ratio (y) = 0.53051 0.68192
# Poissons Ratio (z) = 0.41575 0.35348
#
# Static dielectric constant tensor:
#      x y z
#    x 3.805760 0.000000 0.000000 
#    y 0.000000 3.425270 0.000000 
#    z 0.000000 0.000000 2.875050 
# 
# 
# High freq. dielectric constant tensor:
#      x y z
#    x 1.741320 0.000000 0.000000 
#    y 0.000000 1.708760 0.000000 
#    z 0.000000 0.000000 1.711890 
# 
# From -- ./inp_files/25679.got.cif
#   From: 2010.03.12/outbox.cif.g09.slc.cpg/sg59_13_cif.got.tgz:25679.got - 2010.04.16 16:29:54.
