data_PCOD8243050
_publ_section_title
;
Structure prediction by ZEFSAII (Michael W. Deem and Ramdas Pophale) SiO2 
 PCOD8243050
Probable space group: P M M N
;
_chemical_formula_sum "Si O2"
_cell_formula_units_Z 48
_cell_length_a 13.632041
_cell_length_b 8.846358
_cell_length_c 21.025478
_cell_angle_alpha 90.000000
_cell_angle_beta 90.000000
_cell_angle_gamma 90.000000
_cell_volume 2535.544706
_symmetry_space_group_name_H-M "P M M N"
_symmetry_group_IT_number 59
_space_group.IT_coordinate_system_code '2'
_symmetry_cell_setting 'orthorhombic'
loop_
_space_group_symop_operation_xyz
x,y,z
1/2-x,1/2-y,z
1/2+x,-y,-z
-x,1/2+y,-z
-x,-y,-z
1/2+x,1/2+y,-z
1/2-x,y,z
x,1/2-y,z
loop_
_atom_site_type_symbol
_atom_site_label
_atom_site_fract_x
_atom_site_fract_y
_atom_site_fract_z
Si Si1 0.860761 0.071095 0.717452
Si Si2 0.359992 0.924077 0.521234
Si Si3 0.866164 0.578789 0.966663
Si Si4 0.537742 0.070956 0.846720
Si Si5 0.638486 0.428739 0.096713
Si Si6 0.548601 0.574078 0.596492
O O1 0.750000 0.006557 0.711938
O O2 0.858663 0.250000 0.714549
O O3 0.907829 0.014988 0.783290
O O4 0.928271 0.012388 0.660867
O O5 0.250000 0.954313 0.546777
O O6 0.374522 0.750000 0.500990
O O7 0.436795 0.966909 0.576630
O O8 0.377400 0.024280 0.458959
O O9 0.750000 0.579597 0.967349
O O10 0.907908 0.750000 0.964553
O O11 0.899473 0.485843 0.905888
O O12 0.903533 0.496072 0.030585
O O13 0.527916 0.250000 0.849102
O O14 0.429299 0.996642 0.847515
O O15 0.750000 0.480138 0.109739
O O16 0.629629 0.250000 0.094238
O O17 0.562825 0.750000 0.608846
#
# Coordination Sequence:
#
# PCOD8243050 Si02
#       6
#     8   8   8   8   8   8
#     4  10  22  39  56  75 104 142 176 207 255 317
#     4   9  18  34  55  78 108 144 176 209 255 309
#     4  10  20  34  54  80 108 137 172 217 267 317
#     4  11  22  36  55  77 104 138 177 220 263 313
#     4  10  21  37  56  77 103 136 174 217 266 319
#     4  10  20  33  53  82 110 137 175 220 259 298
#
# _framework density 18.930844
#
# number of rings (size 3 to 8) (size 9 to 14) (size 15 to 20)
#    0.000    2.000    0.000    3.500    0.000    7.333 
#    0.000    0.833    0.000    3.000    0.000    0.000 
#    0.000    0.000    0.000    0.000    0.000    0.000 
#
# Total GULP energy -595328.511008 kJ/mol
# GULP energy per Si atom -12402.677313 kJ/mol
# Density = 1.888776 g / cm^3
# Si number density = 18.930844 Si / 1000 Ang^3
#
#
#
# Elastic Constant Matrix: (Units=GPa)
#
#
# Indices 1 2 3 4 5 6 
#
# 1 110.3005 32.6480 66.5420 0.0000 0.0000 0.0000
# 2 32.6480 38.4776 29.3261 0.0000 0.0000 0.0000
# 3 66.5420 29.3261 114.2044 0.0000 0.0000 0.0000
# 4 0.0000 0.0000 0.0000 32.8860 0.0000 0.0000
# 5 0.0000 0.0000 0.0000 0.0000 26.6340 0.0000
# 6 0.0000 0.0000 0.0000 0.0000 0.0000 30.3896
#
#
#
# Elastic Compliance Matrix: (Units=1/GPa)
#
#
# Indices 1 2 3 4 5 6 
#
# 1 0.015697 -0.007893 -0.007119 0.000000 0.000000 0.000000
# 2 -0.007893 0.036282 -0.004718 0.000000 0.000000 0.000000
# 3 -0.007119 -0.004718 0.014116 0.000000 0.000000 0.000000
# 4 0.000000 0.000000 0.000000 0.030408 0.000000 0.000000
# 5 0.000000 0.000000 0.000000 0.000000 0.037546 0.000000
# 6 0.000000 0.000000 0.000000 0.000000 0.000000 0.032906
#
#
# Mechanical properties :
#
#
# Convention : Reuss Voigt Hill
#
# Bulk Modulus (GPa) = 37.54477 57.77940 47.66209
# Shear Modulus (GPa) = 23.22407 26.94635 25.08521
#
# Velocity S-wave (km/s) = 3.50635 3.77690 3.64414
# Velocity P-wave (km/s) = 6.02232 7.04326 6.55270
#
# Compressibility (1/GPa) = 0.02663487
#
# Stress axis : x y z
#
# Youngs Moduli (GPa) = 63.70488 27.56188 70.84242
#
# Poissons Ratio (x) = 0.21755 0.50435
# Poissons Ratio (y) = 0.50283 0.33422
# Poissons Ratio (z) = 0.45354 0.13003
#
# Static dielectric constant tensor:
#      x y z
#    x 3.755670 0.000000 0.000000 
#    y 0.000000 3.530540 0.000000 
#    z 0.000000 0.000000 3.359350 
# 
# 
# High freq. dielectric constant tensor:
#      x y z
#    x 1.751860 0.000000 0.000000 
#    y 0.000000 1.741520 0.000000 
#    z 0.000000 0.000000 1.717020 
# 
# From -- ./inp_files/25462.got.cif
#   From: 2010.03.12/outbox.cif.g09.slc.cpg/sg59_13_cif.got.tgz:25462.got - 2010.04.16 16:29:54.
