data_PCOD8243734
_publ_section_title
;
Structure prediction by ZEFSAII (Michael W. Deem and Ramdas Pophale) SiO2 
 PCOD8243734
Probable space group: P M M N
;
_chemical_formula_sum "Si O2"
_cell_formula_units_Z 48
_cell_length_a 9.591812
_cell_length_b 9.613933
_cell_length_c 27.257924
_cell_angle_alpha 90.000000
_cell_angle_beta 90.000000
_cell_angle_gamma 90.000000
_cell_volume 2513.590495
_symmetry_space_group_name_H-M "P M M N"
_symmetry_group_IT_number 59
_space_group.IT_coordinate_system_code '2'
_symmetry_cell_setting 'orthorhombic'
loop_
_space_group_symop_operation_xyz
x,y,z
1/2-x,1/2-y,z
1/2+x,-y,-z
-x,1/2+y,-z
-x,-y,-z
1/2+x,1/2+y,-z
1/2-x,y,z
x,1/2-y,z
loop_
_atom_site_type_symbol
_atom_site_label
_atom_site_fract_x
_atom_site_fract_y
_atom_site_fract_z
Si Si1 0.410385 0.587253 0.293556
Si Si2 0.406845 0.091700 0.799251
Si Si3 0.404445 0.750000 0.551641
Si Si4 0.486387 0.582382 0.890261
Si Si5 0.413546 0.250000 0.543913
Si Si6 0.250000 0.919056 0.075566
Si Si7 0.090481 0.486168 0.616411
Si Si8 0.750000 0.087724 0.035161
O O1 0.250000 0.537571 0.291417
O O2 0.421993 0.750000 0.304194
O O3 0.482917 0.549437 0.242290
O O4 0.491230 0.508687 0.336561
O O5 0.250000 0.085956 0.777676
O O6 0.437628 0.250000 0.818386
O O7 0.415962 0.974464 0.841027
O O8 0.250000 0.750000 0.527957
O O9 0.514132 0.750000 0.508387
O O10 0.426740 0.627494 0.588811
O O11 0.512755 0.750000 0.886943
O O12 0.621919 0.489241 0.896980
O O13 0.387420 0.542071 0.935721
O O14 0.250000 0.250000 0.533162
O O15 0.463056 0.121165 0.576003
O O16 0.250000 0.750000 0.080860
O O17 0.250000 0.974689 0.019494
O O18 0.250000 0.454229 0.632900
O O19 0.750000 0.250000 0.028988
#
# Coordination Sequence:
#
# PCOD8243734 Si02
#       8
#     8   8   4   8   4   4   8   4
#     4  10  21  37  60  88 113 146 194 247 296 346
#     4  10  21  38  61  87 114 152 198 246 298 362
#     4  10  22  36  54  84 120 154 190 238 285 346
#     4  11  22  40  62  90 125 162 202 250 308 363
#     4  10  20  34  58  84 112 154 198 234 287 346
#     4  11  23  39  61  91 125 167 205 251 300 349
#     4  10  20  37  58  82 115 153 194 239 290 348
#     4   9  20  39  63  89 125 161 207 251 296 363
#
# _framework density 19.09619
#
# number of rings (size 3 to 8) (size 9 to 14) (size 15 to 20)
#    0.000    1.833    1.667    2.250    1.167    2.000 
#    1.500    2.500    0.000    0.000    0.000    0.000 
#    0.000    0.000    0.000    0.000    0.000    0.000 
#
# Total GULP energy -595028.303747 kJ/mol
# GULP energy per Si atom -12396.422995 kJ/mol
# Density = 1.905273 g / cm^3
# Si number density = 19.096190 Si / 1000 Ang^3
#
#
#
# Elastic Constant Matrix: (Units=GPa)
#
#
# Indices 1 2 3 4 5 6 
#
# 1 114.7250 33.7832 47.5294 0.0000 0.0000 0.0000
# 2 33.7832 98.8651 32.2613 0.0000 0.0000 0.0000
# 3 47.5294 32.2613 97.9601 0.0000 0.0000 0.0000
# 4 0.0000 0.0000 0.0000 -165.5346 0.0000 0.0000
# 5 0.0000 0.0000 0.0000 0.0000 39.6911 0.0000
# 6 0.0000 0.0000 0.0000 0.0000 0.0000 28.8446
#
#
#
# Elastic Compliance Matrix: (Units=1/GPa)
#
#
# Indices 1 2 3 4 5 6 
#
# 1 0.011372 -0.002336 -0.004748 0.000000 0.000000 0.000000
# 2 -0.002336 0.011813 -0.002757 0.000000 0.000000 0.000000
# 3 -0.004748 -0.002757 0.013420 0.000000 0.000000 0.000000
# 4 0.000000 0.000000 0.000000 -0.006041 0.000000 0.000000
# 5 0.000000 0.000000 0.000000 0.000000 0.025195 0.000000
# 6 0.000000 0.000000 0.000000 0.000000 0.000000 0.034669
#
#
# Mechanical properties :
#
#
# Convention : Reuss Voigt Hill
#
# Bulk Modulus (GPa) = 59.09486 59.85534 59.47510
# Shear Modulus (GPa) = 43.19701 -6.20137 18.49782
#
# Velocity S-wave (km/s) = 4.76129 -1.80402 3.11572
# Velocity P-wave (km/s) = 7.82557 5.20316 6.64501
#
# Compressibility (1/GPa) = 0.01692194
#
# Stress axis : x y z
#
# Youngs Moduli (GPa) = 87.93901 84.65447 74.51709
#
# Poissons Ratio (x) = 0.19779 0.35380
# Poissons Ratio (y) = 0.20546 0.20542
# Poissons Ratio (z) = 0.41753 0.23336
#
# Static dielectric constant tensor:
#      x y z
#    x 3.549790 0.000000 0.000000 
#    y 0.000000 3.437140 0.000000 
#    z 0.000000 0.000000 3.503160 
# 
# 
# High freq. dielectric constant tensor:
#      x y z
#    x 1.750510 0.000000 0.000000 
#    y 0.000000 1.736290 0.000000 
#    z 0.000000 0.000000 1.745940 
# 
# From -- ./inp_files/33118.got.cif
#   From: 2010.03.12/outbox.cif.g09.slc.cpg/sg59_17_cif.got.tgz:33118.got - 2010.04.16 16:29:54.
