data_PCOD8243226
_publ_section_title
;
Structure prediction by ZEFSAII (Michael W. Deem and Ramdas Pophale) SiO2 
 PCOD8243226
Probable space group: P M M N
;
_chemical_formula_sum "Si O2"
_cell_formula_units_Z 40
_cell_length_a 9.058195
_cell_length_b 9.743455
_cell_length_c 25.759345
_cell_angle_alpha 90.000000
_cell_angle_beta 90.000000
_cell_angle_gamma 90.000000
_cell_volume 2273.471243
_symmetry_space_group_name_H-M "P M M N"
_symmetry_group_IT_number 59
_space_group.IT_coordinate_system_code '2'
_symmetry_cell_setting 'orthorhombic'
loop_
_space_group_symop_operation_xyz
x,y,z
1/2-x,1/2-y,z
1/2+x,-y,-z
-x,1/2+y,-z
-x,-y,-z
1/2+x,1/2+y,-z
1/2-x,y,z
x,1/2-y,z
loop_
_atom_site_type_symbol
_atom_site_label
_atom_site_fract_x
_atom_site_fract_y
_atom_site_fract_z
Si Si1 0.576482 0.910332 0.043719
Si Si2 0.078157 0.908047 0.541987
Si Si3 0.076873 0.409000 0.749727
Si Si4 0.416119 0.912791 0.147647
Si Si5 0.425609 0.902709 0.657276
O O1 0.750000 0.938906 0.043922
O O2 0.541771 0.750000 0.033985
O O3 0.510337 0.961732 0.098318
O O4 0.500000 0.000000 0.000000
O O5 0.250000 0.939340 0.538641
O O6 0.043976 0.750000 0.529660
O O7 0.018613 0.945200 0.599802
O O8 0.000000 0.000000 0.500000
O O9 0.250000 0.433370 0.758451
O O10 0.041158 0.250000 0.740100
O O11 0.014773 0.490665 0.699926
O O12 0.993544 0.467863 0.800201
O O13 0.250000 0.971960 0.143736
O O14 0.413860 0.750000 0.149461
O O15 0.250000 0.902637 0.656666
O O16 0.483013 0.750000 0.671246
#
# Coordination Sequence:
#
# PCOD8243226 Si02
#       5
#     8   8   8   8   8
#     4  10  20  34  53  76 101 130 165 204 244 287
#     4   9  18  32  49  70  96 126 161 200 241 287
#     4   9  16  27  46  70  90 112 151 197 233 273
#     4   9  17  30  48  69  95 127 159 193 237 285
#     4   8  15  29  47  66  91 122 153 188 234 285
#
# _framework density 17.594241
#
# number of rings (size 3 to 8) (size 9 to 14) (size 15 to 20)
#    0.000    3.000    0.000    2.400    0.000    4.800 
#    0.000    4.000    0.000    7.800    0.000    0.000 
#    0.000    0.000    0.000    0.000    0.000    0.000 
#
# Total GULP energy -495876.573848 kJ/mol
# GULP energy per Si atom -12396.914346 kJ/mol
# Density = 1.755420 g / cm^3
# Si number density = 17.594241 Si / 1000 Ang^3
#
#
#
# Elastic Constant Matrix: (Units=GPa)
#
#
# Indices 1 2 3 4 5 6 
#
# 1 78.3904 44.6319 70.4117 0.0000 0.0000 0.0000
# 2 44.6319 68.8420 82.6283 0.0000 0.0000 0.0000
# 3 70.4117 82.6283 189.8864 0.0000 0.0000 0.0000
# 4 0.0000 0.0000 0.0000 35.5275 0.0000 0.0000
# 5 0.0000 0.0000 0.0000 0.0000 32.5295 0.0000
# 6 0.0000 0.0000 0.0000 0.0000 0.0000 20.9489
#
#
#
# Elastic Compliance Matrix: (Units=1/GPa)
#
#
# Indices 1 2 3 4 5 6 
#
# 1 0.021585 -0.009184 -0.004008 0.000000 0.000000 0.000000
# 2 -0.009184 0.034315 -0.011527 0.000000 0.000000 0.000000
# 3 -0.004008 -0.011527 0.011768 0.000000 0.000000 0.000000
# 4 0.000000 0.000000 0.000000 0.028147 0.000000 0.000000
# 5 0.000000 0.000000 0.000000 0.000000 0.030741 0.000000
# 6 0.000000 0.000000 0.000000 0.000000 0.000000 0.047735
#
#
# Mechanical properties :
#
#
# Convention : Reuss Voigt Hill
#
# Bulk Modulus (GPa) = 54.84847 81.38475 68.11661
# Shear Modulus (GPa) = 21.75744 27.09764 24.42754
#
# Velocity S-wave (km/s) = 3.52038 3.92872 3.73014
# Velocity P-wave (km/s) = 6.91129 8.18149 7.57306
#
# Compressibility (1/GPa) = 0.01823205
#
# Stress axis : x y z
#
# Youngs Moduli (GPa) = 46.32757 29.14166 84.97548
#
# Poissons Ratio (x) = 0.26764 0.34055
# Poissons Ratio (y) = 0.42548 0.97947
# Poissons Ratio (z) = 0.18566 0.33590
#
# Static dielectric constant tensor:
#      x y z
#    x 3.157590 0.000000 0.000000 
#    y 0.000000 2.714300 0.000000 
#    z 0.000000 0.000000 3.489560 
# 
# 
# High freq. dielectric constant tensor:
#      x y z
#    x 1.663500 0.000000 0.000000 
#    y 0.000000 1.655310 0.000000 
#    z 0.000000 0.000000 1.695510 
# 
# From -- ./inp_files/26736.got.cif
#   From: 2010.03.12/outbox.cif.g09.slc.cpg/sg59_14_cif.got.tgz:26736.got - 2010.04.16 16:29:54.
