data_PCOD8243116
_publ_section_title
;
Structure prediction by ZEFSAII (Michael W. Deem and Ramdas Pophale) SiO2 
 PCOD8243116
Probable space group: P M M N
;
_chemical_formula_sum "Si O2"
_cell_formula_units_Z 48
_cell_length_a 15.020357
_cell_length_b 8.975548
_cell_length_c 19.176436
_cell_angle_alpha 90.000000
_cell_angle_beta 90.000000
_cell_angle_gamma 90.000000
_cell_volume 2585.289154
_symmetry_space_group_name_H-M "P M M N"
_symmetry_group_IT_number 59
_space_group.IT_coordinate_system_code '2'
_symmetry_cell_setting 'orthorhombic'
loop_
_space_group_symop_operation_xyz
x,y,z
1/2-x,1/2-y,z
1/2+x,-y,-z
-x,1/2+y,-z
-x,-y,-z
1/2+x,1/2+y,-z
1/2-x,y,z
x,1/2-y,z
loop_
_atom_site_type_symbol
_atom_site_label
_atom_site_fract_x
_atom_site_fract_y
_atom_site_fract_z
Si Si1 0.004433 0.572703 0.258101
Si Si2 0.653469 0.573530 0.350510
Si Si3 0.988923 0.074142 0.898595
Si Si4 0.349126 0.581947 0.363844
Si Si5 0.353690 0.074471 0.000566
Si Si6 0.405215 0.073804 0.499240
O O1 0.000169 0.750000 0.254443
O O2 0.918861 0.504663 0.297994
O O3 0.007614 0.509678 0.179841
O O4 0.089407 0.517608 0.302234
O O5 0.750000 0.521214 0.323742
O O6 0.644214 0.750000 0.349244
O O7 0.642457 0.519777 0.430074
O O8 0.973986 0.250000 0.900945
O O9 0.084060 0.032143 0.934079
O O10 0.901832 0.001404 0.933648
O O11 0.250000 0.580963 0.333437
O O12 0.379963 0.750000 0.383510
O O13 0.350814 0.481683 0.432643
O O14 0.250000 0.019746 0.991189
O O15 0.353781 0.250000 0.012867
O O16 0.413807 0.250000 0.495540
O O17 0.500000 0.000000 0.500000
#
# Coordination Sequence:
#
# PCOD8243116 Si02
#       6
#     8   8   8   8   8   8
#     4   9  17  31  49  73 103 131 164 206 251 299
#     4   9  17  29  48  73  98 124 159 207 257 298
#     4   9  18  32  53  78 102 132 171 209 244 296
#     4  10  20  34  51  72 101 136 170 209 258 304
#     4   9  18  33  52  76 106 135 163 203 254 301
#     4  11  20  33  53  74  99 131 172 217 259 303
#
# _framework density 18.566590000000001
#
# number of rings (size 3 to 8) (size 9 to 14) (size 15 to 20)
#    0.000    2.500    1.667    1.000    0.000    2.667 
#    0.000    5.833    0.000    0.000    0.000    0.000 
#    0.000    0.000    0.000    0.000    0.000    0.000 
#
# Total GULP energy -594927.429078 kJ/mol
# GULP energy per Si atom -12394.321439 kJ/mol
# Density = 1.852433 g / cm^3
# Si number density = 18.566590 Si / 1000 Ang^3
#
#
#
# Elastic Constant Matrix: (Units=GPa)
#
#
# Indices 1 2 3 4 5 6 
#
# 1 160.6679 21.7247 75.1225 0.0000 0.0000 0.0000
# 2 21.7247 28.4238 24.8114 0.0000 0.0000 0.0000
# 3 75.1225 24.8114 167.0337 0.0000 0.0000 0.0000
# 4 0.0000 0.0000 0.0000 23.3577 0.0000 0.0000
# 5 0.0000 0.0000 0.0000 0.0000 12.0179 0.0000
# 6 0.0000 0.0000 0.0000 0.0000 0.0000 20.3095
#
#
#
# Elastic Compliance Matrix: (Units=1/GPa)
#
#
# Indices 1 2 3 4 5 6 
#
# 1 0.008172 -0.003490 -0.003157 0.000000 0.000000 0.000000
# 2 -0.003490 0.041914 -0.004656 0.000000 0.000000 0.000000
# 3 -0.003157 -0.004656 0.008098 0.000000 0.000000 0.000000
# 4 0.000000 0.000000 0.000000 0.042812 0.000000 0.000000
# 5 0.000000 0.000000 0.000000 0.000000 0.083209 0.000000
# 6 0.000000 0.000000 0.000000 0.000000 0.000000 0.049238
#
#
# Mechanical properties :
#
#
# Convention : Reuss Voigt Hill
#
# Bulk Modulus (GPa) = 28.10768 66.60473 47.35621
# Shear Modulus (GPa) = 18.66299 26.76814 22.71557
#
# Velocity S-wave (km/s) = 3.17392 3.80114 3.50160
# Velocity P-wave (km/s) = 5.34821 7.43076 6.47378
#
# Compressibility (1/GPa) = 0.03557746
#
# Stress axis : x y z
#
# Youngs Moduli (GPa) = 122.36911 23.85837 123.48381
#
# Poissons Ratio (x) = 0.08327 0.38982
# Poissons Ratio (y) = 0.42711 0.57496
# Poissons Ratio (z) = 0.38630 0.11109
#
# Static dielectric constant tensor:
#      x y z
#    x 3.508620 0.000000 0.000000 
#    y 0.000000 3.267020 0.000000 
#    z 0.000000 0.000000 3.810680 
# 
# 
# High freq. dielectric constant tensor:
#      x y z
#    x 1.735550 0.000000 0.000000 
#    y 0.000000 1.678440 0.000000 
#    z 0.000000 0.000000 1.719240 
# 
# From -- ./inp_files/27366.got.cif
#   From: 2010.03.12/outbox.cif.g09.slc.cpg/sg59_14_cif.got.tgz:27366.got - 2010.04.16 16:29:54.
