data_PCOD8243094
_publ_section_title
;
Structure prediction by ZEFSAII (Michael W. Deem and Ramdas Pophale) SiO2 
 PCOD8243094
Probable space group: P M M N
;
_chemical_formula_sum "Si O2"
_cell_formula_units_Z 64
_cell_length_a 21.516223
_cell_length_b 8.898724
_cell_length_c 19.210931
_cell_angle_alpha 90.000000
_cell_angle_beta 90.000000
_cell_angle_gamma 90.000000
_cell_volume 3678.257981
_symmetry_space_group_name_H-M "P M M N"
_symmetry_group_IT_number 59
_space_group.IT_coordinate_system_code '2'
_symmetry_cell_setting 'orthorhombic'
loop_
_space_group_symop_operation_xyz
x,y,z
1/2-x,1/2-y,z
1/2+x,-y,-z
-x,1/2+y,-z
-x,-y,-z
1/2+x,1/2+y,-z
1/2-x,y,z
x,1/2-y,z
loop_
_atom_site_type_symbol
_atom_site_label
_atom_site_fract_x
_atom_site_fract_y
_atom_site_fract_z
Si Si1 0.179560 0.420254 0.718630
Si Si2 0.489490 0.574076 0.329178
Si Si3 0.938904 0.074288 0.531307
Si Si4 0.988147 0.428576 0.826516
Si Si5 0.442928 0.427246 0.042700
Si Si6 0.616382 0.074925 0.162265
Si Si7 0.610107 0.921800 0.411016
Si Si8 0.820074 0.576034 0.041183
O O1 0.250000 0.448130 0.738961
O O2 0.158380 0.250000 0.737860
O O3 0.137857 0.539181 0.759527
O O4 0.171642 0.443984 0.635446
O O5 0.496355 0.750000 0.317174
O O6 0.434449 0.536676 0.385516
O O7 0.476622 0.506523 0.252195
O O8 0.553685 0.514933 0.362856
O O9 0.943507 0.250000 0.520575
O O10 0.882208 0.010584 0.484471
O O11 0.000000 0.000000 0.500000
O O12 0.981218 0.250000 0.831079
O O13 0.939673 0.506208 0.879012
O O14 0.055588 0.477519 0.854560
O O15 0.454484 0.250000 0.044251
O O16 0.500000 0.500000 0.000000
O O17 0.374653 0.467521 0.012695
O O18 0.601352 0.250000 0.154406
O O19 0.670679 0.024134 0.109994
O O20 0.597339 0.750000 0.431136
O O21 0.750000 0.542984 0.011827
O O22 0.825643 0.750000 0.062408
#
# Coordination Sequence:
#
# PCOD8243094 Si02
#       8
#     8   8   8   8   8   8   8   8
#     4  10  20  34  50  66  93 137 180 211 249 306
#     4   8  15  28  46  66  92 124 158 196 240 293
#     4   9  16  27  43  66  91 120 155 192 236 286
#     4  11  20  34  54  74 102 140 173 207 255 314
#     4  11  22  36  55  80 107 134 170 216 263 312
#     4  12  23  33  49  75 105 134 171 218 259 300
#     4   9  16  29  45  65  92 124 163 203 243 289
#     4  10  22  40  59  75  98 139 180 210 253 316
#
# _framework density 17.399540999999999
#
# number of rings (size 3 to 8) (size 9 to 14) (size 15 to 20)
#    0.000    2.000    2.500    3.375    0.000    3.000 
#    0.000    1.875    0.000    0.000    0.000    0.875 
#    0.000    7.000    0.000    0.000    0.000    0.000 
#
# Total GULP energy -793040.226705 kJ/mol
# GULP energy per Si atom -12391.253542 kJ/mol
# Density = 1.735994 g / cm^3
# Si number density = 17.399541 Si / 1000 Ang^3
#
#
#
# Elastic Constant Matrix: (Units=GPa)
#
#
# Indices 1 2 3 4 5 6 
#
# 1 69.9901 28.6540 43.0233 0.0000 0.0000 0.0000
# 2 28.6540 70.9884 41.9236 0.0000 0.0000 0.0000
# 3 43.0233 41.9236 117.7440 0.0000 0.0000 0.0000
# 4 0.0000 0.0000 0.0000 29.8589 0.0000 0.0000
# 5 0.0000 0.0000 0.0000 0.0000 23.2572 0.0000
# 6 0.0000 0.0000 0.0000 0.0000 0.0000 16.6972
#
#
#
# Elastic Compliance Matrix: (Units=1/GPa)
#
#
# Indices 1 2 3 4 5 6 
#
# 1 0.019570 -0.004655 -0.005493 0.000000 0.000000 0.000000
# 2 -0.004655 0.018945 -0.005044 0.000000 0.000000 0.000000
# 3 -0.005493 -0.005044 0.012296 0.000000 0.000000 0.000000
# 4 0.000000 0.000000 0.000000 0.033491 0.000000 0.000000
# 5 0.000000 0.000000 0.000000 0.000000 0.042997 0.000000
# 6 0.000000 0.000000 0.000000 0.000000 0.000000 0.059890
#
#
# Mechanical properties :
#
#
# Convention : Reuss Voigt Hill
#
# Bulk Modulus (GPa) = 48.95837 53.99157 51.47497
# Shear Modulus (GPa) = 22.28310 23.63743 22.96026
#
# Velocity S-wave (km/s) = 3.58253 3.68979 3.63656
# Velocity P-wave (km/s) = 6.73138 7.01788 6.87612
#
# Compressibility (1/GPa) = 0.02042552
#
# Stress axis : x y z
#
# Youngs Moduli (GPa) = 51.09747 52.78443 81.32456
#
# Poissons Ratio (x) = 0.24572 0.44675
# Poissons Ratio (y) = 0.23787 0.41024
# Poissons Ratio (z) = 0.28070 0.26627
#
# Static dielectric constant tensor:
#      x y z
#    x 3.073930 0.000000 0.000000 
#    y 0.000000 3.253740 0.000000 
#    z 0.000000 0.000000 3.636780 
# 
# 
# High freq. dielectric constant tensor:
#      x y z
#    x 1.629250 0.000000 0.000000 
#    y 0.000000 1.663770 0.000000 
#    z 0.000000 0.000000 1.678040 
# 
# From -- ./inp_files/28450.got.cif
#   From: 2010.03.12/outbox.cif.g09.slc.cpg/sg59_15_cif.got.tgz:28450.got - 2010.04.16 16:29:54.
