data_PCOD8243112
_publ_section_title
;
Structure prediction by ZEFSAII (Michael W. Deem and Ramdas Pophale) SiO2 
 PCOD8243112
Probable space group: P M M N
;
_chemical_formula_sum "Si O2"
_cell_formula_units_Z 64
_cell_length_a 9.095897
_cell_length_b 34.094092
_cell_length_c 11.119372
_cell_angle_alpha 90.000000
_cell_angle_beta 90.000000
_cell_angle_gamma 90.000000
_cell_volume 3448.299049
_symmetry_space_group_name_H-M "P M M N"
_symmetry_group_IT_number 59
_space_group.IT_coordinate_system_code '2'
_symmetry_cell_setting 'orthorhombic'
loop_
_space_group_symop_operation_xyz
x,y,z
1/2-x,1/2-y,z
1/2+x,-y,-z
-x,1/2+y,-z
-x,-y,-z
1/2+x,1/2+y,-z
1/2-x,y,z
x,1/2-y,z
loop_
_atom_site_type_symbol
_atom_site_label
_atom_site_fract_x
_atom_site_fract_y
_atom_site_fract_z
Si Si1 0.920399 0.055764 0.728342
Si Si2 0.075117 0.207235 0.477813
Si Si3 0.416589 0.935753 0.543854
Si Si4 0.924340 0.793202 0.251713
Si Si5 0.923573 0.625392 0.149598
Si Si6 0.577204 0.591708 0.892147
Si Si7 0.578330 0.480007 0.216063
Si Si8 0.076746 0.367236 0.346651
O O1 0.750000 0.056364 0.764902
O O2 0.941727 0.045987 0.587379
O O3 0.992068 0.097724 0.756794
O O4 0.002238 0.022051 0.804612
O O5 0.250000 0.205869 0.478766
O O6 0.020121 0.250000 0.434361
O O7 0.017801 0.198992 0.612959
O O8 0.011750 0.175089 0.384805
O O9 0.250000 0.921050 0.559901
O O10 0.454045 0.967472 0.646442
O O11 0.521513 0.898583 0.556823
O O12 0.750000 0.791960 0.251717
O O13 0.981885 0.750000 0.206692
O O14 0.977291 0.829464 0.168216
O O15 0.750000 0.621356 0.172998
O O16 0.966930 0.612433 0.015665
O O17 0.750000 0.582676 0.883723
O O18 0.491072 0.550850 0.877614
O O19 0.525157 0.621585 0.787482
O O20 0.750000 0.484085 0.187950
O O21 0.250000 0.366807 0.355049
#
# Coordination Sequence:
#
# PCOD8243112 Si02
#       8
#     8   8   8   8   8   8   8   8
#     4  11  22  34  50  74 102 127 156 200 247 288
#     4   8  13  22  40  69 100 124 151 192 240 289
#     4   9  19  33  49  72  99 124 153 195 245 294
#     4   8  14  26  46  72  99 126 158 197 239 282
#     4  10  20  34  51  71  97 131 170 205 238 282
#     4   9  19  34  49  68  96 128 165 208 244 276
#     4  10  20  35  54  73  95 127 163 196 240 296
#     4   9  16  28  48  70  93 126 163 197 238 286
#
# _framework density 18.559874000000001
#
# number of rings (size 3 to 8) (size 9 to 14) (size 15 to 20)
#    0.000    2.750    0.000    2.625    0.000    3.500 
#    0.000    0.625    0.000    4.500    0.000    3.500 
#    0.000    3.000    0.000    0.000    0.000    0.000 
#
# Total GULP energy -793342.057269 kJ/mol
# GULP energy per Si atom -12395.969645 kJ/mol
# Density = 1.851763 g / cm^3
# Si number density = 18.559874 Si / 1000 Ang^3
#
#
#
# Elastic Constant Matrix: (Units=GPa)
#
#
# Indices 1 2 3 4 5 6 
#
# 1 35.2586 33.1753 21.4042 0.0000 0.0000 0.0000
# 2 33.1753 141.2609 37.0720 0.0000 0.0000 0.0000
# 3 21.4042 37.0720 56.1460 0.0000 0.0000 0.0000
# 4 0.0000 0.0000 0.0000 25.6955 0.0000 0.0000
# 5 0.0000 0.0000 0.0000 0.0000 18.8856 0.0000
# 6 0.0000 0.0000 0.0000 0.0000 0.0000 17.9053
#
#
#
# Elastic Compliance Matrix: (Units=1/GPa)
#
#
# Indices 1 2 3 4 5 6 
#
# 1 0.041678 -0.006796 -0.011401 0.000000 0.000000 0.000000
# 2 -0.006796 0.009671 -0.003795 0.000000 0.000000 0.000000
# 3 -0.011401 -0.003795 0.024663 0.000000 0.000000 0.000000
# 4 0.000000 0.000000 0.000000 0.038917 0.000000 0.000000
# 5 0.000000 0.000000 0.000000 0.000000 0.052950 0.000000
# 6 0.000000 0.000000 0.000000 0.000000 0.000000 0.055849
#
#
# Mechanical properties :
#
#
# Convention : Reuss Voigt Hill
#
# Bulk Modulus (GPa) = 31.22329 46.21871 38.72100
# Shear Modulus (GPa) = 17.96053 21.89822 19.92937
#
# Velocity S-wave (km/s) = 3.11417 3.43865 3.28043
# Velocity P-wave (km/s) = 5.45805 6.38140 5.93770
#
# Compressibility (1/GPa) = 0.03202738
#
# Stress axis : x y z
#
# Youngs Moduli (GPa) = 23.99368 103.40159 40.54690
#
# Poissons Ratio (x) = 0.70271 0.46229
# Poissons Ratio (y) = 0.16306 0.15387
# Poissons Ratio (z) = 0.27356 0.39239
#
# Static dielectric constant tensor:
#      x y z
#    x 3.109260 0.000000 0.000000 
#    y 0.000000 3.758510 0.000000 
#    z 0.000000 0.000000 3.394800 
# 
# 
# High freq. dielectric constant tensor:
#      x y z
#    x 1.688760 0.000000 0.000000 
#    y 0.000000 1.727240 0.000000 
#    z 0.000000 0.000000 1.708550 
# 
# From -- ./inp_files/14924.got.cif
#   From: 2010.03.12/outbox.cif.g09.slc.cpg/sg59_8_cif.got.tgz:14924.got - 2010.04.16 16:29:54.
