data_PCOD8243902
_publ_section_title
;
Structure prediction by ZEFSAII (Michael W. Deem and Ramdas Pophale) SiO2 
 PCOD8243902
Probable space group: P M M N
;
_chemical_formula_sum "Si O2"
_cell_formula_units_Z 40
_cell_length_a 20.183669
_cell_length_b 12.331009
_cell_length_c 8.128976
_cell_angle_alpha 90.000000
_cell_angle_beta 90.000000
_cell_angle_gamma 90.000000
_cell_volume 2023.180225
_symmetry_space_group_name_H-M "P M M N"
_symmetry_group_IT_number 59
_space_group.IT_coordinate_system_code '2'
_symmetry_cell_setting 'orthorhombic'
loop_
_space_group_symop_operation_xyz
x,y,z
1/2-x,1/2-y,z
1/2+x,-y,-z
-x,1/2+y,-z
-x,-y,-z
1/2+x,1/2+y,-z
1/2-x,y,z
x,1/2-y,z
loop_
_atom_site_type_symbol
_atom_site_label
_atom_site_fract_x
_atom_site_fract_y
_atom_site_fract_z
Si Si1 0.513811 0.451945 0.766462
Si Si2 0.105536 0.446306 0.987571
Si Si3 0.173109 0.482459 0.671615
Si Si4 0.171185 0.250000 0.170088
Si Si5 0.939803 0.126851 0.432855
Si Si6 0.171872 0.250000 0.539635
O O1 0.456805 0.400481 0.881832
O O2 0.529588 0.372262 0.616002
O O3 0.488803 0.568045 0.695509
O O4 0.579528 0.469204 0.875887
O O5 0.156832 0.505406 0.863266
O O6 0.145481 0.353735 0.076759
O O7 0.250000 0.501162 0.632171
O O8 0.131073 0.565448 0.560289
O O9 0.149068 0.358988 0.633310
O O10 0.250000 0.250000 0.167008
O O11 0.142513 0.250000 0.355369
O O12 0.930328 0.250000 0.373850
O O13 0.250000 0.250000 0.529264
#
# Coordination Sequence:
#
# PCOD8243902 Si02
#       6
#     8   8   8   4   8   4
#     4   9  21  39  54  84 112 153 199 234 296 332
#     4  10  20  35  55  82 116 148 187 244 286 352
#     4  10  20  37  59  85 116 152 193 237 291 348
#     4  11  21  31  53  87 115 151 186 235 304 351
#     4  10  21  38  60  83 113 153 196 244 282 349
#     4   9  19  35  55  81 117 151 189 231 282 353
#
# _framework density 19.770854
#
# number of rings (size 3 to 8) (size 9 to 14) (size 15 to 20)
#    0.000    2.200    0.000    2.400    2.800    1.200 
#   10.800    2.000    0.000    0.000    0.000    0.000 
#    0.000    0.000    0.000    0.000    0.000    0.000 
#
# Total GULP energy -495927.906783 kJ/mol
# GULP energy per Si atom -12398.197670 kJ/mol
# Density = 1.972585 g / cm^3
# Si number density = 19.770854 Si / 1000 Ang^3
#
#
#
# Elastic Constant Matrix: (Units=GPa)
#
#
# Indices 1 2 3 4 5 6 
#
# 1 77.2625 30.4780 27.0108 0.0000 0.0000 0.0000
# 2 30.4780 94.0169 17.0952 0.0000 0.0000 0.0000
# 3 27.0108 17.0952 102.4354 0.0000 0.0000 0.0000
# 4 0.0000 0.0000 0.0000 19.4226 0.0000 0.0000
# 5 0.0000 0.0000 0.0000 0.0000 36.5616 0.0000
# 6 0.0000 0.0000 0.0000 0.0000 0.0000 29.1640
#
#
#
# Elastic Compliance Matrix: (Units=1/GPa)
#
#
# Indices 1 2 3 4 5 6 
#
# 1 0.015938 -0.004540 -0.003445 0.000000 0.000000 0.000000
# 2 -0.004540 0.012263 -0.000849 0.000000 0.000000 0.000000
# 3 -0.003445 -0.000849 0.010812 0.000000 0.000000 0.000000
# 4 0.000000 0.000000 0.000000 0.051486 0.000000 0.000000
# 5 0.000000 0.000000 0.000000 0.000000 0.027351 0.000000
# 6 0.000000 0.000000 0.000000 0.000000 0.000000 0.034289
#
#
# Mechanical properties :
#
#
# Convention : Reuss Voigt Hill
#
# Bulk Modulus (GPa) = 46.85130 46.98695 46.91912
# Shear Modulus (GPa) = 28.26077 30.30503 29.28290
#
# Velocity S-wave (km/s) = 3.78486 3.91936 3.85270
# Velocity P-wave (km/s) = 6.54590 6.65577 6.60106
#
# Compressibility (1/GPa) = 0.02134413
#
# Stress axis : x y z
#
# Youngs Moduli (GPa) = 62.74190 81.54817 92.48670
#
# Poissons Ratio (x) = 0.37026 0.31861
# Poissons Ratio (y) = 0.28487 0.07854
# Poissons Ratio (z) = 0.21614 0.06925
#
# Static dielectric constant tensor:
#      x y z
#    x 3.609820 0.000000 0.000000 
#    y 0.000000 3.395480 0.000000 
#    z 0.000000 0.000000 3.906630 
# 
# 
# High freq. dielectric constant tensor:
#      x y z
#    x 1.771080 0.000000 0.000000 
#    y 0.000000 1.736400 0.000000 
#    z 0.000000 0.000000 1.787020 
# 
# From -- ./inp_files/11177.got.cif
#   From: 2010.03.12/outbox.cif.g09.slc.cpg/sg59_6_cif.got.tgz:11177.got - 2010.04.16 16:29:54.
