data_PCOD8243003
_publ_section_title
;
Structure prediction by ZEFSAII (Michael W. Deem and Ramdas Pophale) SiO2 
 PCOD8243003
Probable space group: P M M N
;
_chemical_formula_sum "Si O2"
_cell_formula_units_Z 48
_cell_length_a 23.126059
_cell_length_b 9.007514
_cell_length_c 12.590556
_cell_angle_alpha 90.000000
_cell_angle_beta 90.000000
_cell_angle_gamma 90.000000
_cell_volume 2622.717319
_symmetry_space_group_name_H-M "P M M N"
_symmetry_group_IT_number 59
_space_group.IT_coordinate_system_code '2'
_symmetry_cell_setting 'orthorhombic'
loop_
_space_group_symop_operation_xyz
x,y,z
1/2-x,1/2-y,z
1/2+x,-y,-z
-x,1/2+y,-z
-x,-y,-z
1/2+x,1/2+y,-z
1/2-x,y,z
x,1/2-y,z
loop_
_atom_site_type_symbol
_atom_site_label
_atom_site_fract_x
_atom_site_fract_y
_atom_site_fract_z
Si Si1 0.993811 0.078339 0.888201
Si Si2 0.626771 0.074780 0.793514
Si Si3 0.617272 0.578179 0.193257
Si Si4 0.816142 0.580368 0.983169
Si Si5 0.683468 0.924445 0.597299
Si Si6 0.183715 0.923090 0.621571
O O1 0.987543 0.250000 0.915544
O O2 0.048835 0.048563 0.813008
O O3 0.937454 0.021354 0.825715
O O4 0.000000 0.000000 0.000000
O O5 0.631156 0.250000 0.778488
O O6 0.642019 0.997644 0.683351
O O7 0.671585 0.024367 0.883525
O O8 0.631799 0.750000 0.217570
O O9 0.644784 0.529475 0.081461
O O10 0.642590 0.475378 0.284346
O O11 0.750000 0.561579 0.017865
O O12 0.829964 0.750000 0.950548
O O13 0.750000 0.963479 0.624040
O O14 0.672882 0.750000 0.595917
O O15 0.665703 0.989042 0.483599
O O16 0.250000 0.957956 0.652562
O O17 0.174081 0.750000 0.600635
#
# Coordination Sequence:
#
# PCOD8243003 Si02
#       6
#     8   8   8   8   8   8
#     4  10  21  37  57  80 109 148 190 230 273 324
#     4  11  22  35  54  82 113 144 182 230 281 327
#     4  10  20  36  57  80 109 147 189 228 269 326
#     4  10  20  33  52  79 110 145 184 225 271 328
#     4  10  21  38  60  83 109 146 188 226 271 332
#     4  10  21  37  58  85 115 144 178 227 283 332
#
# _framework density 18.301628999999998
#
# number of rings (size 3 to 8) (size 9 to 14) (size 15 to 20)
#    0.000    1.833    1.667    2.500    0.000    7.000 
#    0.000    0.833    0.000    0.000    0.000    0.000 
#    0.000    0.000    0.000    0.000    0.000    0.000 
#
# Total GULP energy -595442.422074 kJ/mol
# GULP energy per Si atom -12405.050460 kJ/mol
# Density = 1.825997 g / cm^3
# Si number density = 18.301629 Si / 1000 Ang^3
#
#
#
# Elastic Constant Matrix: (Units=GPa)
#
#
# Indices 1 2 3 4 5 6 
#
# 1 84.6016 32.0013 40.8318 0.0000 0.0000 0.0000
# 2 32.0013 71.1876 47.5430 0.0000 0.0000 0.0000
# 3 40.8318 47.5430 104.9069 0.0000 0.0000 0.0000
# 4 0.0000 0.0000 0.0000 38.7129 0.0000 0.0000
# 5 0.0000 0.0000 0.0000 0.0000 24.9124 0.0000
# 6 0.0000 0.0000 0.0000 0.0000 0.0000 27.3175
#
#
#
# Elastic Compliance Matrix: (Units=1/GPa)
#
#
# Indices 1 2 3 4 5 6 
#
# 1 0.015375 -0.004180 -0.004090 0.000000 0.000000 0.000000
# 2 -0.004180 0.021281 -0.008017 0.000000 0.000000 0.000000
# 3 -0.004090 -0.008017 0.014758 0.000000 0.000000 0.000000
# 4 0.000000 0.000000 0.000000 0.025831 0.000000 0.000000
# 5 0.000000 0.000000 0.000000 0.000000 0.040141 0.000000
# 6 0.000000 0.000000 0.000000 0.000000 0.000000 0.036607
#
#
# Mechanical properties :
#
#
# Convention : Reuss Voigt Hill
#
# Bulk Modulus (GPa) = 53.08194 55.71645 54.39920
# Shear Modulus (GPa) = 25.92733 27.54324 26.73528
#
# Velocity S-wave (km/s) = 3.76795 3.88359 3.82621
# Velocity P-wave (km/s) = 6.92797 7.11472 7.02197
#
# Compressibility (1/GPa) = 0.01883880
#
# Stress axis : x y z
#
# Youngs Moduli (GPa) = 65.03955 46.99028 67.76200
#
# Poissons Ratio (x) = 0.19643 0.27714
# Poissons Ratio (y) = 0.27188 0.54327
# Poissons Ratio (z) = 0.26600 0.37674
#
# Static dielectric constant tensor:
#      x y z
#    x 3.526990 0.000000 0.000000 
#    y 0.000000 3.371460 0.000000 
#    z 0.000000 0.000000 3.297340 
# 
# 
# High freq. dielectric constant tensor:
#      x y z
#    x 1.710740 0.000000 0.000000 
#    y 0.000000 1.714070 0.000000 
#    z 0.000000 0.000000 1.708020 
# 
# From -- ./inp_files/14324.got.cif
#   From: 2010.03.12/outbox.cif.g09.slc.cpg/sg59_8_cif.got.tgz:14324.got - 2010.04.16 16:29:54.
