data_PCOD8243764
_publ_section_title
;
Structure prediction by ZEFSAII (Michael W. Deem and Ramdas Pophale) SiO2 
 PCOD8243764
Probable space group: P M M N
;
_chemical_formula_sum "Si O2"
_cell_formula_units_Z 48
_cell_length_a 8.896320
_cell_length_b 31.546099
_cell_length_c 9.137590
_cell_angle_alpha 90.000000
_cell_angle_beta 90.000000
_cell_angle_gamma 90.000000
_cell_volume 2564.411557
_symmetry_space_group_name_H-M "P M M N"
_symmetry_group_IT_number 59
_space_group.IT_coordinate_system_code '2'
_symmetry_cell_setting 'orthorhombic'
loop_
_space_group_symop_operation_xyz
x,y,z
1/2-x,1/2-y,z
1/2+x,-y,-z
-x,1/2+y,-z
-x,-y,-z
1/2+x,1/2+y,-z
1/2-x,y,z
x,1/2-y,z
loop_
_atom_site_type_symbol
_atom_site_label
_atom_site_fract_x
_atom_site_fract_y
_atom_site_fract_z
Si Si1 0.926756 0.908865 0.661571
Si Si2 0.424844 0.999672 0.345483
Si Si3 0.571504 0.830207 0.850866
Si Si4 0.070665 0.250000 0.666237
Si Si5 0.571834 0.172390 0.834675
Si Si6 0.573559 0.408210 0.654102
Si Si7 0.427345 0.250000 0.335435
O O1 0.750000 0.903885 0.639017
O O2 0.969955 0.955511 0.731475
O O3 0.983408 0.873624 0.774880
O O4 0.997864 0.901569 0.502906
O O5 0.250000 0.000324 0.374178
O O6 0.500000 0.000000 0.500000
O O7 0.469332 0.954398 0.271738
O O8 0.750000 0.829161 0.879234
O O9 0.516934 0.791770 0.748462
O O10 0.483818 0.825593 0.000704
O O11 0.250000 0.250000 0.675761
O O12 0.009399 0.250000 0.500063
O O13 0.008092 0.291373 0.743401
O O14 0.750000 0.178776 0.829113
O O15 0.519661 0.127563 0.766517
O O16 0.750000 0.404884 0.626736
O O17 0.250000 0.250000 0.343135
#
# Coordination Sequence:
#
# PCOD8243764 Si02
#       7
#     8   8   8   4   8   8   4
#     4   9  17  30  52  78 102 131 177 226 262 302
#     4   8  14  27  47  72 100 132 170 217 264 303
#     4  10  20  35  53  75 103 137 173 212 257 304
#     4  11  22  39  62  82 100 127 164 211 258 302
#     4  11  23  37  52  76 108 140 171 205 249 308
#     4   9  18  32  51  74 104 139 174 213 262 311
#     4   9  19  35  56  78  98 123 162 207 254 304
#
# _framework density 18.717745000000001
#
# number of rings (size 3 to 8) (size 9 to 14) (size 15 to 20)
#    0.000    2.500    0.000    2.250    0.000    4.000 
#    0.000    2.500    0.000    0.000    0.000    0.000 
#    0.000    0.000    0.000    0.000    0.000    0.000 
#
# Total GULP energy -594727.894567 kJ/mol
# GULP energy per Si atom -12390.164470 kJ/mol
# Density = 1.867514 g / cm^3
# Si number density = 18.717745 Si / 1000 Ang^3
#
#
#
# Elastic Constant Matrix: (Units=GPa)
#
#
# Indices 1 2 3 4 5 6 
#
# 1 37.0247 42.4210 33.5774 0.0000 0.0000 0.0000
# 2 42.4210 209.9920 90.9458 0.0000 0.0000 0.0000
# 3 33.5774 90.9458 130.8577 0.0000 0.0000 0.0000
# 4 0.0000 0.0000 0.0000 -90.5329 0.0000 0.0000
# 5 0.0000 0.0000 0.0000 0.0000 23.4784 0.0000
# 6 0.0000 0.0000 0.0000 0.0000 0.0000 14.7090
#
#
#
# Elastic Compliance Matrix: (Units=1/GPa)
#
#
# Indices 1 2 3 4 5 6 
#
# 1 0.038569 -0.005015 -0.006411 0.000000 0.000000 0.000000
# 2 -0.005015 0.007465 -0.003901 0.000000 0.000000 0.000000
# 3 -0.006411 -0.003901 0.011998 0.000000 0.000000 0.000000
# 4 0.000000 0.000000 0.000000 -0.011046 0.000000 0.000000
# 5 0.000000 0.000000 0.000000 0.000000 0.042592 0.000000
# 6 0.000000 0.000000 0.000000 0.000000 0.000000 0.067986
#
#
# Mechanical properties :
#
#
# Convention : Reuss Voigt Hill
#
# Bulk Modulus (GPa) = 36.52636 79.08475 57.80555
# Shear Modulus (GPa) = 25.33635 3.59291 14.46463
#
# Velocity S-wave (km/s) = 3.68312 1.38697 2.78290
# Velocity P-wave (km/s) = 6.13546 6.70133 6.42463
#
# Compressibility (1/GPa) = 0.02737749
#
# Stress axis : x y z
#
# Youngs Moduli (GPa) = 25.92751 133.96393 83.34478
#
# Poissons Ratio (x) = 0.67179 0.53436
# Poissons Ratio (y) = 0.13002 0.32514
# Poissons Ratio (z) = 0.16623 0.52262
#
# Static dielectric constant tensor:
#      x y z
#    x 3.289610 0.000000 0.000000 
#    y 0.000000 4.432860 0.000000 
#    z 0.000000 0.000000 3.244680 
# 
# 
# High freq. dielectric constant tensor:
#      x y z
#    x 1.715160 0.000000 0.000000 
#    y 0.000000 1.760780 0.000000 
#    z 0.000000 0.000000 1.700650 
# 
# From -- ./inp_files/6409.got.cif
#   From: 2010.03.12/outbox.cif.g09.slc.cpg/sg59_4_cif.got.tgz:6409.got - 2010.04.16 16:29:54.
