data_PCOD8243290
_publ_section_title
;
Structure prediction by ZEFSAII (Michael W. Deem and Ramdas Pophale) SiO2 
 PCOD8243290
Probable space group: P M M N
;
_chemical_formula_sum "Si O2"
_cell_formula_units_Z 64
_cell_length_a 9.049333
_cell_length_b 13.941631
_cell_length_c 25.913671
_cell_angle_alpha 90.000000
_cell_angle_beta 90.000000
_cell_angle_gamma 90.000000
_cell_volume 3269.332519
_symmetry_space_group_name_H-M "P M M N"
_symmetry_group_IT_number 59
_space_group.IT_coordinate_system_code '2'
_symmetry_cell_setting 'orthorhombic'
loop_
_space_group_symop_operation_xyz
x,y,z
1/2-x,1/2-y,z
1/2+x,-y,-z
-x,1/2+y,-z
-x,-y,-z
1/2+x,1/2+y,-z
1/2-x,y,z
x,1/2-y,z
loop_
_atom_site_type_symbol
_atom_site_label
_atom_site_fract_x
_atom_site_fract_y
_atom_site_fract_z
Si Si1 0.919686 0.352117 0.582770
Si Si2 0.422562 0.051979 0.377083
Si Si3 0.916662 0.636033 0.917540
Si Si4 0.583202 0.135727 0.982412
Si Si5 0.419887 0.358162 0.880229
Si Si6 0.422957 0.098491 0.488037
Si Si7 0.578421 0.455393 0.177391
Si Si8 0.073945 0.140436 0.272139
O O1 0.750000 0.376455 0.569618
O O2 0.932762 0.250000 0.613629
O O3 0.986680 0.443039 0.614301
O O4 0.002944 0.329682 0.528539
O O5 0.250000 0.042196 0.366965
O O6 0.452934 0.119809 0.427182
O O7 0.491473 0.102035 0.326702
O O8 0.750000 0.596219 0.911584
O O9 0.915284 0.750000 0.919538
O O10 0.016400 0.605474 0.869851
O O11 0.986642 0.593459 0.970327
O O12 0.750000 0.097038 0.987115
O O13 0.578886 0.250000 0.984662
O O14 0.515857 0.102128 0.927935
O O15 0.250000 0.359167 0.898220
O O16 0.466932 0.250000 0.863584
O O17 0.445355 0.430656 0.832569
O O18 0.250000 0.094820 0.498959
O O19 0.500000 0.000000 0.500000
O O20 0.750000 0.430043 0.183988
O O21 0.492132 0.427963 0.228764
O O22 0.250000 0.134619 0.269679
O O23 0.021347 0.250000 0.264237
#
# Coordination Sequence:
#
# PCOD8243290 Si02
#       8
#     8   8   8   8   8   8   8   8
#     4   9  17  30  49  75 109 145 177 214 263 314
#     4   8  16  32  52  73  99 135 178 218 257 309
#     4  10  20  34  53  77 107 143 177 208 249 304
#     4   9  17  30  51  80 110 137 168 209 252 295
#     4   9  19  37  57  75 100 135 170 203 248 310
#     4   9  16  28  48  74 105 140 177 216 257 303
#     4  11  23  37  55  78 102 131 169 216 266 310
#     4  10  21  38  58  77 100 133 173 217 264 312
#
# _framework density 19.575862000000001
#
# number of rings (size 3 to 8) (size 9 to 14) (size 15 to 20)
#    0.000    2.625    0.000    2.625    0.000    6.250 
#    0.000    5.000    0.000    0.750    0.000    0.000 
#    0.000    0.000    0.000    0.000    0.000    0.000 
#
# Total GULP energy -793089.085825 kJ/mol
# GULP energy per Si atom -12392.016966 kJ/mol
# Density = 1.953131 g / cm^3
# Si number density = 19.575862 Si / 1000 Ang^3
#
#
#
# Elastic Constant Matrix: (Units=GPa)
#
#
# Indices 1 2 3 4 5 6 
#
# 1 64.8789 30.8373 36.8346 0.0000 0.0000 0.0000
# 2 30.8373 74.9237 46.8666 0.0000 0.0000 0.0000
# 3 36.8346 46.8666 126.7865 0.0000 0.0000 0.0000
# 4 0.0000 0.0000 0.0000 24.6836 0.0000 0.0000
# 5 0.0000 0.0000 0.0000 0.0000 28.4049 0.0000
# 6 0.0000 0.0000 0.0000 0.0000 0.0000 18.8003
#
#
#
# Elastic Compliance Matrix: (Units=1/GPa)
#
#
# Indices 1 2 3 4 5 6 
#
# 1 0.020396 -0.006098 -0.003671 0.000000 0.000000 0.000000
# 2 -0.006098 0.019185 -0.005320 0.000000 0.000000 0.000000
# 3 -0.003671 -0.005320 0.010920 0.000000 0.000000 0.000000
# 4 0.000000 0.000000 0.000000 0.040513 0.000000 0.000000
# 5 0.000000 0.000000 0.000000 0.000000 0.035205 0.000000
# 6 0.000000 0.000000 0.000000 0.000000 0.000000 0.053191
#
#
# Mechanical properties :
#
#
# Convention : Reuss Voigt Hill
#
# Bulk Modulus (GPa) = 49.20724 55.07401 52.14063
# Shear Modulus (GPa) = 23.10936 24.51449 23.81193
#
# Velocity S-wave (km/s) = 3.43957 3.54260 3.49147
# Velocity P-wave (km/s) = 6.40043 6.70284 6.55338
#
# Compressibility (1/GPa) = 0.02032221
#
# Stress axis : x y z
#
# Youngs Moduli (GPa) = 49.02860 52.12534 91.57172
#
# Poissons Ratio (x) = 0.31787 0.33620
# Poissons Ratio (y) = 0.29899 0.48715
# Poissons Ratio (z) = 0.18000 0.27730
#
# Static dielectric constant tensor:
#      x y z
#    x 3.683630 0.000000 0.000000 
#    y 0.000000 3.837860 0.000000 
#    z 0.000000 0.000000 3.712980 
# 
# 
# High freq. dielectric constant tensor:
#      x y z
#    x 1.750880 0.000000 0.000000 
#    y 0.000000 1.771360 0.000000 
#    z 0.000000 0.000000 1.742940 
# 
# From -- ./inp_files/31544.got.cif
#   From: 2010.03.12/outbox.cif.g09.slc.cpg/sg59_16_cif.got.tgz:31544.got - 2010.04.16 16:29:54.
