data_PCOD8243191
_publ_section_title
;
Structure prediction by ZEFSAII (Michael W. Deem and Ramdas Pophale) SiO2 
 PCOD8243191
Probable space group: P M M N
;
_chemical_formula_sum "Si O2"
_cell_formula_units_Z 48
_cell_length_a 15.609285
_cell_length_b 9.042554
_cell_length_c 17.028074
_cell_angle_alpha 90.000000
_cell_angle_beta 90.000000
_cell_angle_gamma 90.000000
_cell_volume 2403.475226
_symmetry_space_group_name_H-M "P M M N"
_symmetry_group_IT_number 59
_space_group.IT_coordinate_system_code '2'
_symmetry_cell_setting 'orthorhombic'
loop_
_space_group_symop_operation_xyz
x,y,z
1/2-x,1/2-y,z
1/2+x,-y,-z
-x,1/2+y,-z
-x,-y,-z
1/2+x,1/2+y,-z
1/2-x,y,z
x,1/2-y,z
loop_
_atom_site_type_symbol
_atom_site_label
_atom_site_fract_x
_atom_site_fract_y
_atom_site_fract_z
Si Si1 0.896207 0.417845 0.839507
Si Si2 0.349643 0.919072 0.993225
Si Si3 0.845985 0.421009 0.307008
Si Si4 0.502145 0.925705 0.583983
Si Si5 0.093319 0.418260 0.842279
Si Si6 0.345903 0.577090 0.326342
O O1 0.866417 0.250000 0.851192
O O2 0.846220 0.481178 0.763961
O O3 0.995195 0.432226 0.817505
O O4 0.871303 0.494954 0.922133
O O5 0.250000 0.929183 0.975549
O O6 0.382626 0.750000 0.990032
O O7 0.398706 0.009495 0.927294
O O8 0.750000 0.446477 0.341818
O O9 0.862769 0.250000 0.289140
O O10 0.850480 0.503055 0.223853
O O11 0.917575 0.478911 0.368155
O O12 0.503062 0.750000 0.574808
O O13 0.500000 0.000000 0.500000
O O14 0.588984 0.978113 0.624926
O O15 0.124263 0.250000 0.847962
O O16 0.250000 0.555690 0.360249
O O17 0.373489 0.750000 0.330506
#
# Coordination Sequence:
#
# PCOD8243191 Si02
#       6
#     8   8   8   8   8   8
#     4   9  18  34  56  82 112 152 200 243 287 345
#     4  10  20  34  52  76 110 154 202 244 285 344
#     4  10  22  41  63  86 115 156 201 240 287 352
#     4  11  24  42  65  92 123 155 193 245 300 359
#     4  11  21  34  55  83 116 151 193 247 300 346
#     4  10  20  38  65  92 121 159 201 244 295 357
#
# _framework density 19.971083
#
# number of rings (size 3 to 8) (size 9 to 14) (size 15 to 20)
#    0.000    1.833    1.667    2.500    0.000    6.333 
#    0.000    3.333    0.000    2.000    0.000    0.000 
#    0.000    0.000    0.000    0.000    0.000    0.000 
#
# Total GULP energy -595158.399453 kJ/mol
# GULP energy per Si atom -12399.133322 kJ/mol
# Density = 1.992563 g / cm^3
# Si number density = 19.971083 Si / 1000 Ang^3
#
#
#
# Elastic Constant Matrix: (Units=GPa)
#
#
# Indices 1 2 3 4 5 6 
#
# 1 100.1135 32.9980 47.9333 0.0000 0.0000 0.0000
# 2 32.9980 64.9976 43.9168 0.0000 0.0000 0.0000
# 3 47.9333 43.9168 141.1816 0.0000 0.0000 0.0000
# 4 0.0000 0.0000 0.0000 29.8059 0.0000 0.0000
# 5 0.0000 0.0000 0.0000 0.0000 18.9457 0.0000
# 6 0.0000 0.0000 0.0000 0.0000 0.0000 26.2018
#
#
#
# Elastic Compliance Matrix: (Units=1/GPa)
#
#
# Indices 1 2 3 4 5 6 
#
# 1 0.012909 -0.004548 -0.002968 0.000000 0.000000 0.000000
# 2 -0.004548 0.021082 -0.005014 0.000000 0.000000 0.000000
# 3 -0.002968 -0.005014 0.009650 0.000000 0.000000 0.000000
# 4 0.000000 0.000000 0.000000 0.033550 0.000000 0.000000
# 5 0.000000 0.000000 0.000000 0.000000 0.052782 0.000000
# 6 0.000000 0.000000 0.000000 0.000000 0.000000 0.038165
#
#
# Mechanical properties :
#
#
# Convention : Reuss Voigt Hill
#
# Bulk Modulus (GPa) = 53.81749 61.77654 57.79701
# Shear Modulus (GPa) = 25.07619 27.08698 26.08158
#
# Velocity S-wave (km/s) = 3.54732 3.68681 3.61774
# Velocity P-wave (km/s) = 6.61696 7.00882 6.81571
#
# Compressibility (1/GPa) = 0.01858132
#
# Stress axis : x y z
#
# Youngs Moduli (GPa) = 77.46649 47.43431 103.62354
#
# Poissons Ratio (x) = 0.21574 0.30755
# Poissons Ratio (y) = 0.35233 0.51953
# Poissons Ratio (z) = 0.22992 0.23782
#
# Static dielectric constant tensor:
#      x y z
#    x 3.767690 0.000000 0.000000 
#    y 0.000000 3.454890 0.000000 
#    z 0.000000 0.000000 3.753670 
# 
# 
# High freq. dielectric constant tensor:
#      x y z
#    x 1.790400 0.000000 0.000000 
#    y 0.000000 1.752930 0.000000 
#    z 0.000000 0.000000 1.785020 
# 
# From -- ./inp_files/25503.got.cif
#   From: 2010.03.12/outbox.cif.g09.slc.cpg/sg59_13_cif.got.tgz:25503.got - 2010.04.16 16:29:54.
