data_PCOD8243140
_publ_section_title
;
Structure prediction by ZEFSAII (Michael W. Deem and Ramdas Pophale) SiO2 
 PCOD8243140
Probable space group: P M M N
;
_chemical_formula_sum "Si O2"
_cell_formula_units_Z 64
_cell_length_a 9.651660
_cell_length_b 14.069900
_cell_length_c 25.787574
_cell_angle_alpha 90.000000
_cell_angle_beta 90.000000
_cell_angle_gamma 90.000000
_cell_volume 3501.898164
_symmetry_space_group_name_H-M "P M M N"
_symmetry_group_IT_number 59
_space_group.IT_coordinate_system_code '2'
_symmetry_cell_setting 'orthorhombic'
loop_
_space_group_symop_operation_xyz
x,y,z
1/2-x,1/2-y,z
1/2+x,-y,-z
-x,1/2+y,-z
-x,-y,-z
1/2+x,1/2+y,-z
1/2-x,y,z
x,1/2-y,z
loop_
_atom_site_type_symbol
_atom_site_label
_atom_site_fract_x
_atom_site_fract_y
_atom_site_fract_z
Si Si1 0.906713 0.637387 0.925366
Si Si2 0.085537 0.854368 0.132074
Si Si3 0.090889 0.957374 0.628000
Si Si4 0.085659 0.044476 0.178851
Si Si5 0.095741 0.863004 0.017060
Si Si6 0.407783 0.640234 0.520880
Si Si7 0.090665 0.143272 0.575585
Si Si8 0.586190 0.860870 0.716276
O O1 0.750000 0.599938 0.932078
O O2 0.912126 0.750000 0.924862
O O3 0.970799 0.601249 0.871090
O O4 0.993811 0.594158 0.973322
O O5 0.250000 0.845558 0.131195
O O6 0.022290 0.750000 0.146067
O O7 0.039472 0.889317 0.074591
O O8 0.038108 0.933690 0.173919
O O9 0.250000 0.932882 0.642601
O O10 0.050984 0.916287 0.572129
O O11 0.988803 0.913088 0.669512
O O12 0.067318 0.071569 0.623948
O O13 0.250000 0.053513 0.180157
O O14 0.026935 0.091262 0.231167
O O15 0.250000 0.904142 0.007925
O O16 0.099419 0.750000 0.012484
O O17 0.250000 0.619632 0.504647
O O18 0.432755 0.750000 0.533641
O O19 0.503452 0.607205 0.473528
O O20 0.250000 0.140164 0.557920
O O21 0.046724 0.250000 0.592896
O O22 0.750000 0.875970 0.710127
O O23 0.547621 0.750000 0.716820
#
# Coordination Sequence:
#
# PCOD8243140 Si02
#       8
#     8   8   8   8   8   8   8   8
#     4   9  16  26  42  64  90 120 150 180 222 277
#     4   8  14  26  45  67  90 117 149 186 229 277
#     4  10  20  34  52  73 100 135 169 200 240 289
#     4   9  17  30  47  65  87 118 155 193 234 279
#     4   8  14  25  41  63  91 119 147 182 223 269
#     4   9  17  29  47  73 103 133 165 202 243 284
#     4   9  18  32  50  74 104 136 168 200 235 280
#     4  10  21  36  53  73  96 122 157 204 250 288
#
# _framework density 18.275804000000001
#
# number of rings (size 3 to 8) (size 9 to 14) (size 15 to 20)
#    0.000    3.000    0.000    1.875    0.000    3.750 
#    0.000    2.500    0.000    3.000    0.000    0.000 
#    0.000    0.000    0.000    0.000    0.000    0.000 
#
# Total GULP energy -793286.981126 kJ/mol
# GULP energy per Si atom -12395.109080 kJ/mol
# Density = 1.823421 g / cm^3
# Si number density = 18.275804 Si / 1000 Ang^3
#
#
#
# Elastic Constant Matrix: (Units=GPa)
#
#
# Indices 1 2 3 4 5 6 
#
# 1 47.7070 35.3418 48.1012 0.0000 0.0000 0.0000
# 2 35.3418 91.8947 73.8525 0.0000 0.0000 0.0000
# 3 48.1012 73.8525 109.2116 0.0000 0.0000 0.0000
# 4 0.0000 0.0000 0.0000 30.6002 0.0000 0.0000
# 5 0.0000 0.0000 0.0000 0.0000 26.1119 0.0000
# 6 0.0000 0.0000 0.0000 0.0000 0.0000 16.7081
#
#
#
# Elastic Compliance Matrix: (Units=1/GPa)
#
#
# Indices 1 2 3 4 5 6 
#
# 1 0.037976 -0.002547 -0.015003 0.000000 0.000000 0.000000
# 2 -0.002547 0.024007 -0.015112 0.000000 0.000000 0.000000
# 3 -0.015003 -0.015112 0.025984 0.000000 0.000000 0.000000
# 4 0.000000 0.000000 0.000000 0.032680 0.000000 0.000000
# 5 0.000000 0.000000 0.000000 0.000000 0.038297 0.000000
# 6 0.000000 0.000000 0.000000 0.000000 0.000000 0.059851
#
#
# Mechanical properties :
#
#
# Convention : Reuss Voigt Hill
#
# Bulk Modulus (GPa) = 44.16850 62.60048 53.38449
# Shear Modulus (GPa) = 17.14280 20.78522 18.96401
#
# Velocity S-wave (km/s) = 3.06601 3.37606 3.22476
# Velocity P-wave (km/s) = 6.06252 7.03737 6.56805
#
# Compressibility (1/GPa) = 0.02264057
#
# Stress axis : x y z
#
# Youngs Moduli (GPa) = 26.33255 41.65454 38.48503
#
# Poissons Ratio (x) = 0.10611 0.57741
# Poissons Ratio (y) = 0.06708 0.58160
# Poissons Ratio (z) = 0.39508 0.62950
#
# Static dielectric constant tensor:
#      x y z
#    x 3.227940 0.000000 0.000000 
#    y 0.000000 3.636710 0.000000 
#    z 0.000000 0.000000 3.361510 
# 
# 
# High freq. dielectric constant tensor:
#      x y z
#    x 1.672400 0.000000 0.000000 
#    y 0.000000 1.725870 0.000000 
#    z 0.000000 0.000000 1.689420 
# 
# From -- ./inp_files/31588.got.cif
#   From: 2010.03.12/outbox.cif.g09.slc.cpg/sg59_16_cif.got.tgz:31588.got - 2010.04.16 16:29:54.
