data_PCOD8243746
_publ_section_title
;
Structure prediction by ZEFSAII (Michael W. Deem and Ramdas Pophale) SiO2 
 PCOD8243746
Probable space group: P M M N
;
_chemical_formula_sum "Si O2"
_cell_formula_units_Z 34
_cell_length_a 7.955145
_cell_length_b 7.681579
_cell_length_c 26.904065
_cell_angle_alpha 90.000000
_cell_angle_beta 90.000000
_cell_angle_gamma 90.000000
_cell_volume 1644.055616
_symmetry_space_group_name_H-M "P M M N"
_symmetry_group_IT_number 59
_space_group.IT_coordinate_system_code '2'
_symmetry_cell_setting 'orthorhombic'
loop_
_space_group_symop_operation_xyz
x,y,z
1/2-x,1/2-y,z
1/2+x,-y,-z
-x,1/2+y,-z
-x,-y,-z
1/2+x,1/2+y,-z
1/2-x,y,z
x,1/2-y,z
loop_
_atom_site_type_symbol
_atom_site_label
_atom_site_fract_x
_atom_site_fract_y
_atom_site_fract_z
Si Si1 0.951914 0.750000 0.873727
Si Si2 0.250000 0.460671 0.716275
Si Si3 0.447378 0.558308 0.054228
Si Si4 0.250000 0.750000 0.797038
Si Si5 0.930735 0.051722 0.655784
Si Si6 0.062545 0.546449 0.554159
O O1 0.750000 0.750000 0.860472
O O2 0.006696 0.580214 0.904969
O O3 0.073245 0.750000 0.826394
O O4 0.250000 0.250000 0.725246
O O5 0.250000 0.568656 0.766930
O O6 0.412252 0.529340 0.685337
O O7 0.250000 0.568968 0.055583
O O8 0.524296 0.750000 0.066131
O O9 0.500000 0.500000 0.000000
O O10 0.750000 0.963429 0.669865
O O11 0.921785 0.250000 0.672058
O O12 0.950615 0.042294 0.596318
O O13 0.250000 0.473298 0.560064
O O14 0.054564 0.750000 0.562829
O O15 0.000000 0.500000 0.500000
#
# Coordination Sequence:
#
# PCOD8243746 Si02
#       6
#     4   4   8   2   8   8
#     4  10  24  44  60  94 138 172 214 278 326 371
#     4  10  24  46  68  94 126 162 216 284 328 371
#     4  10  20  34  58  91 131 175 220 262 316 388
#     4  12  28  44  72  96 128 172 236 272 324 398
#     4  10  21  39  64  91 120 157 206 259 321 390
#     4  11  23  36  54  84 125 164 202 250 313 390
#
# _framework density 20.680565999999999
#
# number of rings (size 3 to 8) (size 9 to 14) (size 15 to 20)
#    0.000    1.647    2.353    1.412    3.294    6.588 
#    0.000    0.000    0.000    0.000    0.000    0.000 
#    0.000    0.000    0.000    0.000    0.000    0.000 
#
# Total GULP energy -421374.858546 kJ/mol
# GULP energy per Si atom -12393.378193 kJ/mol
# Density = 2.063350 g / cm^3
# Si number density = 20.680566 Si / 1000 Ang^3
#
#
#
# Elastic Constant Matrix: (Units=GPa)
#
#
# Indices 1 2 3 4 5 6 
#
# 1 149.5462 33.7148 65.3839 0.0000 0.0000 0.0000
# 2 33.7148 107.5595 46.3390 0.0000 0.0000 0.0000
# 3 65.3839 46.3390 132.7958 0.0000 0.0000 0.0000
# 4 0.0000 0.0000 0.0000 39.4282 0.0000 0.0000
# 5 0.0000 0.0000 0.0000 0.0000 39.1102 0.0000
# 6 0.0000 0.0000 0.0000 0.0000 0.0000 17.4575
#
#
#
# Elastic Compliance Matrix: (Units=1/GPa)
#
#
# Indices 1 2 3 4 5 6 
#
# 1 0.008617 -0.001028 -0.003884 0.000000 0.000000 0.000000
# 2 -0.001028 0.011065 -0.003355 0.000000 0.000000 0.000000
# 3 -0.003884 -0.003355 0.010613 0.000000 0.000000 0.000000
# 4 0.000000 0.000000 0.000000 0.025363 0.000000 0.000000
# 5 0.000000 0.000000 0.000000 0.000000 0.025569 0.000000
# 6 0.000000 0.000000 0.000000 0.000000 0.000000 0.057282
#
#
# Mechanical properties :
#
#
# Convention : Reuss Voigt Hill
#
# Bulk Modulus (GPa) = 72.66623 75.64187 74.15405
# Shear Modulus (GPa) = 31.32268 35.49676 33.40972
#
# Velocity S-wave (km/s) = 3.89600 4.14748 4.02370
# Velocity P-wave (km/s) = 7.44662 7.71953 7.58430
#
# Compressibility (1/GPa) = 0.01376155
#
# Stress axis : x y z
#
# Youngs Moduli (GPa) = 116.05365 90.37737 94.22028
#
# Poissons Ratio (x) = 0.09287 0.36595
# Poissons Ratio (y) = 0.11926 0.31611
# Poissons Ratio (z) = 0.45075 0.30322
#
# Static dielectric constant tensor:
#      x y z
#    x 4.656090 0.000000 0.000000 
#    y 0.000000 4.208510 0.000000 
#    z 0.000000 0.000000 3.513750 
# 
# 
# High freq. dielectric constant tensor:
#      x y z
#    x 1.824330 0.000000 0.000000 
#    y 0.000000 1.815610 0.000000 
#    z 0.000000 0.000000 1.787360 
# 
# From -- ./inp_files/28652.got.cif
#   From: 2010.03.12/outbox.cif.g09.slc.cpg/sg59_15_cif.got.tgz:28652.got - 2010.04.16 16:29:54.
