data_PCOD8243960
_publ_section_title
;
Structure prediction by ZEFSAII (Michael W. Deem and Ramdas Pophale) SiO2 
 PCOD8243960
Probable space group: P M M N
;
_chemical_formula_sum "Si O2"
_cell_formula_units_Z 40
_cell_length_a 16.327752
_cell_length_b 8.812685
_cell_length_c 13.966719
_cell_angle_alpha 90.000000
_cell_angle_beta 90.000000
_cell_angle_gamma 90.000000
_cell_volume 2009.689844
_symmetry_space_group_name_H-M "P M M N"
_symmetry_group_IT_number 59
_space_group.IT_coordinate_system_code '2'
_symmetry_cell_setting 'orthorhombic'
loop_
_space_group_symop_operation_xyz
x,y,z
1/2-x,1/2-y,z
1/2+x,-y,-z
-x,1/2+y,-z
-x,-y,-z
1/2+x,1/2+y,-z
1/2-x,y,z
x,1/2-y,z
loop_
_atom_site_type_symbol
_atom_site_label
_atom_site_fract_x
_atom_site_fract_y
_atom_site_fract_z
Si Si1 0.250000 0.570071 0.962667
Si Si2 0.250000 0.929331 0.746638
Si Si3 0.921406 0.431482 0.946100
Si Si4 0.064929 0.571519 0.268237
Si Si5 0.344028 0.573270 0.450540
Si Si6 0.898261 0.928720 0.364294
O O1 0.250000 0.750000 0.967288
O O2 0.250000 0.508245 0.854631
O O3 0.334263 0.510666 0.011401
O O4 0.250000 0.750000 0.744847
O O5 0.328669 0.987080 0.692841
O O6 0.927817 0.250000 0.951745
O O7 0.922556 0.496660 0.837480
O O8 0.000000 0.500000 0.000000
O O9 0.064169 0.750000 0.255860
O O10 0.136774 0.521803 0.341553
O O11 0.981125 0.514746 0.315238
O O12 0.250000 0.539566 0.472759
O O13 0.365998 0.750000 0.463319
O O14 0.398522 0.478227 0.524785
O O15 0.885721 0.750000 0.357391
#
# Coordination Sequence:
#
# PCOD8243960 Si02
#       6
#     4   4   8   8   8   8
#     4   9  20  35  58  85 110 144 189 239 284 331
#     4  11  21  35  54  79 108 142 187 229 274 327
#     4  10  20  38  60  85 115 148 191 238 284 335
#     4   9  20  35  56  83 111 145 184 225 275 332
#     4  10  20  35  56  82 111 144 184 224 267 327
#     4  11  21  35  54  80 112 145 181 225 277 328
#
# _framework density 19.903568
#
# number of rings (size 3 to 8) (size 9 to 14) (size 15 to 20)
#    0.000    2.000    1.000    2.700    1.400    0.000 
#    0.000    4.500    0.000    0.000    0.000    0.000 
#    0.000    0.000    0.000    0.000    0.000    0.000 
#
# Total GULP energy -495907.769170 kJ/mol
# GULP energy per Si atom -12397.694229 kJ/mol
# Density = 1.985827 g / cm^3
# Si number density = 19.903568 Si / 1000 Ang^3
#
#
#
# Elastic Constant Matrix: (Units=GPa)
#
#
# Indices 1 2 3 4 5 6 
#
# 1 105.1116 24.4619 56.9974 0.0000 0.0000 0.0000
# 2 24.4619 37.1690 22.8255 0.0000 0.0000 0.0000
# 3 56.9974 22.8255 166.2819 0.0000 0.0000 0.0000
# 4 0.0000 0.0000 0.0000 23.3913 0.0000 0.0000
# 5 0.0000 0.0000 0.0000 0.0000 92.2898 0.0000
# 6 0.0000 0.0000 0.0000 0.0000 0.0000 -30.5940
#
#
#
# Elastic Compliance Matrix: (Units=1/GPa)
#
#
# Indices 1 2 3 4 5 6 
#
# 1 0.012913 -0.006312 -0.003560 0.000000 0.000000 0.000000
# 2 -0.006312 0.032467 -0.002293 0.000000 0.000000 0.000000
# 3 -0.003560 -0.002293 0.007549 0.000000 0.000000 0.000000
# 4 0.000000 0.000000 0.000000 0.042751 0.000000 0.000000
# 5 0.000000 0.000000 0.000000 0.000000 0.010835 0.000000
# 6 0.000000 0.000000 0.000000 0.000000 0.000000 -0.032686
#
#
# Mechanical properties :
#
#
# Convention : Reuss Voigt Hill
#
# Bulk Modulus (GPa) = 34.96713 57.45912 46.21312
# Shear Modulus (GPa) = 46.42883 30.63592 38.53238
#
# Velocity S-wave (km/s) = 4.83503 3.92754 4.40472
# Velocity P-wave (km/s) = 6.98401 7.03554 7.00983
#
# Compressibility (1/GPa) = 0.02859829
#
# Stress axis : x y z
#
# Youngs Moduli (GPa) = 77.44109 30.80088 132.47060
#
# Poissons Ratio (x) = 0.19443 0.47157
# Poissons Ratio (y) = 0.48883 0.30375
# Poissons Ratio (z) = 0.27567 0.07063
#
# Static dielectric constant tensor:
#      x y z
#    x 3.956980 0.000000 0.000000 
#    y 0.000000 3.293980 0.000000 
#    z 0.000000 0.000000 4.082750 
# 
# 
# High freq. dielectric constant tensor:
#      x y z
#    x 1.788670 0.000000 0.000000 
#    y 0.000000 1.739100 0.000000 
#    z 0.000000 0.000000 1.797440 
# 
# From -- ./inp_files/22992.got.cif
#   From: 2010.03.12/outbox.cif.g09.slc.cpg/sg59_12_cif.got.tgz:22992.got - 2010.04.16 16:29:54.
