data_PCOD8243103
_publ_section_title
;
Structure prediction by ZEFSAII (Michael W. Deem and Ramdas Pophale) SiO2 
 PCOD8243103
Probable space group: P M M N
;
_chemical_formula_sum "Si O2"
_cell_formula_units_Z 48
_cell_length_a 21.685166
_cell_length_b 9.216428
_cell_length_c 12.471411
_cell_angle_alpha 90.000000
_cell_angle_beta 90.000000
_cell_angle_gamma 90.000000
_cell_volume 2492.533348
_symmetry_space_group_name_H-M "P M M N"
_symmetry_group_IT_number 59
_space_group.IT_coordinate_system_code '2'
_symmetry_cell_setting 'orthorhombic'
loop_
_space_group_symop_operation_xyz
x,y,z
1/2-x,1/2-y,z
1/2+x,-y,-z
-x,1/2+y,-z
-x,-y,-z
1/2+x,1/2+y,-z
1/2-x,y,z
x,1/2-y,z
loop_
_atom_site_type_symbol
_atom_site_label
_atom_site_fract_x
_atom_site_fract_y
_atom_site_fract_z
Si Si1 0.182553 0.579125 0.588235
Si Si2 0.346668 0.588768 0.359722
Si Si3 0.010626 0.911819 0.392091
Si Si4 0.922194 0.417529 0.256495
Si Si5 0.318825 0.577097 0.128434
Si Si6 0.565519 0.081556 0.011896
O O1 0.250000 0.543246 0.633586
O O2 0.170858 0.750000 0.576613
O O3 0.175072 0.508062 0.469240
O O4 0.134617 0.517336 0.674507
O O5 0.317915 0.750000 0.359825
O O6 0.419346 0.596156 0.359913
O O7 0.324063 0.512543 0.249773
O O8 0.983667 0.750000 0.407960
O O9 0.981041 0.990074 0.290082
O O10 0.000000 0.000000 0.500000
O O11 0.934479 0.250000 0.284709
O O12 0.909084 0.438626 0.131804
O O13 0.250000 0.532848 0.083832
O O14 0.324809 0.750000 0.129130
O O15 0.377576 0.517581 0.059765
O O16 0.553009 0.250000 0.985057
O O17 0.500000 0.000000 0.000000
#
# Coordination Sequence:
#
# PCOD8243103 Si02
#       6
#     8   8   8   8   8   8
#     4   9  16  27  45  70 100 132 167 210 260 310
#     4   9  16  27  46  73 104 134 167 211 261 314
#     4  11  20  32  52  78 109 141 173 213 263 321
#     4  10  20  34  50  75 106 135 172 215 262 316
#     4   9  17  30  50  78 108 138 179 229 277 321
#     4  10  21  36  55  78 109 144 180 227 276 324
#
# _framework density 19.257515000000001
#
# number of rings (size 3 to 8) (size 9 to 14) (size 15 to 20)
#    0.000    2.333    1.667    2.000    0.000    4.667 
#    0.000    3.333    0.000    1.000    0.000    2.333 
#    0.000    0.000    0.000    0.000    0.000    0.000 
#
# Total GULP energy -594721.827460 kJ/mol
# GULP energy per Si atom -12390.038072 kJ/mol
# Density = 1.921368 g / cm^3
# Si number density = 19.257515 Si / 1000 Ang^3
#
#
#
# Elastic Constant Matrix: (Units=GPa)
#
#
# Indices 1 2 3 4 5 6 
#
# 1 131.6890 22.8648 55.6126 0.0000 0.0000 0.0000
# 2 22.8648 41.6561 25.5234 0.0000 0.0000 0.0000
# 3 55.6126 25.5234 109.9178 0.0000 0.0000 0.0000
# 4 0.0000 0.0000 0.0000 16.7534 0.0000 0.0000
# 5 0.0000 0.0000 0.0000 0.0000 24.8885 0.0000
# 6 0.0000 0.0000 0.0000 0.0000 0.0000 18.5803
#
#
#
# Elastic Compliance Matrix: (Units=1/GPa)
#
#
# Indices 1 2 3 4 5 6 
#
# 1 0.009923 -0.002764 -0.004379 0.000000 0.000000 0.000000
# 2 -0.002764 0.028758 -0.005279 0.000000 0.000000 0.000000
# 3 -0.004379 -0.005279 0.012539 0.000000 0.000000 0.000000
# 4 0.000000 0.000000 0.000000 0.059689 0.000000 0.000000
# 5 0.000000 0.000000 0.000000 0.000000 0.040179 0.000000
# 6 0.000000 0.000000 0.000000 0.000000 0.000000 0.053820
#
#
# Mechanical properties :
#
#
# Convention : Reuss Voigt Hill
#
# Bulk Modulus (GPa) = 37.91319 54.58496 46.24907
# Shear Modulus (GPa) = 20.96054 23.99526 22.47790
#
# Velocity S-wave (km/s) = 3.30272 3.53373 3.42018
# Velocity P-wave (km/s) = 5.85442 6.71237 6.29802
#
# Compressibility (1/GPa) = 0.02637604
#
# Stress axis : x y z
#
# Youngs Moduli (GPa) = 100.78034 34.77317 79.75151
#
# Poissons Ratio (x) = 0.09610 0.34920
# Poissons Ratio (y) = 0.27852 0.42104
# Poissons Ratio (z) = 0.44127 0.18358
#
# Static dielectric constant tensor:
#      x y z
#    x 3.679520 0.000000 0.000000 
#    y 0.000000 2.654900 0.000000 
#    z 0.000000 0.000000 3.778000 
# 
# 
# High freq. dielectric constant tensor:
#      x y z
#    x 1.763530 0.000000 0.000000 
#    y 0.000000 1.679750 0.000000 
#    z 0.000000 0.000000 1.760370 
# 
# From -- ./inp_files/18593.got.cif
#   From: 2010.03.12/outbox.cif.g09.slc.cpg/sg59_10_cif.got.tgz:18593.got - 2010.04.16 16:29:54.
