data_PCOD8243212
_publ_section_title
;
Structure prediction by ZEFSAII (Michael W. Deem and Ramdas Pophale) SiO2 
 PCOD8243212
Probable space group: P M M N
;
_chemical_formula_sum "Si O2"
_cell_formula_units_Z 64
_cell_length_a 18.370701
_cell_length_b 9.149136
_cell_length_c 20.445861
_cell_angle_alpha 90.000000
_cell_angle_beta 90.000000
_cell_angle_gamma 90.000000
_cell_volume 3436.459389
_symmetry_space_group_name_H-M "P M M N"
_symmetry_group_IT_number 59
_space_group.IT_coordinate_system_code '2'
_symmetry_cell_setting 'orthorhombic'
loop_
_space_group_symop_operation_xyz
x,y,z
1/2-x,1/2-y,z
1/2+x,-y,-z
-x,1/2+y,-z
-x,-y,-z
1/2+x,1/2+y,-z
1/2-x,y,z
x,1/2-y,z
loop_
_atom_site_type_symbol
_atom_site_label
_atom_site_fract_x
_atom_site_fract_y
_atom_site_fract_z
Si Si1 0.665986 0.918049 0.009210
Si Si2 0.425384 0.420313 0.115620
Si Si3 0.334468 0.419863 0.616617
Si Si4 0.588230 0.420219 0.753271
Si Si5 0.407155 0.579608 0.875114
Si Si6 0.663332 0.414976 0.511590
Si Si7 0.919934 0.919277 0.255716
Si Si8 0.163606 0.084871 0.362185
O O1 0.750000 0.940315 0.990863
O O2 0.648152 0.750000 0.025448
O O3 0.647169 0.013262 0.072058
O O4 0.618125 0.972112 0.948144
O O5 0.412479 0.250000 0.130988
O O6 0.394700 0.513334 0.175818
O O7 0.510169 0.455010 0.103739
O O8 0.250000 0.452445 0.629652
O O9 0.348085 0.250000 0.601970
O O10 0.364633 0.509278 0.554689
O O11 0.378603 0.473586 0.679742
O O12 0.607634 0.250000 0.754354
O O13 0.504978 0.449167 0.733573
O O14 0.639286 0.499509 0.701801
O O15 0.391938 0.750000 0.869895
O O16 0.389083 0.509800 0.805110
O O17 0.750000 0.416969 0.512854
O O18 0.633171 0.250000 0.514690
O O19 0.632310 0.503520 0.573667
O O20 0.903979 0.750000 0.241477
O O21 0.250000 0.085881 0.363959
O O22 0.133006 0.250000 0.361102
#
# Coordination Sequence:
#
# PCOD8243212 Si02
#       8
#     8   8   8   8   8   8   8   8
#     4  10  21  36  54  76 103 134 168 209 255 304
#     4   9  19  36  55  75 101 136 175 208 247 305
#     4   9  17  31  52  75  99 131 171 210 248 296
#     4  10  20  34  53  77 105 135 169 212 257 300
#     4  10  20  34  54  77 102 134 171 212 254 300
#     4   9  17  30  49  74 103 132 165 208 256 304
#     4   9  19  35  53  75 105 139 173 208 249 302
#     4  10  20  34  53  75 100 133 172 212 254 305
#
# _framework density 18.623819999999998
#
# number of rings (size 3 to 8) (size 9 to 14) (size 15 to 20)
#    0.000    2.500    0.000    1.875    0.000    5.500 
#    0.000    3.125    0.000    0.000    0.000    0.000 
#    0.000    0.000    0.000    0.000    0.000    0.000 
#
# Total GULP energy -793835.892952 kJ/mol
# GULP energy per Si atom -12403.685827 kJ/mol
# Density = 1.858143 g / cm^3
# Si number density = 18.623820 Si / 1000 Ang^3
#
#
#
# Elastic Constant Matrix: (Units=GPa)
#
#
# Indices 1 2 3 4 5 6 
#
# 1 27.9777 21.6182 27.2824 0.0000 0.0000 0.0000
# 2 21.6182 100.9274 65.9011 0.0000 0.0000 0.0000
# 3 27.2824 65.9011 127.5750 0.0000 0.0000 0.0000
# 4 0.0000 0.0000 0.0000 32.8413 0.0000 0.0000
# 5 0.0000 0.0000 0.0000 0.0000 32.4662 0.0000
# 6 0.0000 0.0000 0.0000 0.0000 0.0000 21.9174
#
#
#
# Elastic Compliance Matrix: (Units=1/GPa)
#
#
# Indices 1 2 3 4 5 6 
#
# 1 0.046956 -0.005283 -0.007313 0.000000 0.000000 0.000000
# 2 -0.005283 0.015545 -0.006900 0.000000 0.000000 0.000000
# 3 -0.007313 -0.006900 0.012967 0.000000 0.000000 0.000000
# 4 0.000000 0.000000 0.000000 0.030449 0.000000 0.000000
# 5 0.000000 0.000000 0.000000 0.000000 0.030801 0.000000
# 6 0.000000 0.000000 0.000000 0.000000 0.000000 0.045626
#
#
# Mechanical properties :
#
#
# Convention : Reuss Voigt Hill
#
# Bulk Modulus (GPa) = 27.41529 54.00928 40.71228
# Shear Modulus (GPa) = 21.41370 26.89022 24.15196
#
# Velocity S-wave (km/s) = 3.39455 3.80394 3.60506
# Velocity P-wave (km/s) = 5.48785 6.95387 6.26390
#
# Compressibility (1/GPa) = 0.03647600
#
# Stress axis : x y z
#
# Youngs Moduli (GPa) = 21.29663 64.32785 77.11927
#
# Poissons Ratio (x) = 0.33984 0.56395
# Poissons Ratio (y) = 0.11251 0.53216
# Poissons Ratio (z) = 0.15574 0.44389
#
# Static dielectric constant tensor:
#      x y z
#    x 3.202810 0.000000 0.000000 
#    y 0.000000 3.523890 0.000000 
#    z 0.000000 0.000000 3.501290 
# 
# 
# High freq. dielectric constant tensor:
#      x y z
#    x 1.698920 0.000000 0.000000 
#    y 0.000000 1.728390 0.000000 
#    z 0.000000 0.000000 1.733690 
# 
# From -- ./inp_files/28255.got.cif
#   From: 2010.03.12/outbox.cif.g09.slc.cpg/sg59_15_cif.got.tgz:28255.got - 2010.04.16 16:29:54.
