data_PCOD8243785
_publ_section_title
;
Structure prediction by ZEFSAII (Michael W. Deem and Ramdas Pophale) SiO2 
 PCOD8243785
Probable space group: P M M N
;
_chemical_formula_sum "Si O2"
_cell_formula_units_Z 48
_cell_length_a 19.220012
_cell_length_b 9.026539
_cell_length_c 15.153073
_cell_angle_alpha 90.000000
_cell_angle_beta 90.000000
_cell_angle_gamma 90.000000
_cell_volume 2628.909482
_symmetry_space_group_name_H-M "P M M N"
_symmetry_group_IT_number 59
_space_group.IT_coordinate_system_code '2'
_symmetry_cell_setting 'orthorhombic'
loop_
_space_group_symop_operation_xyz
x,y,z
1/2-x,1/2-y,z
1/2+x,-y,-z
-x,1/2+y,-z
-x,-y,-z
1/2+x,1/2+y,-z
1/2-x,y,z
x,1/2-y,z
loop_
_atom_site_type_symbol
_atom_site_label
_atom_site_fract_x
_atom_site_fract_y
_atom_site_fract_z
Si Si1 0.829314 0.923214 0.879169
Si Si2 0.172475 0.574790 0.604997
Si Si3 0.089764 0.574372 0.772650
Si Si4 0.064842 0.424813 0.271663
Si Si5 0.933579 0.425094 0.543303
Si Si6 0.670126 0.424253 0.057536
O O1 0.750000 0.969094 0.857512
O O2 0.836506 0.750000 0.895983
O O3 0.876755 0.973858 0.797872
O O4 0.856346 0.002841 0.967232
O O5 0.250000 0.506426 0.601877
O O6 0.176463 0.750000 0.615545
O O7 0.131139 0.507785 0.688818
O O8 0.133190 0.532247 0.515261
O O9 0.096483 0.750000 0.771982
O O10 0.123455 0.511855 0.862611
O O11 0.009629 0.525531 0.766906
O O12 0.066304 0.250000 0.291653
O O13 0.081265 0.512501 0.360310
O O14 0.946038 0.250000 0.546559
O O15 0.000000 0.500000 0.500000
O O16 0.750000 0.467318 0.076963
O O17 0.660960 0.250000 0.047562
#
# Coordination Sequence:
#
# PCOD8243785 Si02
#       6
#     8   8   8   8   8   8
#     4   9  19  35  52  71 102 142 175 207 256 315
#     4   9  17  30  51  78 103 130 169 213 255 303
#     4   9  16  29  50  76 102 130 166 210 257 305
#     4  10  20  35  54  75 100 136 176 212 256 309
#     4  11  21  35  55  78 105 138 172 210 258 309
#     4   9  17  30  51  76 100 129 168 214 258 300
#
# _framework density 18.258521999999999
#
# number of rings (size 3 to 8) (size 9 to 14) (size 15 to 20)
#    0.000    2.500    1.667    1.000    0.000    4.000 
#    0.000    0.833    0.000    1.500    0.000    0.000 
#    0.000    0.000    0.000    0.000    0.000    0.000 
#
# Total GULP energy -595220.834834 kJ/mol
# GULP energy per Si atom -12400.434059 kJ/mol
# Density = 1.821696 g / cm^3
# Si number density = 18.258522 Si / 1000 Ang^3
#
#
#
# Elastic Constant Matrix: (Units=GPa)
#
#
# Indices 1 2 3 4 5 6 
#
# 1 139.9963 30.7802 97.9762 0.0000 0.0000 0.0000
# 2 30.7802 32.1236 45.7253 0.0000 0.0000 0.0000
# 3 97.9762 45.7253 192.9629 0.0000 0.0000 0.0000
# 4 0.0000 0.0000 0.0000 31.8046 0.0000 0.0000
# 5 0.0000 0.0000 0.0000 0.0000 39.8437 0.0000
# 6 0.0000 0.0000 0.0000 0.0000 0.0000 16.8588
#
#
#
# Elastic Compliance Matrix: (Units=1/GPa)
#
#
# Indices 1 2 3 4 5 6 
#
# 1 0.011420 -0.004057 -0.004837 0.000000 0.000000 0.000000
# 2 -0.004057 0.048416 -0.009413 0.000000 0.000000 0.000000
# 3 -0.004837 -0.009413 0.009869 0.000000 0.000000 0.000000
# 4 0.000000 0.000000 0.000000 0.031442 0.000000 0.000000
# 5 0.000000 0.000000 0.000000 0.000000 0.025098 0.000000
# 6 0.000000 0.000000 0.000000 0.000000 0.000000 0.059316
#
#
# Mechanical properties :
#
#
# Convention : Reuss Voigt Hill
#
# Bulk Modulus (GPa) = 30.22025 79.33845 54.77935
# Shear Modulus (GPa) = 21.44027 30.40815 25.92421
#
# Velocity S-wave (km/s) = 3.43047 4.08539 3.77217
# Velocity P-wave (km/s) = 5.68138 8.11178 7.00282
#
# Compressibility (1/GPa) = 0.03309039
#
# Stress axis : x y z
#
# Youngs Moduli (GPa) = 87.56206 20.65448 101.32867
#
# Poissons Ratio (x) = 0.08381 0.49015
# Poissons Ratio (y) = 0.35528 0.95377
# Poissons Ratio (z) = 0.42356 0.19441
#
# Static dielectric constant tensor:
#      x y z
#    x 3.589550 0.000000 0.000000 
#    y 0.000000 3.023110 0.000000 
#    z 0.000000 0.000000 3.577320 
# 
# 
# High freq. dielectric constant tensor:
#      x y z
#    x 1.713970 0.000000 0.000000 
#    y 0.000000 1.669120 0.000000 
#    z 0.000000 0.000000 1.720100 
# 
# From -- ./inp_files/17612.got.cif
#   From: 2010.03.12/outbox.cif.g09.slc.cpg/sg59_9_cif.got.tgz:17612.got - 2010.04.16 16:29:54.
