data_PCOD8243625
_publ_section_title
;
Structure prediction by ZEFSAII (Michael W. Deem and Ramdas Pophale) SiO2 
 PCOD8243625
Probable space group: P M M N
;
_chemical_formula_sum "Si O2"
_cell_formula_units_Z 56
_cell_length_a 14.120840
_cell_length_b 8.722213
_cell_length_c 22.053893
_cell_angle_alpha 90.000000
_cell_angle_beta 90.000000
_cell_angle_gamma 90.000000
_cell_volume 2716.267163
_symmetry_space_group_name_H-M "P M M N"
_symmetry_group_IT_number 59
_space_group.IT_coordinate_system_code '2'
_symmetry_cell_setting 'orthorhombic'
loop_
_space_group_symop_operation_xyz
x,y,z
1/2-x,1/2-y,z
1/2+x,-y,-z
-x,1/2+y,-z
-x,-y,-z
1/2+x,1/2+y,-z
1/2-x,y,z
x,1/2-y,z
loop_
_atom_site_type_symbol
_atom_site_label
_atom_site_fract_x
_atom_site_fract_y
_atom_site_fract_z
Si Si1 0.036621 0.569326 0.210547
Si Si2 0.357691 0.568362 0.332665
Si Si3 0.646967 0.075133 0.244055
Si Si4 0.354886 0.078437 0.629729
Si Si5 0.961285 0.928567 0.909429
Si Si6 0.015150 0.426635 0.434993
Si Si7 0.359098 0.429611 0.966962
O O1 0.025377 0.750000 0.213262
O O2 0.089029 0.509912 0.271652
O O3 0.086706 0.516852 0.148210
O O4 0.935546 0.485194 0.201186
O O5 0.250000 0.509404 0.329236
O O6 0.361859 0.750000 0.335838
O O7 0.403663 0.503794 0.394101
O O8 0.750000 0.062999 0.211595
O O9 0.628199 0.250000 0.264898
O O10 0.646564 0.959571 0.300082
O O11 0.250000 0.073781 0.601640
O O12 0.398588 0.250000 0.621663
O O13 0.415044 0.948451 0.597305
O O14 0.964672 0.750000 0.894668
O O15 0.891142 0.966835 0.964526
O O16 0.069213 0.983101 0.922214
O O17 0.041041 0.250000 0.442699
O O18 0.000000 0.500000 0.500000
O O19 0.250000 0.484614 0.957852
O O20 0.368298 0.250000 0.953350
#
# Coordination Sequence:
#
# PCOD8243625 Si02
#       7
#     8   8   8   8   8   8   8
#     4  11  22  37  60  87 121 162 201 244 298 359
#     4  10  23  44  66  89 121 160 203 252 303 357
#     4  10  20  34  55  84 116 150 189 236 292 352
#     4  10  20  36  59  86 116 149 187 233 289 353
#     4  10  21  36  57  87 120 154 198 249 299 353
#     4  12  25  41  64  90 120 157 200 249 302 358
#     4   9  19  38  61  84 115 156 200 247 300 356
#
# _framework density 20.616527999999999
#
# number of rings (size 3 to 8) (size 9 to 14) (size 15 to 20)
#    0.000    1.714    1.429    3.000    0.000    5.143 
#    0.000    0.000    0.000    0.000    0.000    0.000 
#    0.000    0.000    0.000    0.000    0.000    0.000 
#
# Total GULP energy -694170.410569 kJ/mol
# GULP energy per Si atom -12395.900189 kJ/mol
# Density = 2.056960 g / cm^3
# Si number density = 20.616528 Si / 1000 Ang^3
#
#
#
# Elastic Constant Matrix: (Units=GPa)
#
#
# Indices 1 2 3 4 5 6 
#
# 1 103.0785 32.7745 34.9596 0.0000 0.0000 0.0000
# 2 32.7745 69.2912 33.4034 0.0000 0.0000 0.0000
# 3 34.9596 33.4034 114.1279 0.0000 0.0000 0.0000
# 4 0.0000 0.0000 0.0000 37.2498 0.0000 0.0000
# 5 0.0000 0.0000 0.0000 0.0000 13.9428 0.0000
# 6 0.0000 0.0000 0.0000 0.0000 0.0000 27.4380
#
#
#
# Elastic Compliance Matrix: (Units=1/GPa)
#
#
# Indices 1 2 3 4 5 6 
#
# 1 0.011929 -0.004518 -0.002332 0.000000 0.000000 0.000000
# 2 -0.004518 0.018514 -0.004035 0.000000 0.000000 0.000000
# 3 -0.002332 -0.004035 0.010657 0.000000 0.000000 0.000000
# 4 0.000000 0.000000 0.000000 0.026846 0.000000 0.000000
# 5 0.000000 0.000000 0.000000 0.000000 0.071722 0.000000
# 6 0.000000 0.000000 0.000000 0.000000 0.000000 0.036446
#
#
# Mechanical properties :
#
#
# Convention : Reuss Voigt Hill
#
# Bulk Modulus (GPa) = 51.73087 54.30807 53.01947
# Shear Modulus (GPa) = 24.47070 28.08346 26.27708
#
# Velocity S-wave (km/s) = 3.44895 3.69478 3.57398
# Velocity P-wave (km/s) = 6.40365 6.67840 6.54247
#
# Compressibility (1/GPa) = 0.01933082
#
# Stress axis : x y z
#
# Youngs Moduli (GPa) = 83.83129 54.01317 93.83323
#
# Poissons Ratio (x) = 0.24405 0.21878
# Poissons Ratio (y) = 0.37877 0.37859
# Poissons Ratio (z) = 0.19546 0.21793
#
# Static dielectric constant tensor:
#      x y z
#    x 5.485810 0.000000 0.000000 
#    y 0.000000 3.677560 0.000000 
#    z 0.000000 0.000000 1.521150 
# 
# 
# High freq. dielectric constant tensor:
#      x y z
#    x 1.804340 0.000000 0.000000 
#    y 0.000000 1.807180 0.000000 
#    z 0.000000 0.000000 1.806190 
# 
# From -- ./inp_files/30368.got.cif
#   From: 2010.03.12/outbox.cif.g09.slc.cpg/sg59_16_cif.got.tgz:30368.got - 2010.04.16 16:29:54.
