data_PCOD8243422
_publ_section_title
;
Structure prediction by ZEFSAII (Michael W. Deem and Ramdas Pophale) SiO2 
 PCOD8243422
Probable space group: P M M N
;
_chemical_formula_sum "Si O2"
_cell_formula_units_Z 64
_cell_length_a 9.058796
_cell_length_b 18.190142
_cell_length_c 20.859008
_cell_angle_alpha 90.000000
_cell_angle_beta 90.000000
_cell_angle_gamma 90.000000
_cell_volume 3437.163725
_symmetry_space_group_name_H-M "P M M N"
_symmetry_group_IT_number 59
_space_group.IT_coordinate_system_code '2'
_symmetry_cell_setting 'orthorhombic'
loop_
_space_group_symop_operation_xyz
x,y,z
1/2-x,1/2-y,z
1/2+x,-y,-z
-x,1/2+y,-z
-x,-y,-z
1/2+x,1/2+y,-z
1/2-x,y,z
x,1/2-y,z
loop_
_atom_site_type_symbol
_atom_site_label
_atom_site_fract_x
_atom_site_fract_y
_atom_site_fract_z
Si Si1 0.922352 0.163926 0.381381
Si Si2 0.573641 0.332189 0.130161
Si Si3 0.585643 0.337629 0.990627
Si Si4 0.926221 0.918955 0.257980
Si Si5 0.424064 0.333873 0.866009
Si Si6 0.425500 0.421301 0.494713
Si Si7 0.424884 0.916261 0.747349
Si Si8 0.925398 0.667535 0.380935
O O1 0.750000 0.147455 0.394031
O O2 0.957246 0.250000 0.385728
O O3 0.971464 0.135349 0.311617
O O4 0.020456 0.120842 0.432102
O O5 0.750000 0.329936 0.131813
O O6 0.511611 0.250000 0.141033
O O7 0.509260 0.383241 0.186702
O O8 0.523877 0.363743 0.060303
O O9 0.750000 0.368422 0.979295
O O10 0.587292 0.250000 0.991944
O O11 0.485136 0.367119 0.932619
O O12 0.750000 0.917945 0.258965
O O13 0.986035 0.881267 0.193146
O O14 0.988855 0.874397 0.318809
O O15 0.988204 0.001781 0.262238
O O16 0.250000 0.338869 0.869468
O O17 0.476717 0.250000 0.855952
O O18 0.500000 0.500000 0.500000
O O19 0.250000 0.430633 0.492501
O O20 0.478270 0.374466 0.555777
O O21 0.250000 0.919620 0.752744
O O22 0.750000 0.670138 0.377873
O O23 0.990402 0.750000 0.382159
#
# Coordination Sequence:
#
# PCOD8243422 Si02
#       8
#     8   8   8   8   8   8   8   8
#     4  10  20  34  54  80 107 134 167 208 251 296
#     4   8  13  23  41  64  88 117 156 197 234 277
#     4   8  14  25  42  63  86 114 150 192 236 283
#     4   9  16  26  42  65  92 120 154 197 240 282
#     4   9  16  26  42  64  88 115 149 191 239 288
#     4  11  22  36  55  78 105 136 169 206 251 301
#     4   9  16  27  45  70  98 126 159 201 245 286
#     4   9  17  30  49  72  96 124 161 201 237 280
#
# _framework density 18.620004999999999
#
# number of rings (size 3 to 8) (size 9 to 14) (size 15 to 20)
#    0.000    2.875    0.000    3.000    0.000    5.750 
#    0.000    0.625    0.000    4.500    0.000    3.500 
#    0.000    0.000    0.000    0.000    0.000    0.000 
#
# Total GULP energy -793372.006955 kJ/mol
# GULP energy per Si atom -12396.437609 kJ/mol
# Density = 1.857762 g / cm^3
# Si number density = 18.620005 Si / 1000 Ang^3
#
#
#
# Elastic Constant Matrix: (Units=GPa)
#
#
# Indices 1 2 3 4 5 6 
#
# 1 23.9663 23.1049 27.9955 0.0000 0.0000 0.0000
# 2 23.1049 120.2345 63.6583 0.0000 0.0000 0.0000
# 3 27.9955 63.6583 159.6642 0.0000 0.0000 0.0000
# 4 0.0000 0.0000 0.0000 20.2908 0.0000 0.0000
# 5 0.0000 0.0000 0.0000 0.0000 26.3529 0.0000
# 6 0.0000 0.0000 0.0000 0.0000 0.0000 15.8753
#
#
#
# Elastic Compliance Matrix: (Units=1/GPa)
#
#
# Indices 1 2 3 4 5 6 
#
# 1 0.056968 -0.007173 -0.007129 0.000000 0.000000 0.000000
# 2 -0.007173 0.011446 -0.003306 0.000000 0.000000 0.000000
# 3 -0.007129 -0.003306 0.008831 0.000000 0.000000 0.000000
# 4 0.000000 0.000000 0.000000 0.049283 0.000000 0.000000
# 5 0.000000 0.000000 0.000000 0.000000 0.037946 0.000000
# 6 0.000000 0.000000 0.000000 0.000000 0.000000 0.062991
#
#
# Mechanical properties :
#
#
# Convention : Reuss Voigt Hill
#
# Bulk Modulus (GPa) = 23.79278 59.26472 41.52875
# Shear Modulus (GPa) = 18.07077 25.11088 21.59083
#
# Velocity S-wave (km/s) = 3.11867 3.67631 3.40891
# Velocity P-wave (km/s) = 5.07680 7.06526 6.15191
#
# Compressibility (1/GPa) = 0.04202956
#
# Stress axis : x y z
#
# Youngs Moduli (GPa) = 17.55384 87.36946 113.23588
#
# Poissons Ratio (x) = 0.62668 0.80725
# Poissons Ratio (y) = 0.12591 0.37433
# Poissons Ratio (z) = 0.12514 0.28882
#
# Static dielectric constant tensor:
#      x y z
#    x 2.930850 0.000000 0.000000 
#    y 0.000000 3.525120 0.000000 
#    z 0.000000 0.000000 3.813100 
# 
# 
# High freq. dielectric constant tensor:
#      x y z
#    x 1.660350 0.000000 0.000000 
#    y 0.000000 1.717350 0.000000 
#    z 0.000000 0.000000 1.745260 
# 
# From -- ./inp_files/29586.got.cif
#   From: 2010.03.12/outbox.cif.g09.slc.cpg/sg59_15_cif.got.tgz:29586.got - 2010.04.16 16:29:54.
