data_PCOD8243547
_publ_section_title
;
Structure prediction by ZEFSAII (Michael W. Deem and Ramdas Pophale) SiO2 
 PCOD8243547
Probable space group: P M M N
;
_chemical_formula_sum "Si O2"
_cell_formula_units_Z 56
_cell_length_a 8.738380
_cell_length_b 20.994742
_cell_length_c 16.668697
_cell_angle_alpha 90.000000
_cell_angle_beta 90.000000
_cell_angle_gamma 90.000000
_cell_volume 3058.039712
_symmetry_space_group_name_H-M "P M M N"
_symmetry_group_IT_number 59
_space_group.IT_coordinate_system_code '2'
_symmetry_cell_setting 'orthorhombic'
loop_
_space_group_symop_operation_xyz
x,y,z
1/2-x,1/2-y,z
1/2+x,-y,-z
-x,1/2+y,-z
-x,-y,-z
1/2+x,1/2+y,-z
1/2-x,y,z
x,1/2-y,z
loop_
_atom_site_type_symbol
_atom_site_label
_atom_site_fract_x
_atom_site_fract_y
_atom_site_fract_z
Si Si1 0.573746 0.677571 0.463903
Si Si2 0.575313 0.616101 0.298286
Si Si3 0.921141 0.175223 0.851620
Si Si4 0.430338 0.940882 0.548745
Si Si5 0.570121 0.516676 0.706657
Si Si6 0.072107 0.968139 0.878680
Si Si7 0.927265 0.595849 0.023927
O O1 0.750000 0.666902 0.488611
O O2 0.521850 0.750000 0.483485
O O3 0.552882 0.667005 0.368861
O O4 0.470061 0.627401 0.510935
O O5 0.750000 0.591538 0.292932
O O6 0.534660 0.648926 0.215199
O O7 0.467119 0.556211 0.314887
O O8 0.750000 0.147518 0.838938
O O9 0.918454 0.250000 0.846706
O O10 0.984503 0.155741 0.938689
O O11 0.250000 0.950529 0.549516
O O12 0.494389 0.939157 0.638986
O O13 0.500000 0.000000 0.500000
O O14 0.750000 0.527350 0.706191
O O15 0.504613 0.536665 0.792369
O O16 0.250000 0.952834 0.870954
O O17 0.042139 0.037382 0.915842
O O18 0.995095 0.916085 0.936046
O O19 0.750000 0.611542 0.014774
#
# Coordination Sequence:
#
# PCOD8243547 Si02
#       7
#     8   8   8   8   8   8   8
#     4  10  22  40  61  85 117 156 197 242 293 352
#     4  11  21  35  56  83 116 155 193 232 285 346
#     4  11  23  36  52  78 115 156 194 233 278 334
#     4  12  24  39  60  86 117 155 198 244 294 348
#     4  12  23  36  58  86 118 152 189 239 290 342
#     4  10  20  35  56  82 112 144 180 228 280 335
#     4  10  20  34  55  80 109 146 186 229 276 330
#
# _framework density 18.312384000000002
#
# number of rings (size 3 to 8) (size 9 to 14) (size 15 to 20)
#    0.000    1.143    2.857    4.714    0.000    3.714 
#    0.000    0.000    0.000    0.857    0.000    0.000 
#    0.000    0.000    0.000    0.000    0.000    0.000 
#
# Total GULP energy -694653.024309 kJ/mol
# GULP energy per Si atom -12404.518291 kJ/mol
# Density = 1.827070 g / cm^3
# Si number density = 18.312384 Si / 1000 Ang^3
#
#
#
# Elastic Constant Matrix: (Units=GPa)
#
#
# Indices 1 2 3 4 5 6 
#
# 1 110.7397 26.5504 57.4196 0.0000 0.0000 0.0000
# 2 26.5504 66.1874 38.4646 0.0000 0.0000 0.0000
# 3 57.4196 38.4646 118.8693 0.0000 0.0000 0.0000
# 4 0.0000 0.0000 0.0000 25.8954 0.0000 0.0000
# 5 0.0000 0.0000 0.0000 0.0000 34.8171 0.0000
# 6 0.0000 0.0000 0.0000 0.0000 0.0000 26.6330
#
#
#
# Elastic Compliance Matrix: (Units=1/GPa)
#
#
# Indices 1 2 3 4 5 6 
#
# 1 0.012222 -0.001813 -0.005317 0.000000 0.000000 0.000000
# 2 -0.001813 0.018877 -0.005233 0.000000 0.000000 0.000000
# 3 -0.005317 -0.005233 0.012674 0.000000 0.000000 0.000000
# 4 0.000000 0.000000 0.000000 0.038617 0.000000 0.000000
# 5 0.000000 0.000000 0.000000 0.000000 0.028722 0.000000
# 6 0.000000 0.000000 0.000000 0.000000 0.000000 0.037547
#
#
# Mechanical properties :
#
#
# Convention : Reuss Voigt Hill
#
# Bulk Modulus (GPa) = 52.49936 60.07395 56.28666
# Shear Modulus (GPa) = 27.81911 29.02658 28.42284
#
# Velocity S-wave (km/s) = 3.90185 3.98562 3.94396
# Velocity P-wave (km/s) = 7.00216 7.35232 7.17937
#
# Compressibility (1/GPa) = 0.01904785
#
# Stress axis : x y z
#
# Youngs Moduli (GPa) = 81.82132 52.97537 78.89990
#
# Poissons Ratio (x) = 0.09602 0.41952
# Poissons Ratio (y) = 0.14831 0.41286
# Poissons Ratio (z) = 0.43506 0.27720
#
# Static dielectric constant tensor:
#      x y z
#    x 3.645970 0.000000 0.000000 
#    y 0.000000 3.258290 0.000000 
#    z 0.000000 0.000000 3.501600 
# 
# 
# High freq. dielectric constant tensor:
#      x y z
#    x 1.727150 0.000000 0.000000 
#    y 0.000000 1.684480 0.000000 
#    z 0.000000 0.000000 1.713910 
# 
# From -- ./inp_files/20916.got.cif
#   From: 2010.03.12/outbox.cif.g09.slc.cpg/sg59_11_cif.got.tgz:20916.got - 2010.04.16 16:29:54.
