data_PCOD8243297
_publ_section_title
;
Structure prediction by ZEFSAII (Michael W. Deem and Ramdas Pophale) SiO2 
 PCOD8243297
Probable space group: P M M N
;
_chemical_formula_sum "Si O2"
_cell_formula_units_Z 48
_cell_length_a 8.834209
_cell_length_b 14.886342
_cell_length_c 19.278610
_cell_angle_alpha 90.000000
_cell_angle_beta 90.000000
_cell_angle_gamma 90.000000
_cell_volume 2535.311811
_symmetry_space_group_name_H-M "P M M N"
_symmetry_group_IT_number 59
_space_group.IT_coordinate_system_code '2'
_symmetry_cell_setting 'orthorhombic'
loop_
_space_group_symop_operation_xyz
x,y,z
1/2-x,1/2-y,z
1/2+x,-y,-z
-x,1/2+y,-z
-x,-y,-z
1/2+x,1/2+y,-z
1/2-x,y,z
x,1/2-y,z
loop_
_atom_site_type_symbol
_atom_site_label
_atom_site_fract_x
_atom_site_fract_y
_atom_site_fract_z
Si Si1 0.572432 0.060901 0.439918
Si Si2 0.073843 0.434246 0.688847
Si Si3 0.428947 0.527510 0.165861
Si Si4 0.429240 0.250000 0.623260
Si Si5 0.574100 0.844636 0.896276
Si Si6 0.430994 0.250000 0.466238
Si Si7 0.924275 0.583003 0.037358
O O1 0.750000 0.070863 0.455704
O O2 0.496545 0.159061 0.432127
O O3 0.500000 0.000000 0.500000
O O4 0.543846 0.011518 0.367180
O O5 0.250000 0.427274 0.707652
O O6 0.010995 0.339151 0.660954
O O7 0.979510 0.455062 0.756726
O O8 0.250000 0.531002 0.161298
O O9 0.499100 0.430913 0.141541
O O10 0.494247 0.601713 0.111505
O O11 0.250000 0.250000 0.620764
O O12 0.489284 0.250000 0.545047
O O13 0.750000 0.849457 0.877993
O O14 0.505573 0.750000 0.867655
O O15 0.554122 0.839260 0.980193
O O16 0.250000 0.250000 0.458808
O O17 0.750000 0.563472 0.053185
O O18 0.000000 0.500000 0.000000
#
# Coordination Sequence:
#
# PCOD8243297 Si02
#       7
#     8   8   8   4   8   4   8
#     4  11  22  38  62  90 119 154 195 245 298 351
#     4  10  21  39  60  81 113 150 189 234 286 348
#     4  10  20  34  53  77 110 145 181 226 280 339
#     4   9  18  37  61  83 107 146 189 230 285 349
#     4   8  15  30  52  76 101 134 180 226 266 319
#     4  11  21  39  63  89 119 152 197 246 291 353
#     4   9  16  29  52  76 100 134 176 222 272 324
#
# _framework density 18.932583000000001
#
# number of rings (size 3 to 8) (size 9 to 14) (size 15 to 20)
#    0.000    2.333    1.667    2.750    0.000    1.333 
#    3.000    0.417    0.000   17.000    0.000    0.000 
#    0.000    0.000    0.000    0.000    0.000    0.000 
#
# Total GULP energy -594743.731657 kJ/mol
# GULP energy per Si atom -12390.494410 kJ/mol
# Density = 1.888949 g / cm^3
# Si number density = 18.932583 Si / 1000 Ang^3
#
#
#
# Elastic Constant Matrix: (Units=GPa)
#
#
# Indices 1 2 3 4 5 6 
#
# 1 80.0936 36.6701 42.2110 0.0000 0.0000 0.0000
# 2 36.6701 128.4225 41.1907 0.0000 0.0000 0.0000
# 3 42.2110 41.1907 108.7648 0.0000 0.0000 0.0000
# 4 0.0000 0.0000 0.0000 13.9668 0.0000 0.0000
# 5 0.0000 0.0000 0.0000 0.0000 35.2099 0.0000
# 6 0.0000 0.0000 0.0000 0.0000 0.0000 23.5906
#
#
#
# Elastic Compliance Matrix: (Units=1/GPa)
#
#
# Indices 1 2 3 4 5 6 
#
# 1 0.016689 -0.003060 -0.005318 0.000000 0.000000 0.000000
# 2 -0.003060 0.009424 -0.002382 0.000000 0.000000 0.000000
# 3 -0.005318 -0.002382 0.012160 0.000000 0.000000 0.000000
# 4 0.000000 0.000000 0.000000 0.071598 0.000000 0.000000
# 5 0.000000 0.000000 0.000000 0.000000 0.028401 0.000000
# 6 0.000000 0.000000 0.000000 0.000000 0.000000 0.042390
#
#
# Mechanical properties :
#
#
# Convention : Reuss Voigt Hill
#
# Bulk Modulus (GPa) = 59.68577 61.93604 60.81090
# Shear Modulus (GPa) = 24.06549 27.70074 25.88311
#
# Velocity S-wave (km/s) = 3.56914 3.82923 3.70147
# Velocity P-wave (km/s) = 6.96985 7.23434 7.10333
#
# Compressibility (1/GPa) = 0.01675441
#
# Stress axis : x y z
#
# Youngs Moduli (GPa) = 59.91961 106.10786 82.23623
#
# Poissons Ratio (x) = 0.32465 0.43735
# Poissons Ratio (y) = 0.18333 0.19586
# Poissons Ratio (z) = 0.31866 0.25272
#
# Static dielectric constant tensor:
#      x y z
#    x 3.403720 0.000000 0.000000 
#    y 0.000000 4.010710 0.000000 
#    z 0.000000 0.000000 3.607260 
# 
# 
# High freq. dielectric constant tensor:
#      x y z
#    x 1.721900 0.000000 0.000000 
#    y 0.000000 1.736650 0.000000 
#    z 0.000000 0.000000 1.731990 
# 
# From -- ./inp_files/25572.got.cif
#   From: 2010.03.12/outbox.cif.g09.slc.cpg/sg59_13_cif.got.tgz:25572.got - 2010.04.16 16:29:54.
