data_PCOD8243613
_publ_section_title
;
Structure prediction by ZEFSAII (Michael W. Deem and Ramdas Pophale) SiO2 
 PCOD8243613
Probable space group: P M M N
;
_chemical_formula_sum "Si O2"
_cell_formula_units_Z 40
_cell_length_a 8.949935
_cell_length_b 9.109349
_cell_length_c 25.689333
_cell_angle_alpha 90.000000
_cell_angle_beta 90.000000
_cell_angle_gamma 90.000000
_cell_volume 2094.402033
_symmetry_space_group_name_H-M "P M M N"
_symmetry_group_IT_number 59
_space_group.IT_coordinate_system_code '2'
_symmetry_cell_setting 'orthorhombic'
loop_
_space_group_symop_operation_xyz
x,y,z
1/2-x,1/2-y,z
1/2+x,-y,-z
-x,1/2+y,-z
-x,-y,-z
1/2+x,1/2+y,-z
1/2-x,y,z
x,1/2-y,z
loop_
_atom_site_type_symbol
_atom_site_label
_atom_site_fract_x
_atom_site_fract_y
_atom_site_fract_z
Si Si1 0.925422 0.579254 0.451712
Si Si2 0.072968 0.588022 0.256348
Si Si3 0.573660 0.581095 0.643348
Si Si4 0.425642 0.581835 0.952295
Si Si5 0.578255 0.422485 0.859494
O O1 0.750000 0.551661 0.454242
O O2 0.965771 0.750000 0.454402
O O3 0.000000 0.500000 0.500000
O O4 0.988265 0.514710 0.398599
O O5 0.250000 0.598840 0.255572
O O6 0.007669 0.750000 0.269497
O O7 0.019382 0.472402 0.299729
O O8 0.021545 0.537817 0.198840
O O9 0.750000 0.558197 0.635886
O O10 0.528366 0.750000 0.636805
O O11 0.250000 0.566485 0.958378
O O12 0.477442 0.750000 0.953285
O O13 0.474112 0.511625 0.898050
O O14 0.500000 0.500000 0.000000
O O15 0.750000 0.470059 0.867752
O O16 0.560610 0.250000 0.870058
#
# Coordination Sequence:
#
# PCOD8243613 Si02
#       5
#     8   8   8   8   8
#     4  11  24  40  58  81 108 140 180 223 269 323
#     4   8  15  30  53  80 110 144 180 218 261 310
#     4  10  20  34  55  84 114 144 181 222 264 314
#     4  11  24  39  55  78 107 139 178 222 268 321
#     4   9  18  34  57  84 111 140 178 221 264 315
#
# _framework density 19.09853
#
# number of rings (size 3 to 8) (size 9 to 14) (size 15 to 20)
#    0.000    2.200    0.000    4.200    0.000   10.400 
#    0.000    3.000    0.000    1.200    0.000    0.000 
#    0.000    0.000    0.000    0.000    0.000    0.000 
#
# Total GULP energy -496029.353378 kJ/mol
# GULP energy per Si atom -12400.733834 kJ/mol
# Density = 1.905506 g / cm^3
# Si number density = 19.098530 Si / 1000 Ang^3
#
#
#
# Elastic Constant Matrix: (Units=GPa)
#
#
# Indices 1 2 3 4 5 6 
#
# 1 52.2259 59.1412 50.7820 0.0000 0.0000 0.0000
# 2 59.1412 127.5623 89.0798 0.0000 0.0000 0.0000
# 3 50.7820 89.0798 166.3704 0.0000 0.0000 0.0000
# 4 0.0000 0.0000 0.0000 40.6949 0.0000 0.0000
# 5 0.0000 0.0000 0.0000 0.0000 32.3495 0.0000
# 6 0.0000 0.0000 0.0000 0.0000 0.0000 28.2499
#
#
#
# Elastic Compliance Matrix: (Units=1/GPa)
#
#
# Indices 1 2 3 4 5 6 
#
# 1 0.041765 -0.016709 -0.003802 0.000000 0.000000 0.000000
# 2 -0.016709 0.019205 -0.005183 0.000000 0.000000 0.000000
# 3 -0.003802 -0.005183 0.009946 0.000000 0.000000 0.000000
# 4 0.000000 0.000000 0.000000 0.024573 0.000000 0.000000
# 5 0.000000 0.000000 0.000000 0.000000 0.030912 0.000000
# 6 0.000000 0.000000 0.000000 0.000000 0.000000 0.035398
#
#
# Mechanical properties :
#
#
# Convention : Reuss Voigt Hill
#
# Bulk Modulus (GPa) = 51.20362 82.68496 66.94429
# Shear Modulus (GPa) = 22.75852 30.06924 26.41388
#
# Velocity S-wave (km/s) = 3.45575 3.97221 3.72295
# Velocity P-wave (km/s) = 6.54152 8.02657 7.32179
#
# Compressibility (1/GPa) = 0.01952987
#
# Stress axis : x y z
#
# Youngs Moduli (GPa) = 23.94327 52.06899 100.53928
#
# Poissons Ratio (x) = 0.87000 0.38225
# Poissons Ratio (y) = 0.40006 0.52110
# Poissons Ratio (z) = 0.09103 0.26988
#
# Static dielectric constant tensor:
#      x y z
#    x 3.297630 0.000000 0.000000 
#    y 0.000000 3.620130 0.000000 
#    z 0.000000 0.000000 3.814480 
# 
# 
# High freq. dielectric constant tensor:
#      x y z
#    x 1.719180 0.000000 0.000000 
#    y 0.000000 1.749350 0.000000 
#    z 0.000000 0.000000 1.762450 
# 
# From -- ./inp_files/31129.got.cif
#   From: 2010.03.12/outbox.cif.g09.slc.cpg/sg59_16_cif.got.tgz:31129.got - 2010.04.16 16:29:54.
