data_PCOD8243943
_publ_section_title
;
Structure prediction by ZEFSAII (Michael W. Deem and Ramdas Pophale) SiO2 
 PCOD8243943
Probable space group: P M M N
;
_chemical_formula_sum "Si O2"
_cell_formula_units_Z 40
_cell_length_a 8.904250
_cell_length_b 18.308647
_cell_length_c 12.813649
_cell_angle_alpha 90.000000
_cell_angle_beta 90.000000
_cell_angle_gamma 90.000000
_cell_volume 2088.942182
_symmetry_space_group_name_H-M "P M M N"
_symmetry_group_IT_number 59
_space_group.IT_coordinate_system_code '2'
_symmetry_cell_setting 'orthorhombic'
loop_
_space_group_symop_operation_xyz
x,y,z
1/2-x,1/2-y,z
1/2+x,-y,-z
-x,1/2+y,-z
-x,-y,-z
1/2+x,1/2+y,-z
1/2-x,y,z
x,1/2-y,z
loop_
_atom_site_type_symbol
_atom_site_label
_atom_site_fract_x
_atom_site_fract_y
_atom_site_fract_z
Si Si1 0.422911 0.166183 0.102548
Si Si2 0.427295 0.424153 0.305006
Si Si3 0.925258 0.165728 0.888770
Si Si4 0.428478 0.168162 0.502120
Si Si5 0.572058 0.580829 0.296953
O O1 0.250000 0.152945 0.072071
O O2 0.449562 0.250000 0.135164
O O3 0.472579 0.116514 0.198934
O O4 0.525069 0.143652 0.004935
O O5 0.250000 0.437529 0.311672
O O6 0.485879 0.375542 0.401235
O O7 0.511569 0.500036 0.310471
O O8 0.750000 0.150366 0.876708
O O9 0.966123 0.250000 0.866680
O O10 0.014103 0.115370 0.809481
O O11 0.250000 0.171325 0.501747
O O12 0.495399 0.250000 0.499187
O O13 0.487972 0.128710 0.606244
O O14 0.750000 0.578848 0.294188
#
# Coordination Sequence:
#
# PCOD8243943 Si02
#       5
#     8   8   8   8   8
#     4   9  18  34  57  82 106 137 179 223 268 320
#     4  10  20  35  56  81 110 141 175 220 270 319
#     4  10  21  37  57  80 107 140 179 224 270 315
#     4   9  18  34  57  82 106 137 179 223 267 317
#     4  11  22  35  54  80 112 147 180 217 262 316
#
# _framework density 19.148447999999998
#
# number of rings (size 3 to 8) (size 9 to 14) (size 15 to 20)
#    0.000    2.200    0.000    3.000    0.000    6.000 
#    0.000    1.000    0.000    4.200    0.000    0.000 
#    0.000    0.000    0.000    0.000    0.000    0.000 
#
# Total GULP energy -496145.531544 kJ/mol
# GULP energy per Si atom -12403.638289 kJ/mol
# Density = 1.910487 g / cm^3
# Si number density = 19.148448 Si / 1000 Ang^3
#
#
#
# Elastic Constant Matrix: (Units=GPa)
#
#
# Indices 1 2 3 4 5 6 
#
# 1 49.5811 49.1078 42.5885 0.0000 0.0000 0.0000
# 2 49.1078 161.2571 96.8800 0.0000 0.0000 0.0000
# 3 42.5885 96.8800 142.8928 0.0000 0.0000 0.0000
# 4 0.0000 0.0000 0.0000 25.6265 0.0000 0.0000
# 5 0.0000 0.0000 0.0000 0.0000 17.5829 0.0000
# 6 0.0000 0.0000 0.0000 0.0000 0.0000 31.9043
#
#
#
# Elastic Compliance Matrix: (Units=1/GPa)
#
#
# Indices 1 2 3 4 5 6 
#
# 1 0.030671 -0.006493 -0.004739 0.000000 0.000000 0.000000
# 2 -0.006493 0.011838 -0.006091 0.000000 0.000000 0.000000
# 3 -0.004739 -0.006091 0.012540 0.000000 0.000000 0.000000
# 4 0.000000 0.000000 0.000000 0.039022 0.000000 0.000000
# 5 0.000000 0.000000 0.000000 0.000000 0.056874 0.000000
# 6 0.000000 0.000000 0.000000 0.000000 0.000000 0.031344
#
#
# Mechanical properties :
#
#
# Convention : Reuss Voigt Hill
#
# Bulk Modulus (GPa) = 49.01217 81.20926 65.11072
# Shear Modulus (GPa) = 22.34791 26.03305 24.19048
#
# Velocity S-wave (km/s) = 3.41997 3.69119 3.55817
# Velocity P-wave (km/s) = 6.42234 7.78903 7.13847
#
# Compressibility (1/GPa) = 0.02040310
#
# Stress axis : x y z
#
# Youngs Moduli (GPa) = 32.60436 84.47536 79.74419
#
# Poissons Ratio (x) = 0.54851 0.37791
# Poissons Ratio (y) = 0.21170 0.48569
# Poissons Ratio (z) = 0.15451 0.51451
#
# Static dielectric constant tensor:
#      x y z
#    x 3.270550 0.000000 0.000000 
#    y 0.000000 3.861600 0.000000 
#    z 0.000000 0.000000 3.656160 
# 
# 
# High freq. dielectric constant tensor:
#      x y z
#    x 1.723340 0.000000 0.000000 
#    y 0.000000 1.752800 0.000000 
#    z 0.000000 0.000000 1.760270 
# 
# From -- ./inp_files/13812.got.cif
#   From: 2010.03.12/outbox.cif.g09.slc.cpg/sg59_7_cif.got.tgz:13812.got - 2010.04.16 16:29:54.
