data_PCOD8243963
_publ_section_title
;
Structure prediction by ZEFSAII (Michael W. Deem and Ramdas Pophale) SiO2 
 PCOD8243963
Probable space group: P M M N
;
_chemical_formula_sum "Si O2"
_cell_formula_units_Z 64
_cell_length_a 8.984014
_cell_length_b 14.679031
_cell_length_c 24.233260
_cell_angle_alpha 90.000000
_cell_angle_beta 90.000000
_cell_angle_gamma 90.000000
_cell_volume 3195.800421
_symmetry_space_group_name_H-M "P M M N"
_symmetry_group_IT_number 59
_space_group.IT_coordinate_system_code '2'
_symmetry_cell_setting 'orthorhombic'
loop_
_space_group_symop_operation_xyz
x,y,z
1/2-x,1/2-y,z
1/2+x,-y,-z
-x,1/2+y,-z
-x,-y,-z
1/2+x,1/2+y,-z
1/2-x,y,z
x,1/2-y,z
loop_
_atom_site_type_symbol
_atom_site_label
_atom_site_fract_x
_atom_site_fract_y
_atom_site_fract_z
Si Si1 0.425206 0.856417 0.355907
Si Si2 0.075401 0.487474 0.558751
Si Si3 0.075246 0.648369 0.917674
Si Si4 0.924740 0.534061 0.135819
Si Si5 0.922300 0.645378 0.030521
Si Si6 0.072479 0.957062 0.245020
Si Si7 0.914277 0.850087 0.606346
Si Si8 0.916677 0.846220 0.736344
O O1 0.250000 0.873521 0.362834
O O2 0.464899 0.750000 0.355605
O O3 0.507123 0.902739 0.407536
O O4 0.482310 0.899334 0.297900
O O5 0.250000 0.471212 0.552259
O O6 0.000000 0.500000 0.500000
O O7 0.044373 0.581166 0.590437
O O8 0.250000 0.649638 0.926694
O O9 0.017440 0.750000 0.900536
O O10 0.033027 0.573632 0.871076
O O11 0.007152 0.615965 0.975438
O O12 0.750000 0.548201 0.144501
O O13 0.981549 0.586041 0.081532
O O14 0.007589 0.581219 0.187784
O O15 0.750000 0.626203 0.019708
O O16 0.953759 0.750000 0.045142
O O17 0.250000 0.956708 0.244042
O O18 0.002995 0.059966 0.246734
O O19 0.750000 0.882162 0.584842
O O20 0.950906 0.750000 0.581654
O O21 0.907846 0.845104 0.671187
O O22 0.750000 0.847347 0.760727
O O23 0.994964 0.750000 0.755946
#
# Coordination Sequence:
#
# PCOD8243963 Si02
#       8
#     8   8   8   8   8   8   8   8
#     4  10  22  43  67  88 116 155 199 247 295 341
#     4  12  25  40  62  90 123 156 192 238 287 344
#     4   9  18  33  52  74 103 139 177 222 278 336
#     4  10  21  34  49  74 109 144 179 223 278 333
#     4   9  18  33  52  73  99 134 178 228 279 331
#     4  10  20  35  56  82 112 146 189 234 279 334
#     4   9  17  34  61  87 114 148 184 226 279 336
#     4   8  14  28  53  80 105 136 174 219 271 326
#
# _framework density 20.026281999999998
#
# number of rings (size 3 to 8) (size 9 to 14) (size 15 to 20)
#    0.000    2.375    1.250    2.250    0.000    3.500 
#    0.000    0.000    0.000    0.000    0.000    0.000 
#    0.000    0.000    0.000    0.000    0.000    0.000 
#
# Total GULP energy -793101.169368 kJ/mol
# GULP energy per Si atom -12392.205771 kJ/mol
# Density = 1.998070 g / cm^3
# Si number density = 20.026282 Si / 1000 Ang^3
#
#
#
# Elastic Constant Matrix: (Units=GPa)
#
#
# Indices 1 2 3 4 5 6 
#
# 1 50.0203 33.1698 37.5075 0.0000 0.0000 0.0000
# 2 33.1698 106.1883 44.3532 0.0000 0.0000 0.0000
# 3 37.5075 44.3532 109.2683 0.0000 0.0000 0.0000
# 4 0.0000 0.0000 0.0000 12.7537 0.0000 0.0000
# 5 0.0000 0.0000 0.0000 0.0000 30.1689 0.0000
# 6 0.0000 0.0000 0.0000 0.0000 0.0000 17.5944
#
#
#
# Elastic Compliance Matrix: (Units=1/GPa)
#
#
# Indices 1 2 3 4 5 6 
#
# 1 0.029856 -0.006076 -0.007782 0.000000 0.000000 0.000000
# 2 -0.006076 0.012576 -0.003019 0.000000 0.000000 0.000000
# 3 -0.007782 -0.003019 0.013049 0.000000 0.000000 0.000000
# 4 0.000000 0.000000 0.000000 0.078409 0.000000 0.000000
# 5 0.000000 0.000000 0.000000 0.000000 0.033147 0.000000
# 6 0.000000 0.000000 0.000000 0.000000 0.000000 0.056836
#
#
# Mechanical properties :
#
#
# Convention : Reuss Voigt Hill
#
# Bulk Modulus (GPa) = 46.02621 55.05976 50.54299
# Shear Modulus (GPa) = 18.87724 22.13318 20.50521
#
# Velocity S-wave (km/s) = 3.07355 3.32807 3.20334
# Velocity P-wave (km/s) = 5.96895 6.50550 6.24299
#
# Compressibility (1/GPa) = 0.02172675
#
# Stress axis : x y z
#
# Youngs Moduli (GPa) = 33.49373 79.51556 76.63583
#
# Poissons Ratio (x) = 0.48310 0.59641
# Poissons Ratio (y) = 0.20349 0.23139
# Poissons Ratio (z) = 0.26066 0.24008
#
# Static dielectric constant tensor:
#      x y z
#    x 16.429910 0.000000 0.000000 
#    y 0.000000 3.824160 0.000000 
#    z 0.000000 0.000000 3.825700 
# 
# 
# High freq. dielectric constant tensor:
#      x y z
#    x 1.749870 0.000000 0.000000 
#    y 0.000000 1.794040 0.000000 
#    z 0.000000 0.000000 1.777510 
# 
# From -- ./inp_files/31486.got.cif
#   From: 2010.03.12/outbox.cif.g09.slc.cpg/sg59_16_cif.got.tgz:31486.got - 2010.04.16 16:29:54.
