data_PCOD8243775
_publ_section_title
;
Structure prediction by ZEFSAII (Michael W. Deem and Ramdas Pophale) SiO2 
 PCOD8243775
Probable space group: P M M N
;
_chemical_formula_sum "Si O2"
_cell_formula_units_Z 64
_cell_length_a 21.619246
_cell_length_b 9.132730
_cell_length_c 16.703165
_cell_angle_alpha 90.000000
_cell_angle_beta 90.000000
_cell_angle_gamma 90.000000
_cell_volume 3297.918606
_symmetry_space_group_name_H-M "P M M N"
_symmetry_group_IT_number 59
_space_group.IT_coordinate_system_code '2'
_symmetry_cell_setting 'orthorhombic'
loop_
_space_group_symop_operation_xyz
x,y,z
1/2-x,1/2-y,z
1/2+x,-y,-z
-x,1/2+y,-z
-x,-y,-z
1/2+x,1/2+y,-z
1/2-x,y,z
x,1/2-y,z
loop_
_atom_site_type_symbol
_atom_site_label
_atom_site_fract_x
_atom_site_fract_y
_atom_site_fract_z
Si Si1 0.122884 0.417564 0.384600
Si Si2 0.983073 0.084719 0.356508
Si Si3 0.817526 0.585327 0.315733
Si Si4 0.679137 0.578901 0.929259
Si Si5 0.821798 0.081970 0.764254
Si Si6 0.560586 0.923312 0.034688
Si Si7 0.133242 0.922171 0.543579
Si Si8 0.567607 0.579071 0.215255
O O1 0.146031 0.250000 0.382407
O O2 0.141214 0.495408 0.302901
O O3 0.151300 0.499551 0.460824
O O4 0.049593 0.427918 0.396023
O O5 0.965895 0.250000 0.333096
O O6 0.933959 0.027620 0.422444
O O7 0.982523 0.993903 0.273870
O O8 0.750000 0.579297 0.276109
O O9 0.833545 0.750000 0.345690
O O10 0.817719 0.475451 0.390742
O O11 0.864520 0.536262 0.246954
O O12 0.750000 0.543507 0.959351
O O13 0.673997 0.750000 0.908936
O O14 0.663707 0.489010 0.849679
O O15 0.626073 0.532788 0.992999
O O16 0.750000 0.070106 0.743034
O O17 0.844018 0.250000 0.766320
O O18 0.551226 0.750000 0.028909
O O19 0.563595 0.980801 0.125551
O O20 0.500000 0.000000 0.000000
O O21 0.137976 0.750000 0.529029
O O22 0.554524 0.750000 0.216586
#
# Coordination Sequence:
#
# PCOD8243775 Si02
#       8
#     8   8   8   8   8   8   8   8
#     4  11  22  35  55  80 106 140 182 225 270 323
#     4   9  20  36  54  77 107 142 179 220 270 323
#     4   9  18  34  56  79 106 142 181 223 271 321
#     4   9  19  38  61  82 110 150 192 234 282 337
#     4  10  22  39  57  79 107 139 180 228 276 328
#     4  10  22  37  56  86 119 150 187 233 286 338
#     4  10  20  35  53  77 109 142 179 223 271 322
#     4   9  19  35  54  80 110 141 180 223 268 323
#
# _framework density 19.406179000000002
#
# number of rings (size 3 to 8) (size 9 to 14) (size 15 to 20)
#    0.000    2.375    0.000    1.500    1.750    4.500 
#    0.000    2.500    0.000    0.000    0.000    3.500 
#    0.000    0.000    0.000    0.000    0.000    0.000 
#
# Total GULP energy -793482.956394 kJ/mol
# GULP energy per Si atom -12398.171194 kJ/mol
# Density = 1.936201 g / cm^3
# Si number density = 19.406179 Si / 1000 Ang^3
#
#
#
# Elastic Constant Matrix: (Units=GPa)
#
#
# Indices 1 2 3 4 5 6 
#
# 1 72.0000 23.8832 29.7454 0.0000 0.0000 0.0000
# 2 23.8832 76.0666 46.6790 0.0000 0.0000 0.0000
# 3 29.7454 46.6790 115.5382 0.0000 0.0000 0.0000
# 4 0.0000 0.0000 0.0000 31.2092 0.0000 0.0000
# 5 0.0000 0.0000 0.0000 0.0000 21.2991 0.0000
# 6 0.0000 0.0000 0.0000 0.0000 0.0000 28.2666
#
#
#
# Elastic Compliance Matrix: (Units=1/GPa)
#
#
# Indices 1 2 3 4 5 6 
#
# 1 0.016160 -0.003352 -0.002806 0.000000 0.000000 0.000000
# 2 -0.003352 0.018175 -0.006480 0.000000 0.000000 0.000000
# 3 -0.002806 -0.006480 0.011996 0.000000 0.000000 0.000000
# 4 0.000000 0.000000 0.000000 0.032042 0.000000 0.000000
# 5 0.000000 0.000000 0.000000 0.000000 0.046950 0.000000
# 6 0.000000 0.000000 0.000000 0.000000 0.000000 0.035377
#
#
# Mechanical properties :
#
#
# Convention : Reuss Voigt Hill
#
# Bulk Modulus (GPa) = 47.49537 51.58000 49.53768
# Shear Modulus (GPa) = 25.90735 27.04147 26.47441
#
# Velocity S-wave (km/s) = 3.65774 3.73694 3.69755
# Velocity P-wave (km/s) = 6.50893 6.72729 6.61901
#
# Compressibility (1/GPa) = 0.02105468
#
# Stress axis : x y z
#
# Youngs Moduli (GPa) = 61.88092 55.01941 83.36322
#
# Poissons Ratio (x) = 0.18442 0.23394
# Poissons Ratio (y) = 0.20741 0.54021
# Poissons Ratio (z) = 0.17365 0.35654
#
# Static dielectric constant tensor:
#      x y z
#    x 3.580730 0.000000 0.000000 
#    y 0.000000 3.563030 0.000000 
#    z 0.000000 0.000000 3.513110 
# 
# 
# High freq. dielectric constant tensor:
#      x y z
#    x 1.756250 0.000000 0.000000 
#    y 0.000000 1.754110 0.000000 
#    z 0.000000 0.000000 1.752000 
# 
# From -- ./inp_files/24738.got.cif
#   From: 2010.03.12/outbox.cif.g09.slc.cpg/sg59_13_cif.got.tgz:24738.got - 2010.04.16 16:29:54.
