data_PCOD8243748
_publ_section_title
;
Structure prediction by ZEFSAII (Michael W. Deem and Ramdas Pophale) SiO2 
 PCOD8243748
Probable space group: P M M N
;
_chemical_formula_sum "Si O2"
_cell_formula_units_Z 56
_cell_length_a 14.548625
_cell_length_b 9.085497
_cell_length_c 22.125342
_cell_angle_alpha 90.000000
_cell_angle_beta 90.000000
_cell_angle_gamma 90.000000
_cell_volume 2924.560646
_symmetry_space_group_name_H-M "P M M N"
_symmetry_group_IT_number 59
_space_group.IT_coordinate_system_code '2'
_symmetry_cell_setting 'orthorhombic'
loop_
_space_group_symop_operation_xyz
x,y,z
1/2-x,1/2-y,z
1/2+x,-y,-z
-x,1/2+y,-z
-x,-y,-z
1/2+x,1/2+y,-z
1/2-x,y,z
x,1/2-y,z
loop_
_atom_site_type_symbol
_atom_site_label
_atom_site_fract_x
_atom_site_fract_y
_atom_site_fract_z
Si Si1 0.856645 0.922110 0.614354
Si Si2 0.553112 0.422153 0.053466
Si Si3 0.641038 0.587520 0.480068
Si Si4 0.057261 0.078181 0.171023
Si Si5 0.990257 0.424431 0.706162
Si Si6 0.857461 0.420323 0.363025
Si Si7 0.750000 0.078031 0.013879
Si Si8 0.750000 0.580346 0.886913
O O1 0.750000 0.961991 0.622314
O O2 0.873390 0.750000 0.627710
O O3 0.892462 0.961784 0.546691
O O4 0.912460 0.020143 0.660752
O O5 0.539447 0.250000 0.043221
O O6 0.511611 0.469176 0.117613
O O7 0.660200 0.469187 0.051982
O O8 0.500000 0.500000 0.000000
O O9 0.750000 0.596428 0.482753
O O10 0.602249 0.750000 0.463784
O O11 0.608720 0.472156 0.429410
O O12 0.046419 0.250000 0.187695
O O13 0.161184 0.040406 0.152410
O O14 0.032623 0.977723 0.227157
O O15 0.994558 0.250000 0.704675
O O16 0.089376 0.489183 0.688000
O O17 0.750000 0.450630 0.353520
O O18 0.882540 0.250000 0.356838
O O19 0.750000 0.250000 0.001966
O O20 0.750000 0.007126 0.948561
O O21 0.750000 0.750000 0.905558
#
# Coordination Sequence:
#
# PCOD8243748 Si02
#       8
#     8   8   8   8   8   8   4   4
#     4   9  19  37  60  85 117 155 193 236 289 348
#     4  10  20  36  60  88 121 153 189 236 284 336
#     4   8  15  31  57  87 115 145 184 236 294 345
#     4  10  22  40  59  83 116 155 198 237 281 343
#     4  12  26  40  57  83 116 154 197 243 292 344
#     4  10  21  39  63  86 110 147 193 241 293 351
#     4  10  20  34  58  94 124 148 181 234 293 338
#     4  10  20  36  62  90 114 152 195 230 277 338
#
# _framework density 19.148177
#
# number of rings (size 3 to 8) (size 9 to 14) (size 15 to 20)
#    0.000    2.143    1.429    2.571    1.000    3.429 
#    1.286    1.429    0.000    0.000    0.000    0.000 
#    0.000    0.000    0.000    0.000    0.000    0.000 
#
# Total GULP energy -694440.587836 kJ/mol
# GULP energy per Si atom -12400.724783 kJ/mol
# Density = 1.910459 g / cm^3
# Si number density = 19.148177 Si / 1000 Ang^3
#
#
#
# Elastic Constant Matrix: (Units=GPa)
#
#
# Indices 1 2 3 4 5 6 
#
# 1 128.3154 60.7160 76.7442 0.0000 0.0000 0.0000
# 2 60.7160 100.6365 67.4705 0.0000 0.0000 0.0000
# 3 76.7442 67.4705 132.9881 0.0000 0.0000 0.0000
# 4 0.0000 0.0000 0.0000 34.0115 0.0000 0.0000
# 5 0.0000 0.0000 0.0000 0.0000 31.3660 0.0000
# 6 0.0000 0.0000 0.0000 0.0000 0.0000 24.3734
#
#
#
# Elastic Compliance Matrix: (Units=1/GPa)
#
#
# Indices 1 2 3 4 5 6 
#
# 1 0.013007 -0.004266 -0.005341 0.000000 0.000000 0.000000
# 2 -0.004266 0.016458 -0.005888 0.000000 0.000000 0.000000
# 3 -0.005341 -0.005888 0.013589 0.000000 0.000000 0.000000
# 4 0.000000 0.000000 0.000000 0.029402 0.000000 0.000000
# 5 0.000000 0.000000 0.000000 0.000000 0.031882 0.000000
# 6 0.000000 0.000000 0.000000 0.000000 0.000000 0.041028
#
#
# Mechanical properties :
#
#
# Convention : Reuss Voigt Hill
#
# Bulk Modulus (GPa) = 82.89981 85.75571 84.32776
# Shear Modulus (GPa) = 27.71963 28.41747 28.06855
#
# Velocity S-wave (km/s) = 3.80891 3.85656 3.83281
# Velocity P-wave (km/s) = 7.92033 8.04446 7.98263
#
# Compressibility (1/GPa) = 0.01206275
#
# Stress axis : x y z
#
# Youngs Moduli (GPa) = 76.88448 60.76032 73.58804
#
# Poissons Ratio (x) = 0.25920 0.39307
# Poissons Ratio (y) = 0.32799 0.43329
# Poissons Ratio (z) = 0.41067 0.35776
#
# Static dielectric constant tensor:
#      x y z
#    x 3.765030 0.000000 0.000000 
#    y 0.000000 4.478160 0.000000 
#    z 0.000000 0.000000 3.506850 
# 
# 
# High freq. dielectric constant tensor:
#      x y z
#    x 1.753460 0.000000 0.000000 
#    y 0.000000 1.738680 0.000000 
#    z 0.000000 0.000000 1.742390 
# 
# From -- ./inp_files/30480.got.cif
#   From: 2010.03.12/outbox.cif.g09.slc.cpg/sg59_16_cif.got.tgz:30480.got - 2010.04.16 16:29:54.
