data_PCOD8243839
_publ_section_title
;
Structure prediction by ZEFSAII (Michael W. Deem and Ramdas Pophale) SiO2 
 PCOD8243839
Probable space group: P M M N
;
_chemical_formula_sum "Si O2"
_cell_formula_units_Z 56
_cell_length_a 14.033133
_cell_length_b 9.245857
_cell_length_c 22.919151
_cell_angle_alpha 90.000000
_cell_angle_beta 90.000000
_cell_angle_gamma 90.000000
_cell_volume 2973.721819
_symmetry_space_group_name_H-M "P M M N"
_symmetry_group_IT_number 59
_space_group.IT_coordinate_system_code '2'
_symmetry_cell_setting 'orthorhombic'
loop_
_space_group_symop_operation_xyz
x,y,z
1/2-x,1/2-y,z
1/2+x,-y,-z
-x,1/2+y,-z
-x,-y,-z
1/2+x,1/2+y,-z
1/2-x,y,z
x,1/2-y,z
loop_
_atom_site_type_symbol
_atom_site_label
_atom_site_fract_x
_atom_site_fract_y
_atom_site_fract_z
Si Si1 0.638832 0.920642 0.751179
Si Si2 0.043441 0.579595 0.141345
Si Si3 0.411052 0.587441 0.018008
Si Si4 0.853967 0.083037 0.104490
Si Si5 0.360299 0.584155 0.473855
Si Si6 0.856196 0.917350 0.412594
Si Si7 0.043006 0.582286 0.354016
O O1 0.750000 0.960960 0.748091
O O2 0.623015 0.750000 0.756116
O O3 0.591344 0.997275 0.805925
O O4 0.586496 0.978293 0.694052
O O5 0.035986 0.750000 0.155691
O O6 0.113885 0.547449 0.085437
O O7 0.936035 0.519974 0.130205
O O8 0.446857 0.750000 0.020033
O O9 0.500000 0.500000 0.000000
O O10 0.335668 0.563013 0.966022
O O11 0.750000 0.045723 0.132424
O O12 0.881854 0.250000 0.117630
O O13 0.250000 0.553787 0.462232
O O14 0.381569 0.750000 0.488008
O O15 0.396001 0.495005 0.529658
O O16 0.414381 0.534892 0.415933
O O17 0.750000 0.973092 0.395047
O O18 0.853690 0.750000 0.428843
O O19 0.928613 0.943702 0.358628
O O20 0.066757 0.750000 0.339412
#
# Coordination Sequence:
#
# PCOD8243839 Si02
#       7
#     8   8   8   8   8   8   8
#     4  11  25  42  58  77 101 132 174 223 272 323
#     4  10  20  35  56  80 108 143 181 222 266 315
#     4   8  15  28  48  75 105 138 175 213 256 305
#     4   9  17  31  53  81 114 148 179 216 263 314
#     4   9  17  29  48  76 107 138 174 215 259 309
#     4   9  18  32  51  78 110 140 171 209 255 308
#     4  10  20  35  55  77 104 140 178 217 262 309
#
# _framework density 18.831620999999998
#
# number of rings (size 3 to 8) (size 9 to 14) (size 15 to 20)
#    0.000    2.571    0.000    1.714    0.000    4.286 
#    0.000    3.571    0.000    2.571    0.000    0.000 
#    0.000    0.000    0.000    0.000    0.000    0.000 
#
# Total GULP energy -693734.921224 kJ/mol
# GULP energy per Si atom -12388.123593 kJ/mol
# Density = 1.878876 g / cm^3
# Si number density = 18.831621 Si / 1000 Ang^3
#
#
#
# Elastic Constant Matrix: (Units=GPa)
#
#
# Indices 1 2 3 4 5 6 
#
# 1 93.6184 51.5822 72.1702 0.0000 0.0000 0.0000
# 2 51.5822 79.7374 61.0842 0.0000 0.0000 0.0000
# 3 72.1702 61.0842 101.7309 0.0000 0.0000 0.0000
# 4 0.0000 0.0000 0.0000 32.1148 0.0000 0.0000
# 5 0.0000 0.0000 0.0000 0.0000 21.0263 0.0000
# 6 0.0000 0.0000 0.0000 0.0000 0.0000 24.1816
#
#
#
# Elastic Compliance Matrix: (Units=1/GPa)
#
#
# Indices 1 2 3 4 5 6 
#
# 1 0.024486 -0.004690 -0.014555 0.000000 0.000000 0.000000
# 2 -0.004690 0.024122 -0.011157 0.000000 0.000000 0.000000
# 3 -0.014555 -0.011157 0.026854 0.000000 0.000000 0.000000
# 4 0.000000 0.000000 0.000000 0.031138 0.000000 0.000000
# 5 0.000000 0.000000 0.000000 0.000000 0.047559 0.000000
# 6 0.000000 0.000000 0.000000 0.000000 0.000000 0.041354
#
#
# Mechanical properties :
#
#
# Convention : Reuss Voigt Hill
#
# Bulk Modulus (GPa) = 68.21669 71.63998 69.92834
# Shear Modulus (GPa) = 19.14212 21.48121 20.31166
#
# Velocity S-wave (km/s) = 3.19170 3.38109 3.28776
# Velocity P-wave (km/s) = 7.06299 7.30529 7.18516
#
# Compressibility (1/GPa) = 0.01465917
#
# Stress axis : x y z
#
# Youngs Moduli (GPa) = 40.83948 41.45582 37.23772
#
# Poissons Ratio (x) = 0.19443 0.54199
# Poissons Ratio (y) = 0.19154 0.41545
# Poissons Ratio (z) = 0.59441 0.46252
#
# Static dielectric constant tensor:
#      x y z
#    x 3.457580 0.000000 0.000000 
#    y 0.000000 3.477070 0.000000 
#    z 0.000000 0.000000 1.333980 
# 
# 
# High freq. dielectric constant tensor:
#      x y z
#    x 1.734050 0.000000 0.000000 
#    y 0.000000 1.730410 0.000000 
#    z 0.000000 0.000000 1.719370 
# 
# From -- ./inp_files/30318.got.cif
#   From: 2010.03.12/outbox.cif.g09.slc.cpg/sg59_16_cif.got.tgz:30318.got - 2010.04.16 16:29:54.
