data_PCOD8243719
_publ_section_title
;
Structure prediction by ZEFSAII (Michael W. Deem and Ramdas Pophale) SiO2 
 PCOD8243719
Probable space group: P M M N
;
_chemical_formula_sum "Si O2"
_cell_formula_units_Z 64
_cell_length_a 8.997448
_cell_length_b 15.371551
_cell_length_c 23.807685
_cell_angle_alpha 90.000000
_cell_angle_beta 90.000000
_cell_angle_gamma 90.000000
_cell_volume 3292.715465
_symmetry_space_group_name_H-M "P M M N"
_symmetry_group_IT_number 59
_space_group.IT_coordinate_system_code '2'
_symmetry_cell_setting 'orthorhombic'
loop_
_space_group_symop_operation_xyz
x,y,z
1/2-x,1/2-y,z
1/2+x,-y,-z
-x,1/2+y,-z
-x,-y,-z
1/2+x,1/2+y,-z
1/2-x,y,z
x,1/2-y,z
loop_
_atom_site_type_symbol
_atom_site_label
_atom_site_fract_x
_atom_site_fract_y
_atom_site_fract_z
Si Si1 0.075994 0.151605 0.557672
Si Si2 0.075980 0.848337 0.557745
Si Si3 0.920131 0.654055 0.836533
Si Si4 0.577903 0.413013 0.061644
Si Si5 0.078224 0.595051 0.064100
Si Si6 0.574964 0.500069 0.359798
Si Si7 0.080039 0.347662 0.830470
Si Si8 0.574482 0.004905 0.759791
O O1 0.250000 0.143825 0.547312
O O2 0.030115 0.250000 0.574878
O O3 0.999898 0.122951 0.499980
O O4 0.025075 0.086267 0.606521
O O5 0.250000 0.855810 0.547413
O O6 0.029497 0.750000 0.574893
O O7 0.025311 0.913900 0.606499
O O8 0.750000 0.635541 0.854115
O O9 0.935587 0.750000 0.809019
O O10 0.976162 0.582117 0.792436
O O11 0.023653 0.654866 0.891812
O O12 0.750000 0.438304 0.070444
O O13 0.475085 0.496505 0.069932
O O14 0.554638 0.371820 0.999725
O O15 0.250000 0.599665 0.081879
O O16 0.983787 0.654056 0.106260
O O17 0.750000 0.500658 0.347930
O O18 0.489230 0.499597 0.301992
O O19 0.250000 0.379590 0.831688
O O20 0.068652 0.250000 0.806202
O O21 0.986771 0.410584 0.790953
O O22 0.750000 0.012655 0.756556
#
# Coordination Sequence:
#
# PCOD8243719 Si02
#       8
#     8   8   8   8   8   8   8   8
#     4   9  18  33  54  81 112 145 181 223 274 331
#     4   9  18  33  54  82 115 148 183 226 276 328
#     4  10  22  40  60  82 112 150 190 237 294 348
#     4  10  20  34  57  87 117 149 187 231 284 345
#     4  10  20  35  57  86 118 150 184 230 286 343
#     4  10  21  36  55  79 111 149 187 230 279 334
#     4  11  24  41  62  86 113 149 191 236 290 349
#     4  11  24  41  60  83 112 149 195 244 289 335
#
# _framework density 19.436845999999999
#
# number of rings (size 3 to 8) (size 9 to 14) (size 15 to 20)
#    0.000    2.000    1.250    1.875    0.000    5.750 
#    0.000    3.750    0.000    0.000    0.000    0.000 
#    0.000    0.000    0.000    0.000    0.000    0.000 
#
# Total GULP energy -793687.985867 kJ/mol
# GULP energy per Si atom -12401.374779 kJ/mol
# Density = 1.939261 g / cm^3
# Si number density = 19.436846 Si / 1000 Ang^3
#
#
#
# Elastic Constant Matrix: (Units=GPa)
#
#
# Indices 1 2 3 4 5 6 
#
# 1 62.6528 41.4255 60.9087 0.0000 0.0000 0.0000
# 2 41.4255 119.8434 76.6375 0.0000 0.0000 0.0000
# 3 60.9087 76.6375 152.8548 0.0000 0.0000 0.0000
# 4 0.0000 0.0000 0.0000 9.8956 0.0000 0.0000
# 5 0.0000 0.0000 0.0000 0.0000 38.1595 0.0000
# 6 0.0000 0.0000 0.0000 0.0000 0.0000 21.7001
#
#
#
# Elastic Compliance Matrix: (Units=1/GPa)
#
#
# Indices 1 2 3 4 5 6 
#
# 1 0.027081 -0.003621 -0.008975 0.000000 0.000000 0.000000
# 2 -0.003621 0.012766 -0.004958 0.000000 0.000000 0.000000
# 3 -0.008975 -0.004958 0.012604 0.000000 0.000000 0.000000
# 4 0.000000 0.000000 0.000000 0.101055 0.000000 0.000000
# 5 0.000000 0.000000 0.000000 0.000000 0.026206 0.000000
# 6 0.000000 0.000000 0.000000 0.000000 0.000000 0.046083
#
#
# Mechanical properties :
#
#
# Convention : Reuss Voigt Hill
#
# Bulk Modulus (GPa) = 57.66115 77.03272 67.34693
# Shear Modulus (GPa) = 18.74874 24.37633 21.56253
#
# Velocity S-wave (km/s) = 3.10917 3.54521 3.33432
# Velocity P-wave (km/s) = 6.52836 7.51508 7.03903
#
# Compressibility (1/GPa) = 0.01734270
#
# Stress axis : x y z
#
# Youngs Moduli (GPa) = 36.92632 78.33103 79.33787
#
# Poissons Ratio (x) = 0.28366 0.71209
# Poissons Ratio (y) = 0.13372 0.39334
# Poissons Ratio (z) = 0.33143 0.38834
#
# Static dielectric constant tensor:
#      x y z
#    x 3.536790 0.000000 0.000000 
#    y 0.000000 3.656570 0.000000 
#    z 0.000000 0.000000 3.542170 
# 
# 
# High freq. dielectric constant tensor:
#      x y z
#    x 1.758620 0.000000 0.000000 
#    y 0.000000 1.761320 0.000000 
#    z 0.000000 0.000000 1.750410 
# 
# From -- ./inp_files/31519.got.cif
#   From: 2010.03.12/outbox.cif.g09.slc.cpg/sg59_16_cif.got.tgz:31519.got - 2010.04.16 16:29:54.
