data_PCOD8243210
_publ_section_title
;
Structure prediction by ZEFSAII (Michael W. Deem and Ramdas Pophale) SiO2 
 PCOD8243210
Probable space group: P M M N
;
_chemical_formula_sum "Si O2"
_cell_formula_units_Z 40
_cell_length_a 21.576894
_cell_length_b 8.812120
_cell_length_c 11.470230
_cell_angle_alpha 90.000000
_cell_angle_beta 90.000000
_cell_angle_gamma 90.000000
_cell_volume 2180.928647
_symmetry_space_group_name_H-M "P M M N"
_symmetry_group_IT_number 59
_space_group.IT_coordinate_system_code '2'
_symmetry_cell_setting 'orthorhombic'
loop_
_space_group_symop_operation_xyz
x,y,z
1/2-x,1/2-y,z
1/2+x,-y,-z
-x,1/2+y,-z
-x,-y,-z
1/2+x,1/2+y,-z
1/2-x,y,z
x,1/2-y,z
loop_
_atom_site_type_symbol
_atom_site_label
_atom_site_fract_x
_atom_site_fract_y
_atom_site_fract_z
Si Si1 0.821104 0.419165 0.195529
Si Si2 0.469514 0.424737 0.182812
Si Si3 0.818565 0.069764 0.458211
Si Si4 0.555663 0.429406 0.574787
Si Si5 0.081154 0.076350 0.938421
O O1 0.750000 0.412388 0.162320
O O2 0.849962 0.250000 0.184104
O O3 0.830869 0.483217 0.325934
O O4 0.850366 0.536042 0.103715
O O5 0.469552 0.250000 0.222766
O O6 0.450363 0.528518 0.290462
O O7 0.537200 0.467952 0.137072
O O8 0.422131 0.455941 0.076617
O O9 0.750000 0.008981 0.500222
O O10 0.816163 0.250000 0.461956
O O11 0.876490 0.008594 0.534239
O O12 0.500000 0.500000 0.500000
O O13 0.551940 0.250000 0.558693
O O14 0.063523 0.250000 0.912527
#
# Coordination Sequence:
#
# PCOD8243210 Si02
#       5
#     8   8   8   8   8
#     4   9  17  31  53  78 103 133 168 207 255 310
#     4  10  21  36  52  72 102 136 169 210 260 313
#     4   8  16  32  52  74 101 134 170 208 252 301
#     4  11  21  33  54  81 107 136 173 217 261 310
#     4  10  20  34  53  75 100 132 170 214 262 309
#
# _framework density 18.340812
#
# number of rings (size 3 to 8) (size 9 to 14) (size 15 to 20)
#    0.000    2.400    0.000    4.200    0.000    4.400 
#    0.000    2.000    0.000    8.400    0.000    0.000 
#    0.000    0.000    0.000    0.000    0.000    0.000 
#
# Total GULP energy -495848.895206 kJ/mol
# GULP energy per Si atom -12396.222380 kJ/mol
# Density = 1.829907 g / cm^3
# Si number density = 18.340812 Si / 1000 Ang^3
#
#
#
# Elastic Constant Matrix: (Units=GPa)
#
#
# Indices 1 2 3 4 5 6 
#
# 1 106.6905 33.7202 65.1340 0.0000 0.0000 0.0000
# 2 33.7202 49.0529 34.1615 0.0000 0.0000 0.0000
# 3 65.1340 34.1615 108.3206 0.0000 0.0000 0.0000
# 4 0.0000 0.0000 0.0000 26.8114 0.0000 0.0000
# 5 0.0000 0.0000 0.0000 0.0000 29.3072 0.0000
# 6 0.0000 0.0000 0.0000 0.0000 0.0000 27.5384
#
#
#
# Elastic Compliance Matrix: (Units=1/GPa)
#
#
# Indices 1 2 3 4 5 6 
#
# 1 0.015876 -0.005466 -0.007823 0.000000 0.000000 0.000000
# 2 -0.005466 0.028006 -0.005546 0.000000 0.000000 0.000000
# 3 -0.007823 -0.005546 0.015685 0.000000 0.000000 0.000000
# 4 0.000000 0.000000 0.000000 0.037298 0.000000 0.000000
# 5 0.000000 0.000000 0.000000 0.000000 0.034121 0.000000
# 6 0.000000 0.000000 0.000000 0.000000 0.000000 0.036313
#
#
# Mechanical properties :
#
#
# Convention : Reuss Voigt Hill
#
# Bulk Modulus (GPa) = 45.66587 58.89951 52.28269
# Shear Modulus (GPa) = 23.55540 25.46795 24.51167
#
# Velocity S-wave (km/s) = 3.58762 3.73043 3.65972
# Velocity P-wave (km/s) = 6.48953 7.12309 6.81368
#
# Compressibility (1/GPa) = 0.02189819
#
# Stress axis : x y z
#
# Youngs Moduli (GPa) = 62.98788 35.70721 63.75674
#
# Poissons Ratio (x) = 0.19517 0.49875
# Poissons Ratio (y) = 0.34428 0.35357
# Poissons Ratio (z) = 0.49273 0.19802
#
# Static dielectric constant tensor:
#      x y z
#    x 3.571930 0.000000 0.000000 
#    y 0.000000 3.240280 0.000000 
#    z 0.000000 0.000000 3.395400 
# 
# 
# High freq. dielectric constant tensor:
#      x y z
#    x 1.711870 0.000000 0.000000 
#    y 0.000000 1.698020 0.000000 
#    z 0.000000 0.000000 1.704500 
# 
# From -- ./inp_files/14083.got.cif
#   From: 2010.03.12/outbox.cif.g09.slc.cpg/sg59_8_cif.got.tgz:14083.got - 2010.04.16 16:29:54.
