data_PCOD8243131
_publ_section_title
;
Structure prediction by ZEFSAII (Michael W. Deem and Ramdas Pophale) SiO2 
 PCOD8243131
Probable space group: P M M N
;
_chemical_formula_sum "Si O2"
_cell_formula_units_Z 64
_cell_length_a 18.565710
_cell_length_b 13.895646
_cell_length_c 13.292602
_cell_angle_alpha 90.000000
_cell_angle_beta 90.000000
_cell_angle_gamma 90.000000
_cell_volume 3429.259146
_symmetry_space_group_name_H-M "P M M N"
_symmetry_group_IT_number 59
_space_group.IT_coordinate_system_code '2'
_symmetry_cell_setting 'orthorhombic'
loop_
_space_group_symop_operation_xyz
x,y,z
1/2-x,1/2-y,z
1/2+x,-y,-z
-x,1/2+y,-z
-x,-y,-z
1/2+x,1/2+y,-z
1/2-x,y,z
x,1/2-y,z
loop_
_atom_site_type_symbol
_atom_site_label
_atom_site_fract_x
_atom_site_fract_y
_atom_site_fract_z
Si Si1 0.954179 0.360415 0.771671
Si Si2 0.902012 0.859683 0.101953
Si Si3 0.333181 0.136943 0.321505
Si Si4 0.546780 0.361875 0.244912
Si Si5 0.414515 0.361668 0.123904
Si Si6 0.832296 0.138861 0.921317
Si Si7 0.668628 0.046757 0.132475
Si Si8 0.532816 0.520843 0.607846
O O1 0.944992 0.250000 0.737099
O O2 0.883203 0.397514 0.830906
O O3 0.963536 0.422253 0.671311
O O4 0.019913 0.369892 0.849349
O O5 0.873031 0.750000 0.111588
O O6 0.848268 0.934460 0.155749
O O7 0.899874 0.899573 0.987519
O O8 0.250000 0.107126 0.342849
O O9 0.345031 0.250000 0.345897
O O10 0.349741 0.117910 0.202762
O O11 0.388568 0.074402 0.390442
O O12 0.535627 0.250000 0.258141
O O13 0.488200 0.407995 0.167121
O O14 0.626221 0.385741 0.209198
O O15 0.529301 0.409469 0.350912
O O16 0.429525 0.250000 0.111384
O O17 0.750000 0.125162 0.886292
O O18 0.849346 0.250000 0.947166
O O19 0.850160 0.076253 0.018825
O O20 0.750000 0.068569 0.158670
O O21 0.500000 0.500000 0.500000
#
# Coordination Sequence:
#
# PCOD8243131 Si02
#       8
#     8   8   8   8   8   8   8   8
#     4  10  21  37  57  79 111 154 193 230 278 336
#     4  10  20  34  51  79 117 154 190 227 269 332
#     4   9  19  37  61  90 121 149 182 231 292 351
#     4  10  20  37  58  82 110 143 185 236 284 332
#     4   8  16  30  53  82 112 145 179 217 269 332
#     4   9  19  34  52  82 120 151 182 221 268 330
#     4  11  22  33  53  82 113 156 195 225 270 333
#     4  11  23  39  61  87 111 144 190 247 296 343
#
# _framework density 18.662922999999999
#
# number of rings (size 3 to 8) (size 9 to 14) (size 15 to 20)
#    0.000    2.250    1.250    2.250    3.500    6.000 
#    0.000    1.875    0.000    0.000    0.000    1.750 
#    0.000    0.000    0.000    0.000    0.000    0.000 
#
# Total GULP energy -793263.812381 kJ/mol
# GULP energy per Si atom -12394.747068 kJ/mol
# Density = 1.862045 g / cm^3
# Si number density = 18.662923 Si / 1000 Ang^3
#
#
#
# Elastic Constant Matrix: (Units=GPa)
#
#
# Indices 1 2 3 4 5 6 
#
# 1 114.4718 47.4276 63.3206 0.0000 0.0000 0.0000
# 2 47.4276 73.1512 35.3684 0.0000 0.0000 0.0000
# 3 63.3206 35.3684 83.7726 0.0000 0.0000 0.0000
# 4 0.0000 0.0000 0.0000 22.8634 0.0000 0.0000
# 5 0.0000 0.0000 0.0000 0.0000 22.5658 0.0000
# 6 0.0000 0.0000 0.0000 0.0000 0.0000 30.0610
#
#
#
# Elastic Compliance Matrix: (Units=1/GPa)
#
#
# Indices 1 2 3 4 5 6 
#
# 1 0.016876 -0.005999 -0.010224 0.000000 0.000000 0.000000
# 2 -0.005999 0.019309 -0.003618 0.000000 0.000000 0.000000
# 3 -0.010224 -0.003618 0.021192 0.000000 0.000000 0.000000
# 4 0.000000 0.000000 0.000000 0.043738 0.000000 0.000000
# 5 0.000000 0.000000 0.000000 0.000000 0.044315 0.000000
# 6 0.000000 0.000000 0.000000 0.000000 0.000000 0.033266
#
#
# Mechanical properties :
#
#
# Convention : Reuss Voigt Hill
#
# Bulk Modulus (GPa) = 56.50687 62.62543 59.56615
# Shear Modulus (GPa) = 22.29403 23.44998 22.87201
#
# Velocity S-wave (km/s) = 3.45999 3.54856 3.50456
# Velocity P-wave (km/s) = 6.80481 7.10061 6.95428
#
# Compressibility (1/GPa) = 0.01769696
#
# Stress axis : x y z
#
# Youngs Moduli (GPa) = 59.25438 51.78978 47.18727
#
# Poissons Ratio (x) = 0.31067 0.48242
# Poissons Ratio (y) = 0.35545 0.17072
# Poissons Ratio (z) = 0.60579 0.18737
#
# Static dielectric constant tensor:
#      x y z
#    x 3.428300 0.000000 0.000000 
#    y 0.000000 3.682220 0.000000 
#    z 0.000000 0.000000 3.118680 
# 
# 
# High freq. dielectric constant tensor:
#      x y z
#    x 1.720790 0.000000 0.000000 
#    y 0.000000 1.743880 0.000000 
#    z 0.000000 0.000000 1.680590 
# 
# From -- ./inp_files/17859.got.cif
#   From: 2010.03.12/outbox.cif.g09.slc.cpg/sg59_9_cif.got.tgz:17859.got - 2010.04.16 16:29:54.
