data_PCOD8243101
_publ_section_title
;
Structure prediction by ZEFSAII (Michael W. Deem and Ramdas Pophale) SiO2 
 PCOD8243101
Probable space group: P M M N
;
_chemical_formula_sum "Si O2"
_cell_formula_units_Z 64
_cell_length_a 8.826579
_cell_length_b 27.635473
_cell_length_c 14.466625
_cell_angle_alpha 90.000000
_cell_angle_beta 90.000000
_cell_angle_gamma 90.000000
_cell_volume 3528.795889
_symmetry_space_group_name_H-M "P M M N"
_symmetry_group_IT_number 59
_space_group.IT_coordinate_system_code '2'
_symmetry_cell_setting 'orthorhombic'
loop_
_space_group_symop_operation_xyz
x,y,z
1/2-x,1/2-y,z
1/2+x,-y,-z
-x,1/2+y,-z
-x,-y,-z
1/2+x,1/2+y,-z
1/2-x,y,z
x,1/2-y,z
loop_
_atom_site_type_symbol
_atom_site_label
_atom_site_fract_x
_atom_site_fract_y
_atom_site_fract_z
Si Si1 0.424742 0.616624 0.965512
Si Si2 0.428463 0.611840 0.519507
Si Si3 0.077885 0.465426 0.145992
Si Si4 0.572116 0.804688 0.846298
Si Si5 0.928425 0.927461 0.347276
Si Si6 0.572234 0.195167 0.344170
Si Si7 0.425780 0.574969 0.159363
Si Si8 0.924481 0.531066 0.641384
O O1 0.250000 0.627162 0.946864
O O2 0.466946 0.567618 0.912912
O O3 0.519574 0.662216 0.930779
O O4 0.457799 0.610812 0.074463
O O5 0.250000 0.610961 0.500880
O O6 0.518057 0.611870 0.422611
O O7 0.478928 0.660705 0.572220
O O8 0.473422 0.565397 0.579246
O O9 0.250000 0.456715 0.112808
O O10 0.027734 0.520725 0.129475
O O11 0.060904 0.451581 0.253253
O O12 0.750000 0.808239 0.837535
O O13 0.517589 0.750000 0.866262
O O14 0.504171 0.823635 0.749950
O O15 0.750000 0.935741 0.352010
O O16 0.974433 0.907709 0.246105
O O17 0.015023 0.976931 0.370245
O O18 0.750000 0.191884 0.327991
O O19 0.520613 0.250000 0.367463
O O20 0.250000 0.574774 0.189422
O O21 0.750000 0.532724 0.608178
#
# Coordination Sequence:
#
# PCOD8243101 Si02
#       8
#     8   8   8   8   8   8   8   8
#     4  11  21  32  52  78 103 133 170 211 252 298
#     4  11  21  33  52  76 103 134 168 208 253 302
#     4   9  18  32  50  73 105 139 168 204 248 297
#     4  10  21  36  54  77 106 137 166 202 251 302
#     4  11  22  35  52  73  99 134 174 213 253 296
#     4   9  19  36  57  80 104 131 165 204 247 298
#     4   9  20  37  52  71 101 136 172 210 252 294
#     4  10  20  34  50  72 105 139 172 209 248 295
#
# _framework density 18.136496999999999
#
# number of rings (size 3 to 8) (size 9 to 14) (size 15 to 20)
#    0.000    2.000    0.000    4.875    0.000    7.250 
#    0.000    0.000    0.000    0.750    0.000    1.750 
#    0.000    0.000    0.000    0.000    0.000    0.000 
#
# Total GULP energy -793832.966249 kJ/mol
# GULP energy per Si atom -12403.640098 kJ/mol
# Density = 1.809522 g / cm^3
# Si number density = 18.136497 Si / 1000 Ang^3
#
#
#
# Elastic Constant Matrix: (Units=GPa)
#
#
# Indices 1 2 3 4 5 6 
#
# 1 51.3497 23.3583 34.8174 0.0000 0.0000 0.0000
# 2 23.3583 71.6295 53.9017 0.0000 0.0000 0.0000
# 3 34.8174 53.9017 100.0165 0.0000 0.0000 0.0000
# 4 0.0000 0.0000 0.0000 28.1257 0.0000 0.0000
# 5 0.0000 0.0000 0.0000 0.0000 30.2590 0.0000
# 6 0.0000 0.0000 0.0000 0.0000 0.0000 25.0242
#
#
#
# Elastic Compliance Matrix: (Units=1/GPa)
#
#
# Indices 1 2 3 4 5 6 
#
# 1 0.025817 -0.002786 -0.007486 0.000000 0.000000 0.000000
# 2 -0.002786 0.023786 -0.011849 0.000000 0.000000 0.000000
# 3 -0.007486 -0.011849 0.018990 0.000000 0.000000 0.000000
# 4 0.000000 0.000000 0.000000 0.035555 0.000000 0.000000
# 5 0.000000 0.000000 0.000000 0.000000 0.033048 0.000000
# 6 0.000000 0.000000 0.000000 0.000000 0.000000 0.039961
#
#
# Mechanical properties :
#
#
# Convention : Reuss Voigt Hill
#
# Bulk Modulus (GPa) = 41.06516 49.68337 45.37427
# Shear Modulus (GPa) = 21.78497 24.07633 22.93065
#
# Velocity S-wave (km/s) = 3.46955 3.64745 3.55961
# Velocity P-wave (km/s) = 6.22429 6.72251 6.47819
#
# Compressibility (1/GPa) = 0.02435154
#
# Stress axis : x y z
#
# Youngs Moduli (GPa) = 38.73349 42.04232 52.65876
#
# Poissons Ratio (x) = 0.11711 0.39422
# Poissons Ratio (y) = 0.10790 0.62395
# Poissons Ratio (z) = 0.28997 0.49816
#
# Static dielectric constant tensor:
#      x y z
#    x 3.349490 0.000000 0.000000 
#    y 0.000000 3.296620 0.000000 
#    z 0.000000 0.000000 3.455420 
# 
# 
# High freq. dielectric constant tensor:
#      x y z
#    x 1.710040 0.000000 0.000000 
#    y 0.000000 1.680500 0.000000 
#    z 0.000000 0.000000 1.703290 
# 
# From -- ./inp_files/21583.got.cif
#   From: 2010.03.12/outbox.cif.g09.slc.cpg/sg59_11_cif.got.tgz:21583.got - 2010.04.16 16:29:54.
