data_PCOD8243076
_publ_section_title
;
Structure prediction by ZEFSAII (Michael W. Deem and Ramdas Pophale) SiO2 
 PCOD8243076
Probable space group: P M M N
;
_chemical_formula_sum "Si O2"
_cell_formula_units_Z 48
_cell_length_a 18.155564
_cell_length_b 8.903411
_cell_length_c 14.519510
_cell_angle_alpha 90.000000
_cell_angle_beta 90.000000
_cell_angle_gamma 90.000000
_cell_volume 2347.027222
_symmetry_space_group_name_H-M "P M M N"
_symmetry_group_IT_number 59
_space_group.IT_coordinate_system_code '2'
_symmetry_cell_setting 'orthorhombic'
loop_
_space_group_symop_operation_xyz
x,y,z
1/2-x,1/2-y,z
1/2+x,-y,-z
-x,1/2+y,-z
-x,-y,-z
1/2+x,1/2+y,-z
1/2-x,y,z
x,1/2-y,z
loop_
_atom_site_type_symbol
_atom_site_label
_atom_site_fract_x
_atom_site_fract_y
_atom_site_fract_z
Si Si1 0.250000 0.924593 0.519910
Si Si2 0.750000 0.928422 0.282137
Si Si3 0.170726 0.074548 0.175437
Si Si4 0.399048 0.927837 0.751793
Si Si5 0.480965 0.428253 0.096360
Si Si6 0.646641 0.082752 0.641806
Si Si7 0.516540 0.579731 0.405393
O O1 0.250000 0.750000 0.550236
O O2 0.177526 0.965357 0.458864
O O3 0.250000 0.024680 0.610887
O O4 0.750000 0.750000 0.274173
O O5 0.820766 0.994407 0.228154
O O6 0.250000 0.033912 0.127360
O O7 0.157905 0.250000 0.176118
O O8 0.099510 0.004393 0.124530
O O9 0.177750 0.025633 0.280883
O O10 0.389293 0.750000 0.747928
O O11 0.457714 0.977567 0.829192
O O12 0.424306 0.984898 0.651591
O O13 0.479450 0.250000 0.086440
O O14 0.500000 0.500000 0.000000
O O15 0.676226 0.250000 0.661905
O O16 0.559259 0.078952 0.649923
O O17 0.500000 0.500000 0.500000
O O18 0.545321 0.750000 0.420462
#
# Coordination Sequence:
#
# PCOD8243076 Si02
#       7
#     4   4   8   8   8   8   8
#     4  10  20  36  56  85 128 173 212 259 314 368
#     4  12  26  42  62  91 122 165 220 269 322 382
#     4  10  20  37  62  92 125 158 197 247 307 371
#     4  11  23  43  66  88 124 169 213 267 325 383
#     4  10  23  43  68  96 126 164 207 260 325 386
#     4  10  20  33  54  84 120 160 204 250 302 362
#     4  11  22  35  56  88 122 164 215 263 314 377
#
# _framework density 20.451404
#
# number of rings (size 3 to 8) (size 9 to 14) (size 15 to 20)
#    0.000    1.500    2.500    2.750    0.000    4.667 
#    1.500    0.000    0.000    0.000    0.000    0.000 
#    0.000    0.000    0.000    0.000    0.000    0.000 
#
# Total GULP energy -595076.058494 kJ/mol
# GULP energy per Si atom -12397.417885 kJ/mol
# Density = 2.040486 g / cm^3
# Si number density = 20.451404 Si / 1000 Ang^3
#
#
#
# Elastic Constant Matrix: (Units=GPa)
#
#
# Indices 1 2 3 4 5 6 
#
# 1 163.8030 58.1358 57.4434 0.0000 0.0000 0.0000
# 2 58.1358 68.1803 36.6508 0.0000 0.0000 0.0000
# 3 57.4434 36.6508 107.8323 0.0000 0.0000 0.0000
# 4 0.0000 0.0000 0.0000 35.2500 0.0000 0.0000
# 5 0.0000 0.0000 0.0000 0.0000 22.2673 0.0000
# 6 0.0000 0.0000 0.0000 0.0000 0.0000 24.6838
#
#
#
# Elastic Compliance Matrix: (Units=1/GPa)
#
#
# Indices 1 2 3 4 5 6 
#
# 1 0.009394 -0.006509 -0.002792 0.000000 0.000000 0.000000
# 2 -0.006509 0.022456 -0.004165 0.000000 0.000000 0.000000
# 3 -0.002792 -0.004165 0.012177 0.000000 0.000000 0.000000
# 4 0.000000 0.000000 0.000000 0.028369 0.000000 0.000000
# 5 0.000000 0.000000 0.000000 0.000000 0.044909 0.000000
# 6 0.000000 0.000000 0.000000 0.000000 0.000000 0.040512
#
#
# Mechanical properties :
#
#
# Convention : Reuss Voigt Hill
#
# Bulk Modulus (GPa) = 58.49846 71.58618 65.04232
# Shear Modulus (GPa) = 26.25387 28.94594 27.59990
#
# Velocity S-wave (km/s) = 3.58679 3.76620 3.67759
# Velocity P-wave (km/s) = 6.76898 7.34788 7.06437
#
# Compressibility (1/GPa) = 0.01709447
#
# Stress axis : x y z
#
# Youngs Moduli (GPa) = 106.44776 44.53083 82.12483
#
# Poissons Ratio (x) = 0.28987 0.22929
# Poissons Ratio (y) = 0.69292 0.34205
# Poissons Ratio (z) = 0.29720 0.18547
#
# Static dielectric constant tensor:
#      x y z
#    x 4.440460 0.000000 0.000000 
#    y 0.000000 3.544630 0.000000 
#    z 0.000000 0.000000 3.420310 
# 
# 
# High freq. dielectric constant tensor:
#      x y z
#    x 1.827010 0.000000 0.000000 
#    y 0.000000 1.792590 0.000000 
#    z 0.000000 0.000000 1.773320 
# 
# From -- ./inp_files/23709.got.cif
#   From: 2010.03.12/outbox.cif.g09.slc.cpg/sg59_12_cif.got.tgz:23709.got - 2010.04.16 16:29:54.
