data_PCOD8243156
_publ_section_title
;
Structure prediction by ZEFSAII (Michael W. Deem and Ramdas Pophale) SiO2 
 PCOD8243156
Probable space group: P M M N
;
_chemical_formula_sum "Si O2"
_cell_formula_units_Z 64
_cell_length_a 9.305314
_cell_length_b 27.362465
_cell_length_c 13.759018
_cell_angle_alpha 90.000000
_cell_angle_beta 90.000000
_cell_angle_gamma 90.000000
_cell_volume 3503.270649
_symmetry_space_group_name_H-M "P M M N"
_symmetry_group_IT_number 59
_space_group.IT_coordinate_system_code '2'
_symmetry_cell_setting 'orthorhombic'
loop_
_space_group_symop_operation_xyz
x,y,z
1/2-x,1/2-y,z
1/2+x,-y,-z
-x,1/2+y,-z
-x,-y,-z
1/2+x,1/2+y,-z
1/2-x,y,z
x,1/2-y,z
loop_
_atom_site_type_symbol
_atom_site_label
_atom_site_fract_x
_atom_site_fract_y
_atom_site_fract_z
Si Si1 0.084836 0.612336 0.197445
Si Si2 0.914789 0.305208 0.322782
Si Si3 0.916376 0.306054 0.952396
Si Si4 0.911053 0.808056 0.862533
Si Si5 0.914752 0.474669 0.276552
Si Si6 0.413996 0.602372 0.562257
Si Si7 0.083481 0.076861 0.627168
Si Si8 0.081475 0.510325 0.099340
O O1 0.250000 0.611597 0.230340
O O2 0.045095 0.661892 0.141326
O O3 0.051276 0.566346 0.128330
O O4 0.989801 0.612240 0.294218
O O5 0.750000 0.306873 0.287794
O O6 0.959155 0.250000 0.352840
O O7 0.938450 0.340202 0.415454
O O8 0.009370 0.325854 0.234296
O O9 0.750000 0.311464 0.980683
O O10 0.956082 0.250000 0.928262
O O11 0.006540 0.327368 0.042525
O O12 0.750000 0.829273 0.862995
O O13 0.911974 0.750000 0.864669
O O14 0.750000 0.475219 0.240107
O O15 0.949752 0.426851 0.339159
O O16 0.946146 0.520942 0.345226
O O17 0.017918 0.474999 0.182877
O O18 0.250000 0.591962 0.529993
O O19 0.519538 0.585805 0.478459
O O20 0.250000 0.089927 0.624001
O O21 0.250000 0.499356 0.087004
O O22 0.000000 0.500000 0.000000
#
# Coordination Sequence:
#
# PCOD8243156 Si02
#       8
#     8   8   8   8   8   8   8   8
#     4   9  19  35  53  72  97 131 166 200 243 291
#     4   9  18  33  51  71  97 130 166 200 236 284
#     4   9  17  31  52  75  97 126 167 208 241 282
#     4   9  17  29  46  69  98 130 160 196 244 289
#     4   9  19  35  53  75 101 128 162 203 245 289
#     4  10  20  34  54  76  98 127 163 205 248 289
#     4  10  20  34  53  75  99 127 160 202 250 296
#     4  10  20  34  52  74 103 136 165 197 240 291
#
# _framework density 18.268643999999998
#
# number of rings (size 3 to 8) (size 9 to 14) (size 15 to 20)
#    0.000    2.625    0.000    1.500    0.000    5.000 
#    0.000    5.625    0.000    3.750    0.000    0.000 
#    0.000    0.000    0.000    0.000    0.000    0.000 
#
# Total GULP energy -793707.508906 kJ/mol
# GULP energy per Si atom -12401.679827 kJ/mol
# Density = 1.822706 g / cm^3
# Si number density = 18.268644 Si / 1000 Ang^3
#
#
#
# Elastic Constant Matrix: (Units=GPa)
#
#
# Indices 1 2 3 4 5 6 
#
# 1 103.3652 33.9957 68.7629 0.0000 0.0000 0.0000
# 2 33.9957 63.5972 40.6737 0.0000 0.0000 0.0000
# 3 68.7629 40.6737 108.9895 0.0000 0.0000 0.0000
# 4 0.0000 0.0000 0.0000 20.7221 0.0000 0.0000
# 5 0.0000 0.0000 0.0000 0.0000 39.6895 0.0000
# 6 0.0000 0.0000 0.0000 0.0000 0.0000 19.4946
#
#
#
# Elastic Compliance Matrix: (Units=1/GPa)
#
#
# Indices 1 2 3 4 5 6 
#
# 1 0.017080 -0.002940 -0.009679 0.000000 0.000000 0.000000
# 2 -0.002940 0.021159 -0.006042 0.000000 0.000000 0.000000
# 3 -0.009679 -0.006042 0.017536 0.000000 0.000000 0.000000
# 4 0.000000 0.000000 0.000000 0.048258 0.000000 0.000000
# 5 0.000000 0.000000 0.000000 0.000000 0.025196 0.000000
# 6 0.000000 0.000000 0.000000 0.000000 0.000000 0.051296
#
#
# Mechanical properties :
#
#
# Convention : Reuss Voigt Hill
#
# Bulk Modulus (GPa) = 54.18586 62.53517 58.36052
# Shear Modulus (GPa) = 22.32160 24.81588 23.56874
#
# Velocity S-wave (km/s) = 3.49929 3.68963 3.59572
# Velocity P-wave (km/s) = 6.78614 7.24267 7.01812
#
# Compressibility (1/GPa) = 0.01845500
#
# Stress axis : x y z
#
# Youngs Moduli (GPa) = 58.54723 47.26023 57.02415
#
# Poissons Ratio (x) = 0.13894 0.55193
# Poissons Ratio (y) = 0.17213 0.34452
# Poissons Ratio (z) = 0.56668 0.28553
#
# Static dielectric constant tensor:
#      x y z
#    x 3.476800 0.000000 0.000000 
#    y 0.000000 3.346230 0.000000 
#    z 0.000000 0.000000 3.218550 
# 
# 
# High freq. dielectric constant tensor:
#      x y z
#    x 1.711310 0.000000 0.000000 
#    y 0.000000 1.697310 0.000000 
#    z 0.000000 0.000000 1.700480 
# 
# From -- ./inp_files/15020.got.cif
#   From: 2010.03.12/outbox.cif.g09.slc.cpg/sg59_8_cif.got.tgz:15020.got - 2010.04.16 16:29:54.
