data_PCOD8243539
_publ_section_title
;
Structure prediction by ZEFSAII (Michael W. Deem and Ramdas Pophale) SiO2 
 PCOD8243539
Probable space group: P M M N
;
_chemical_formula_sum "Si O2"
_cell_formula_units_Z 64
_cell_length_a 23.285153
_cell_length_b 13.741913
_cell_length_c 10.066254
_cell_angle_alpha 90.000000
_cell_angle_beta 90.000000
_cell_angle_gamma 90.000000
_cell_volume 3221.025591
_symmetry_space_group_name_H-M "P M M N"
_symmetry_group_IT_number 59
_space_group.IT_coordinate_system_code '2'
_symmetry_cell_setting 'orthorhombic'
loop_
_space_group_symop_operation_xyz
x,y,z
1/2-x,1/2-y,z
1/2+x,-y,-z
-x,1/2+y,-z
-x,-y,-z
1/2+x,1/2+y,-z
1/2-x,y,z
x,1/2-y,z
loop_
_atom_site_type_symbol
_atom_site_label
_atom_site_fract_x
_atom_site_fract_y
_atom_site_fract_z
Si Si1 0.001061 0.136962 0.466879
Si Si2 0.316644 0.523756 0.672691
Si Si3 0.613154 0.049554 0.830931
Si Si4 0.004267 0.140204 0.908704
Si Si5 0.909293 0.863609 0.317917
Si Si6 0.056839 0.139123 0.191214
Si Si7 0.123327 0.865181 0.450404
Si Si8 0.682301 0.360620 0.066491
O O1 0.997713 0.250000 0.496024
O O2 0.938700 0.093763 0.502531
O O3 0.048779 0.094361 0.566997
O O4 0.016513 0.112662 0.315783
O O5 0.250000 0.497124 0.680931
O O6 0.350101 0.422035 0.676993
O O7 0.328294 0.583201 0.538365
O O8 0.336031 0.592361 0.794330
O O9 0.547174 0.071852 0.864763
O O10 0.634697 0.106155 0.701632
O O11 0.612362 0.932184 0.809588
O O12 0.654955 0.076647 0.949622
O O13 0.983817 0.250000 0.879895
O O14 0.061241 0.117472 0.824354
O O15 0.017374 0.123975 0.062704
O O16 0.894721 0.750000 0.339602
O O17 0.079982 0.250000 0.200446
O O18 0.129328 0.750000 0.467195
O O19 0.750000 0.362228 0.046551
O O20 0.658667 0.250000 0.063071
#
# Coordination Sequence:
#
# PCOD8243539 Si02
#       8
#     8   8   8   8   8   8   8   8
#     4   9  19  36  56  85 119 155 190 231 296 358
#     4  11  25  41  60  87 117 159 208 245 289 347
#     4  12  22  36  62  87 116 156 197 240 294 359
#     4  10  20  34  54  87 122 151 191 241 294 350
#     4  10  20  38  62  87 123 159 193 243 296 349
#     4  10  22  35  52  84 123 157 191 233 286 351
#     4  11  23  38  60  88 120 153 194 248 300 357
#     4  10  23  43  62  83 116 155 199 251 299 348
#
# _framework density 19.869447999999998
#
# number of rings (size 3 to 8) (size 9 to 14) (size 15 to 20)
#    0.000    1.625    1.250    3.375    3.500    2.500 
#    0.000    0.000    0.000    1.125    0.000    0.000 
#    0.000    0.000    0.000    0.000    0.000    0.000 
#
# Total GULP energy -793835.117785 kJ/mol
# GULP energy per Si atom -12403.673715 kJ/mol
# Density = 1.982422 g / cm^3
# Si number density = 19.869448 Si / 1000 Ang^3
#
#
#
# Elastic Constant Matrix: (Units=GPa)
#
#
# Indices 1 2 3 4 5 6 
#
# 1 49.3930 15.1363 32.8035 0.0000 0.0000 0.0000
# 2 15.1363 73.9250 18.1609 0.0000 0.0000 0.0000
# 3 32.8035 18.1609 124.0125 0.0000 0.0000 0.0000
# 4 0.0000 0.0000 0.0000 26.1738 0.0000 0.0000
# 5 0.0000 0.0000 0.0000 0.0000 20.2713 0.0000
# 6 0.0000 0.0000 0.0000 0.0000 0.0000 29.5961
#
#
#
# Elastic Compliance Matrix: (Units=1/GPa)
#
#
# Indices 1 2 3 4 5 6 
#
# 1 0.025499 -0.003697 -0.006203 0.000000 0.000000 0.000000
# 2 -0.003697 0.014568 -0.001156 0.000000 0.000000 0.000000
# 3 -0.006203 -0.001156 0.009874 0.000000 0.000000 0.000000
# 4 0.000000 0.000000 0.000000 0.038206 0.000000 0.000000
# 5 0.000000 0.000000 0.000000 0.000000 0.049331 0.000000
# 6 0.000000 0.000000 0.000000 0.000000 0.000000 0.033788
#
#
# Mechanical properties :
#
#
# Convention : Reuss Voigt Hill
#
# Bulk Modulus (GPa) = 35.93407 42.17022 39.05214
# Shear Modulus (GPa) = 24.67264 27.29023 25.98144
#
# Velocity S-wave (km/s) = 3.52765 3.71007 3.62001
# Velocity P-wave (km/s) = 5.89210 6.29464 6.09669
#
# Compressibility (1/GPa) = 0.02782875
#
# Stress axis : x y z
#
# Youngs Moduli (GPa) = 39.21786 68.64342 101.27774
#
# Poissons Ratio (x) = 0.25377 0.62827
# Poissons Ratio (y) = 0.14499 0.11703
# Poissons Ratio (z) = 0.24329 0.07932
#
# Static dielectric constant tensor:
#      x y z
#    x 3.311990 0.000000 0.000000 
#    y 0.000000 3.827190 0.000000 
#    z 0.000000 0.000000 3.764800 
# 
# 
# High freq. dielectric constant tensor:
#      x y z
#    x 1.740280 0.000000 0.000000 
#    y 0.000000 1.790570 0.000000 
#    z 0.000000 0.000000 1.793490 
# 
# From -- ./inp_files/12224.got.cif
#   From: 2010.03.12/outbox.cif.g09.slc.cpg/sg59_7_cif.got.tgz:12224.got - 2010.04.16 16:29:54.
