data_PCOD8243709
_publ_section_title
;
Structure prediction by ZEFSAII (Michael W. Deem and Ramdas Pophale) SiO2 
 PCOD8243709
Probable space group: P M M N
;
_chemical_formula_sum "Si O2"
_cell_formula_units_Z 64
_cell_length_a 18.877812
_cell_length_b 14.022365
_cell_length_c 12.222542
_cell_angle_alpha 90.000000
_cell_angle_beta 90.000000
_cell_angle_gamma 90.000000
_cell_volume 3235.448285
_symmetry_space_group_name_H-M "P M M N"
_symmetry_group_IT_number 59
_space_group.IT_coordinate_system_code '2'
_symmetry_cell_setting 'orthorhombic'
loop_
_space_group_symop_operation_xyz
x,y,z
1/2-x,1/2-y,z
1/2+x,-y,-z
-x,1/2+y,-z
-x,-y,-z
1/2+x,1/2+y,-z
1/2-x,y,z
x,1/2-y,z
loop_
_atom_site_type_symbol
_atom_site_label
_atom_site_fract_x
_atom_site_fract_y
_atom_site_fract_z
Si Si1 0.920146 0.969124 0.001644
Si Si2 0.670781 0.024894 0.694970
Si Si3 0.933654 0.638605 0.439709
Si Si4 0.110298 0.644321 0.118496
Si Si5 0.830574 0.021894 0.449558
Si Si6 0.421043 0.359728 0.217086
Si Si7 0.543329 0.140770 0.374715
Si Si8 0.951265 0.644607 0.194406
O O1 0.911377 0.888050 0.908990
O O2 0.872635 0.063418 0.973963
O O3 0.900837 0.924542 0.120631
O O4 0.000000 0.000000 0.000000
O O5 0.750000 0.996578 0.728051
O O6 0.667038 0.064513 0.571702
O O7 0.625825 0.928512 0.707933
O O8 0.645925 0.113271 0.768558
O O9 0.919289 0.750000 0.453855
O O10 0.858484 0.586749 0.457020
O O11 0.960693 0.608586 0.318489
O O12 0.993089 0.604316 0.525889
O O13 0.137792 0.750000 0.083554
O O14 0.026706 0.647861 0.136375
O O15 0.750000 0.023901 0.403097
O O16 0.883469 0.082037 0.372178
O O17 0.397200 0.250000 0.233688
O O18 0.502334 0.372543 0.258949
O O19 0.563880 0.250000 0.394081
O O20 0.916823 0.750000 0.195493
#
# Coordination Sequence:
#
# PCOD8243709 Si02
#       8
#     8   8   8   8   8   8   8   8
#     4   9  18  30  52  81 112 140 175 228 281 324
#     4  10  21  34  51  80 112 147 180 222 284 339
#     4  10  20  34  57  83 112 149 187 231 278 327
#     4   9  18  32  50  77 109 141 179 223 272 325
#     4  11  23  35  53  79 115 153 184 226 273 329
#     4  10  20  35  56  83 111 142 179 228 281 334
#     4  10  21  36  57  83 110 146 188 230 279 328
#     4   9  17  30  52  82 110 141 182 231 279 321
#
# _framework density 19.780875999999999
#
# number of rings (size 3 to 8) (size 9 to 14) (size 15 to 20)
#    0.000    2.250    1.250    1.500    5.250    3.000 
#    0.000    2.500    0.000    3.000    0.000    3.500 
#    0.000    0.000    0.000    0.000    0.000    0.000 
#
# Total GULP energy -793168.387942 kJ/mol
# GULP energy per Si atom -12393.256062 kJ/mol
# Density = 1.973585 g / cm^3
# Si number density = 19.780876 Si / 1000 Ang^3
#
#
#
# Elastic Constant Matrix: (Units=GPa)
#
#
# Indices 1 2 3 4 5 6 
#
# 1 79.2855 38.4885 -1.8846 0.0000 0.0000 0.0000
# 2 38.4885 81.9888 2.7007 0.0000 0.0000 0.0000
# 3 -1.8846 2.7007 52.7316 0.0000 0.0000 0.0000
# 4 0.0000 0.0000 0.0000 21.8141 0.0000 0.0000
# 5 0.0000 0.0000 0.0000 0.0000 17.0805 0.0000
# 6 0.0000 0.0000 0.0000 0.0000 0.0000 12.9135
#
#
#
# Elastic Compliance Matrix: (Units=1/GPa)
#
#
# Indices 1 2 3 4 5 6 
#
# 1 0.016386 -0.007724 0.000981 0.000000 0.000000 0.000000
# 2 -0.007724 0.015859 -0.001088 0.000000 0.000000 0.000000
# 3 0.000981 -0.001088 0.019055 0.000000 0.000000 0.000000
# 4 0.000000 0.000000 0.000000 0.045842 0.000000 0.000000
# 5 0.000000 0.000000 0.000000 0.000000 0.058546 0.000000
# 6 0.000000 0.000000 0.000000 0.000000 0.000000 0.077438
#
#
# Mechanical properties :
#
#
# Convention : Reuss Voigt Hill
#
# Bulk Modulus (GPa) = 28.06123 32.51280 30.28701
# Shear Modulus (GPa) = 19.18155 22.00839 20.59497
#
# Velocity S-wave (km/s) = 3.11738 3.33920 3.23019
# Velocity P-wave (km/s) = 5.21289 5.59814 5.40895
#
# Compressibility (1/GPa) = 0.03563636
#
# Stress axis : x y z
#
# Youngs Moduli (GPa) = 61.02880 63.05676 52.48032
#
# Poissons Ratio (x) = 0.48707 -0.05150
# Poissons Ratio (y) = 0.47141 0.05711
# Poissons Ratio (z) = -0.05988 0.06862
#
# Static dielectric constant tensor:
#      x y z
#    x 3.273900 0.000000 0.000000 
#    y 0.000000 4.011650 0.000000 
#    z 0.000000 0.000000 3.712600 
# 
# 
# High freq. dielectric constant tensor:
#      x y z
#    x 1.723520 0.000000 0.000000 
#    y 0.000000 1.784020 0.000000 
#    z 0.000000 0.000000 1.765840 
# 
# From -- ./inp_files/17882.got.cif
#   From: 2010.03.12/outbox.cif.g09.slc.cpg/sg59_9_cif.got.tgz:17882.got - 2010.04.16 16:29:54.
