data_PCOD8243132
_publ_section_title
;
Structure prediction by ZEFSAII (Michael W. Deem and Ramdas Pophale) SiO2 
 PCOD8243132
Probable space group: P M M N
;
_chemical_formula_sum "Si O2"
_cell_formula_units_Z 64
_cell_length_a 9.549143
_cell_length_b 17.865522
_cell_length_c 20.556910
_cell_angle_alpha 90.000000
_cell_angle_beta 90.000000
_cell_angle_gamma 90.000000
_cell_volume 3507.017569
_symmetry_space_group_name_H-M "P M M N"
_symmetry_group_IT_number 59
_space_group.IT_coordinate_system_code '2'
_symmetry_cell_setting 'orthorhombic'
loop_
_space_group_symop_operation_xyz
x,y,z
1/2-x,1/2-y,z
1/2+x,-y,-z
-x,1/2+y,-z
-x,-y,-z
1/2+x,1/2+y,-z
1/2-x,y,z
x,1/2-y,z
loop_
_atom_site_type_symbol
_atom_site_label
_atom_site_fract_x
_atom_site_fract_y
_atom_site_fract_z
Si Si1 0.086332 0.406453 0.876113
Si Si2 0.593205 0.661090 0.643509
Si Si3 0.087116 0.662490 0.762663
Si Si4 0.091959 0.660806 0.382250
Si Si5 0.589059 0.163674 0.986511
Si Si6 0.910702 0.836575 0.260930
Si Si7 0.907598 0.839108 0.499604
Si Si8 0.084032 0.576502 0.888305
O O1 0.250000 0.396854 0.891598
O O2 0.052983 0.384889 0.802218
O O3 0.034157 0.490922 0.887564
O O4 0.001154 0.351668 0.922668
O O5 0.750000 0.632501 0.658447
O O6 0.589544 0.750000 0.644204
O O7 0.489637 0.629949 0.698716
O O8 0.545908 0.633178 0.571661
O O9 0.250000 0.645838 0.752560
O O10 0.057824 0.750000 0.773304
O O11 0.024879 0.619338 0.825095
O O12 0.250000 0.629324 0.380346
O O13 0.091741 0.750000 0.384448
O O14 0.009253 0.633267 0.318507
O O15 0.014643 0.627969 0.446185
O O16 0.750000 0.142337 0.971988
O O17 0.575475 0.250000 0.006184
O O18 0.526925 0.115262 0.046222
O O19 0.750000 0.847691 0.282601
O O20 0.940795 0.750000 0.244853
O O21 0.750000 0.867053 0.484217
O O22 0.910029 0.750000 0.496979
O O23 0.250000 0.583437 0.886806
#
# Coordination Sequence:
#
# PCOD8243132 Si02
#       8
#     8   8   8   8   8   8   8   8
#     4  10  20  34  52  72  95 124 159 198 234 273
#     4   8  14  24  38  59  89 122 154 190 233 278
#     4   9  16  27  45  67  91 122 159 195 231 277
#     4   9  16  24  37  60  88 116 148 188 230 272
#     4  10  20  34  53  75  99 127 156 189 233 283
#     4   9  17  29  44  62  86 117 151 186 228 277
#     4   8  13  22  36  55  84 121 153 183 227 280
#     4   9  18  33  51  71  96 126 159 193 232 279
#
# _framework density 18.249124999999999
#
# number of rings (size 3 to 8) (size 9 to 14) (size 15 to 20)
#    0.000    3.000    0.000    2.250    0.000    4.750 
#    0.000    5.000    0.000    1.500    0.000    0.875 
#    0.000    0.000    0.000    0.000    0.000    0.000 
#
# Total GULP energy -793468.189301 kJ/mol
# GULP energy per Si atom -12397.940458 kJ/mol
# Density = 1.820759 g / cm^3
# Si number density = 18.249125 Si / 1000 Ang^3
#
#
#
# Elastic Constant Matrix: (Units=GPa)
#
#
# Indices 1 2 3 4 5 6 
#
# 1 79.9528 18.5953 66.4972 0.0000 0.0000 0.0000
# 2 18.5953 38.5315 24.3710 0.0000 0.0000 0.0000
# 3 66.4972 24.3710 132.9904 0.0000 0.0000 0.0000
# 4 0.0000 0.0000 0.0000 7.3784 0.0000 0.0000
# 5 0.0000 0.0000 0.0000 0.0000 34.0792 0.0000
# 6 0.0000 0.0000 0.0000 0.0000 0.0000 12.6227
#
#
#
# Elastic Compliance Matrix: (Units=1/GPa)
#
#
# Indices 1 2 3 4 5 6 
#
# 1 0.021979 -0.004135 -0.010232 0.000000 0.000000 0.000000
# 2 -0.004135 0.030133 -0.003454 0.000000 0.000000 0.000000
# 3 -0.010232 -0.003454 0.013269 0.000000 0.000000 0.000000
# 4 0.000000 0.000000 0.000000 0.135530 0.000000 0.000000
# 5 0.000000 0.000000 0.000000 0.000000 0.029343 0.000000
# 6 0.000000 0.000000 0.000000 0.000000 0.000000 0.079222
#
#
# Mechanical properties :
#
#
# Convention : Reuss Voigt Hill
#
# Bulk Modulus (GPa) = 33.62756 52.26688 42.94722
# Shear Modulus (GPa) = 14.08317 20.28348 17.18333
#
# Velocity S-wave (km/s) = 2.78099 3.33750 3.07187
# Velocity P-wave (km/s) = 5.36459 6.59961 6.01389
#
# Compressibility (1/GPa) = 0.02973751
#
# Stress axis : x y z
#
# Youngs Moduli (GPa) = 45.49731 33.18581 75.36602
#
# Poissons Ratio (x) = 0.13724 0.77116
# Poissons Ratio (y) = 0.18815 0.26034
# Poissons Ratio (z) = 0.46554 0.11463
#
# Static dielectric constant tensor:
#      x y z
#    x 3.319730 0.000000 0.000000 
#    y 0.000000 2.977130 0.000000 
#    z 0.000000 0.000000 3.626700 
# 
# 
# High freq. dielectric constant tensor:
#      x y z
#    x 1.690520 0.000000 0.000000 
#    y 0.000000 1.664670 0.000000 
#    z 0.000000 0.000000 1.722320 
# 
# From -- ./inp_files/29529.got.cif
#   From: 2010.03.12/outbox.cif.g09.slc.cpg/sg59_15_cif.got.tgz:29529.got - 2010.04.16 16:29:54.
