data_PCOD8243121
_publ_section_title
;
Structure prediction by ZEFSAII (Michael W. Deem and Ramdas Pophale) SiO2 
 PCOD8243121
Probable space group: P M M N
;
_chemical_formula_sum "Si O2"
_cell_formula_units_Z 48
_cell_length_a 30.006099
_cell_length_b 10.230907
_cell_length_c 8.731202
_cell_angle_alpha 90.000000
_cell_angle_beta 90.000000
_cell_angle_gamma 90.000000
_cell_volume 2680.388282
_symmetry_space_group_name_H-M "P M M N"
_symmetry_group_IT_number 59
_space_group.IT_coordinate_system_code '2'
_symmetry_cell_setting 'orthorhombic'
loop_
_space_group_symop_operation_xyz
x,y,z
1/2-x,1/2-y,z
1/2+x,-y,-z
-x,1/2+y,-z
-x,-y,-z
1/2+x,1/2+y,-z
1/2-x,y,z
x,1/2-y,z
loop_
_atom_site_type_symbol
_atom_site_label
_atom_site_fract_x
_atom_site_fract_y
_atom_site_fract_z
Si Si1 0.483472 0.892459 0.707718
Si Si2 0.104931 0.596807 0.856391
Si Si3 0.698413 0.898792 0.652309
Si Si4 0.064291 0.532484 0.414126
Si Si5 0.638822 0.104962 0.809519
Si Si6 0.132382 0.103335 0.612968
O O1 0.500456 0.750000 0.755869
O O2 0.447019 0.942326 0.831086
O O3 0.459659 0.879622 0.541621
O O4 0.526654 0.983677 0.704282
O O5 0.112580 0.750000 0.814366
O O6 0.134645 0.505271 0.746170
O O7 0.117336 0.564803 0.029481
O O8 0.750000 0.934414 0.638951
O O9 0.691162 0.750000 0.711137
O O10 0.677341 0.915909 0.484509
O O11 0.676288 0.998335 0.772431
O O12 0.100225 0.613152 0.317925
O O13 0.089550 0.414105 0.501569
O O14 0.660373 0.250000 0.818564
O O15 0.130004 0.250000 0.682124
#
# Coordination Sequence:
#
# PCOD8243121 Si02
#       6
#     8   8   8   8   8   8
#     4   9  16  28  45  66  95 131 171 209 245 284
#     4   9  19  33  48  70 102 136 166 200 241 288
#     4   9  19  36  57  79  99 121 156 202 247 294
#     4   9  17  28  47  70  95 129 170 210 247 283
#     4  10  20  34  51  73 103 135 166 200 243 293
#     4   9  17  31  51  73  97 125 160 201 246 294
#
# _framework density 17.907854
#
# number of rings (size 3 to 8) (size 9 to 14) (size 15 to 20)
#    0.000    2.833    0.000    1.000    0.000    6.333 
#    0.000    1.667    0.000    3.000    0.000    0.000 
#    0.000    0.000    0.000    0.000    0.000    0.000 
#
# Total GULP energy -594944.113428 kJ/mol
# GULP energy per Si atom -12394.669030 kJ/mol
# Density = 1.786709 g / cm^3
# Si number density = 17.907854 Si / 1000 Ang^3
#
#
#
# Elastic Constant Matrix: (Units=GPa)
#
#
# Indices 1 2 3 4 5 6 
#
# 1 89.5204 32.5827 20.1051 0.0000 0.0000 0.0000
# 2 32.5827 82.6229 26.6675 0.0000 0.0000 0.0000
# 3 20.1051 26.6675 60.7400 0.0000 0.0000 0.0000
# 4 0.0000 0.0000 0.0000 25.7033 0.0000 0.0000
# 5 0.0000 0.0000 0.0000 0.0000 20.0360 0.0000
# 6 0.0000 0.0000 0.0000 0.0000 0.0000 18.8725
#
#
#
# Elastic Compliance Matrix: (Units=1/GPa)
#
#
# Indices 1 2 3 4 5 6 
#
# 1 0.013350 -0.004472 -0.002455 0.000000 0.000000 0.000000
# 2 -0.004472 0.015600 -0.005369 0.000000 0.000000 0.000000
# 3 -0.002455 -0.005369 0.019633 0.000000 0.000000 0.000000
# 4 0.000000 0.000000 0.000000 0.038906 0.000000 0.000000
# 5 0.000000 0.000000 0.000000 0.000000 0.049910 0.000000
# 6 0.000000 0.000000 0.000000 0.000000 0.000000 0.052987
#
#
# Mechanical properties :
#
#
# Convention : Reuss Voigt Hill
#
# Bulk Modulus (GPa) = 41.68291 43.51041 42.59666
# Shear Modulus (GPa) = 22.42408 23.15755 22.79081
#
# Velocity S-wave (km/s) = 3.54247 3.59994 3.57132
# Velocity P-wave (km/s) = 6.32922 6.45206 6.39093
#
# Compressibility (1/GPa) = 0.02399065
#
# Stress axis : x y z
#
# Youngs Moduli (GPa) = 74.90765 64.10447 50.93355
#
# Poissons Ratio (x) = 0.28668 0.12506
# Poissons Ratio (y) = 0.33499 0.27344
# Poissons Ratio (z) = 0.18393 0.34415
#
# Static dielectric constant tensor:
#      x y z
#    x 3.218010 0.000000 0.000000 
#    y 0.000000 3.290460 0.000000 
#    z 0.000000 0.000000 3.142830 
# 
# 
# High freq. dielectric constant tensor:
#      x y z
#    x 1.679630 0.000000 0.000000 
#    y 0.000000 1.695720 0.000000 
#    z 0.000000 0.000000 1.675200 
# 
# From -- ./inp_files/12519.got.cif
#   From: 2010.03.12/outbox.cif.g09.slc.cpg/sg59_7_cif.got.tgz:12519.got - 2010.04.16 16:29:54.
