data_PCOD8243661
_publ_section_title
;
Structure prediction by ZEFSAII (Michael W. Deem and Ramdas Pophale) SiO2 
 PCOD8243661
Probable space group: P M M N
;
_chemical_formula_sum "Si O2"
_cell_formula_units_Z 48
_cell_length_a 8.536585
_cell_length_b 15.559493
_cell_length_c 17.891529
_cell_angle_alpha 90.000000
_cell_angle_beta 90.000000
_cell_angle_gamma 90.000000
_cell_volume 2376.441168
_symmetry_space_group_name_H-M "P M M N"
_symmetry_group_IT_number 59
_space_group.IT_coordinate_system_code '2'
_symmetry_cell_setting 'orthorhombic'
loop_
_space_group_symop_operation_xyz
x,y,z
1/2-x,1/2-y,z
1/2+x,-y,-z
-x,1/2+y,-z
-x,-y,-z
1/2+x,1/2+y,-z
1/2-x,y,z
x,1/2-y,z
loop_
_atom_site_type_symbol
_atom_site_label
_atom_site_fract_x
_atom_site_fract_y
_atom_site_fract_z
Si Si1 0.064545 0.250000 0.711757
Si Si2 0.937197 0.750000 0.455928
Si Si3 0.064333 0.250000 0.203460
Si Si4 0.065094 0.250000 0.035099
Si Si5 0.566912 0.082056 0.958863
Si Si6 0.064370 0.420559 0.288083
Si Si7 0.565394 0.917052 0.540020
Si Si8 0.433976 0.080544 0.796861
O O1 0.250000 0.250000 0.706706
O O2 0.994756 0.250000 0.628149
O O3 0.005655 0.334268 0.754903
O O4 0.750000 0.750000 0.456197
O O5 0.003030 0.666507 0.498431
O O6 0.250000 0.250000 0.201992
O O7 0.995588 0.250000 0.119236
O O8 0.005647 0.334686 0.246382
O O9 0.250000 0.250000 0.038894
O O10 0.011698 0.333086 0.990659
O O11 0.750000 0.087532 0.973173
O O12 0.532595 0.072223 0.871852
O O13 0.500000 0.000000 0.000000
O O14 0.250000 0.434773 0.278281
O O15 0.013903 0.413085 0.374020
O O16 0.969117 0.499667 0.254878
O O17 0.750000 0.918590 0.533168
O O18 0.500000 0.000000 0.500000
O O19 0.250000 0.085529 0.815341
#
# Coordination Sequence:
#
# PCOD8243661 Si02
#       8
#     4   4   4   4   8   8   8   8
#     4   9  19  34  55  81 112 149 192 236 282 340
#     4   9  17  33  55  80 110 151 195 233 278 342
#     4   9  19  36  59  82 110 147 188 231 280 338
#     4  11  22  39  63  91 122 159 199 244 298 362
#     4  12  25  42  63  89 121 159 201 249 300 356
#     4  10  20  36  57  84 114 149 192 239 289 346
#     4  10  20  34  56  82 112 149 193 240 287 342
#     4  11  22  38  60  86 115 151 192 240 295 354
#
# _framework density 20.198270999999998
#
# number of rings (size 3 to 8) (size 9 to 14) (size 15 to 20)
#    0.000    1.667    0.000    5.250    0.000    6.000 
#    0.000    2.917    0.000    6.000    0.000    0.000 
#    0.000    0.000    0.000    0.000    0.000    0.000 
#
# Total GULP energy -595401.140893 kJ/mol
# GULP energy per Si atom -12404.190435 kJ/mol
# Density = 2.015230 g / cm^3
# Si number density = 20.198271 Si / 1000 Ang^3
#
#
#
# Elastic Constant Matrix: (Units=GPa)
#
#
# Indices 1 2 3 4 5 6 
#
# 1 43.7104 21.1067 20.3674 0.0000 0.0000 0.0000
# 2 21.1067 185.6098 72.5021 0.0000 0.0000 0.0000
# 3 20.3674 72.5021 156.7821 0.0000 0.0000 0.0000
# 4 0.0000 0.0000 0.0000 46.8863 0.0000 0.0000
# 5 0.0000 0.0000 0.0000 0.0000 27.2993 0.0000
# 6 0.0000 0.0000 0.0000 0.0000 0.0000 30.1729
#
#
#
# Elastic Compliance Matrix: (Units=1/GPa)
#
#
# Indices 1 2 3 4 5 6 
#
# 1 0.024897 -0.001913 -0.002349 0.000000 0.000000 0.000000
# 2 -0.001913 0.006722 -0.002860 0.000000 0.000000 0.000000
# 3 -0.002349 -0.002860 0.008006 0.000000 0.000000 0.000000
# 4 0.000000 0.000000 0.000000 0.021328 0.000000 0.000000
# 5 0.000000 0.000000 0.000000 0.000000 0.036631 0.000000
# 6 0.000000 0.000000 0.000000 0.000000 0.000000 0.033142
#
#
# Mechanical properties :
#
#
# Convention : Reuss Voigt Hill
#
# Bulk Modulus (GPa) = 39.40244 68.22830 53.81537
# Shear Modulus (GPa) = 32.58766 39.01344 35.80055
#
# Velocity S-wave (km/s) = 4.02106 4.39968 4.21462
# Velocity P-wave (km/s) = 6.41161 7.72413 7.09827
#
# Compressibility (1/GPa) = 0.02537914
#
# Stress axis : x y z
#
# Youngs Moduli (GPa) = 40.16620 148.75533 124.90408
#
# Poissons Ratio (x) = 0.28462 0.29346
# Poissons Ratio (y) = 0.07685 0.35725
# Poissons Ratio (z) = 0.09437 0.42546
#
# Static dielectric constant tensor:
#      x y z
#    x 3.389080 0.000000 0.000000 
#    y 0.000000 3.890890 0.000000 
#    z 0.000000 0.000000 3.945270 
# 
# 
# High freq. dielectric constant tensor:
#      x y z
#    x 1.762190 0.000000 0.000000 
#    y 0.000000 1.809930 0.000000 
#    z 0.000000 0.000000 1.810180 
# 
# From -- ./inp_files/25637.got.cif
#   From: 2010.03.12/outbox.cif.g09.slc.cpg/sg59_13_cif.got.tgz:25637.got - 2010.04.16 16:29:54.
