data_PCOD8243992
_publ_section_title
;
Structure prediction by ZEFSAII (Michael W. Deem and Ramdas Pophale) SiO2 
 PCOD8243992
Probable space group: P M M N
;
_chemical_formula_sum "Si O2"
_cell_formula_units_Z 40
_cell_length_a 8.410021
_cell_length_b 17.920736
_cell_length_c 13.799675
_cell_angle_alpha 90.000000
_cell_angle_beta 90.000000
_cell_angle_gamma 90.000000
_cell_volume 2079.800990
_symmetry_space_group_name_H-M "P M M N"
_symmetry_group_IT_number 59
_space_group.IT_coordinate_system_code '2'
_symmetry_cell_setting 'orthorhombic'
loop_
_space_group_symop_operation_xyz
x,y,z
1/2-x,1/2-y,z
1/2+x,-y,-z
-x,1/2+y,-z
-x,-y,-z
1/2+x,1/2+y,-z
1/2-x,y,z
x,1/2-y,z
loop_
_atom_site_type_symbol
_atom_site_label
_atom_site_fract_x
_atom_site_fract_y
_atom_site_fract_z
Si Si1 0.434473 0.037937 0.795456
Si Si2 0.565051 0.894359 0.888405
Si Si3 0.434778 0.834087 0.695234
Si Si4 0.064659 0.834682 0.085251
Si Si5 0.563060 0.976160 0.603269
O O1 0.250000 0.020396 0.808862
O O2 0.473585 0.121386 0.829724
O O3 0.532915 0.980282 0.861590
O O4 0.481382 0.028701 0.683358
O O5 0.750000 0.883182 0.910572
O O6 0.512238 0.841078 0.800897
O O7 0.465946 0.872427 0.982164
O O8 0.250000 0.855547 0.702906
O O9 0.458840 0.750000 0.657123
O O10 0.519914 0.889489 0.620275
O O11 0.250000 0.837261 0.108175
O O12 0.000683 0.750000 0.085056
O O13 0.750000 0.987343 0.609844
O O14 0.500000 0.000000 0.500000
#
# Coordination Sequence:
#
# PCOD8243992 Si02
#       5
#     8   8   8   8   8
#     4  11  22  38  59  82 110 143 184 229 274 327
#     4  11  21  34  55  82 113 148 187 227 270 324
#     4  10  20  35  56  84 116 146 180 226 278 327
#     4  11  23  38  55  78 112 151 188 227 273 324
#     4  11  22  39  62  85 111 143 183 227 275 330
#
# _framework density 19.232609
#
# number of rings (size 3 to 8) (size 9 to 14) (size 15 to 20)
#    0.000    1.200    0.000   10.200    0.000    5.600 
#    0.000    1.000    0.000    6.000    0.000    0.000 
#    0.000    0.000    0.000    0.000    0.000    0.000 
#
# Total GULP energy -496216.949230 kJ/mol
# GULP energy per Si atom -12405.423731 kJ/mol
# Density = 1.918883 g / cm^3
# Si number density = 19.232609 Si / 1000 Ang^3
#
#
#
# Elastic Constant Matrix: (Units=GPa)
#
#
# Indices 1 2 3 4 5 6 
#
# 1 83.0275 7.2801 14.5171 0.0000 0.0000 0.0000
# 2 7.2801 77.0645 68.3280 0.0000 0.0000 0.0000
# 3 14.5171 68.3280 118.6449 0.0000 0.0000 0.0000
# 4 0.0000 0.0000 0.0000 1.3321 0.0000 0.0000
# 5 0.0000 0.0000 0.0000 0.0000 33.2054 0.0000
# 6 0.0000 0.0000 0.0000 0.0000 0.0000 31.2122
#
#
#
# Elastic Compliance Matrix: (Units=1/GPa)
#
#
# Indices 1 2 3 4 5 6 
#
# 1 0.012312 0.000353 -0.001710 0.000000 0.000000 0.000000
# 2 0.000353 0.026525 -0.015319 0.000000 0.000000 0.000000
# 3 -0.001710 -0.015319 0.017460 0.000000 0.000000 0.000000
# 4 0.000000 0.000000 0.000000 0.750667 0.000000 0.000000
# 5 0.000000 0.000000 0.000000 0.000000 0.030116 0.000000
# 6 0.000000 0.000000 0.000000 0.000000 0.000000 0.032039
#
#
# Mechanical properties :
#
#
# Convention : Reuss Voigt Hill
#
# Bulk Modulus (GPa) = 43.58173 50.99858 47.29016
# Shear Modulus (GPa) = 5.49379 25.72407 15.60893
#
# Velocity S-wave (km/s) = 1.69195 3.66118 2.85193
# Velocity P-wave (km/s) = 5.15038 6.66683 5.95706
#
# Compressibility (1/GPa) = 0.02294540
#
# Stress axis : x y z
#
# Youngs Moduli (GPa) = 81.22026 37.69983 57.27356
#
# Poissons Ratio (x) = -0.01330 0.09791
# Poissons Ratio (y) = -0.02865 0.87738
# Poissons Ratio (z) = 0.13885 0.57753
#
# Static dielectric constant tensor:
#      x y z
#    x 3.662100 0.000000 0.000000 
#    y 0.000000 3.632820 0.000000 
#    z 0.000000 0.000000 3.376940 
# 
# 
# High freq. dielectric constant tensor:
#      x y z
#    x 1.767950 0.000000 0.000000 
#    y 0.000000 1.749920 0.000000 
#    z 0.000000 0.000000 1.733790 
# 
# From -- ./inp_files/20120.got.cif
#   From: 2010.03.12/outbox.cif.g09.slc.cpg/sg59_11_cif.got.tgz:20120.got - 2010.04.16 16:29:54.
