data_PCOD8243876
_publ_section_title
;
Structure prediction by ZEFSAII (Michael W. Deem and Ramdas Pophale) SiO2 
 PCOD8243876
Probable space group: P M M N
;
_chemical_formula_sum "Si O2"
_cell_formula_units_Z 64
_cell_length_a 9.558549
_cell_length_b 28.392753
_cell_length_c 12.485776
_cell_angle_alpha 90.000000
_cell_angle_beta 90.000000
_cell_angle_gamma 90.000000
_cell_volume 3388.558709
_symmetry_space_group_name_H-M "P M M N"
_symmetry_group_IT_number 59
_space_group.IT_coordinate_system_code '2'
_symmetry_cell_setting 'orthorhombic'
loop_
_space_group_symop_operation_xyz
x,y,z
1/2-x,1/2-y,z
1/2+x,-y,-z
-x,1/2+y,-z
-x,-y,-z
1/2+x,1/2+y,-z
1/2-x,y,z
x,1/2-y,z
loop_
_atom_site_type_symbol
_atom_site_label
_atom_site_fract_x
_atom_site_fract_y
_atom_site_fract_z
Si Si1 0.090935 0.199256 0.604460
Si Si2 0.906088 0.697212 0.929125
Si Si3 0.903329 0.099329 0.871341
Si Si4 0.004146 0.698391 0.161508
Si Si5 0.913138 0.603668 0.490491
Si Si6 0.086182 0.954767 0.329945
Si Si7 0.408797 0.062579 0.283890
Si Si8 0.582190 0.389689 0.106518
O O1 0.250000 0.201652 0.567194
O O2 0.019018 0.250000 0.574299
O O3 0.087438 0.191915 0.732092
O O4 0.022770 0.154809 0.542915
O O5 0.750000 0.683618 0.890165
O O6 0.944883 0.750000 0.891089
O O7 0.018038 0.662321 0.874549
O O8 0.904679 0.694664 0.058245
O O9 0.750000 0.077245 0.877930
O O10 0.979670 0.070401 0.776679
O O11 0.888156 0.154985 0.843484
O O12 0.970587 0.092462 0.989160
O O13 0.080340 0.750000 0.162168
O O14 0.750000 0.598799 0.457616
O O15 0.932460 0.597916 0.617284
O O16 0.000696 0.563272 0.431728
O O17 0.250000 0.942107 0.344790
O O18 0.061403 0.010088 0.323313
O O19 0.250000 0.067112 0.239992
O O20 0.519960 0.074320 0.192083
O O21 0.750000 0.386892 0.114903
#
# Coordination Sequence:
#
# PCOD8243876 Si02
#       8
#     8   8   8   8   8   8   8   8
#     4   9  16  27  46  73 105 135 163 202 254 307
#     4   9  17  30  51  79 108 138 174 213 256 313
#     4   9  18  32  49  74 107 138 171 212 265 323
#     4   9  15  25  45  73 106 138 169 204 249 311
#     4  10  20  35  55  80 106 134 176 221 262 316
#     4  10  20  36  56  78 106 138 172 219 279 328
#     4  10  22  38  55  75 103 140 183 229 270 316
#     4  10  21  36  54  76 105 140 179 222 265 315
#
# _framework density 18.887086
#
# number of rings (size 3 to 8) (size 9 to 14) (size 15 to 20)
#    0.000    2.500    1.250    1.125    0.000    3.500 
#    0.000    3.750    0.000    2.625    0.000    0.000 
#    0.000    0.000    0.000    0.000    0.000    0.000 
#
# Total GULP energy -793032.849572 kJ/mol
# GULP energy per Si atom -12391.138275 kJ/mol
# Density = 1.884410 g / cm^3
# Si number density = 18.887086 Si / 1000 Ang^3
#
#
#
# Elastic Constant Matrix: (Units=GPa)
#
#
# Indices 1 2 3 4 5 6 
#
# 1 61.2244 24.3269 23.3837 0.0000 0.0000 0.0000
# 2 24.3269 92.8029 35.7390 0.0000 0.0000 0.0000
# 3 23.3837 35.7390 70.3991 0.0000 0.0000 0.0000
# 4 0.0000 0.0000 0.0000 22.0522 0.0000 0.0000
# 5 0.0000 0.0000 0.0000 0.0000 22.1701 0.0000
# 6 0.0000 0.0000 0.0000 0.0000 0.0000 27.1835
#
#
#
# Elastic Compliance Matrix: (Units=1/GPa)
#
#
# Indices 1 2 3 4 5 6 
#
# 1 0.019463 -0.003247 -0.004816 0.000000 0.000000 0.000000
# 2 -0.003247 0.013936 -0.005996 0.000000 0.000000 0.000000
# 3 -0.004816 -0.005996 0.018849 0.000000 0.000000 0.000000
# 4 0.000000 0.000000 0.000000 0.045347 0.000000 0.000000
# 5 0.000000 0.000000 0.000000 0.000000 0.045106 0.000000
# 6 0.000000 0.000000 0.000000 0.000000 0.000000 0.036787
#
#
# Mechanical properties :
#
#
# Convention : Reuss Voigt Hill
#
# Bulk Modulus (GPa) = 41.44533 43.48061 42.46297
# Shear Modulus (GPa) = 23.18579 23.67963 23.43271
#
# Velocity S-wave (km/s) = 3.50751 3.54467 3.52614
# Velocity P-wave (km/s) = 6.19636 6.31064 6.25376
#
# Compressibility (1/GPa) = 0.02412817
#
# Stress axis : x y z
#
# Youngs Moduli (GPa) = 51.37927 71.75725 53.05442
#
# Poissons Ratio (x) = 0.23301 0.25553
# Poissons Ratio (y) = 0.16684 0.31812
# Poissons Ratio (z) = 0.24746 0.43027
#
# Static dielectric constant tensor:
#      x y z
#    x 3.150100 0.000000 0.000000 
#    y 0.000000 3.699220 0.000000 
#    z 0.000000 0.000000 3.333480 
# 
# 
# High freq. dielectric constant tensor:
#      x y z
#    x 1.702100 0.000000 0.000000 
#    y 0.000000 1.742970 0.000000 
#    z 0.000000 0.000000 1.719830 
# 
# From -- ./inp_files/16327.got.cif
#   From: 2010.03.12/outbox.cif.g09.slc.cpg/sg59_9_cif.got.tgz:16327.got - 2010.04.16 16:29:54.
