data_PCOD8243489
_publ_section_title
;
Structure prediction by ZEFSAII (Michael W. Deem and Ramdas Pophale) SiO2 
 PCOD8243489
Probable space group: P M M N
;
_chemical_formula_sum "Si O2"
_cell_formula_units_Z 48
_cell_length_a 9.585978
_cell_length_b 8.920092
_cell_length_c 29.556384
_cell_angle_alpha 90.000000
_cell_angle_beta 90.000000
_cell_angle_gamma 90.000000
_cell_volume 2527.301539
_symmetry_space_group_name_H-M "P M M N"
_symmetry_group_IT_number 59
_space_group.IT_coordinate_system_code '2'
_symmetry_cell_setting 'orthorhombic'
loop_
_space_group_symop_operation_xyz
x,y,z
1/2-x,1/2-y,z
1/2+x,-y,-z
-x,1/2+y,-z
-x,-y,-z
1/2+x,1/2+y,-z
1/2-x,y,z
x,1/2-y,z
loop_
_atom_site_type_symbol
_atom_site_label
_atom_site_fract_x
_atom_site_fract_y
_atom_site_fract_z
Si Si1 0.750000 0.572625 0.950319
Si Si2 0.412770 0.928109 0.459743
Si Si3 0.409190 0.427749 0.626075
Si Si4 0.413529 0.422493 0.195916
Si Si5 0.514071 0.073589 0.893287
Si Si6 0.750000 0.924776 0.050890
Si Si7 0.910405 0.425623 0.710783
O O1 0.750000 0.750000 0.951975
O O2 0.878678 0.517237 0.922366
O O3 0.750000 0.500493 0.000913
O O4 0.250000 0.981707 0.459338
O O5 0.418284 0.750000 0.464241
O O6 0.492963 0.984239 0.414820
O O7 0.500000 0.000000 0.500000
O O8 0.250000 0.492276 0.622902
O O9 0.402334 0.250000 0.625264
O O10 0.485340 0.482534 0.671715
O O11 0.250000 0.443543 0.187229
O O12 0.458599 0.250000 0.193047
O O13 0.494309 0.517733 0.158251
O O14 0.455808 0.485450 0.244686
O O15 0.545617 0.250000 0.893730
O O16 0.376224 0.024894 0.918530
O O17 0.750000 0.750000 0.041973
O O18 0.750000 0.461197 0.697038
O O19 0.928539 0.250000 0.720161
#
# Coordination Sequence:
#
# PCOD8243489 Si02
#       7
#     4   8   8   8   8   4   8
#     4  11  21  37  59  83 113 143 177 223 276 327
#     4  10  20  34  54  81 113 150 192 237 283 332
#     4   9  17  31  52  78 107 140 181 229 279 330
#     4  10  20  35  55  79 108 139 176 222 274 326
#     4  11  21  37  59  82 108 143 186 226 267 322
#     4   9  22  39  55  81 113 143 179 227 272 319
#     4   9  17  31  53  77  99 129 175 223 268 323
#
# _framework density 18.99259
#
# number of rings (size 3 to 8) (size 9 to 14) (size 15 to 20)
#    0.000    2.167    0.833    2.750    0.000    3.667 
#    1.500    5.000    0.000    3.000    0.000    0.000 
#    0.000    0.000    0.000    0.000    0.000    0.000 
#
# Total GULP energy -595025.323919 kJ/mol
# GULP energy per Si atom -12396.360915 kJ/mol
# Density = 1.894936 g / cm^3
# Si number density = 18.992590 Si / 1000 Ang^3
#
#
#
# Elastic Constant Matrix: (Units=GPa)
#
#
# Indices 1 2 3 4 5 6 
#
# 1 145.1362 32.1198 83.0175 0.0000 0.0000 0.0000
# 2 32.1198 53.3109 42.4620 0.0000 0.0000 0.0000
# 3 83.0175 42.4620 171.9883 0.0000 0.0000 0.0000
# 4 0.0000 0.0000 0.0000 28.6041 0.0000 0.0000
# 5 0.0000 0.0000 0.0000 0.0000 -1.3654 0.0000
# 6 0.0000 0.0000 0.0000 0.0000 0.0000 10.1277
#
#
#
# Elastic Compliance Matrix: (Units=1/GPa)
#
#
# Indices 1 2 3 4 5 6 
#
# 1 0.009813 -0.002663 -0.004079 0.000000 0.000000 0.000000
# 2 -0.002663 0.024072 -0.004658 0.000000 0.000000 0.000000
# 3 -0.004079 -0.004658 0.008933 0.000000 0.000000 0.000000
# 4 0.000000 0.000000 0.000000 0.034960 0.000000 0.000000
# 5 0.000000 0.000000 0.000000 0.000000 -0.732405 0.000000
# 6 0.000000 0.000000 0.000000 0.000000 0.000000 0.098739
#
#
# Mechanical properties :
#
#
# Convention : Reuss Voigt Hill
#
# Bulk Modulus (GPa) = 49.95407 76.18156 63.06782
# Shear Modulus (GPa) = -9.49820 21.66236 6.08208
#
# Velocity S-wave (km/s) = -2.23872 3.38089 1.79145
# Velocity P-wave (km/s) = 4.43582 7.44573 6.12843
#
# Compressibility (1/GPa) = 0.02001839
#
# Stress axis : x y z
#
# Youngs Moduli (GPa) = 101.90948 41.54149 111.94249
#
# Poissons Ratio (x) = 0.11063 0.45661
# Poissons Ratio (y) = 0.27141 0.52139
# Poissons Ratio (z) = 0.41568 0.19349
#
# Static dielectric constant tensor:
#      x y z
#    x 3.556380 0.000000 0.000000 
#    y 0.000000 3.247320 0.000000 
#    z 0.000000 0.000000 3.724590 
# 
# 
# High freq. dielectric constant tensor:
#      x y z
#    x 1.738250 0.000000 0.000000 
#    y 0.000000 1.713560 0.000000 
#    z 0.000000 0.000000 1.757010 
# 
# From -- ./inp_files/33094.got.cif
#   From: 2010.03.12/outbox.cif.g09.slc.cpg/sg59_17_cif.got.tgz:33094.got - 2010.04.16 16:29:54.
