data_PCOD8243664
_publ_section_title
;
Structure prediction by ZEFSAII (Michael W. Deem and Ramdas Pophale) SiO2 
 PCOD8243664
Probable space group: P M M N
;
_chemical_formula_sum "Si O2"
_cell_formula_units_Z 64
_cell_length_a 18.127694
_cell_length_b 21.405701
_cell_length_c 9.322166
_cell_angle_alpha 90.000000
_cell_angle_beta 90.000000
_cell_angle_gamma 90.000000
_cell_volume 3617.335983
_symmetry_space_group_name_H-M "P M M N"
_symmetry_group_IT_number 59
_space_group.IT_coordinate_system_code '2'
_symmetry_cell_setting 'orthorhombic'
loop_
_space_group_symop_operation_xyz
x,y,z
1/2-x,1/2-y,z
1/2+x,-y,-z
-x,1/2+y,-z
-x,-y,-z
1/2+x,1/2+y,-z
1/2-x,y,z
x,1/2-y,z
loop_
_atom_site_type_symbol
_atom_site_label
_atom_site_fract_x
_atom_site_fract_y
_atom_site_fract_z
Si Si1 0.466258 0.486480 0.148903
Si Si2 0.831590 0.678449 0.541540
Si Si3 0.332057 0.066195 0.261922
Si Si4 0.988491 0.678658 0.447963
Si Si5 0.162238 0.675518 0.941287
Si Si6 0.425977 0.894726 0.691519
Si Si7 0.088358 0.881344 0.227256
Si Si8 0.166889 0.548570 0.454422
O O1 0.388437 0.449085 0.133262
O O2 0.520825 0.441687 0.230178
O O3 0.455239 0.553604 0.219540
O O4 0.500000 0.500000 0.000000
O O5 0.750000 0.665281 0.470333
O O6 0.836143 0.750000 0.592691
O O7 0.839237 0.637102 0.685038
O O8 0.900277 0.662675 0.435813
O O9 0.250000 0.051238 0.205343
O O10 0.354001 0.019695 0.392593
O O11 0.999559 0.750000 0.483311
O O12 0.024899 0.645667 0.584112
O O13 0.028300 0.665134 0.296584
O O14 0.250000 0.659511 0.940265
O O15 0.150590 0.750000 0.944730
O O16 0.122363 0.647791 0.800255
O O17 0.122736 0.645315 0.080776
O O18 0.374796 0.940508 0.601685
O O19 0.153845 0.895159 0.340030
O O20 0.250000 0.550447 0.501366
#
# Coordination Sequence:
#
# PCOD8243664 Si02
#       8
#     8   8   8   8   8   8   8   8
#     4  11  21  36  53  78 109 146 180 224 264 321
#     4   9  17  30  50  77 107 136 169 216 268 318
#     4   9  18  33  54  78 107 139 178 219 267 319
#     4  10  20  34  56  83 109 139 180 223 269 321
#     4  11  23  39  57  78 107 145 185 226 273 327
#     4  11  21  35  55  79 111 141 181 224 271 316
#     4  10  21  35  57  77 110 142 182 221 268 324
#     4   9  19  33  53  80 108 140 175 220 269 315
#
# _framework density 17.692578999999999
#
# number of rings (size 3 to 8) (size 9 to 14) (size 15 to 20)
#    0.000    2.000    2.500    1.500    1.750    2.000 
#    0.000    0.000    0.000    6.750    0.000    0.000 
#    0.000    5.000    0.000    0.000    0.000    0.000 
#
# Total GULP energy -792925.418706 kJ/mol
# GULP energy per Si atom -12389.459667 kJ/mol
# Density = 1.765231 g / cm^3
# Si number density = 17.692579 Si / 1000 Ang^3
#
#
#
# Elastic Constant Matrix: (Units=GPa)
#
#
# Indices 1 2 3 4 5 6 
#
# 1 133.4666 53.3469 54.5131 0.0000 0.0000 0.0000
# 2 53.3469 74.0013 19.5609 0.0000 0.0000 0.0000
# 3 54.5131 19.5609 73.3046 0.0000 0.0000 0.0000
# 4 0.0000 0.0000 0.0000 17.3073 0.0000 0.0000
# 5 0.0000 0.0000 0.0000 0.0000 22.6631 0.0000
# 6 0.0000 0.0000 0.0000 0.0000 0.0000 28.5422
#
#
#
# Elastic Compliance Matrix: (Units=1/GPa)
#
#
# Indices 1 2 3 4 5 6 
#
# 1 0.014077 -0.007941 -0.008349 0.000000 0.000000 0.000000
# 2 -0.007941 0.019018 0.000830 0.000000 0.000000 0.000000
# 3 -0.008349 0.000830 0.019629 0.000000 0.000000 0.000000
# 4 0.000000 0.000000 0.000000 0.057779 0.000000 0.000000
# 5 0.000000 0.000000 0.000000 0.000000 0.044125 0.000000
# 6 0.000000 0.000000 0.000000 0.000000 0.000000 0.035036
#
#
# Mechanical properties :
#
#
# Convention : Reuss Voigt Hill
#
# Bulk Modulus (GPa) = 45.86198 59.51269 52.68734
# Shear Modulus (GPa) = 21.94421 23.92598 22.93509
#
# Velocity S-wave (km/s) = 3.52562 3.68138 3.60434
# Velocity P-wave (km/s) = 6.52313 7.19584 6.86773
#
# Compressibility (1/GPa) = 0.02180455
#
# Stress axis : x y z
#
# Youngs Moduli (GPa) = 71.04017 52.58119 50.94502
#
# Poissons Ratio (x) = 0.41753 0.42535
# Poissons Ratio (y) = 0.56411 -0.04230
# Poissons Ratio (z) = 0.59312 -0.04365
#
# Static dielectric constant tensor:
#      x y z
#    x 3.685270 0.000000 0.000000 
#    y 0.000000 3.387520 0.000000 
#    z 0.000000 0.000000 2.981330 
# 
# 
# High freq. dielectric constant tensor:
#      x y z
#    x 1.706170 0.000000 0.000000 
#    y 0.000000 1.696370 0.000000 
#    z 0.000000 0.000000 1.654260 
# 
# From -- ./inp_files/10695.got.cif
#   From: 2010.03.12/outbox.cif.g09.slc.cpg/sg59_6_cif.got.tgz:10695.got - 2010.04.16 16:29:54.
