data_PCOD8243048
_publ_section_title
;
Structure prediction by ZEFSAII (Michael W. Deem and Ramdas Pophale) SiO2 
 PCOD8243048
Probable space group: P M M N
;
_chemical_formula_sum "Si O2"
_cell_formula_units_Z 48
_cell_length_a 22.981566
_cell_length_b 8.756656
_cell_length_c 12.688181
_cell_angle_alpha 90.000000
_cell_angle_beta 90.000000
_cell_angle_gamma 90.000000
_cell_volume 2553.390706
_symmetry_space_group_name_H-M "P M M N"
_symmetry_group_IT_number 59
_space_group.IT_coordinate_system_code '2'
_symmetry_cell_setting 'orthorhombic'
loop_
_space_group_symop_operation_xyz
x,y,z
1/2-x,1/2-y,z
1/2+x,-y,-z
-x,1/2+y,-z
-x,-y,-z
1/2+x,1/2+y,-z
1/2-x,y,z
x,1/2-y,z
loop_
_atom_site_type_symbol
_atom_site_label
_atom_site_fract_x
_atom_site_fract_y
_atom_site_fract_z
Si Si1 0.434011 0.072740 0.883899
Si Si2 0.509663 0.581718 0.392705
Si Si3 0.682778 0.929216 0.497344
Si Si4 0.617112 0.081126 0.692750
Si Si5 0.059497 0.427259 0.124826
Si Si6 0.116818 0.571343 0.697744
O O1 0.435010 0.250000 0.853127
O O2 0.498260 0.010955 0.855516
O O3 0.380854 0.993219 0.817767
O O4 0.419230 0.044132 0.005674
O O5 0.500000 0.500000 0.500000
O O6 0.538451 0.750000 0.408109
O O7 0.449228 0.600798 0.336720
O O8 0.550565 0.468475 0.328943
O O9 0.750000 0.973008 0.505416
O O10 0.672184 0.750000 0.497937
O O11 0.651592 0.997400 0.599881
O O12 0.659663 0.994422 0.386547
O O13 0.644696 0.250000 0.710403
O O14 0.613244 0.986841 0.802153
O O15 0.048947 0.250000 0.148063
O O16 0.129398 0.750000 0.695648
#
# Coordination Sequence:
#
# PCOD8243048 Si02
#       6
#     8   8   8   8   8   8
#     4  10  20  34  52  80 117 154 189 226 271 328
#     4  11  21  32  50  80 113 147 182 222 275 335
#     4  11  25  43  62  82 107 144 188 235 285 335
#     4  11  22  35  56  83 115 151 184 227 278 331
#     4  10  20  33  53  81 116 154 189 226 271 328
#     4  12  23  35  56  83 113 150 185 227 279 332
#
# _framework density 18.798534
#
# number of rings (size 3 to 8) (size 9 to 14) (size 15 to 20)
#    0.000    1.167    3.333    4.000    0.000    4.667 
#    0.000    0.000    0.000    1.000    0.000    7.000 
#    0.000    0.000    0.000    0.000    0.000    0.000 
#
# Total GULP energy -594842.641962 kJ/mol
# GULP energy per Si atom -12392.555041 kJ/mol
# Density = 1.875575 g / cm^3
# Si number density = 18.798534 Si / 1000 Ang^3
#
#
#
# Elastic Constant Matrix: (Units=GPa)
#
#
# Indices 1 2 3 4 5 6 
#
# 1 64.9398 33.0186 35.1630 0.0000 0.0000 0.0000
# 2 33.0186 115.3675 53.5211 0.0000 0.0000 0.0000
# 3 35.1630 53.5211 131.2613 0.0000 0.0000 0.0000
# 4 0.0000 0.0000 0.0000 32.5913 0.0000 0.0000
# 5 0.0000 0.0000 0.0000 0.0000 5.4174 0.0000
# 6 0.0000 0.0000 0.0000 0.0000 0.0000 21.3082
#
#
#
# Elastic Compliance Matrix: (Units=1/GPa)
#
#
# Indices 1 2 3 4 5 6 
#
# 1 0.019309 -0.003856 -0.003600 0.000000 0.000000 0.000000
# 2 -0.003856 0.011460 -0.003640 0.000000 0.000000 0.000000
# 3 -0.003600 -0.003640 0.010067 0.000000 0.000000 0.000000
# 4 0.000000 0.000000 0.000000 0.030683 0.000000 0.000000
# 5 0.000000 0.000000 0.000000 0.000000 0.184590 0.000000
# 6 0.000000 0.000000 0.000000 0.000000 0.000000 0.046930
#
#
# Mechanical properties :
#
#
# Convention : Reuss Voigt Hill
#
# Bulk Modulus (GPa) = 53.63738 61.66376 57.65057
# Shear Modulus (GPa) = 15.08541 24.52110 19.80326
#
# Velocity S-wave (km/s) = 2.83588 3.61559 3.24921
# Velocity P-wave (km/s) = 6.27038 7.09250 6.69407
#
# Compressibility (1/GPa) = 0.01864372
#
# Stress axis : x y z
#
# Youngs Moduli (GPa) = 51.78945 87.25890 99.33467
#
# Poissons Ratio (x) = 0.33647 0.35763
# Poissons Ratio (y) = 0.19970 0.36156
# Poissons Ratio (z) = 0.18646 0.31761
#
# Static dielectric constant tensor:
#      x y z
#    x 3.128750 0.000000 0.000000 
#    y 0.000000 3.816670 0.000000 
#    z 0.000000 0.000000 3.733730 
# 
# 
# High freq. dielectric constant tensor:
#      x y z
#    x 1.678630 0.000000 0.000000 
#    y 0.000000 1.751290 0.000000 
#    z 0.000000 0.000000 1.751890 
# 
# From -- ./inp_files/18620.got.cif
#   From: 2010.03.12/outbox.cif.g09.slc.cpg/sg59_10_cif.got.tgz:18620.got - 2010.04.16 16:29:54.
