data_PCOD8243895
_publ_section_title
;
Structure prediction by ZEFSAII (Michael W. Deem and Ramdas Pophale) SiO2 
 PCOD8243895
Probable space group: P M M N
;
_chemical_formula_sum "Si O2"
_cell_formula_units_Z 64
_cell_length_a 9.060755
_cell_length_b 19.826724
_cell_length_c 19.020874
_cell_angle_alpha 90.000000
_cell_angle_beta 90.000000
_cell_angle_gamma 90.000000
_cell_volume 3417.006595
_symmetry_space_group_name_H-M "P M M N"
_symmetry_group_IT_number 59
_space_group.IT_coordinate_system_code '2'
_symmetry_cell_setting 'orthorhombic'
loop_
_space_group_symop_operation_xyz
x,y,z
1/2-x,1/2-y,z
1/2+x,-y,-z
-x,1/2+y,-z
-x,-y,-z
1/2+x,1/2+y,-z
1/2-x,y,z
x,1/2-y,z
loop_
_atom_site_type_symbol
_atom_site_label
_atom_site_fract_x
_atom_site_fract_y
_atom_site_fract_z
Si Si1 0.427228 0.968916 0.432232
Si Si2 0.578110 0.539815 0.710695
Si Si3 0.423422 0.066845 0.974617
Si Si4 0.088332 0.824006 0.245102
Si Si5 0.585355 0.178410 0.589318
Si Si6 0.921011 0.826064 0.782624
Si Si7 0.579273 0.171521 0.072490
Si Si8 0.419307 0.442496 0.812441
O O1 0.250000 0.970866 0.436209
O O2 0.491237 0.891981 0.432476
O O3 0.500000 0.000000 0.500000
O O4 0.483446 0.010350 0.363246
O O5 0.750000 0.524394 0.713030
O O6 0.544869 0.620147 0.720037
O O7 0.509814 0.503169 0.778128
O O8 0.250000 0.064901 0.990273
O O9 0.460173 0.069429 0.892795
O O10 0.492545 0.131474 0.012625
O O11 0.500000 0.000000 0.000000
O O12 0.250000 0.849383 0.218117
O O13 0.055420 0.750000 0.213548
O O14 0.094167 0.820633 0.327862
O O15 0.956425 0.872466 0.224549
O O16 0.750000 0.178151 0.557665
O O17 0.507977 0.250000 0.564301
O O18 0.750000 0.830440 0.804622
O O19 0.960161 0.750000 0.756253
O O20 0.015940 0.845640 0.850703
O O21 0.750000 0.149669 0.071944
O O22 0.558961 0.250000 0.055195
O O23 0.250000 0.460378 0.801179
#
# Coordination Sequence:
#
# PCOD8243895 Si02
#       8
#     8   8   8   8   8   8   8   8
#     4  10  20  35  55  81 112 144 180 222 270 323
#     4  10  20  36  57  79 106 141 182 223 268 330
#     4  11  24  39  54  76 107 145 185 229 280 332
#     4   9  17  32  55  79 103 136 177 215 254 309
#     4   8  14  29  54  78 102 137 179 216 249 299
#     4   9  18  34  58  84 107 138 180 226 278 332
#     4  10  21  37  57  81 110 145 186 231 276 327
#     4  11  23  35  51  78 110 139 174 225 279 322
#
# _framework density 18.729842999999999
#
# number of rings (size 3 to 8) (size 9 to 14) (size 15 to 20)
#    0.000    2.250    1.250    2.625    0.000    6.500 
#    0.000    3.125    0.000    1.125    0.000    0.000 
#    0.000    0.000    0.000    0.000    0.000    0.000 
#
# Total GULP energy -793085.673148 kJ/mol
# GULP energy per Si atom -12391.963643 kJ/mol
# Density = 1.868721 g / cm^3
# Si number density = 18.729843 Si / 1000 Ang^3
#
#
#
# Elastic Constant Matrix: (Units=GPa)
#
#
# Indices 1 2 3 4 5 6 
#
# 1 46.6288 41.1882 38.2558 0.0000 0.0000 0.0000
# 2 41.1882 156.9268 72.7521 0.0000 0.0000 0.0000
# 3 38.2558 72.7521 85.2924 0.0000 0.0000 0.0000
# 4 0.0000 0.0000 0.0000 26.8795 0.0000 0.0000
# 5 0.0000 0.0000 0.0000 0.0000 26.2569 0.0000
# 6 0.0000 0.0000 0.0000 0.0000 0.0000 19.1240
#
#
#
# Elastic Compliance Matrix: (Units=1/GPa)
#
#
# Indices 1 2 3 4 5 6 
#
# 1 0.034845 -0.003143 -0.012948 0.000000 0.000000 0.000000
# 2 -0.003143 0.010824 -0.007823 0.000000 0.000000 0.000000
# 3 -0.012948 -0.007823 0.024205 0.000000 0.000000 0.000000
# 4 0.000000 0.000000 0.000000 0.037203 0.000000 0.000000
# 5 0.000000 0.000000 0.000000 0.000000 0.038085 0.000000
# 6 0.000000 0.000000 0.000000 0.000000 0.000000 0.052290
#
#
# Mechanical properties :
#
#
# Convention : Reuss Voigt Hill
#
# Bulk Modulus (GPa) = 45.35971 65.91557 55.63764
# Shear Modulus (GPa) = 19.79183 23.56221 21.67702
#
# Velocity S-wave (km/s) = 3.25422 3.55068 3.40568
# Velocity P-wave (km/s) = 6.19600 7.21658 6.72567
#
# Compressibility (1/GPa) = 0.02204600
#
# Stress axis : x y z
#
# Youngs Moduli (GPa) = 28.69828 92.38654 41.31419
#
# Poissons Ratio (x) = 0.29036 0.53494
# Poissons Ratio (y) = 0.09020 0.32320
# Poissons Ratio (z) = 0.37159 0.72274
#
# Static dielectric constant tensor:
#      x y z
#    x 3.345040 0.000000 0.000000 
#    y 0.000000 4.080930 0.000000 
#    z 0.000000 0.000000 3.199080 
# 
# 
# High freq. dielectric constant tensor:
#      x y z
#    x 1.710570 0.000000 0.000000 
#    y 0.000000 1.750000 0.000000 
#    z 0.000000 0.000000 1.704400 
# 
# From -- ./inp_files/26363.got.cif
#   From: 2010.03.12/outbox.cif.g09.slc.cpg/sg59_14_cif.got.tgz:26363.got - 2010.04.16 16:29:54.
