data_PCOD8243080
_publ_section_title
;
Structure prediction by ZEFSAII (Michael W. Deem and Ramdas Pophale) SiO2 
 PCOD8243080
Probable space group: P M M N
;
_chemical_formula_sum "Si O2"
_cell_formula_units_Z 56
_cell_length_a 8.997773
_cell_length_b 14.063610
_cell_length_c 22.831727
_cell_angle_alpha 90.000000
_cell_angle_beta 90.000000
_cell_angle_gamma 90.000000
_cell_volume 2889.153455
_symmetry_space_group_name_H-M "P M M N"
_symmetry_group_IT_number 59
_space_group.IT_coordinate_system_code '2'
_symmetry_cell_setting 'orthorhombic'
loop_
_space_group_symop_operation_xyz
x,y,z
1/2-x,1/2-y,z
1/2+x,-y,-z
-x,1/2+y,-z
-x,-y,-z
1/2+x,1/2+y,-z
1/2-x,y,z
x,1/2-y,z
loop_
_atom_site_type_symbol
_atom_site_label
_atom_site_fract_x
_atom_site_fract_y
_atom_site_fract_z
Si Si1 0.078242 0.142466 0.351092
Si Si2 0.426110 0.401341 0.483574
Si Si3 0.423453 0.547416 0.085864
Si Si4 0.422013 0.358373 0.021448
Si Si5 0.074819 0.467642 0.689084
Si Si6 0.416592 0.852205 0.408276
Si Si7 0.073946 0.359117 0.804991
O O1 0.250000 0.115114 0.343807
O O2 0.047746 0.250000 0.331077
O O3 0.028971 0.130841 0.418558
O O4 0.983014 0.075973 0.307303
O O5 0.500000 0.500000 0.500000
O O6 0.250000 0.402230 0.491569
O O7 0.499868 0.331237 0.530617
O O8 0.250000 0.565276 0.093837
O O9 0.457488 0.435745 0.072213
O O10 0.505214 0.575654 0.144932
O O11 0.479630 0.616473 0.034608
O O12 0.250000 0.366618 0.002757
O O13 0.458453 0.250000 0.042419
O O14 0.250000 0.465704 0.683849
O O15 0.020894 0.405429 0.744086
O O16 0.005767 0.426774 0.630028
O O17 0.250000 0.893156 0.418512
O O18 0.409085 0.750000 0.375982
O O19 0.250000 0.362528 0.811240
O O20 0.017194 0.250000 0.808525
#
# Coordination Sequence:
#
# PCOD8243080 Si02
#       7
#     8   8   8   8   8   8   8
#     4  10  22  40  60  81 109 145 182 224 278 339
#     4  11  21  35  57  83 111 143 179 221 275 335
#     4  10  20  33  54  86 117 147 190 237 276 321
#     4   9  18  34  55  80 116 158 191 224 273 329
#     4  11  23  39  60  82 107 142 186 235 280 329
#     4  11  23  37  55  81 112 144 179 223 277 335
#     4  10  22  40  59  80 110 148 186 225 278 339
#
# _framework density 19.382840000000002
#
# number of rings (size 3 to 8) (size 9 to 14) (size 15 to 20)
#    0.000    1.714    1.429    3.000    0.000    7.143 
#    0.000    0.714    0.000    2.571    0.000    0.000 
#    0.000    0.000    0.000    0.000    0.000    0.000 
#
# Total GULP energy -694265.248202 kJ/mol
# GULP energy per Si atom -12397.593718 kJ/mol
# Density = 1.933872 g / cm^3
# Si number density = 19.382840 Si / 1000 Ang^3
#
#
#
# Elastic Constant Matrix: (Units=GPa)
#
#
# Indices 1 2 3 4 5 6 
#
# 1 54.7919 39.6326 40.8260 0.0000 0.0000 0.0000
# 2 39.6326 138.8233 49.5907 0.0000 0.0000 0.0000
# 3 40.8260 49.5907 91.6811 0.0000 0.0000 0.0000
# 4 0.0000 0.0000 0.0000 28.4596 0.0000 0.0000
# 5 0.0000 0.0000 0.0000 0.0000 31.1764 0.0000
# 6 0.0000 0.0000 0.0000 0.0000 0.0000 27.8197
#
#
#
# Elastic Compliance Matrix: (Units=1/GPa)
#
#
# Indices 1 2 3 4 5 6 
#
# 1 0.029532 -0.004627 -0.010648 0.000000 0.000000 0.000000
# 2 -0.004627 0.009654 -0.003161 0.000000 0.000000 0.000000
# 3 -0.010648 -0.003161 0.017359 0.000000 0.000000 0.000000
# 4 0.000000 0.000000 0.000000 0.035138 0.000000 0.000000
# 5 0.000000 0.000000 0.000000 0.000000 0.032076 0.000000
# 6 0.000000 0.000000 0.000000 0.000000 0.000000 0.035946
#
#
# Mechanical properties :
#
#
# Convention : Reuss Voigt Hill
#
# Bulk Modulus (GPa) = 50.83433 60.59944 55.71688
# Shear Modulus (GPa) = 24.61451 27.84095 26.22773
#
# Velocity S-wave (km/s) = 3.56745 3.79406 3.68250
# Velocity P-wave (km/s) = 6.57665 7.10813 6.84755
#
# Compressibility (1/GPa) = 0.01967175
#
# Stress axis : x y z
#
# Youngs Moduli (GPa) = 33.86204 103.58726 57.60822
#
# Poissons Ratio (x) = 0.47934 0.61339
# Poissons Ratio (y) = 0.15669 0.18211
# Poissons Ratio (z) = 0.36055 0.32745
#
# Static dielectric constant tensor:
#      x y z
#    x 3.640820 0.000000 0.000000 
#    y 0.000000 3.838980 0.000000 
#    z 0.000000 0.000000 3.472620 
# 
# 
# High freq. dielectric constant tensor:
#      x y z
#    x 1.756970 0.000000 0.000000 
#    y 0.000000 1.774120 0.000000 
#    z 0.000000 0.000000 1.729880 
# 
# From -- ./inp_files/29109.got.cif
#   From: 2010.03.12/outbox.cif.g09.slc.cpg/sg59_15_cif.got.tgz:29109.got - 2010.04.16 16:29:54.
