data_PCOD8243506
_publ_section_title
;
Structure prediction by ZEFSAII (Michael W. Deem and Ramdas Pophale) SiO2 
 PCOD8243506
Probable space group: P M M N
;
_chemical_formula_sum "Si O2"
_cell_formula_units_Z 56
_cell_length_a 8.759762
_cell_length_b 23.087588
_cell_length_c 15.257142
_cell_angle_alpha 90.000000
_cell_angle_beta 90.000000
_cell_angle_gamma 90.000000
_cell_volume 3085.631495
_symmetry_space_group_name_H-M "P M M N"
_symmetry_group_IT_number 59
_space_group.IT_coordinate_system_code '2'
_symmetry_cell_setting 'orthorhombic'
loop_
_space_group_symop_operation_xyz
x,y,z
1/2-x,1/2-y,z
1/2+x,-y,-z
-x,1/2+y,-z
-x,-y,-z
1/2+x,1/2+y,-z
1/2-x,y,z
x,1/2-y,z
loop_
_atom_site_type_symbol
_atom_site_label
_atom_site_fract_x
_atom_site_fract_y
_atom_site_fract_z
Si Si1 0.574149 0.682219 0.319873
Si Si2 0.572054 0.120757 0.839447
Si Si3 0.574153 0.683720 0.005905
Si Si4 0.070232 0.495837 0.903896
Si Si5 0.570913 0.609038 0.839346
Si Si6 0.929656 0.183338 0.311342
Si Si7 0.581853 0.318514 0.505839
O O1 0.750000 0.668932 0.300116
O O2 0.537214 0.750000 0.307469
O O3 0.468834 0.645585 0.255421
O O4 0.535965 0.661815 0.418992
O O5 0.750000 0.106396 0.843853
O O6 0.530024 0.168922 0.911282
O O7 0.477249 0.063013 0.856815
O O8 0.750000 0.671526 0.030724
O O9 0.548210 0.750000 0.979607
O O10 0.521016 0.645685 0.923975
O O11 0.250000 0.497583 0.914592
O O12 0.015549 0.548099 0.842385
O O13 0.000000 0.500000 0.000000
O O14 0.750000 0.597366 0.838587
O O15 0.525046 0.643204 0.752864
O O16 0.750000 0.176248 0.294087
O O17 0.979158 0.250000 0.297035
O O18 0.972511 0.161343 0.409397
O O19 0.750000 0.344162 0.527039
O O20 0.594537 0.250000 0.502262
#
# Coordination Sequence:
#
# PCOD8243506 Si02
#       7
#     8   8   8   8   8   8   8
#     4  10  20  34  54  82 115 148 182 225 276 328
#     4  12  24  37  56  80 107 144 185 227 272 325
#     4  10  21  36  53  76 110 147 179 220 272 321
#     4  12  24  41  61  80 104 140 186 232 275 324
#     4  11  22  36  56  81 110 146 185 228 273 322
#     4   9  18  33  54  82 116 151 186 226 273 325
#     4   8  15  30  52  78 110 147 185 225 269 322
#
# _framework density 18.148634999999999
#
# number of rings (size 3 to 8) (size 9 to 14) (size 15 to 20)
#    0.000    1.714    1.429    5.143    0.000    4.857 
#    0.000    1.429    0.000    0.857    0.000    0.000 
#    0.000    0.000    0.000    0.000    0.000    0.000 
#
# Total GULP energy -694539.659455 kJ/mol
# GULP energy per Si atom -12402.493919 kJ/mol
# Density = 1.810733 g / cm^3
# Si number density = 18.148635 Si / 1000 Ang^3
#
#
#
# Elastic Constant Matrix: (Units=GPa)
#
#
# Indices 1 2 3 4 5 6 
#
# 1 94.0439 33.4612 42.1150 0.0000 0.0000 0.0000
# 2 33.4612 77.1545 33.9381 0.0000 0.0000 0.0000
# 3 42.1150 33.9381 111.8930 0.0000 0.0000 0.0000
# 4 0.0000 0.0000 0.0000 8.8812 0.0000 0.0000
# 5 0.0000 0.0000 0.0000 0.0000 33.6425 0.0000
# 6 0.0000 0.0000 0.0000 0.0000 0.0000 27.7974
#
#
#
# Elastic Compliance Matrix: (Units=1/GPa)
#
#
# Indices 1 2 3 4 5 6 
#
# 1 0.013929 -0.004310 -0.003936 0.000000 0.000000 0.000000
# 2 -0.004310 0.016290 -0.003319 0.000000 0.000000 0.000000
# 3 -0.003936 -0.003319 0.011425 0.000000 0.000000 0.000000
# 4 0.000000 0.000000 0.000000 0.112597 0.000000 0.000000
# 5 0.000000 0.000000 0.000000 0.000000 0.029724 0.000000
# 6 0.000000 0.000000 0.000000 0.000000 0.000000 0.035975
#
#
# Mechanical properties :
#
#
# Convention : Reuss Voigt Hill
#
# Bulk Modulus (GPa) = 54.00750 55.79111 54.89931
# Shear Modulus (GPa) = 20.06097 25.63603 22.84850
#
# Velocity S-wave (km/s) = 3.32832 3.76248 3.55204
# Velocity P-wave (km/s) = 6.67782 7.04861 6.86572
#
# Compressibility (1/GPa) = 0.01851595
#
# Stress axis : x y z
#
# Youngs Moduli (GPa) = 71.79158 61.38755 87.52735
#
# Poissons Ratio (x) = 0.26457 0.34447
# Poissons Ratio (y) = 0.30941 0.29048
# Poissons Ratio (z) = 0.28254 0.20373
#
# Static dielectric constant tensor:
#      x y z
#    x 3.420640 0.000000 0.000000 
#    y 0.000000 3.411510 0.000000 
#    z 0.000000 0.000000 3.518450 
# 
# 
# High freq. dielectric constant tensor:
#      x y z
#    x 1.708720 0.000000 0.000000 
#    y 0.000000 1.682650 0.000000 
#    z 0.000000 0.000000 1.707930 
# 
# From -- ./inp_files/21082.got.cif
#   From: 2010.03.12/outbox.cif.g09.slc.cpg/sg59_11_cif.got.tgz:21082.got - 2010.04.16 16:29:54.
