data_PCOD8243433
_publ_section_title
;
Structure prediction by ZEFSAII (Michael W. Deem and Ramdas Pophale) SiO2 
 PCOD8243433
Probable space group: P M M N
;
_chemical_formula_sum "Si O2"
_cell_formula_units_Z 48
_cell_length_a 13.703704
_cell_length_b 8.922961
_cell_length_c 20.833243
_cell_angle_alpha 90.000000
_cell_angle_beta 90.000000
_cell_angle_gamma 90.000000
_cell_volume 2547.439295
_symmetry_space_group_name_H-M "P M M N"
_symmetry_group_IT_number 59
_space_group.IT_coordinate_system_code '2'
_symmetry_cell_setting 'orthorhombic'
loop_
_space_group_symop_operation_xyz
x,y,z
1/2-x,1/2-y,z
1/2+x,-y,-z
-x,1/2+y,-z
-x,-y,-z
1/2+x,1/2+y,-z
1/2-x,y,z
x,1/2-y,z
loop_
_atom_site_type_symbol
_atom_site_label
_atom_site_fract_x
_atom_site_fract_y
_atom_site_fract_z
Si Si1 0.036036 0.926319 0.652343
Si Si2 0.865552 0.579965 0.467138
Si Si3 0.861426 0.072880 0.597668
Si Si4 0.535426 0.926122 0.095644
Si Si5 0.137087 0.924346 0.785561
Si Si6 0.360501 0.073251 0.034202
O O1 0.028458 0.750000 0.641786
O O2 0.087939 0.967287 0.718554
O O3 0.099157 0.997634 0.596095
O O4 0.927714 0.998774 0.653065
O O5 0.750000 0.578739 0.466149
O O6 0.906060 0.750000 0.469346
O O7 0.901970 0.490527 0.530013
O O8 0.750000 0.024433 0.610282
O O9 0.873202 0.250000 0.597806
O O10 0.522578 0.750000 0.098402
O O11 0.584567 0.980479 0.160346
O O12 0.428122 0.997675 0.088114
O O13 0.603846 0.976194 0.036441
O O14 0.250000 0.970220 0.782204
O O15 0.124280 0.750000 0.801471
O O16 0.250000 0.016234 0.043550
O O17 0.367638 0.250000 0.042723
#
# Coordination Sequence:
#
# PCOD8243433 Si02
#       6
#     8   8   8   8   8   8
#     4  11  22  36  55  78 106 139 177 220 264 315
#     4  10  20  34  54  80 108 138 174 217 266 319
#     4  10  21  37  56  77 103 136 175 221 271 320
#     4  10  20  34  55  84 114 143 179 223 268 312
#     4  10  22  39  57  78 107 144 181 215 259 318
#     4   9  18  34  56  82 113 147 182 220 263 312
#
# _framework density 18.842449999999999
#
# number of rings (size 3 to 8) (size 9 to 14) (size 15 to 20)
#    0.000    2.000    0.000    3.500    0.000    6.000 
#    0.000    0.833    0.000    1.000    0.000    0.000 
#    0.000    0.000    0.000    0.000    0.000    0.000 
#
# Total GULP energy -595372.156027 kJ/mol
# GULP energy per Si atom -12403.586584 kJ/mol
# Density = 1.879956 g / cm^3
# Si number density = 18.842450 Si / 1000 Ang^3
#
#
#
# Elastic Constant Matrix: (Units=GPa)
#
#
# Indices 1 2 3 4 5 6 
#
# 1 119.8765 47.1955 57.8969 0.0000 0.0000 0.0000
# 2 47.1955 78.2720 45.1935 0.0000 0.0000 0.0000
# 3 57.8969 45.1935 86.0950 0.0000 0.0000 0.0000
# 4 0.0000 0.0000 0.0000 32.9209 0.0000 0.0000
# 5 0.0000 0.0000 0.0000 0.0000 31.4922 0.0000
# 6 0.0000 0.0000 0.0000 0.0000 0.0000 32.6901
#
#
#
# Elastic Compliance Matrix: (Units=1/GPa)
#
#
# Indices 1 2 3 4 5 6 
#
# 1 0.013199 -0.004066 -0.006741 0.000000 0.000000 0.000000
# 2 -0.004066 0.019585 -0.007546 0.000000 0.000000 0.000000
# 3 -0.006741 -0.007546 0.020110 0.000000 0.000000 0.000000
# 4 0.000000 0.000000 0.000000 0.030376 0.000000 0.000000
# 5 0.000000 0.000000 0.000000 0.000000 0.031754 0.000000
# 6 0.000000 0.000000 0.000000 0.000000 0.000000 0.030590
#
#
# Mechanical properties :
#
#
# Convention : Reuss Voigt Hill
#
# Bulk Modulus (GPa) = 61.78249 64.97946 63.38098
# Shear Modulus (GPa) = 26.63603 28.35116 27.49359
#
# Velocity S-wave (km/s) = 3.76389 3.88318 3.82400
# Velocity P-wave (km/s) = 7.19370 7.39365 7.29436
#
# Compressibility (1/GPa) = 0.01618581
#
# Stress axis : x y z
#
# Youngs Moduli (GPa) = 75.76572 51.06019 49.72703
#
# Poissons Ratio (x) = 0.20760 0.33523
# Poissons Ratio (y) = 0.30805 0.37526
# Poissons Ratio (z) = 0.51077 0.38532
#
# Static dielectric constant tensor:
#      x y z
#    x 3.732500 0.000000 0.000000 
#    y 0.000000 3.509530 0.000000 
#    z 0.000000 0.000000 3.326270 
# 
# 
# High freq. dielectric constant tensor:
#      x y z
#    x 1.748870 0.000000 0.000000 
#    y 0.000000 1.739850 0.000000 
#    z 0.000000 0.000000 1.715110 
# 
# From -- ./inp_files/25497.got.cif
#   From: 2010.03.12/outbox.cif.g09.slc.cpg/sg59_13_cif.got.tgz:25497.got - 2010.04.16 16:29:54.
