data_PCOD8243621
_publ_section_title
;
Structure prediction by ZEFSAII (Michael W. Deem and Ramdas Pophale) SiO2 
 PCOD8243621
Probable space group: P M M N
;
_chemical_formula_sum "Si O2"
_cell_formula_units_Z 64
_cell_length_a 13.870444
_cell_length_b 9.030462
_cell_length_c 26.666867
_cell_angle_alpha 90.000000
_cell_angle_beta 90.000000
_cell_angle_gamma 90.000000
_cell_volume 3340.198892
_symmetry_space_group_name_H-M "P M M N"
_symmetry_group_IT_number 59
_space_group.IT_coordinate_system_code '2'
_symmetry_cell_setting 'orthorhombic'
loop_
_space_group_symop_operation_xyz
x,y,z
1/2-x,1/2-y,z
1/2+x,-y,-z
-x,1/2+y,-z
-x,-y,-z
1/2+x,1/2+y,-z
1/2-x,y,z
x,1/2-y,z
loop_
_atom_site_type_symbol
_atom_site_label
_atom_site_fract_x
_atom_site_fract_y
_atom_site_fract_z
Si Si1 0.142306 0.074065 0.139697
Si Si2 0.045706 0.077973 0.424926
Si Si3 0.452003 0.425287 0.242710
Si Si4 0.856920 0.921492 0.230735
Si Si5 0.859275 0.080047 0.484487
Si Si6 0.360505 0.921960 0.333683
Si Si7 0.005963 0.077449 0.052986
Si Si8 0.358254 0.413241 0.885971
O O1 0.250000 0.007560 0.142921
O O2 0.145609 0.250000 0.140733
O O3 0.079483 0.019315 0.187235
O O4 0.094826 0.019667 0.087441
O O5 0.065710 0.250000 0.414980
O O6 0.933696 0.048373 0.439195
O O7 0.116199 0.024959 0.469057
O O8 0.067674 0.987784 0.374935
O O9 0.448099 0.250000 0.247704
O O10 0.559997 0.480332 0.256291
O O11 0.376797 0.495230 0.281345
O O12 0.750000 0.965536 0.251079
O O13 0.877186 0.750000 0.242349
O O14 0.860415 0.954328 0.172025
O O15 0.750000 0.047507 0.466121
O O16 0.870039 0.250000 0.502589
O O17 0.250000 0.946625 0.350464
O O18 0.384321 0.750000 0.326695
O O19 0.014506 0.250000 0.043086
O O20 0.909871 0.041917 0.083502
O O21 0.000000 0.000000 0.000000
O O22 0.250000 0.409652 0.906102
O O23 0.405027 0.250000 0.894993
#
# Coordination Sequence:
#
# PCOD8243621 Si02
#       8
#     8   8   8   8   8   8   8   8
#     4   9  19  36  56  78 106 140 177 220 273 330
#     4  10  20  34  55  84 115 150 195 244 288 334
#     4  11  21  36  60  87 112 142 185 236 283 333
#     4   9  18  34  57  83 111 142 176 217 267 325
#     4   9  18  34  56  82 115 154 192 234 288 346
#     4  11  24  40  57  80 113 153 193 235 288 345
#     4  11  22  36  54  79 109 142 180 224 272 327
#     4   9  18  34  56  79 104 137 173 213 264 319
#
# _framework density 19.160536
#
# number of rings (size 3 to 8) (size 9 to 14) (size 15 to 20)
#    0.000    2.125    1.250    3.000    0.000    4.750 
#    0.000    3.125    0.000    5.625    0.000    0.000 
#    0.000    0.000    0.000    0.000    0.000    0.000 
#
# Total GULP energy -793539.987215 kJ/mol
# GULP energy per Si atom -12399.062300 kJ/mol
# Density = 1.911693 g / cm^3
# Si number density = 19.160536 Si / 1000 Ang^3
#
#
#
# Elastic Constant Matrix: (Units=GPa)
#
#
# Indices 1 2 3 4 5 6 
#
# 1 124.9710 42.7622 39.3864 0.0000 0.0000 0.0000
# 2 42.7622 81.5498 41.2730 0.0000 0.0000 0.0000
# 3 39.3864 41.2730 87.7682 0.0000 0.0000 0.0000
# 4 0.0000 0.0000 0.0000 33.3894 0.0000 0.0000
# 5 0.0000 0.0000 0.0000 0.0000 22.6829 0.0000
# 6 0.0000 0.0000 0.0000 0.0000 0.0000 30.9249
#
#
#
# Elastic Compliance Matrix: (Units=1/GPa)
#
#
# Indices 1 2 3 4 5 6 
#
# 1 0.010221 -0.003987 -0.002712 0.000000 0.000000 0.000000
# 2 -0.003987 0.017648 -0.006510 0.000000 0.000000 0.000000
# 3 -0.002712 -0.006510 0.015672 0.000000 0.000000 0.000000
# 4 0.000000 0.000000 0.000000 0.029950 0.000000 0.000000
# 5 0.000000 0.000000 0.000000 0.000000 0.044086 0.000000
# 6 0.000000 0.000000 0.000000 0.000000 0.000000 0.032336
#
#
# Mechanical properties :
#
#
# Convention : Reuss Voigt Hill
#
# Bulk Modulus (GPa) = 58.39961 60.12580 59.26270
# Shear Modulus (GPa) = 27.46696 28.79058 28.12877
#
# Velocity S-wave (km/s) = 3.79029 3.88054 3.83568
# Velocity P-wave (km/s) = 7.04985 7.17818 7.11430
#
# Compressibility (1/GPa) = 0.01712340
#
# Stress axis : x y z
#
# Youngs Moduli (GPa) = 97.84000 56.66462 63.80929
#
# Poissons Ratio (x) = 0.22592 0.17303
# Poissons Ratio (y) = 0.39009 0.41537
# Poissons Ratio (z) = 0.26531 0.36887
#
# Static dielectric constant tensor:
#      x y z
#    x 5.141290 0.000000 0.000000 
#    y 0.000000 3.427150 0.000000 
#    z 0.000000 0.000000 3.610820 
# 
# 
# High freq. dielectric constant tensor:
#      x y z
#    x 1.753780 0.000000 0.000000 
#    y 0.000000 1.738180 0.000000 
#    z 0.000000 0.000000 1.728760 
# 
# From -- ./inp_files/32223.got.cif
#   From: 2010.03.12/outbox.cif.g09.slc.cpg/sg59_17_cif.got.tgz:32223.got - 2010.04.16 16:29:54.
