data_PCOD8243859
_publ_section_title
;
Structure prediction by ZEFSAII (Michael W. Deem and Ramdas Pophale) SiO2 
 PCOD8243859
Probable space group: P M M N
;
_chemical_formula_sum "Si O2"
_cell_formula_units_Z 56
_cell_length_a 16.682299
_cell_length_b 8.870464
_cell_length_c 20.156003
_cell_angle_alpha 90.000000
_cell_angle_beta 90.000000
_cell_angle_gamma 90.000000
_cell_volume 2982.679937
_symmetry_space_group_name_H-M "P M M N"
_symmetry_group_IT_number 59
_space_group.IT_coordinate_system_code '2'
_symmetry_cell_setting 'orthorhombic'
loop_
_space_group_symop_operation_xyz
x,y,z
1/2-x,1/2-y,z
1/2+x,-y,-z
-x,1/2+y,-z
-x,-y,-z
1/2+x,1/2+y,-z
1/2-x,y,z
x,1/2-y,z
loop_
_atom_site_type_symbol
_atom_site_label
_atom_site_fract_x
_atom_site_fract_y
_atom_site_fract_z
Si Si1 0.068800 0.427285 0.269309
Si Si2 0.523402 0.573515 0.931360
Si Si3 0.250000 0.076763 0.771186
Si Si4 0.057099 0.577843 0.404719
Si Si5 0.842822 0.073763 0.848448
Si Si6 0.601385 0.075861 0.452547
Si Si7 0.250000 0.426194 0.615545
Si Si8 0.413622 0.575752 0.808109
O O1 0.080816 0.250000 0.260079
O O2 0.087451 0.474967 0.344510
O O3 0.133059 0.509281 0.223113
O O4 0.977653 0.473087 0.248835
O O5 0.536062 0.750000 0.940771
O O6 0.607074 0.504697 0.906689
O O7 0.452915 0.539004 0.879065
O O8 0.500000 0.500000 0.000000
O O9 0.250000 0.250000 0.789312
O O10 0.250000 0.046947 0.693436
O O11 0.169562 0.010948 0.802962
O O12 0.052604 0.750000 0.380032
O O13 0.116047 0.561092 0.468058
O O14 0.970728 0.527335 0.429073
O O15 0.750000 0.039119 0.861628
O O16 0.861424 0.250000 0.849264
O O17 0.585207 0.250000 0.433196
O O18 0.675854 0.012355 0.414239
O O19 0.250000 0.250000 0.596645
O O20 0.392939 0.750000 0.800563
#
# Coordination Sequence:
#
# PCOD8243859 Si02
#       8
#     8   8   4   8   8   8   4   8
#     4  10  20  35  58  84 110 146 190 235 287 341
#     4  10  21  39  63  89 118 154 192 232 280 334
#     4  11  23  35  53  83 113 144 185 232 277 327
#     4  10  20  35  55  79 106 141 184 233 283 340
#     4  10  21  38  60  87 118 153 191 234 283 337
#     4  10  21  36  54  76 105 142 185 231 282 344
#     4  11  23  37  53  77 109 144 183 232 287 339
#     4   9  20  37  56  81 113 148 184 226 274 329
#
# _framework density 18.775062999999999
#
# number of rings (size 3 to 8) (size 9 to 14) (size 15 to 20)
#    0.000    2.000    0.000    4.286    0.000    9.714 
#    2.571    0.000    0.000    0.000    0.000    0.000 
#    0.000    0.000    0.000    0.000    0.000    0.000 
#
# Total GULP energy -694472.696175 kJ/mol
# GULP energy per Si atom -12401.298146 kJ/mol
# Density = 1.873233 g / cm^3
# Si number density = 18.775063 Si / 1000 Ang^3
#
#
#
# Elastic Constant Matrix: (Units=GPa)
#
#
# Indices 1 2 3 4 5 6 
#
# 1 99.0519 62.8306 35.7792 0.0000 0.0000 0.0000
# 2 62.8306 101.0982 51.5066 0.0000 0.0000 0.0000
# 3 35.7792 51.5066 103.6574 0.0000 0.0000 0.0000
# 4 0.0000 0.0000 0.0000 37.7690 0.0000 0.0000
# 5 0.0000 0.0000 0.0000 0.0000 19.7147 0.0000
# 6 0.0000 0.0000 0.0000 0.0000 0.0000 33.2197
#
#
#
# Elastic Compliance Matrix: (Units=1/GPa)
#
#
# Indices 1 2 3 4 5 6 
#
# 1 0.016717 -0.009974 -0.000814 0.000000 0.000000 0.000000
# 2 -0.009974 0.019196 -0.006095 0.000000 0.000000 0.000000
# 3 -0.000814 -0.006095 0.012957 0.000000 0.000000 0.000000
# 4 0.000000 0.000000 0.000000 0.026477 0.000000 0.000000
# 5 0.000000 0.000000 0.000000 0.000000 0.050724 0.000000
# 6 0.000000 0.000000 0.000000 0.000000 0.000000 0.030103
#
#
# Mechanical properties :
#
#
# Convention : Reuss Voigt Hill
#
# Bulk Modulus (GPa) = 66.21674 67.11560 66.66617
# Shear Modulus (GPa) = 25.64453 28.38676 27.01564
#
# Velocity S-wave (km/s) = 3.69979 3.89258 3.79741
# Velocity P-wave (km/s) = 7.32095 7.48517 7.40352
#
# Compressibility (1/GPa) = 0.01510192
#
# Stress axis : x y z
#
# Youngs Moduli (GPa) = 59.82047 52.09498 77.17954
#
# Poissons Ratio (x) = 0.51962 0.06281
# Poissons Ratio (y) = 0.59668 0.47044
# Poissons Ratio (z) = 0.04868 0.31754
#
# Static dielectric constant tensor:
#      x y z
#    x 3.427940 0.000000 0.000000 
#    y 0.000000 3.602150 0.000000 
#    z 0.000000 0.000000 3.562110 
# 
# 
# High freq. dielectric constant tensor:
#      x y z
#    x 1.720860 0.000000 0.000000 
#    y 0.000000 1.745440 0.000000 
#    z 0.000000 0.000000 1.733030 
# 
# From -- ./inp_files/30458.got.cif
#   From: 2010.03.12/outbox.cif.g09.slc.cpg/sg59_16_cif.got.tgz:30458.got - 2010.04.16 16:29:54.
