data_PCOD8243460
_publ_section_title
;
Structure prediction by ZEFSAII (Michael W. Deem and Ramdas Pophale) SiO2 
 PCOD8243460
Probable space group: P M M N
;
_chemical_formula_sum "Si O2"
_cell_formula_units_Z 56
_cell_length_a 14.100074
_cell_length_b 8.789581
_cell_length_c 22.351984
_cell_angle_alpha 90.000000
_cell_angle_beta 90.000000
_cell_angle_gamma 90.000000
_cell_volume 2770.165030
_symmetry_space_group_name_H-M "P M M N"
_symmetry_group_IT_number 59
_space_group.IT_coordinate_system_code '2'
_symmetry_cell_setting 'orthorhombic'
loop_
_space_group_symop_operation_xyz
x,y,z
1/2-x,1/2-y,z
1/2+x,-y,-z
-x,1/2+y,-z
-x,-y,-z
1/2+x,1/2+y,-z
1/2-x,y,z
x,1/2-y,z
loop_
_atom_site_type_symbol
_atom_site_label
_atom_site_fract_x
_atom_site_fract_y
_atom_site_fract_z
Si Si1 0.497675 0.430178 0.065101
Si Si2 0.855524 0.073272 0.266962
Si Si3 0.642704 0.569958 0.830437
Si Si4 0.044303 0.924586 0.284083
Si Si5 0.357046 0.930129 0.530408
Si Si6 0.355456 0.418714 0.857118
Si Si7 0.967358 0.072738 0.585574
O O1 0.497238 0.250000 0.060350
O O2 0.412961 0.486049 0.109947
O O3 0.594423 0.495003 0.089871
O O4 0.500000 0.500000 0.000000
O O5 0.750000 0.037314 0.292778
O O6 0.880565 0.250000 0.275941
O O7 0.859931 0.034093 0.197472
O O8 0.934387 0.967300 0.296489
O O9 0.750000 0.504782 0.832827
O O10 0.643733 0.750000 0.829045
O O11 0.592390 0.519235 0.768878
O O12 0.054986 0.750000 0.265772
O O13 0.085766 0.957917 0.350542
O O14 0.250000 0.994451 0.540327
O O15 0.354217 0.750000 0.534723
O O16 0.395005 0.984939 0.465408
O O17 0.430321 0.989300 0.580594
O O18 0.250000 0.393517 0.879866
O O19 0.399170 0.250000 0.842176
O O20 0.989347 0.250000 0.578112
#
# Coordination Sequence:
#
# PCOD8243460 Si02
#       7
#     8   8   8   8   8   8   8
#     4  11  23  39  61  87 117 154 193 240 293 343
#     4  10  20  34  54  80 111 148 187 229 282 344
#     4  10  23  43  63  84 115 155 196 239 289 343
#     4  11  22  36  58  86 118 154 193 238 291 347
#     4   9  18  35  58  81 110 150 194 239 287 338
#     4  10  20  35  57  84 113 144 181 229 285 342
#     4   9  20  36  54  82 116 150 189 237 288 341
#
# _framework density 20.215402000000001
#
# number of rings (size 3 to 8) (size 9 to 14) (size 15 to 20)
#    0.000    2.000    1.429    1.714    0.000    5.714 
#    0.000    5.714    0.000    0.000    0.000    0.000 
#    0.000    0.000    0.000    0.000    0.000    0.000 
#
# Total GULP energy -693894.919688 kJ/mol
# GULP energy per Si atom -12390.980709 kJ/mol
# Density = 2.016939 g / cm^3
# Si number density = 20.215402 Si / 1000 Ang^3
#
#
#
# Elastic Constant Matrix: (Units=GPa)
#
#
# Indices 1 2 3 4 5 6 
#
# 1 88.3385 18.9650 39.3181 0.0000 0.0000 0.0000
# 2 18.9650 32.3021 15.2335 0.0000 0.0000 0.0000
# 3 39.3181 15.2335 112.7227 0.0000 0.0000 0.0000
# 4 0.0000 0.0000 0.0000 28.9236 0.0000 0.0000
# 5 0.0000 0.0000 0.0000 0.0000 16.6621 0.0000
# 6 0.0000 0.0000 0.0000 0.0000 0.0000 26.3603
#
#
#
# Elastic Compliance Matrix: (Units=1/GPa)
#
#
# Indices 1 2 3 4 5 6 
#
# 1 0.014607 -0.006593 -0.004204 0.000000 0.000000 0.000000
# 2 -0.006593 0.036041 -0.002571 0.000000 0.000000 0.000000
# 3 -0.004204 -0.002571 0.010685 0.000000 0.000000 0.000000
# 4 0.000000 0.000000 0.000000 0.034574 0.000000 0.000000
# 5 0.000000 0.000000 0.000000 0.000000 0.060016 0.000000
# 6 0.000000 0.000000 0.000000 0.000000 0.000000 0.037936
#
#
# Mechanical properties :
#
#
# Convention : Reuss Voigt Hill
#
# Bulk Modulus (GPa) = 28.90434 42.26627 35.58531
# Shear Modulus (GPa) = 21.53993 25.04566 23.29279
#
# Velocity S-wave (km/s) = 3.26777 3.52368 3.39813
# Velocity P-wave (km/s) = 5.34481 6.12441 5.74784
#
# Compressibility (1/GPa) = 0.03459688
#
# Stress axis : x y z
#
# Youngs Moduli (GPa) = 68.46208 27.74612 93.58855
#
# Poissons Ratio (x) = 0.18294 0.39343
# Poissons Ratio (y) = 0.45139 0.24061
# Poissons Ratio (z) = 0.28780 0.07133
#
# Static dielectric constant tensor:
#      x y z
#    x 4.085340 0.000000 0.000000 
#    y 0.000000 3.448090 0.000000 
#    z 0.000000 0.000000 3.725330 
# 
# 
# High freq. dielectric constant tensor:
#      x y z
#    x 1.785330 0.000000 0.000000 
#    y 0.000000 1.785610 0.000000 
#    z 0.000000 0.000000 1.793840 
# 
# From -- ./inp_files/28981.got.cif
#   From: 2010.03.12/outbox.cif.g09.slc.cpg/sg59_15_cif.got.tgz:28981.got - 2010.04.16 16:29:54.
