data_PCOD8243347
_publ_section_title
;
Structure prediction by ZEFSAII (Michael W. Deem and Ramdas Pophale) SiO2 
 PCOD8243347
Probable space group: P M M N
;
_chemical_formula_sum "Si O2"
_cell_formula_units_Z 48
_cell_length_a 9.216974
_cell_length_b 18.797962
_cell_length_c 14.681834
_cell_angle_alpha 90.000000
_cell_angle_beta 90.000000
_cell_angle_gamma 90.000000
_cell_volume 2543.779360
_symmetry_space_group_name_H-M "P M M N"
_symmetry_group_IT_number 59
_space_group.IT_coordinate_system_code '2'
_symmetry_cell_setting 'orthorhombic'
loop_
_space_group_symop_operation_xyz
x,y,z
1/2-x,1/2-y,z
1/2+x,-y,-z
-x,1/2+y,-z
-x,-y,-z
1/2+x,1/2+y,-z
1/2-x,y,z
x,1/2-y,z
loop_
_atom_site_type_symbol
_atom_site_label
_atom_site_fract_x
_atom_site_fract_y
_atom_site_fract_z
Si Si1 0.585679 0.669129 0.700134
Si Si2 0.418679 0.055978 0.622656
Si Si3 0.918285 0.330983 0.969522
Si Si4 0.581766 0.399951 0.451987
Si Si5 0.083484 0.932358 0.191942
Si Si6 0.919009 0.585318 0.875320
O O1 0.750000 0.646298 0.674768
O O2 0.579106 0.750000 0.733383
O O3 0.485016 0.660646 0.611939
O O4 0.525234 0.621292 0.782211
O O5 0.250000 0.075586 0.619886
O O6 0.501962 0.103953 0.548936
O O7 0.479681 0.073389 0.721757
O O8 0.446975 0.974047 0.599065
O O9 0.750000 0.332849 0.995426
O O10 0.977538 0.250000 0.971428
O O11 0.943385 0.362558 0.868799
O O12 0.999399 0.380659 0.040421
O O13 0.750000 0.384929 0.468679
O O14 0.250000 0.937503 0.225702
O O15 0.045781 0.001585 0.130986
O O16 0.750000 0.600668 0.889514
#
# Coordination Sequence:
#
# PCOD8243347 Si02
#       6
#     8   8   8   8   8   8
#     4  10  20  34  53  79 113 148 182 226 280 333
#     4  10  20  34  56  83 109 139 180 229 275 322
#     4  10  22  38  55  79 112 147 182 225 279 333
#     4  10  20  34  54  80 110 144 181 223 272 328
#     4  10  20  36  58  82 109 144 186 232 277 327
#     4  10  20  35  57  82 108 143 187 231 276 329
#
# _framework density 18.86956
#
# number of rings (size 3 to 8) (size 9 to 14) (size 15 to 20)
#    0.000    2.000    1.667    2.000    0.000    4.667 
#    0.000    0.833    0.000    3.000    0.000    0.000 
#    0.000    0.000    0.000    0.000    0.000    0.000 
#
# Total GULP energy -595383.133581 kJ/mol
# GULP energy per Si atom -12403.815283 kJ/mol
# Density = 1.882661 g / cm^3
# Si number density = 18.869560 Si / 1000 Ang^3
#
#
#
# Elastic Constant Matrix: (Units=GPa)
#
#
# Indices 1 2 3 4 5 6 
#
# 1 82.5224 19.4084 55.3483 0.0000 0.0000 0.0000
# 2 19.4084 58.0020 25.3248 0.0000 0.0000 0.0000
# 3 55.3483 25.3248 105.8287 0.0000 0.0000 0.0000
# 4 0.0000 0.0000 0.0000 22.4398 0.0000 0.0000
# 5 0.0000 0.0000 0.0000 0.0000 40.4774 0.0000
# 6 0.0000 0.0000 0.0000 0.0000 0.0000 21.3747
#
#
#
# Elastic Compliance Matrix: (Units=1/GPa)
#
#
# Indices 1 2 3 4 5 6 
#
# 1 0.018924 -0.002246 -0.009360 0.000000 0.000000 0.000000
# 2 -0.002246 0.019519 -0.003496 0.000000 0.000000 0.000000
# 3 -0.009360 -0.003496 0.015181 0.000000 0.000000 0.000000
# 4 0.000000 0.000000 0.000000 0.044564 0.000000 0.000000
# 5 0.000000 0.000000 0.000000 0.000000 0.024705 0.000000
# 6 0.000000 0.000000 0.000000 0.000000 0.000000 0.046784
#
#
# Mechanical properties :
#
#
# Convention : Reuss Voigt Hill
#
# Bulk Modulus (GPa) = 42.69826 49.61289 46.15557
# Shear Modulus (GPa) = 24.07476 26.60985 25.34230
#
# Velocity S-wave (km/s) = 3.57578 3.75934 3.66871
# Velocity P-wave (km/s) = 6.30282 6.72258 6.51608
#
# Compressibility (1/GPa) = 0.02342016
#
# Stress axis : x y z
#
# Youngs Moduli (GPa) = 52.84396 51.23275 65.87170
#
# Poissons Ratio (x) = 0.11504 0.61654
# Poissons Ratio (y) = 0.11866 0.23032
# Poissons Ratio (z) = 0.49460 0.17913
#
# Static dielectric constant tensor:
#      x y z
#    x 3.411540 0.000000 0.000000 
#    y 0.000000 3.387080 0.000000 
#    z 0.000000 0.000000 3.371260 
# 
# 
# High freq. dielectric constant tensor:
#      x y z
#    x 1.731520 0.000000 0.000000 
#    y 0.000000 1.721290 0.000000 
#    z 0.000000 0.000000 1.735550 
# 
# From -- ./inp_files/20336.got.cif
#   From: 2010.03.12/outbox.cif.g09.slc.cpg/sg59_11_cif.got.tgz:20336.got - 2010.04.16 16:29:54.
