data_PCOD8243400
_publ_section_title
;
Structure prediction by ZEFSAII (Michael W. Deem and Ramdas Pophale) SiO2 
 PCOD8243400
Probable space group: P M M N
;
_chemical_formula_sum "Si O2"
_cell_formula_units_Z 56
_cell_length_a 14.907840
_cell_length_b 8.447882
_cell_length_c 21.778856
_cell_angle_alpha 90.000000
_cell_angle_beta 90.000000
_cell_angle_gamma 90.000000
_cell_volume 2742.822007
_symmetry_space_group_name_H-M "P M M N"
_symmetry_group_IT_number 59
_space_group.IT_coordinate_system_code '2'
_symmetry_cell_setting 'orthorhombic'
loop_
_space_group_symop_operation_xyz
x,y,z
1/2-x,1/2-y,z
1/2+x,-y,-z
-x,1/2+y,-z
-x,-y,-z
1/2+x,1/2+y,-z
1/2-x,y,z
x,1/2-y,z
loop_
_atom_site_type_symbol
_atom_site_label
_atom_site_fract_x
_atom_site_fract_y
_atom_site_fract_z
Si Si1 0.250000 0.930742 0.251797
Si Si2 0.092753 0.933231 0.053311
Si Si3 0.648080 0.936705 0.497054
Si Si4 0.851415 0.935163 0.069085
Si Si5 0.054612 0.563082 0.275441
Si Si6 0.750000 0.927220 0.875899
Si Si7 0.029106 0.567336 0.846238
Si Si8 0.010177 0.564168 0.411044
O O1 0.250000 0.750000 0.272128
O O2 0.343104 0.006319 0.277140
O O3 0.250000 0.945925 0.178674
O O4 0.121829 0.750000 0.050642
O O5 0.165494 0.049254 0.081937
O O6 0.012208 0.953090 0.101217
O O7 0.080329 0.998420 0.983931
O O8 0.750000 0.008655 0.492538
O O9 0.656455 0.750000 0.494305
O O10 0.582992 0.997798 0.441671
O O11 0.599206 0.985402 0.560125
O O12 0.750000 0.973115 0.048779
O O13 0.867161 0.750000 0.077886
O O14 0.868005 0.028381 0.134653
O O15 0.057189 0.750000 0.263036
O O16 0.006647 0.520217 0.339347
O O17 0.996550 0.482645 0.222265
O O18 0.750000 0.750000 0.848059
O O19 0.003503 0.750000 0.854700
O O20 0.020421 0.750000 0.421659
#
# Coordination Sequence:
#
# PCOD8243400 Si02
#       8
#     4   8   8   8   8   4   8   8
#     4  10  20  34  54  78 110 152 189 232 287 344
#     4  12  23  38  60  84 114 148 187 234 289 345
#     4   9  18  34  56  85 121 157 191 234 287 339
#     4  11  24  42  63  84 109 142 187 238 289 348
#     4  10  21  37  57  82 114 151 193 235 283 340
#     4  12  22  34  54  84 116 148 187 230 287 350
#     4  12  25  40  59  83 114 148 187 235 288 346
#     4   9  19  35  57  85 117 154 197 241 282 336
#
# _framework density 20.416927000000001
#
# number of rings (size 3 to 8) (size 9 to 14) (size 15 to 20)
#    0.000    1.429    2.143    4.071    1.000    1.714 
#    0.000    0.714    0.000    2.571    0.000    0.000 
#    0.000    0.000    0.000    0.000    0.000    0.000 
#
# Total GULP energy -693967.587606 kJ/mol
# GULP energy per Si atom -12392.278350 kJ/mol
# Density = 2.037046 g / cm^3
# Si number density = 20.416927 Si / 1000 Ang^3
#
#
#
# Elastic Constant Matrix: (Units=GPa)
#
#
# Indices 1 2 3 4 5 6 
#
# 1 102.3005 22.6616 62.3915 0.0000 0.0000 0.0000
# 2 22.6616 65.1777 32.4807 0.0000 0.0000 0.0000
# 3 62.3915 32.4807 136.4560 0.0000 0.0000 0.0000
# 4 0.0000 0.0000 0.0000 26.7771 0.0000 0.0000
# 5 0.0000 0.0000 0.0000 0.0000 31.9099 0.0000
# 6 0.0000 0.0000 0.0000 0.0000 0.0000 24.8017
#
#
#
# Elastic Compliance Matrix: (Units=1/GPa)
#
#
# Indices 1 2 3 4 5 6 
#
# 1 0.013753 -0.001870 -0.005843 0.000000 0.000000 0.000000
# 2 -0.001870 0.017662 -0.003349 0.000000 0.000000 0.000000
# 3 -0.005843 -0.003349 0.010797 0.000000 0.000000 0.000000
# 4 0.000000 0.000000 0.000000 0.037345 0.000000 0.000000
# 5 0.000000 0.000000 0.000000 0.000000 0.031338 0.000000
# 6 0.000000 0.000000 0.000000 0.000000 0.000000 0.040320
#
#
# Mechanical properties :
#
#
# Convention : Reuss Voigt Hill
#
# Bulk Modulus (GPa) = 49.78164 59.88910 54.83537
# Shear Modulus (GPa) = 27.77228 29.12442 28.44835
#
# Velocity S-wave (km/s) = 3.69217 3.78098 3.73684
# Velocity P-wave (km/s) = 6.52776 6.96117 6.74794
#
# Compressibility (1/GPa) = 0.02008773
#
# Stress axis : x y z
#
# Youngs Moduli (GPa) = 72.71143 56.61939 92.61645
#
# Poissons Ratio (x) = 0.10587 0.54117
# Poissons Ratio (y) = 0.13596 0.31018
# Poissons Ratio (z) = 0.42486 0.18962
#
# Static dielectric constant tensor:
#      x y z
#    x 3.825980 0.000000 0.000000 
#    y 0.000000 3.493020 0.000000 
#    z 0.000000 0.000000 3.653860 
# 
# 
# High freq. dielectric constant tensor:
#      x y z
#    x 1.805550 0.000000 0.000000 
#    y 0.000000 1.788490 0.000000 
#    z 0.000000 0.000000 1.788480 
# 
# From -- ./inp_files/30445.got.cif
#   From: 2010.03.12/outbox.cif.g09.slc.cpg/sg59_16_cif.got.tgz:30445.got - 2010.04.16 16:29:54.
