data_PCOD8243485
_publ_section_title
;
Structure prediction by ZEFSAII (Michael W. Deem and Ramdas Pophale) SiO2 
 PCOD8243485
Probable space group: P M M N
;
_chemical_formula_sum "Si O2"
_cell_formula_units_Z 64
_cell_length_a 9.256146
_cell_length_b 28.378133
_cell_length_c 12.479344
_cell_angle_alpha 90.000000
_cell_angle_beta 90.000000
_cell_angle_gamma 90.000000
_cell_volume 3277.976022
_symmetry_space_group_name_H-M "P M M N"
_symmetry_group_IT_number 59
_space_group.IT_coordinate_system_code '2'
_symmetry_cell_setting 'orthorhombic'
loop_
_space_group_symop_operation_xyz
x,y,z
1/2-x,1/2-y,z
1/2+x,-y,-z
-x,1/2+y,-z
-x,-y,-z
1/2+x,1/2+y,-z
1/2-x,y,z
x,1/2-y,z
loop_
_atom_site_type_symbol
_atom_site_label
_atom_site_fract_x
_atom_site_fract_y
_atom_site_fract_z
Si Si1 0.913053 0.062889 0.239198
Si Si2 0.915682 0.196731 0.025101
Si Si3 0.419675 0.475969 0.901724
Si Si4 0.079379 0.152879 0.213158
Si Si5 0.580877 0.362818 0.607446
Si Si6 0.581212 0.379951 0.849855
Si Si7 0.417734 0.304464 0.438752
Si Si8 0.085339 0.547022 0.516134
O O1 0.750000 0.076873 0.206665
O O2 0.936747 0.065960 0.365052
O O3 0.019085 0.100870 0.185045
O O4 0.946760 0.010108 0.199666
O O5 0.750000 0.187808 0.057877
O O6 0.938252 0.250000 0.983228
O O7 0.014101 0.189589 0.129130
O O8 0.962499 0.161340 0.931055
O O9 0.250000 0.469989 0.927033
O O10 0.487212 0.425591 0.876009
O O11 0.500000 0.500000 0.000000
O O12 0.250000 0.152926 0.200348
O O13 0.030961 0.167945 0.332424
O O14 0.750000 0.357021 0.585060
O O15 0.542957 0.360066 0.732542
O O16 0.501704 0.321322 0.544063
O O17 0.525606 0.413236 0.563965
O O18 0.750000 0.393596 0.857616
O O19 0.250000 0.313539 0.459736
O O20 0.452394 0.250000 0.420017
O O21 0.250000 0.535125 0.490275
O O22 0.000000 0.500000 0.500000
#
# Coordination Sequence:
#
# PCOD8243485 Si02
#       8
#     8   8   8   8   8   8   8   8
#     4  10  21  37  56  81 117 155 194 239 289 351
#     4  10  22  40  61  84 113 152 193 238 298 358
#     4  11  23  38  58  85 118 159 201 245 296 351
#     4  11  22  37  60  89 119 151 193 249 301 350
#     4  10  21  38  60  86 116 152 196 242 287 347
#     4  10  22  40  61  87 120 154 195 247 294 348
#     4  10  22  39  58  84 119 155 192 241 300 355
#     4  10  20  34  54  81 113 148 190 235 281 338
#
# _framework density 19.524242999999998
#
# number of rings (size 3 to 8) (size 9 to 14) (size 15 to 20)
#    0.000    1.750    1.250    2.625    0.000    8.000 
#    0.000    1.250    0.000    0.000    0.000    0.000 
#    0.000    0.000    0.000    0.000    0.000    0.000 
#
# Total GULP energy -793839.541820 kJ/mol
# GULP energy per Si atom -12403.742841 kJ/mol
# Density = 1.947980 g / cm^3
# Si number density = 19.524243 Si / 1000 Ang^3
#
#
#
# Elastic Constant Matrix: (Units=GPa)
#
#
# Indices 1 2 3 4 5 6 
#
# 1 80.3464 60.5953 54.0356 0.0000 0.0000 0.0000
# 2 60.5953 131.2256 51.4516 0.0000 0.0000 0.0000
# 3 54.0356 51.4516 108.2809 0.0000 0.0000 0.0000
# 4 0.0000 0.0000 0.0000 30.6694 0.0000 0.0000
# 5 0.0000 0.0000 0.0000 0.0000 28.7660 0.0000
# 6 0.0000 0.0000 0.0000 0.0000 0.0000 36.6234
#
#
#
# Elastic Compliance Matrix: (Units=1/GPa)
#
#
# Indices 1 2 3 4 5 6 
#
# 1 0.023832 -0.007794 -0.008189 0.000000 0.000000 0.000000
# 2 -0.007794 0.011914 -0.001772 0.000000 0.000000 0.000000
# 3 -0.008189 -0.001772 0.014164 0.000000 0.000000 0.000000
# 4 0.000000 0.000000 0.000000 0.032606 0.000000 0.000000
# 5 0.000000 0.000000 0.000000 0.000000 0.034763 0.000000
# 6 0.000000 0.000000 0.000000 0.000000 0.000000 0.027305
#
#
# Mechanical properties :
#
#
# Convention : Reuss Voigt Hill
#
# Bulk Modulus (GPa) = 69.44610 72.44646 70.94628
# Shear Modulus (GPa) = 27.04263 29.46311 28.25287
#
# Velocity S-wave (km/s) = 3.72570 3.88887 3.80816
# Velocity P-wave (km/s) = 7.35895 7.57303 7.46676
#
# Compressibility (1/GPa) = 0.01439966
#
# Stress axis : x y z
#
# Youngs Moduli (GPa) = 41.96120 83.93482 70.60167
#
# Poissons Ratio (x) = 0.65415 0.57819
# Poissons Ratio (y) = 0.32703 0.12510
# Poissons Ratio (z) = 0.34364 0.14872
#
# Static dielectric constant tensor:
#      x y z
#    x 3.444950 0.000000 0.000000 
#    y 0.000000 3.604950 0.000000 
#    z 0.000000 0.000000 3.660870 
# 
# 
# High freq. dielectric constant tensor:
#      x y z
#    x 1.755630 0.000000 0.000000 
#    y 0.000000 1.768430 0.000000 
#    z 0.000000 0.000000 1.766290 
# 
# From -- ./inp_files/15014.got.cif
#   From: 2010.03.12/outbox.cif.g09.slc.cpg/sg59_8_cif.got.tgz:15014.got - 2010.04.16 16:29:54.
