data_PCOD8243533
_publ_section_title
;
Structure prediction by ZEFSAII (Michael W. Deem and Ramdas Pophale) SiO2 
 PCOD8243533
Probable space group: P M M N
;
_chemical_formula_sum "Si O2"
_cell_formula_units_Z 64
_cell_length_a 9.036562
_cell_length_b 14.238781
_cell_length_c 26.066646
_cell_angle_alpha 90.000000
_cell_angle_beta 90.000000
_cell_angle_gamma 90.000000
_cell_volume 3353.985626
_symmetry_space_group_name_H-M "P M M N"
_symmetry_group_IT_number 59
_space_group.IT_coordinate_system_code '2'
_symmetry_cell_setting 'orthorhombic'
loop_
_space_group_symop_operation_xyz
x,y,z
1/2-x,1/2-y,z
1/2+x,-y,-z
-x,1/2+y,-z
-x,-y,-z
1/2+x,1/2+y,-z
1/2-x,y,z
x,1/2-y,z
loop_
_atom_site_type_symbol
_atom_site_label
_atom_site_fract_x
_atom_site_fract_y
_atom_site_fract_z
Si Si1 0.579281 0.142332 0.371160
Si Si2 0.413405 0.861547 0.007796
Si Si3 0.922197 0.508892 0.286252
Si Si4 0.417420 0.139095 0.893633
Si Si5 0.577056 0.141635 0.106177
Si Si6 0.077584 0.490867 0.445995
Si Si7 0.421613 0.858303 0.361711
Si Si8 0.074916 0.997064 0.178084
O O1 0.750000 0.133683 0.387473
O O2 0.533473 0.250000 0.361219
O O3 0.482370 0.101225 0.417277
O O4 0.548522 0.084519 0.319407
O O5 0.250000 0.900997 0.020823
O O6 0.406516 0.750000 0.007228
O O7 0.463880 0.894597 0.951182
O O8 0.526762 0.897718 0.050929
O O9 0.750000 0.523275 0.273918
O O10 0.980398 0.601221 0.315495
O O11 0.012202 0.494945 0.234740
O O12 0.250000 0.103386 0.887329
O O13 0.429781 0.250000 0.889542
O O14 0.515996 0.097727 0.848213
O O15 0.750000 0.123972 0.117109
O O16 0.536720 0.250000 0.112829
O O17 0.477556 0.086679 0.146215
O O18 0.250000 0.477093 0.455103
O O19 0.042580 0.584788 0.413570
O O20 0.000000 0.500000 0.500000
O O21 0.250000 0.869653 0.346594
O O22 0.464285 0.750000 0.370971
O O23 0.250000 0.993702 0.180504
#
# Coordination Sequence:
#
# PCOD8243533 Si02
#       8
#     8   8   8   8   8   8   8   8
#     4   9  19  37  60  83 108 144 187 227 273 327
#     4   8  15  31  55  80 106 137 172 213 266 326
#     4  10  21  38  58  80 107 138 178 230 280 327
#     4  10  21  37  57  80 106 138 178 224 272 325
#     4   9  19  37  59  81 108 142 178 219 268 323
#     4  10  20  34  54  84 121 156 189 228 271 314
#     4   9  19  37  59  81 108 146 188 227 273 327
#     4  12  25  38  55  80 110 144 181 224 274 328
#
# _framework density 19.081776000000001
#
# number of rings (size 3 to 8) (size 9 to 14) (size 15 to 20)
#    0.000    2.375    0.000    3.000    0.000    5.000 
#    0.000    3.750    0.000    0.000    0.000    0.000 
#    0.000    0.000    0.000    0.000    0.000    0.000 
#
# Total GULP energy -793680.776291 kJ/mol
# GULP energy per Si atom -12401.262130 kJ/mol
# Density = 1.903835 g / cm^3
# Si number density = 19.081776 Si / 1000 Ang^3
#
#
#
# Elastic Constant Matrix: (Units=GPa)
#
#
# Indices 1 2 3 4 5 6 
#
# 1 130.5862 52.2745 87.2122 0.0000 0.0000 0.0000
# 2 52.2745 113.2128 53.1851 0.0000 0.0000 0.0000
# 3 87.2122 53.1851 148.5506 0.0000 0.0000 0.0000
# 4 0.0000 0.0000 0.0000 19.1967 0.0000 0.0000
# 5 0.0000 0.0000 0.0000 0.0000 39.2181 0.0000
# 6 0.0000 0.0000 0.0000 0.0000 0.0000 29.2706
#
#
#
# Elastic Compliance Matrix: (Units=1/GPa)
#
#
# Indices 1 2 3 4 5 6 
#
# 1 0.013391 -0.002993 -0.006790 0.000000 0.000000 0.000000
# 2 -0.002993 0.011288 -0.002284 0.000000 0.000000 0.000000
# 3 -0.006790 -0.002284 0.011536 0.000000 0.000000 0.000000
# 4 0.000000 0.000000 0.000000 0.052092 0.000000 0.000000
# 5 0.000000 0.000000 0.000000 0.000000 0.025498 0.000000
# 6 0.000000 0.000000 0.000000 0.000000 0.000000 0.034164
#
#
# Mechanical properties :
#
#
# Convention : Reuss Voigt Hill
#
# Bulk Modulus (GPa) = 82.78131 86.41036 84.59584
# Shear Modulus (GPa) = 28.38816 30.84894 29.61855
#
# Velocity S-wave (km/s) = 3.86127 4.02515 3.94406
# Velocity P-wave (km/s) = 7.95963 8.18443 8.07282
#
# Compressibility (1/GPa) = 0.01208002
#
# Stress axis : x y z
#
# Youngs Moduli (GPa) = 74.67958 88.58935 86.68743
#
# Poissons Ratio (x) = 0.26517 0.58859
# Poissons Ratio (y) = 0.22353 0.19801
# Poissons Ratio (z) = 0.50706 0.20235
#
# Static dielectric constant tensor:
#      x y z
#    x 3.586960 0.000000 0.000000 
#    y 0.000000 3.493160 0.000000 
#    z 0.000000 0.000000 3.528460 
# 
# 
# High freq. dielectric constant tensor:
#      x y z
#    x 1.745640 0.000000 0.000000 
#    y 0.000000 1.743890 0.000000 
#    z 0.000000 0.000000 1.741590 
# 
# From -- ./inp_files/31686.got.cif
#   From: 2010.03.12/outbox.cif.g09.slc.cpg/sg59_16_cif.got.tgz:31686.got - 2010.04.16 16:29:54.
