data_PCOD8243028
_publ_section_title
;
Structure prediction by ZEFSAII (Michael W. Deem and Ramdas Pophale) SiO2 
 PCOD8243028
Probable space group: P M M N
;
_chemical_formula_sum "Si O2"
_cell_formula_units_Z 64
_cell_length_a 19.853454
_cell_length_b 9.009596
_cell_length_c 18.708100
_cell_angle_alpha 90.000000
_cell_angle_beta 90.000000
_cell_angle_gamma 90.000000
_cell_volume 3346.347775
_symmetry_space_group_name_H-M "P M M N"
_symmetry_group_IT_number 59
_space_group.IT_coordinate_system_code '2'
_symmetry_cell_setting 'orthorhombic'
loop_
_space_group_symop_operation_xyz
x,y,z
1/2-x,1/2-y,z
1/2+x,-y,-z
-x,1/2+y,-z
-x,-y,-z
1/2+x,1/2+y,-z
1/2-x,y,z
x,1/2-y,z
loop_
_atom_site_type_symbol
_atom_site_label
_atom_site_fract_x
_atom_site_fract_y
_atom_site_fract_z
Si Si1 0.328092 0.578712 0.920591
Si Si2 0.932184 0.577112 0.978268
Si Si3 0.825590 0.921934 0.227916
Si Si4 0.820404 0.916223 0.740053
Si Si5 0.447099 0.422927 0.186399
Si Si6 0.962487 0.922537 0.291308
Si Si7 0.175253 0.084150 0.427790
Si Si8 0.962434 0.074091 0.564983
O O1 0.250000 0.558744 0.939769
O O2 0.350266 0.750000 0.920356
O O3 0.343941 0.515011 0.842406
O O4 0.369015 0.493999 0.981679
O O5 0.934617 0.750000 0.996966
O O6 0.928126 0.546465 0.894542
O O7 0.000000 0.500000 0.000000
O O8 0.750000 0.963233 0.255940
O O9 0.828429 0.750000 0.205658
O O10 0.881246 0.954024 0.290382
O O11 0.750000 0.994801 0.763603
O O12 0.821277 0.750000 0.772477
O O13 0.885227 0.999276 0.770364
O O14 0.823058 0.906525 0.656212
O O15 0.458096 0.250000 0.202604
O O16 0.512373 0.505221 0.217022
O O17 0.977714 0.750000 0.287274
O O18 0.001169 0.985569 0.361824
O O19 0.250000 0.031611 0.455524
O O20 0.159839 0.250000 0.458548
O O21 0.115759 0.970235 0.446066
O O22 0.968526 0.250000 0.560483
O O23 0.000000 0.000000 0.500000
#
# Coordination Sequence:
#
# PCOD8243028 Si02
#       8
#     8   8   8   8   8   8   8   8
#     4  10  21  37  56  79 110 147 187 232 282 336
#     4  11  23  36  52  77 108 146 189 232 279 332
#     4   9  18  35  59  82 104 136 180 229 281 336
#     4   8  14  27  49  76 103 130 166 214 261 309
#     4  10  20  33  53  78 103 137 182 227 273 326
#     4  10  21  36  55  81 110 139 176 227 282 333
#     4   9  17  33  59  85 110 144 183 221 267 325
#     4  11  23  38  57  84 118 153 189 229 277 334
#
# _framework density 19.125328
#
# number of rings (size 3 to 8) (size 9 to 14) (size 15 to 20)
#    0.000    2.250    1.250    2.625    0.000    5.500 
#    0.000    1.875    0.000    2.625    0.000    0.000 
#    0.000    0.000    0.000    0.000    0.000    0.000 
#
# Total GULP energy -792944.101065 kJ/mol
# GULP energy per Si atom -12389.751579 kJ/mol
# Density = 1.908180 g / cm^3
# Si number density = 19.125328 Si / 1000 Ang^3
#
#
#
# Elastic Constant Matrix: (Units=GPa)
#
#
# Indices 1 2 3 4 5 6 
#
# 1 142.3629 46.1137 50.2119 0.0000 0.0000 0.0000
# 2 46.1137 71.4522 38.1588 0.0000 0.0000 0.0000
# 3 50.2119 38.1588 65.4991 0.0000 0.0000 0.0000
# 4 0.0000 0.0000 0.0000 23.5167 0.0000 0.0000
# 5 0.0000 0.0000 0.0000 0.0000 20.6417 0.0000
# 6 0.0000 0.0000 0.0000 0.0000 0.0000 30.8599
#
#
#
# Elastic Compliance Matrix: (Units=1/GPa)
#
#
# Indices 1 2 3 4 5 6 
#
# 1 0.010194 -0.003492 -0.005781 0.000000 0.000000 0.000000
# 2 -0.003492 0.021513 -0.009856 0.000000 0.000000 0.000000
# 3 -0.005781 -0.009856 0.025441 0.000000 0.000000 0.000000
# 4 0.000000 0.000000 0.000000 0.042523 0.000000 0.000000
# 5 0.000000 0.000000 0.000000 0.000000 0.048446 0.000000
# 6 0.000000 0.000000 0.000000 0.000000 0.000000 0.032405
#
#
# Mechanical properties :
#
#
# Convention : Reuss Voigt Hill
#
# Bulk Modulus (GPa) = 52.93659 60.92034 56.92847
# Shear Modulus (GPa) = 22.21488 24.65899 23.43693
#
# Velocity S-wave (km/s) = 3.41184 3.59463 3.50443
# Velocity P-wave (km/s) = 6.57721 7.01077 6.79745
#
# Compressibility (1/GPa) = 0.01889053
#
# Stress axis : x y z
#
# Youngs Moduli (GPa) = 98.09444 46.48446 39.30713
#
# Poissons Ratio (x) = 0.16233 0.22722
# Poissons Ratio (y) = 0.34255 0.38741
# Poissons Ratio (z) = 0.56704 0.45815
#
# Static dielectric constant tensor:
#      x y z
#    x -22.482000 0.000000 0.000000 
#    y 0.000000 3.475520 0.000000 
#    z 0.000000 0.000000 3.248870 
# 
# 
# High freq. dielectric constant tensor:
#      x y z
#    x 1.768070 0.000000 0.000000 
#    y 0.000000 1.726790 0.000000 
#    z 0.000000 0.000000 1.721250 
# 
# From -- ./inp_files/28207.got.cif
#   From: 2010.03.12/outbox.cif.g09.slc.cpg/sg59_15_cif.got.tgz:28207.got - 2010.04.16 16:29:54.
