data_PCOD8243575
_publ_section_title
;
Structure prediction by ZEFSAII (Michael W. Deem and Ramdas Pophale) SiO2 
 PCOD8243575
Probable space group: P M M N
;
_chemical_formula_sum "Si O2"
_cell_formula_units_Z 64
_cell_length_a 19.070243
_cell_length_b 8.866989
_cell_length_c 20.705534
_cell_angle_alpha 90.000000
_cell_angle_beta 90.000000
_cell_angle_gamma 90.000000
_cell_volume 3501.215418
_symmetry_space_group_name_H-M "P M M N"
_symmetry_group_IT_number 59
_space_group.IT_coordinate_system_code '2'
_symmetry_cell_setting 'orthorhombic'
loop_
_space_group_symop_operation_xyz
x,y,z
1/2-x,1/2-y,z
1/2+x,-y,-z
-x,1/2+y,-z
-x,-y,-z
1/2+x,1/2+y,-z
1/2-x,y,z
x,1/2-y,z
loop_
_atom_site_type_symbol
_atom_site_label
_atom_site_fract_x
_atom_site_fract_y
_atom_site_fract_z
Si Si1 0.329746 0.925099 0.009708
Si Si2 0.971319 0.924366 0.181095
Si Si3 0.670519 0.927147 0.636688
Si Si4 0.033755 0.924618 0.562014
Si Si5 0.172242 0.077811 0.875668
Si Si6 0.463438 0.927874 0.316099
Si Si7 0.540420 0.572634 0.940367
Si Si8 0.828069 0.421660 0.503597
O O1 0.250000 0.960869 0.029400
O O2 0.347727 0.750000 0.016625
O O3 0.378837 0.019144 0.057884
O O4 0.344265 0.970860 0.935891
O O5 0.990140 0.750000 0.168556
O O6 0.886941 0.950469 0.178694
O O7 0.999067 0.978262 0.250239
O O8 0.008133 0.024224 0.127251
O O9 0.750000 0.978422 0.653707
O O10 0.661579 0.750000 0.644692
O O11 0.615981 0.008964 0.684278
O O12 0.651751 0.970880 0.563218
O O13 0.011885 0.750000 0.565141
O O14 0.117928 0.945650 0.555219
O O15 0.000000 0.000000 0.500000
O O16 0.009391 0.005151 0.626495
O O17 0.250000 0.043000 0.846975
O O18 0.168438 0.250000 0.900679
O O19 0.460816 0.750000 0.324050
O O20 0.535793 0.750000 0.947571
O O21 0.500000 0.500000 0.000000
O O22 0.750000 0.459012 0.477782
O O23 0.832808 0.250000 0.529439
#
# Coordination Sequence:
#
# PCOD8243575 Si02
#       8
#     8   8   8   8   8   8   8   8
#     4  10  20  34  55  85 117 147 185 234 283 334
#     4  10  22  39  57  81 114 151 192 236 281 335
#     4  10  20  34  55  82 109 140 184 236 284 335
#     4  11  21  34  56  83 112 145 185 234 282 331
#     4   9  17  32  56  82 108 143 187 234 282 332
#     4  11  23  38  56  81 115 154 191 229 280 340
#     4  12  23  36  58  85 114 148 187 232 284 336
#     4   9  18  33  54  80 109 143 184 230 281 334
#
# _framework density 18.279367000000001
#
# number of rings (size 3 to 8) (size 9 to 14) (size 15 to 20)
#    0.000    1.750    2.500    2.625    0.000    3.000 
#    0.000    1.250    0.000    1.500    0.000    0.000 
#    0.000    0.000    0.000    0.000    0.000    0.000 
#
# Total GULP energy -793635.132698 kJ/mol
# GULP energy per Si atom -12400.548948 kJ/mol
# Density = 1.823776 g / cm^3
# Si number density = 18.279367 Si / 1000 Ang^3
#
#
#
# Elastic Constant Matrix: (Units=GPa)
#
#
# Indices 1 2 3 4 5 6 
#
# 1 145.5968 55.3610 74.1405 0.0000 0.0000 0.0000
# 2 55.3610 100.6135 56.3910 0.0000 0.0000 0.0000
# 3 74.1405 56.3910 112.9217 0.0000 0.0000 0.0000
# 4 0.0000 0.0000 0.0000 26.8449 0.0000 0.0000
# 5 0.0000 0.0000 0.0000 0.0000 29.9754 0.0000
# 6 0.0000 0.0000 0.0000 0.0000 0.0000 28.6301
#
#
#
# Elastic Compliance Matrix: (Units=1/GPa)
#
#
# Indices 1 2 3 4 5 6 
#
# 1 0.010837 -0.002743 -0.005745 0.000000 0.000000 0.000000
# 2 -0.002743 0.014496 -0.005438 0.000000 0.000000 0.000000
# 3 -0.005745 -0.005438 0.015344 0.000000 0.000000 0.000000
# 4 0.000000 0.000000 0.000000 0.037251 0.000000 0.000000
# 5 0.000000 0.000000 0.000000 0.000000 0.033361 0.000000
# 6 0.000000 0.000000 0.000000 0.000000 0.000000 0.034928
#
#
# Mechanical properties :
#
#
# Convention : Reuss Voigt Hill
#
# Bulk Modulus (GPa) = 77.97993 81.21298 79.59645
# Shear Modulus (GPa) = 28.03565 28.63940 28.33753
#
# Velocity S-wave (km/s) = 3.92054 3.96253 3.94159
# Velocity P-wave (km/s) = 7.95279 8.09078 8.02208
#
# Compressibility (1/GPa) = 0.01282381
#
# Stress axis : x y z
#
# Youngs Moduli (GPa) = 92.27803 68.98363 65.17280
#
# Poissons Ratio (x) = 0.18920 0.37445
# Poissons Ratio (y) = 0.25308 0.35444
# Poissons Ratio (z) = 0.53018 0.37516
#
# Static dielectric constant tensor:
#      x y z
#    x 3.882250 0.000000 0.000000 
#    y 0.000000 3.460950 0.000000 
#    z 0.000000 0.000000 3.131040 
# 
# 
# High freq. dielectric constant tensor:
#      x y z
#    x 1.731060 0.000000 0.000000 
#    y 0.000000 1.718040 0.000000 
#    z 0.000000 0.000000 1.669010 
# 
# From -- ./inp_files/30656.got.cif
#   From: 2010.03.12/outbox.cif.g09.slc.cpg/sg59_16_cif.got.tgz:30656.got - 2010.04.16 16:29:54.
