data_PCOD8243682
_publ_section_title
;
Structure prediction by ZEFSAII (Michael W. Deem and Ramdas Pophale) SiO2 
 PCOD8243682
Probable space group: P M M N
;
_chemical_formula_sum "Si O2"
_cell_formula_units_Z 48
_cell_length_a 30.962099
_cell_length_b 8.697123
_cell_length_c 9.114461
_cell_angle_alpha 90.000000
_cell_angle_beta 90.000000
_cell_angle_gamma 90.000000
_cell_volume 2454.352844
_symmetry_space_group_name_H-M "P M M N"
_symmetry_group_IT_number 59
_space_group.IT_coordinate_system_code '2'
_symmetry_cell_setting 'orthorhombic'
loop_
_space_group_symop_operation_xyz
x,y,z
1/2-x,1/2-y,z
1/2+x,-y,-z
-x,1/2+y,-z
-x,-y,-z
1/2+x,1/2+y,-z
1/2-x,y,z
x,1/2-y,z
loop_
_atom_site_type_symbol
_atom_site_label
_atom_site_fract_x
_atom_site_fract_y
_atom_site_fract_z
Si Si1 0.250000 0.919359 0.323404
Si Si2 0.002579 0.567746 0.339105
Si Si3 0.163070 0.425920 0.342538
Si Si4 0.657650 0.066742 0.346623
Si Si5 0.750000 0.418462 0.328377
Si Si6 0.076266 0.567289 0.840608
Si Si7 0.578780 0.927909 0.839299
O O1 0.250000 0.750000 0.251319
O O2 0.250000 0.905665 0.497076
O O3 0.293067 0.007179 0.272328
O O4 0.999606 0.750000 0.346453
O O5 0.963914 0.503222 0.242883
O O6 0.000000 0.500000 0.500000
O O7 0.047681 0.517554 0.270206
O O8 0.170851 0.250000 0.384501
O O9 0.147400 0.510103 0.489920
O O10 0.127163 0.446521 0.218590
O O11 0.660908 0.250000 0.353895
O O12 0.704296 0.999215 0.287252
O O13 0.620153 0.011036 0.238291
O O14 0.750000 0.250000 0.255195
O O15 0.072359 0.750000 0.840237
O O16 0.075972 0.505264 0.003623
O O17 0.564747 0.750000 0.849130
#
# Coordination Sequence:
#
# PCOD8243682 Si02
#       7
#     4   8   8   8   4   8   8
#     4   9  17  31  54  81 112 148 188 234 282 331
#     4  12  25  42  64  88 114 146 188 237 285 340
#     4  10  20  34  56  84 114 148 189 235 284 336
#     4   9  18  33  56  83 112 147 189 235 282 334
#     4   7  12  27  50  77 106 138 178 226 274 321
#     4  11  23  39  59  85 117 154 193 234 284 343
#     4  11  24  41  59  83 117 155 191 234 288 343
#
# _framework density 19.557089000000001
#
# number of rings (size 3 to 8) (size 9 to 14) (size 15 to 20)
#    0.000    1.833    0.000    5.750    0.000    6.667 
#    0.000    0.833    0.000    1.000    0.000    0.000 
#    0.000    0.000    0.000    0.000    0.000    0.000 
#
# Total GULP energy -595119.958270 kJ/mol
# GULP energy per Si atom -12398.332464 kJ/mol
# Density = 1.951258 g / cm^3
# Si number density = 19.557089 Si / 1000 Ang^3
#
#
#
# Elastic Constant Matrix: (Units=GPa)
#
#
# Indices 1 2 3 4 5 6 
#
# 1 133.8274 48.8907 47.3585 0.0000 0.0000 0.0000
# 2 48.8907 95.4323 34.4020 0.0000 0.0000 0.0000
# 3 47.3585 34.4020 111.2488 0.0000 0.0000 0.0000
# 4 0.0000 0.0000 0.0000 32.1781 0.0000 0.0000
# 5 0.0000 0.0000 0.0000 0.0000 8.4903 0.0000
# 6 0.0000 0.0000 0.0000 0.0000 0.0000 28.5265
#
#
#
# Elastic Compliance Matrix: (Units=1/GPa)
#
#
# Indices 1 2 3 4 5 6 
#
# 1 0.010016 -0.004045 -0.003013 0.000000 0.000000 0.000000
# 2 -0.004045 0.013427 -0.002430 0.000000 0.000000 0.000000
# 3 -0.003013 -0.002430 0.011023 0.000000 0.000000 0.000000
# 4 0.000000 0.000000 0.000000 0.031077 0.000000 0.000000
# 5 0.000000 0.000000 0.000000 0.000000 0.117781 0.000000
# 6 0.000000 0.000000 0.000000 0.000000 0.000000 0.035055
#
#
# Mechanical properties :
#
#
# Convention : Reuss Voigt Hill
#
# Bulk Modulus (GPa) = 64.55907 66.86786 65.71347
# Shear Modulus (GPa) = 20.61688 27.82948 24.22318
#
# Velocity S-wave (km/s) = 3.25035 3.77634 3.52318
# Velocity P-wave (km/s) = 6.86794 7.29929 7.08690
#
# Compressibility (1/GPa) = 0.01548969
#
# Stress axis : x y z
#
# Youngs Moduli (GPa) = 99.83606 74.47635 90.71985
#
# Poissons Ratio (x) = 0.30128 0.27334
# Poissons Ratio (y) = 0.40387 0.22045
# Poissons Ratio (z) = 0.30081 0.18098
#
# Static dielectric constant tensor:
#      x y z
#    x 4.144450 0.000000 0.000000 
#    y 0.000000 3.688680 0.000000 
#    z 0.000000 0.000000 3.361870 
# 
# 
# High freq. dielectric constant tensor:
#      x y z
#    x 1.787820 0.000000 0.000000 
#    y 0.000000 1.763810 0.000000 
#    z 0.000000 0.000000 1.742050 
# 
# From -- ./inp_files/13058.got.cif
#   From: 2010.03.12/outbox.cif.g09.slc.cpg/sg59_7_cif.got.tgz:13058.got - 2010.04.16 16:29:54.
