data_PCOD8243741
_publ_section_title
;
Structure prediction by ZEFSAII (Michael W. Deem and Ramdas Pophale) SiO2 
 PCOD8243741
Probable space group: P M M N
;
_chemical_formula_sum "Si O2"
_cell_formula_units_Z 56
_cell_length_a 14.596054
_cell_length_b 9.682218
_cell_length_c 22.090182
_cell_angle_alpha 90.000000
_cell_angle_beta 90.000000
_cell_angle_gamma 90.000000
_cell_volume 3121.832605
_symmetry_space_group_name_H-M "P M M N"
_symmetry_group_IT_number 59
_space_group.IT_coordinate_system_code '2'
_symmetry_cell_setting 'orthorhombic'
loop_
_space_group_symop_operation_xyz
x,y,z
1/2-x,1/2-y,z
1/2+x,-y,-z
-x,1/2+y,-z
-x,-y,-z
1/2+x,1/2+y,-z
1/2-x,y,z
x,1/2-y,z
loop_
_atom_site_type_symbol
_atom_site_label
_atom_site_fract_x
_atom_site_fract_y
_atom_site_fract_z
Si Si1 0.982866 0.912402 0.715141
Si Si2 0.643031 0.591903 0.605058
Si Si3 0.750000 0.409561 0.890369
Si Si4 0.442006 0.590185 0.168413
Si Si5 0.359068 0.903675 0.502602
Si Si6 0.149061 0.585860 0.635368
Si Si7 0.949022 0.909239 0.049412
Si Si8 0.750000 0.591877 0.009103
O O1 0.982435 0.750000 0.729925
O O2 0.903965 0.951965 0.667623
O O3 0.079659 0.962124 0.687314
O O4 0.967461 0.995393 0.775821
O O5 0.750000 0.565112 0.614098
O O6 0.620415 0.750000 0.589602
O O7 0.601921 0.503808 0.549443
O O8 0.750000 0.250000 0.910142
O O9 0.838946 0.446261 0.851263
O O10 0.750000 0.497341 0.950724
O O11 0.450344 0.750000 0.187151
O O12 0.512689 0.552385 0.115187
O O13 0.250000 0.899494 0.499659
O O14 0.398875 0.750000 0.491655
O O15 0.386842 0.962338 0.569003
O O16 0.250000 0.524506 0.649975
O O17 0.154406 0.750000 0.632528
O O18 0.970675 0.750000 0.034156
O O19 0.840119 0.939283 0.049175
O O20 0.000000 0.000000 0.000000
O O21 0.750000 0.750000 0.986774
#
# Coordination Sequence:
#
# PCOD8243741 Si02
#       8
#     8   8   4   8   8   8   8   4
#     4  10  21  35  52  73  99 137 179 211 250 304
#     4   9  18  31  45  68 103 133 159 203 259 308
#     4  10  20  36  58  82 108 140 173 208 257 308
#     4  10  22  38  54  77 109 141 172 211 255 302
#     4   8  14  27  49  73  94 124 166 209 255 306
#     4   8  15  31  53  73  96 127 169 220 263 301
#     4  10  20  36  58  83 113 142 174 216 262 309
#     4  10  20  34  58  90 112 136 173 216 263 310
#
# _framework density 17.938182000000001
#
# number of rings (size 3 to 8) (size 9 to 14) (size 15 to 20)
#    0.000    2.714    1.429    0.857    1.000    2.286 
#    1.286    0.714    0.000    0.857    0.000    0.000 
#    0.000    0.000    0.000    0.000    0.000    0.000 
#
# Total GULP energy -694297.042475 kJ/mol
# GULP energy per Si atom -12398.161473 kJ/mol
# Density = 1.789735 g / cm^3
# Si number density = 17.938182 Si / 1000 Ang^3
#
#
#
# Elastic Constant Matrix: (Units=GPa)
#
#
# Indices 1 2 3 4 5 6 
#
# 1 119.0390 48.9447 82.6794 0.0000 0.0000 0.0000
# 2 48.9447 66.4078 76.8718 0.0000 0.0000 0.0000
# 3 82.6794 76.8718 164.9900 0.0000 0.0000 0.0000
# 4 0.0000 0.0000 0.0000 29.9349 0.0000 0.0000
# 5 0.0000 0.0000 0.0000 0.0000 -117.7837 0.0000
# 6 0.0000 0.0000 0.0000 0.0000 0.0000 13.8448
#
#
#
# Elastic Compliance Matrix: (Units=1/GPa)
#
#
# Indices 1 2 3 4 5 6 
#
# 1 0.013503 -0.004601 -0.004623 0.000000 0.000000 0.000000
# 2 -0.004601 0.034256 -0.013655 0.000000 0.000000 0.000000
# 3 -0.004623 -0.013655 0.014740 0.000000 0.000000 0.000000
# 4 0.000000 0.000000 0.000000 0.033406 0.000000 0.000000
# 5 0.000000 0.000000 0.000000 0.000000 -0.008490 0.000000
# 6 0.000000 0.000000 0.000000 0.000000 0.000000 0.072229
#
#
# Mechanical properties :
#
#
# Convention : Reuss Voigt Hill
#
# Bulk Modulus (GPa) = 59.73235 85.26983 72.50109
# Shear Modulus (GPa) = 23.69866 -5.33809 9.18029
#
# Velocity S-wave (km/s) = 3.63868 -1.72693 2.26470
# Velocity P-wave (km/s) = 7.14315 6.60774 6.88065
#
# Compressibility (1/GPa) = 0.01674135
#
# Stress axis : x y z
#
# Youngs Moduli (GPa) = 74.05570 29.19207 67.84345
#
# Poissons Ratio (x) = 0.13430 0.31365
# Poissons Ratio (y) = 0.34071 0.92640
# Poissons Ratio (z) = 0.34237 0.39862
#
# Static dielectric constant tensor:
#      x y z
#    x 3.749040 0.000000 0.000000 
#    y 0.000000 3.307080 0.000000 
#    z 0.000000 0.000000 3.264370 
# 
# 
# High freq. dielectric constant tensor:
#      x y z
#    x 1.704180 0.000000 0.000000 
#    y 0.000000 1.676820 0.000000 
#    z 0.000000 0.000000 1.687030 
# 
# From -- ./inp_files/30442.got.cif
#   From: 2010.03.12/outbox.cif.g09.slc.cpg/sg59_16_cif.got.tgz:30442.got - 2010.04.16 16:29:54.
