data_PCOD8243560
_publ_section_title
;
Structure prediction by ZEFSAII (Michael W. Deem and Ramdas Pophale) SiO2 
 PCOD8243560
Probable space group: P M M N
;
_chemical_formula_sum "Si O2"
_cell_formula_units_Z 64
_cell_length_a 9.019771
_cell_length_b 18.488320
_cell_length_c 21.162961
_cell_angle_alpha 90.000000
_cell_angle_beta 90.000000
_cell_angle_gamma 90.000000
_cell_volume 3529.144108
_symmetry_space_group_name_H-M "P M M N"
_symmetry_group_IT_number 59
_space_group.IT_coordinate_system_code '2'
_symmetry_cell_setting 'orthorhombic'
loop_
_space_group_symop_operation_xyz
x,y,z
1/2-x,1/2-y,z
1/2+x,-y,-z
-x,1/2+y,-z
-x,-y,-z
1/2+x,1/2+y,-z
1/2-x,y,z
x,1/2-y,z
loop_
_atom_site_type_symbol
_atom_site_label
_atom_site_fract_x
_atom_site_fract_y
_atom_site_fract_z
Si Si1 0.076273 0.964360 0.693592
Si Si2 0.925471 0.670905 0.891141
Si Si3 0.422887 0.333592 0.250026
Si Si4 0.921028 0.969429 0.439312
Si Si5 0.573240 0.922866 0.006656
Si Si6 0.578113 0.668638 0.368508
Si Si7 0.424230 0.900370 0.252833
Si Si8 0.576884 0.165506 0.882748
O O1 0.250000 0.968448 0.706339
O O2 0.017744 0.883394 0.703595
O O3 0.035801 0.983654 0.621735
O O4 0.998380 0.020703 0.741262
O O5 0.750000 0.676561 0.894370
O O6 0.994167 0.750000 0.904614
O O7 0.971130 0.645072 0.821203
O O8 0.985465 0.617172 0.943947
O O9 0.250000 0.348634 0.261039
O O10 0.460327 0.250000 0.264076
O O11 0.750000 0.975055 0.454859
O O12 0.967508 0.886101 0.424895
O O13 0.000000 0.000000 0.500000
O O14 0.750000 0.929714 0.009207
O O15 0.518976 0.879084 0.067352
O O16 0.500000 0.000000 0.000000
O O17 0.750000 0.655234 0.350667
O O18 0.549098 0.750000 0.392433
O O19 0.483588 0.654198 0.305956
O O20 0.250000 0.909819 0.261470
O O21 0.464408 0.865609 0.185722
O O22 0.750000 0.154263 0.897402
O O23 0.533529 0.250000 0.885819
#
# Coordination Sequence:
#
# PCOD8243560 Si02
#       8
#     8   8   8   8   8   8   8   8
#     4  10  21  36  54  80 113 143 175 219 270 319
#     4   8  16  33  55  75  97 130 173 220 267 315
#     4   9  18  34  57  82 105 135 179 225 269 320
#     4   9  19  35  54  77 107 143 180 218 261 312
#     4  11  23  37  54  77 106 140 181 225 270 321
#     4   9  18  34  55  80 111 142 175 221 274 322
#     4  10  20  34  55  81 109 142 181 222 265 318
#     4  10  22  39  56  77 108 142 177 222 272 321
#
# _framework density 18.134709000000001
#
# number of rings (size 3 to 8) (size 9 to 14) (size 15 to 20)
#    0.000    2.500    0.000    3.375    1.750    5.250 
#    0.000    1.250    0.000    3.750    0.000    0.000 
#    0.000    0.000    0.000    0.000    0.000    0.000 
#
# Total GULP energy -793519.666970 kJ/mol
# GULP energy per Si atom -12398.744796 kJ/mol
# Density = 1.809343 g / cm^3
# Si number density = 18.134709 Si / 1000 Ang^3
#
#
#
# Elastic Constant Matrix: (Units=GPa)
#
#
# Indices 1 2 3 4 5 6 
#
# 1 67.7249 59.9399 56.1125 0.0000 0.0000 0.0000
# 2 59.9399 154.6238 89.3089 0.0000 0.0000 0.0000
# 3 56.1125 89.3089 116.8857 0.0000 0.0000 0.0000
# 4 0.0000 0.0000 0.0000 28.8792 0.0000 0.0000
# 5 0.0000 0.0000 0.0000 0.0000 32.0975 0.0000
# 6 0.0000 0.0000 0.0000 0.0000 0.0000 32.1078
#
#
#
# Elastic Compliance Matrix: (Units=1/GPa)
#
#
# Indices 1 2 3 4 5 6 
#
# 1 0.026727 -0.005280 -0.008796 0.000000 0.000000 0.000000
# 2 -0.005280 0.012619 -0.007107 0.000000 0.000000 0.000000
# 3 -0.008796 -0.007107 0.018208 0.000000 0.000000 0.000000
# 4 0.000000 0.000000 0.000000 0.034627 0.000000 0.000000
# 5 0.000000 0.000000 0.000000 0.000000 0.031155 0.000000
# 6 0.000000 0.000000 0.000000 0.000000 0.000000 0.031145
#
#
# Mechanical properties :
#
#
# Convention : Reuss Voigt Hill
#
# Bulk Modulus (GPa) = 65.84351 83.32857 74.58604
# Shear Modulus (GPa) = 24.76344 27.54178 26.15261
#
# Velocity S-wave (km/s) = 3.69931 3.90132 3.80166
# Velocity P-wave (km/s) = 7.39144 8.14514 7.77742
#
# Compressibility (1/GPa) = 0.01518753
#
# Stress axis : x y z
#
# Youngs Moduli (GPa) = 37.41582 79.24481 54.91954
#
# Poissons Ratio (x) = 0.41841 0.48308
# Poissons Ratio (y) = 0.19756 0.39032
# Poissons Ratio (z) = 0.32912 0.56321
#
# Static dielectric constant tensor:
#      x y z
#    x 3.230590 0.000000 0.000000 
#    y 0.000000 3.648530 0.000000 
#    z 0.000000 0.000000 3.313330 
# 
# 
# High freq. dielectric constant tensor:
#      x y z
#    x 1.693570 0.000000 0.000000 
#    y 0.000000 1.715130 0.000000 
#    z 0.000000 0.000000 1.694650 
# 
# From -- ./inp_files/29493.got.cif
#   From: 2010.03.12/outbox.cif.g09.slc.cpg/sg59_15_cif.got.tgz:29493.got - 2010.04.16 16:29:54.
