data_PCOD8243754
_publ_section_title
;
Structure prediction by ZEFSAII (Michael W. Deem and Ramdas Pophale) SiO2 
 PCOD8243754
Probable space group: P M M N
;
_chemical_formula_sum "Si O2"
_cell_formula_units_Z 32
_cell_length_a 9.136738
_cell_length_b 15.154726
_cell_length_c 12.206546
_cell_angle_alpha 90.000000
_cell_angle_beta 90.000000
_cell_angle_gamma 90.000000
_cell_volume 1690.176474
_symmetry_space_group_name_H-M "P M M N"
_symmetry_group_IT_number 59
_space_group.IT_coordinate_system_code '2'
_symmetry_cell_setting 'orthorhombic'
loop_
_space_group_symop_operation_xyz
x,y,z
1/2-x,1/2-y,z
1/2+x,-y,-z
-x,1/2+y,-z
-x,-y,-z
1/2+x,1/2+y,-z
1/2-x,y,z
x,1/2-y,z
loop_
_atom_site_type_symbol
_atom_site_label
_atom_site_fract_x
_atom_site_fract_y
_atom_site_fract_z
Si Si1 0.074936 0.750000 0.381162
Si Si2 0.920329 0.407824 0.010286
Si Si3 0.421755 0.102095 0.218386
Si Si4 0.419081 0.250000 0.390748
Si Si5 0.580464 0.403700 0.769279
O O1 0.250000 0.750000 0.378308
O O2 0.010865 0.663366 0.319007
O O3 0.020924 0.750000 0.504353
O O4 0.750000 0.420469 0.036723
O O5 0.996368 0.356597 0.111506
O O6 0.942071 0.362002 0.891363
O O7 0.000000 0.500000 0.000000
O O8 0.250000 0.101132 0.191275
O O9 0.457319 0.162820 0.321851
O O10 0.484143 0.003203 0.241998
O O11 0.250000 0.250000 0.426332
O O12 0.750000 0.412667 0.742581
#
# Coordination Sequence:
#
# PCOD8243754 Si02
#       5
#     4   8   8   4   8
#     4  10  20  35  52  70  94 127 169 208 243 294
#     4   9  16  29  51  78 105 130 160 198 245 301
#     4   9  18  34  52  71 100 134 164 200 251 301
#     4  10  22  37  50  68  98 133 169 212 255 290
#     4   8  16  31  51  73  98 127 156 196 248 294
#
# _framework density 18.932936000000002
#
# number of rings (size 3 to 8) (size 9 to 14) (size 15 to 20)
#    0.000    3.000    0.000    2.250    0.000    3.000 
#    0.000    7.500    0.000    0.000    0.000    0.000 
#    0.000    0.000    0.000    0.000    0.000    0.000 
#
# Total GULP energy -396480.216357 kJ/mol
# GULP energy per Si atom -12390.006761 kJ/mol
# Density = 1.888984 g / cm^3
# Si number density = 18.932936 Si / 1000 Ang^3
#
#
#
# Elastic Constant Matrix: (Units=GPa)
#
#
# Indices 1 2 3 4 5 6 
#
# 1 54.5072 23.1273 49.7091 0.0000 0.0000 0.0000
# 2 23.1273 101.4103 66.8838 0.0000 0.0000 0.0000
# 3 49.7091 66.8838 147.7300 0.0000 0.0000 0.0000
# 4 0.0000 0.0000 0.0000 26.2626 0.0000 0.0000
# 5 0.0000 0.0000 0.0000 0.0000 36.1281 0.0000
# 6 0.0000 0.0000 0.0000 0.0000 0.0000 12.8651
#
#
#
# Elastic Compliance Matrix: (Units=1/GPa)
#
#
# Indices 1 2 3 4 5 6 
#
# 1 0.026472 -0.000231 -0.008803 0.000000 0.000000 0.000000
# 2 -0.000231 0.014061 -0.006288 0.000000 0.000000 0.000000
# 3 -0.008803 -0.006288 0.012578 0.000000 0.000000 0.000000
# 4 0.000000 0.000000 0.000000 0.038077 0.000000 0.000000
# 5 0.000000 0.000000 0.000000 0.000000 0.027679 0.000000
# 6 0.000000 0.000000 0.000000 0.000000 0.000000 0.077730
#
#
# Mechanical properties :
#
#
# Convention : Reuss Voigt Hill
#
# Bulk Modulus (GPa) = 44.51053 64.78755 54.64904
# Shear Modulus (GPa) = 21.30101 25.97965 23.64033
#
# Velocity S-wave (km/s) = 3.35786 3.70833 3.53744
# Velocity P-wave (km/s) = 6.21242 7.25461 6.75365
#
# Compressibility (1/GPa) = 0.02246659
#
# Stress axis : x y z
#
# Youngs Moduli (GPa) = 37.77535 71.11882 79.50370
#
# Poissons Ratio (x) = 0.01646 0.69985
# Poissons Ratio (y) = 0.00874 0.49993
# Poissons Ratio (z) = 0.33253 0.44721
#
# Static dielectric constant tensor:
#      x y z
#    x 3.362300 0.000000 0.000000 
#    y 0.000000 3.669680 0.000000 
#    z 0.000000 0.000000 3.090270 
# 
# 
# High freq. dielectric constant tensor:
#      x y z
#    x 1.706200 0.000000 0.000000 
#    y 0.000000 1.726780 0.000000 
#    z 0.000000 0.000000 1.739940 
# 
# From -- ./inp_files/13777.got.cif
#   From: 2010.03.12/outbox.cif.g09.slc.cpg/sg59_7_cif.got.tgz:13777.got - 2010.04.16 16:29:54.
