data_PCOD8243282
_publ_section_title
;
Structure prediction by ZEFSAII (Michael W. Deem and Ramdas Pophale) SiO2 
 PCOD8243282
Probable space group: P M M N
;
_chemical_formula_sum "Si O2"
_cell_formula_units_Z 40
_cell_length_a 8.814551
_cell_length_b 20.663863
_cell_length_c 11.504156
_cell_angle_alpha 90.000000
_cell_angle_beta 90.000000
_cell_angle_gamma 90.000000
_cell_volume 2095.397739
_symmetry_space_group_name_H-M "P M M N"
_symmetry_group_IT_number 59
_space_group.IT_coordinate_system_code '2'
_symmetry_cell_setting 'orthorhombic'
loop_
_space_group_symop_operation_xyz
x,y,z
1/2-x,1/2-y,z
1/2+x,-y,-z
-x,1/2+y,-z
-x,-y,-z
1/2+x,1/2+y,-z
1/2-x,y,z
x,1/2-y,z
loop_
_atom_site_type_symbol
_atom_site_label
_atom_site_fract_x
_atom_site_fract_y
_atom_site_fract_z
Si Si1 0.929274 0.448007 0.412112
Si Si2 0.578596 0.325190 0.754307
Si Si3 0.920634 0.406939 0.963257
Si Si4 0.071649 0.324320 0.515606
Si Si5 0.580047 0.958897 0.829852
O O1 0.750000 0.450205 0.427284
O O2 0.000000 0.500000 0.500000
O O3 0.987398 0.374654 0.431874
O O4 0.973712 0.467151 0.281687
O O5 0.750000 0.351529 0.730207
O O6 0.581594 0.250000 0.776561
O O7 0.509652 0.356701 0.870563
O O8 0.472189 0.343523 0.646721
O O9 0.750000 0.386986 0.997112
O O10 0.922777 0.475750 0.901671
O O11 0.017412 0.404173 0.081941
O O12 0.250000 0.332318 0.499560
O O13 0.020949 0.250000 0.487929
O O14 0.750000 0.940273 0.790105
#
# Coordination Sequence:
#
# PCOD8243282 Si02
#       5
#     8   8   8   8   8
#     4  12  24  38  58  83 112 145 185 230 275 327
#     4   9  17  31  53  79 106 138 177 219 264 317
#     4   9  18  33  52  75 104 137 173 217 267 318
#     4  10  21  37  57  82 113 147 184 227 275 327
#     4  10  20  34  53  77 105 138 177 221 269 319
#
# _framework density 19.089455000000001
#
# number of rings (size 3 to 8) (size 9 to 14) (size 15 to 20)
#    0.000    2.000    0.000    4.200    0.000    4.400 
#    0.000    1.000    0.000    3.600    0.000    0.000 
#    0.000    0.000    0.000    0.000    0.000    0.000 
#
# Total GULP energy -495963.900944 kJ/mol
# GULP energy per Si atom -12399.097524 kJ/mol
# Density = 1.904601 g / cm^3
# Si number density = 19.089455 Si / 1000 Ang^3
#
#
#
# Elastic Constant Matrix: (Units=GPa)
#
#
# Indices 1 2 3 4 5 6 
#
# 1 107.3617 27.1550 31.2126 0.0000 0.0000 0.0000
# 2 27.1550 34.1946 7.5227 0.0000 0.0000 0.0000
# 3 31.2126 7.5227 74.2071 0.0000 0.0000 0.0000
# 4 0.0000 0.0000 0.0000 19.9177 0.0000 0.0000
# 5 0.0000 0.0000 0.0000 0.0000 35.2705 0.0000
# 6 0.0000 0.0000 0.0000 0.0000 0.0000 27.2913
#
#
#
# Elastic Compliance Matrix: (Units=1/GPa)
#
#
# Indices 1 2 3 4 5 6 
#
# 1 0.012984 -0.009317 -0.004517 0.000000 0.000000 0.000000
# 2 -0.009317 0.036598 0.000209 0.000000 0.000000 0.000000
# 3 -0.004517 0.000209 0.015354 0.000000 0.000000 0.000000
# 4 0.000000 0.000000 0.000000 0.050207 0.000000 0.000000
# 5 0.000000 0.000000 0.000000 0.000000 0.028352 0.000000
# 6 0.000000 0.000000 0.000000 0.000000 0.000000 0.036642
#
#
# Mechanical properties :
#
#
# Convention : Reuss Voigt Hill
#
# Bulk Modulus (GPa) = 26.53520 38.61600 32.57560
# Shear Modulus (GPa) = 22.73253 26.48744 24.60999
#
# Velocity S-wave (km/s) = 3.45460 3.72901 3.59443
# Velocity P-wave (km/s) = 5.46287 6.23006 5.85904
#
# Compressibility (1/GPa) = 0.03768579
#
# Stress axis : x y z
#
# Youngs Moduli (GPa) = 77.01741 27.32416 65.12784
#
# Poissons Ratio (x) = 0.25459 0.29417
# Poissons Ratio (y) = 0.71760 -0.01361
# Poissons Ratio (z) = 0.34787 -0.00571
#
# Static dielectric constant tensor:
#      x y z
#    x 3.705380 0.000000 0.000000 
#    y 0.000000 3.553490 0.000000 
#    z 0.000000 0.000000 3.567850 
# 
# 
# High freq. dielectric constant tensor:
#      x y z
#    x 1.745090 0.000000 0.000000 
#    y 0.000000 1.732600 0.000000 
#    z 0.000000 0.000000 1.740940 
# 
# From -- ./inp_files/14050.got.cif
#   From: 2010.03.12/outbox.cif.g09.slc.cpg/sg59_8_cif.got.tgz:14050.got - 2010.04.16 16:29:54.
