data_PCOD8243520
_publ_section_title
;
Structure prediction by ZEFSAII (Michael W. Deem and Ramdas Pophale) SiO2 
 PCOD8243520
Probable space group: P M M N
;
_chemical_formula_sum "Si O2"
_cell_formula_units_Z 56
_cell_length_a 8.809842
_cell_length_b 14.290643
_cell_length_c 23.531696
_cell_angle_alpha 90.000000
_cell_angle_beta 90.000000
_cell_angle_gamma 90.000000
_cell_volume 2962.600685
_symmetry_space_group_name_H-M "P M M N"
_symmetry_group_IT_number 59
_space_group.IT_coordinate_system_code '2'
_symmetry_cell_setting 'orthorhombic'
loop_
_space_group_symop_operation_xyz
x,y,z
1/2-x,1/2-y,z
1/2+x,-y,-z
-x,1/2+y,-z
-x,-y,-z
1/2+x,1/2+y,-z
1/2-x,y,z
x,1/2-y,z
loop_
_atom_site_type_symbol
_atom_site_label
_atom_site_fract_x
_atom_site_fract_y
_atom_site_fract_z
Si Si1 0.427249 0.857942 0.346195
Si Si2 0.072961 0.492442 0.438991
Si Si3 0.424799 0.640481 0.939711
Si Si4 0.928299 0.002252 0.860159
Si Si5 0.073477 0.856732 0.645407
Si Si6 0.073097 0.007427 0.739036
Si Si7 0.574194 0.858345 0.056239
O O1 0.250000 0.869428 0.331718
O O2 0.471981 0.750000 0.355650
O O3 0.470065 0.914901 0.403069
O O4 0.523700 0.898750 0.293928
O O5 0.250000 0.482961 0.447309
O O6 0.000000 0.500000 0.500000
O O7 0.015365 0.399065 0.407940
O O8 0.250000 0.610672 0.933816
O O9 0.449005 0.750000 0.932524
O O10 0.522036 0.593477 0.890275
O O11 0.483558 0.606392 0.000959
O O12 0.750000 0.016769 0.865836
O O13 0.013555 0.089137 0.888688
O O14 0.973789 0.997215 0.794913
O O15 0.250000 0.862611 0.630497
O O16 0.021006 0.750000 0.655541
O O17 0.036402 0.915607 0.701858
O O18 0.250000 0.014419 0.754573
O O19 0.750000 0.881014 0.046329
O O20 0.544795 0.750000 0.067635
#
# Coordination Sequence:
#
# PCOD8243520 Si02
#       7
#     8   8   8   8   8   8   8
#     4   9  19  37  58  78 105 144 184 222 270 324
#     4  10  20  34  54  83 116 147 182 224 267 314
#     4  10  21  38  59  82 110 143 179 222 273 328
#     4  12  24  37  56  81 111 146 183 224 271 325
#     4   9  19  37  59  80 106 143 182 222 272 324
#     4  10  21  37  56  80 108 138 179 228 274 322
#     4  10  21  38  59  82 109 141 180 226 274 327
#
# _framework density 18.902308999999999
#
# number of rings (size 3 to 8) (size 9 to 14) (size 15 to 20)
#    0.000    2.000    0.000    3.429    0.000    5.143 
#    0.000    2.857    0.000    0.000    0.000    0.000 
#    0.000    0.000    0.000    0.000    0.000    0.000 
#
# Total GULP energy -694644.416058 kJ/mol
# GULP energy per Si atom -12404.364572 kJ/mol
# Density = 1.885929 g / cm^3
# Si number density = 18.902309 Si / 1000 Ang^3
#
#
#
# Elastic Constant Matrix: (Units=GPa)
#
#
# Indices 1 2 3 4 5 6 
#
# 1 56.8440 33.4610 34.0628 0.0000 0.0000 0.0000
# 2 33.4610 125.1116 50.3331 0.0000 0.0000 0.0000
# 3 34.0628 50.3331 121.2152 0.0000 0.0000 0.0000
# 4 0.0000 0.0000 0.0000 21.2264 0.0000 0.0000
# 5 0.0000 0.0000 0.0000 0.0000 39.4566 0.0000
# 6 0.0000 0.0000 0.0000 0.0000 0.0000 30.6296
#
#
#
# Elastic Compliance Matrix: (Units=1/GPa)
#
#
# Indices 1 2 3 4 5 6 
#
# 1 0.022888 -0.004243 -0.004670 0.000000 0.000000 0.000000
# 2 -0.004243 0.010382 -0.003119 0.000000 0.000000 0.000000
# 3 -0.004670 -0.003119 0.010857 0.000000 0.000000 0.000000
# 4 0.000000 0.000000 0.000000 0.047111 0.000000 0.000000
# 5 0.000000 0.000000 0.000000 0.000000 0.025344 0.000000
# 6 0.000000 0.000000 0.000000 0.000000 0.000000 0.032648
#
#
# Mechanical properties :
#
#
# Convention : Reuss Voigt Hill
#
# Bulk Modulus (GPa) = 49.83978 59.87606 54.85792
# Shear Modulus (GPa) = 27.78055 30.61679 29.19867
#
# Velocity S-wave (km/s) = 3.83781 4.02896 3.93455
# Velocity P-wave (km/s) = 6.78695 7.30676 7.05165
#
# Compressibility (1/GPa) = 0.02006429
#
# Stress axis : x y z
#
# Youngs Moduli (GPa) = 43.69135 96.31794 92.10463
#
# Poissons Ratio (x) = 0.40863 0.43013
# Poissons Ratio (y) = 0.18536 0.28727
# Poissons Ratio (z) = 0.20404 0.30041
#
# Static dielectric constant tensor:
#      x y z
#    x 3.559420 0.000000 0.000000 
#    y 0.000000 3.569790 0.000000 
#    z 0.000000 0.000000 3.429690 
# 
# 
# High freq. dielectric constant tensor:
#      x y z
#    x 1.744510 0.000000 0.000000 
#    y 0.000000 1.741900 0.000000 
#    z 0.000000 0.000000 1.733210 
# 
# From -- ./inp_files/29033.got.cif
#   From: 2010.03.12/outbox.cif.g09.slc.cpg/sg59_15_cif.got.tgz:29033.got - 2010.04.16 16:29:54.
