data_PCOD8243201
_publ_section_title
;
Structure prediction by ZEFSAII (Michael W. Deem and Ramdas Pophale) SiO2 
 PCOD8243201
Probable space group: P M M N
;
_chemical_formula_sum "Si O2"
_cell_formula_units_Z 64
_cell_length_a 9.229548
_cell_length_b 23.255415
_cell_length_c 15.324701
_cell_angle_alpha 90.000000
_cell_angle_beta 90.000000
_cell_angle_gamma 90.000000
_cell_volume 3289.247374
_symmetry_space_group_name_H-M "P M M N"
_symmetry_group_IT_number 59
_space_group.IT_coordinate_system_code '2'
_symmetry_cell_setting 'orthorhombic'
loop_
_space_group_symop_operation_xyz
x,y,z
1/2-x,1/2-y,z
1/2+x,-y,-z
-x,1/2+y,-z
-x,-y,-z
1/2+x,1/2+y,-z
1/2-x,y,z
x,1/2-y,z
loop_
_atom_site_type_symbol
_atom_site_label
_atom_site_fract_x
_atom_site_fract_y
_atom_site_fract_z
Si Si1 0.090657 0.855215 0.136486
Si Si2 0.080265 0.890482 0.324502
Si Si3 0.913057 0.181720 0.168815
Si Si4 0.422584 0.815592 0.487743
Si Si5 0.593959 0.815530 0.989129
Si Si6 0.921174 0.497716 0.265839
Si Si7 0.916771 0.487149 0.910446
Si Si8 0.080538 0.624011 0.660358
O O1 0.250000 0.829365 0.119851
O O2 0.053277 0.852278 0.238521
O O3 0.081887 0.919388 0.101381
O O4 0.977029 0.817129 0.084228
O O5 0.250000 0.907347 0.332562
O O6 0.023918 0.851748 0.404226
O O7 0.987351 0.948563 0.318111
O O8 0.750000 0.158200 0.159741
O O9 0.915905 0.250000 0.170928
O O10 0.986493 0.157692 0.256760
O O11 0.997057 0.154986 0.085763
O O12 0.250000 0.814198 0.488651
O O13 0.482421 0.750000 0.484938
O O14 0.486750 0.849238 0.572007
O O15 0.750000 0.846838 0.992144
O O16 0.615248 0.750000 0.962212
O O17 0.750000 0.507008 0.249353
O O18 0.950473 0.443648 0.329609
O O19 0.998948 0.485859 0.172787
O O20 0.750000 0.509788 0.913449
O O21 0.000000 0.500000 0.000000
O O22 0.250000 0.637163 0.657854
#
# Coordination Sequence:
#
# PCOD8243201 Si02
#       8
#     8   8   8   8   8   8   8   8
#     4   9  19  34  51  72 101 136 175 220 265 314
#     4   9  19  36  56  80 109 139 179 231 278 328
#     4   9  17  31  51  73 101 138 176 219 271 325
#     4   9  17  32  57  86 111 138 179 233 286 330
#     4  10  21  34  48  72 104 137 176 219 267 324
#     4  10  20  34  52  78 113 151 186 223 272 329
#     4  10  21  36  54  78 108 142 183 229 271 319
#     4   9  18  31  51  81 112 140 178 227 274 328
#
# _framework density 19.457338
#
# number of rings (size 3 to 8) (size 9 to 14) (size 15 to 20)
#    0.000    2.625    0.000    2.250    1.750    5.750 
#    0.000    1.875    0.000    1.875    0.000    0.000 
#    0.000    0.000    0.000    0.000    0.000    0.000 
#
# Total GULP energy -793327.904499 kJ/mol
# GULP energy per Si atom -12395.748508 kJ/mol
# Density = 1.941305 g / cm^3
# Si number density = 19.457338 Si / 1000 Ang^3
#
#
#
# Elastic Constant Matrix: (Units=GPa)
#
#
# Indices 1 2 3 4 5 6 
#
# 1 94.2236 36.2418 64.0183 0.0000 0.0000 0.0000
# 2 36.2418 65.2058 62.3366 0.0000 0.0000 0.0000
# 3 64.0183 62.3366 174.0828 0.0000 0.0000 0.0000
# 4 0.0000 0.0000 0.0000 35.8278 0.0000 0.0000
# 5 0.0000 0.0000 0.0000 0.0000 17.2741 0.0000
# 6 0.0000 0.0000 0.0000 0.0000 0.0000 21.2355
#
#
#
# Elastic Compliance Matrix: (Units=1/GPa)
#
#
# Indices 1 2 3 4 5 6 
#
# 1 0.015027 -0.004667 -0.003855 0.000000 0.000000 0.000000
# 2 -0.004667 0.024768 -0.007153 0.000000 0.000000 0.000000
# 3 -0.003855 -0.007153 0.009723 0.000000 0.000000 0.000000
# 4 0.000000 0.000000 0.000000 0.027911 0.000000 0.000000
# 5 0.000000 0.000000 0.000000 0.000000 0.057890 0.000000
# 6 0.000000 0.000000 0.000000 0.000000 0.000000 0.047091
#
#
# Mechanical properties :
#
#
# Convention : Reuss Voigt Hill
#
# Bulk Modulus (GPa) = 55.03815 73.18950 64.11382
# Shear Modulus (GPa) = 22.74615 26.26183 24.50399
#
# Velocity S-wave (km/s) = 3.42281 3.67783 3.55261
# Velocity P-wave (km/s) = 6.63090 7.46541 7.06049
#
# Compressibility (1/GPa) = 0.01816922
#
# Stress axis : x y z
#
# Youngs Moduli (GPa) = 66.54520 40.37456 102.84397
#
# Poissons Ratio (x) = 0.18842 0.39648
# Poissons Ratio (y) = 0.31055 0.73563
# Poissons Ratio (z) = 0.25654 0.28880
#
# Static dielectric constant tensor:
#      x y z
#    x 3.535520 0.000000 0.000000 
#    y 0.000000 3.391690 0.000000 
#    z 0.000000 0.000000 3.806600 
# 
# 
# High freq. dielectric constant tensor:
#      x y z
#    x 1.730550 0.000000 0.000000 
#    y 0.000000 1.750580 0.000000 
#    z 0.000000 0.000000 1.765130 
# 
# From -- ./inp_files/21499.got.cif
#   From: 2010.03.12/outbox.cif.g09.slc.cpg/sg59_11_cif.got.tgz:21499.got - 2010.04.16 16:29:54.
