data_PCOD8243909
_publ_section_title
;
Structure prediction by ZEFSAII (Michael W. Deem and Ramdas Pophale) SiO2 
 PCOD8243909
Probable space group: P M M N
;
_chemical_formula_sum "Si O2"
_cell_formula_units_Z 64
_cell_length_a 9.427098
_cell_length_b 13.964200
_cell_length_c 25.703774
_cell_angle_alpha 90.000000
_cell_angle_beta 90.000000
_cell_angle_gamma 90.000000
_cell_volume 3383.693181
_symmetry_space_group_name_H-M "P M M N"
_symmetry_group_IT_number 59
_space_group.IT_coordinate_system_code '2'
_symmetry_cell_setting 'orthorhombic'
loop_
_space_group_symop_operation_xyz
x,y,z
1/2-x,1/2-y,z
1/2+x,-y,-z
-x,1/2+y,-z
-x,-y,-z
1/2+x,1/2+y,-z
1/2-x,y,z
x,1/2-y,z
loop_
_atom_site_type_symbol
_atom_site_label
_atom_site_fract_x
_atom_site_fract_y
_atom_site_fract_z
Si Si1 0.413651 0.544479 0.370398
Si Si2 0.082598 0.546394 0.183088
Si Si3 0.588085 0.360666 0.521393
Si Si4 0.913638 0.642936 0.577638
Si Si5 0.909445 0.363424 0.924023
Si Si6 0.592130 0.863966 0.981471
Si Si7 0.417576 0.144940 0.132744
Si Si8 0.582638 0.637719 0.278017
O O1 0.250000 0.568810 0.355795
O O2 0.455192 0.584378 0.426658
O O3 0.437787 0.429285 0.373802
O O4 0.519377 0.590248 0.329399
O O5 0.250000 0.562086 0.194203
O O6 0.031754 0.599729 0.130955
O O7 0.044687 0.433462 0.176560
O O8 0.990934 0.587985 0.229363
O O9 0.750000 0.381043 0.506473
O O10 0.559086 0.250000 0.532645
O O11 0.495150 0.396129 0.472933
O O12 0.750000 0.643248 0.561603
O O13 0.964639 0.750000 0.593912
O O14 0.750000 0.401036 0.930853
O O15 0.918346 0.250000 0.923648
O O16 0.995893 0.408046 0.972418
O O17 0.750000 0.905704 0.988657
O O18 0.594539 0.750000 0.986417
O O19 0.528227 0.890033 0.924351
O O20 0.250000 0.154527 0.126929
O O21 0.480830 0.250000 0.147981
O O22 0.750000 0.618779 0.276043
O O23 0.547263 0.750000 0.277774
#
# Coordination Sequence:
#
# PCOD8243909 Si02
#       8
#     8   8   8   8   8   8   8   8
#     4  10  20  35  56  79 105 142 183 218 255 303
#     4  10  20  35  56  77  98 132 174 212 255 306
#     4   9  17  29  48  77 110 143 180 219 259 304
#     4   9  18  32  51  79 114 147 179 215 253 296
#     4   9  17  28  43  68 101 132 165 206 250 299
#     4   8  14  26  45  69  99 134 166 198 242 296
#     4   8  15  30  52  77 103 131 168 211 250 295
#     4  11  25  42  58  78 103 129 163 213 267 313
#
# _framework density 18.914244
#
# number of rings (size 3 to 8) (size 9 to 14) (size 15 to 20)
#    0.000    2.750    0.000    2.250    0.000    4.000 
#    0.000    3.750    0.000    4.875    0.000    0.000 
#    0.000    0.000    0.000    0.000    0.000    0.000 
#
# Total GULP energy -793344.237525 kJ/mol
# GULP energy per Si atom -12396.003711 kJ/mol
# Density = 1.887119 g / cm^3
# Si number density = 18.914244 Si / 1000 Ang^3
#
#
#
# Elastic Constant Matrix: (Units=GPa)
#
#
# Indices 1 2 3 4 5 6 
#
# 1 73.2589 46.9625 59.2086 0.0000 0.0000 0.0000
# 2 46.9625 83.8655 68.4181 0.0000 0.0000 0.0000
# 3 59.2086 68.4181 94.3455 0.0000 0.0000 0.0000
# 4 0.0000 0.0000 0.0000 29.6456 0.0000 0.0000
# 5 0.0000 0.0000 0.0000 0.0000 46.4869 0.0000
# 6 0.0000 0.0000 0.0000 0.0000 0.0000 17.9906
#
#
#
# Elastic Compliance Matrix: (Units=1/GPa)
#
#
# Indices 1 2 3 4 5 6 
#
# 1 0.028068 -0.003299 -0.015222 0.000000 0.000000 0.000000
# 2 -0.003299 0.029585 -0.019385 0.000000 0.000000 0.000000
# 3 -0.015222 -0.019385 0.034210 0.000000 0.000000 0.000000
# 4 0.000000 0.000000 0.000000 0.033732 0.000000 0.000000
# 5 0.000000 0.000000 0.000000 0.000000 0.021511 0.000000
# 6 0.000000 0.000000 0.000000 0.000000 0.000000 0.055585
#
#
# Mechanical properties :
#
#
# Convention : Reuss Voigt Hill
#
# Bulk Modulus (GPa) = 62.29943 66.73868 64.51905
# Shear Modulus (GPa) = 17.61483 23.95001 20.78242
#
# Velocity S-wave (km/s) = 3.05503 3.56229 3.31837
# Velocity P-wave (km/s) = 6.74193 7.23059 6.99053
#
# Compressibility (1/GPa) = 0.01605151
#
# Stress axis : x y z
#
# Youngs Moduli (GPa) = 35.62823 33.80087 29.23140
#
# Poissons Ratio (x) = 0.11150 0.44497
# Poissons Ratio (y) = 0.11753 0.56664
# Poissons Ratio (z) = 0.54234 0.65521
#
# Static dielectric constant tensor:
#      x y z
#    x 3.431900 0.000000 0.000000 
#    y 0.000000 3.787300 0.000000 
#    z 0.000000 0.000000 3.459540 
# 
# 
# High freq. dielectric constant tensor:
#      x y z
#    x 1.710970 0.000000 0.000000 
#    y 0.000000 1.751870 0.000000 
#    z 0.000000 0.000000 1.718810 
# 
# From -- ./inp_files/31629.got.cif
#   From: 2010.03.12/outbox.cif.g09.slc.cpg/sg59_16_cif.got.tgz:31629.got - 2010.04.16 16:29:54.
