data_PCOD8243579
_publ_section_title
;
Structure prediction by ZEFSAII (Michael W. Deem and Ramdas Pophale) SiO2 
 PCOD8243579
Probable space group: P M M N
;
_chemical_formula_sum "Si O2"
_cell_formula_units_Z 48
_cell_length_a 8.867271
_cell_length_b 30.669657
_cell_length_c 9.479153
_cell_angle_alpha 90.000000
_cell_angle_beta 90.000000
_cell_angle_gamma 90.000000
_cell_volume 2577.914051
_symmetry_space_group_name_H-M "P M M N"
_symmetry_group_IT_number 59
_space_group.IT_coordinate_system_code '2'
_symmetry_cell_setting 'orthorhombic'
loop_
_space_group_symop_operation_xyz
x,y,z
1/2-x,1/2-y,z
1/2+x,-y,-z
-x,1/2+y,-z
-x,-y,-z
1/2+x,1/2+y,-z
1/2-x,y,z
x,1/2-y,z
loop_
_atom_site_type_symbol
_atom_site_label
_atom_site_fract_x
_atom_site_fract_y
_atom_site_fract_z
Si Si1 0.572259 0.486613 0.352257
Si Si2 0.076921 0.136254 0.591356
Si Si3 0.577512 0.603534 0.709947
Si Si4 0.423460 0.869003 0.983082
Si Si5 0.573669 0.200164 0.785411
Si Si6 0.075310 0.935149 0.223670
O O1 0.500000 0.500000 0.500000
O O2 0.750000 0.489809 0.367087
O O3 0.527332 0.438437 0.306084
O O4 0.516415 0.519786 0.230832
O O5 0.250000 0.129869 0.636990
O O6 0.058510 0.135787 0.422809
O O7 0.015961 0.182283 0.649640
O O8 0.980197 0.096710 0.653142
O O9 0.750000 0.588101 0.725199
O O10 0.528058 0.630849 0.846286
O O11 0.250000 0.865216 0.936449
O O12 0.471674 0.827382 0.076474
O O13 0.450723 0.913277 0.071559
O O14 0.750000 0.194489 0.753702
O O15 0.527884 0.250000 0.811777
O O16 0.250000 0.944787 0.251529
#
# Coordination Sequence:
#
# PCOD8243579 Si02
#       6
#     8   8   8   8   8   8
#     4  12  23  35  55  81 111 149 193 238 281 326
#     4  10  20  34  55  82 112 144 182 228 276 329
#     4  11  23  37  54  80 114 151 189 230 279 332
#     4   9  20  37  57  82 112 147 186 229 282 335
#     4   9  19  38  63  87 110 140 182 229 278 340
#     4  10  20  36  57  80 109 148 192 234 275 327
#
# _framework density 18.619705
#
# number of rings (size 3 to 8) (size 9 to 14) (size 15 to 20)
#    0.000    1.833    1.667    4.000    0.000    6.333 
#    0.000    0.833    0.000    3.000    0.000    0.000 
#    0.000    0.000    0.000    0.000    0.000    0.000 
#
# Total GULP energy -595376.351727 kJ/mol
# GULP energy per Si atom -12403.673994 kJ/mol
# Density = 1.857733 g / cm^3
# Si number density = 18.619705 Si / 1000 Ang^3
#
#
#
# Elastic Constant Matrix: (Units=GPa)
#
#
# Indices 1 2 3 4 5 6 
#
# 1 118.1264 44.6146 56.4691 0.0000 0.0000 0.0000
# 2 44.6146 113.2586 46.4947 0.0000 0.0000 0.0000
# 3 56.4691 46.4947 110.4472 0.0000 0.0000 0.0000
# 4 0.0000 0.0000 0.0000 19.4433 0.0000 0.0000
# 5 0.0000 0.0000 0.0000 0.0000 33.1957 0.0000
# 6 0.0000 0.0000 0.0000 0.0000 0.0000 27.3299
#
#
#
# Elastic Compliance Matrix: (Units=1/GPa)
#
#
# Indices 1 2 3 4 5 6 
#
# 1 0.011818 -0.002629 -0.004935 0.000000 0.000000 0.000000
# 2 -0.002629 0.011259 -0.003395 0.000000 0.000000 0.000000
# 3 -0.004935 -0.003395 0.013007 0.000000 0.000000 0.000000
# 4 0.000000 0.000000 0.000000 0.051432 0.000000 0.000000
# 5 0.000000 0.000000 0.000000 0.000000 0.030124 0.000000
# 6 0.000000 0.000000 0.000000 0.000000 0.000000 0.036590
#
#
# Mechanical properties :
#
#
# Convention : Reuss Voigt Hill
#
# Bulk Modulus (GPa) = 70.60349 70.77656 70.69003
# Shear Modulus (GPa) = 27.64407 28.94402 28.29404
#
# Velocity S-wave (km/s) = 3.85732 3.94697 3.90240
# Velocity P-wave (km/s) = 7.60523 7.67239 7.63889
#
# Compressibility (1/GPa) = 0.01416361
#
# Stress axis : x y z
#
# Youngs Moduli (GPa) = 84.61793 88.81853 76.88283
#
# Poissons Ratio (x) = 0.23352 0.37945
# Poissons Ratio (y) = 0.22248 0.26105
# Poissons Ratio (z) = 0.41762 0.30157
#
# Static dielectric constant tensor:
#      x y z
#    x 3.519770 0.000000 0.000000 
#    y 0.000000 3.452450 0.000000 
#    z 0.000000 0.000000 3.417510 
# 
# 
# High freq. dielectric constant tensor:
#      x y z
#    x 1.733320 0.000000 0.000000 
#    y 0.000000 1.708160 0.000000 
#    z 0.000000 0.000000 1.717160 
# 
# From -- ./inp_files/6267.got.cif
#   From: 2010.03.12/outbox.cif.g09.slc.cpg/sg59_4_cif.got.tgz:6267.got - 2010.04.16 16:29:54.
