data_PCOD8243369
_publ_section_title
;
Structure prediction by ZEFSAII (Michael W. Deem and Ramdas Pophale) SiO2 
 PCOD8243369
Probable space group: P M M N
;
_chemical_formula_sum "Si O2"
_cell_formula_units_Z 64
_cell_length_a 9.190500
_cell_length_b 14.251529
_cell_length_c 26.149640
_cell_angle_alpha 90.000000
_cell_angle_beta 90.000000
_cell_angle_gamma 90.000000
_cell_volume 3425.045258
_symmetry_space_group_name_H-M "P M M N"
_symmetry_group_IT_number 59
_space_group.IT_coordinate_system_code '2'
_symmetry_cell_setting 'orthorhombic'
loop_
_space_group_symop_operation_xyz
x,y,z
1/2-x,1/2-y,z
1/2+x,-y,-z
-x,1/2+y,-z
-x,-y,-z
1/2+x,1/2+y,-z
1/2-x,y,z
x,1/2-y,z
loop_
_atom_site_type_symbol
_atom_site_label
_atom_site_fract_x
_atom_site_fract_y
_atom_site_fract_z
Si Si1 0.580946 0.641917 0.872149
Si Si2 0.581091 0.012444 0.791044
Si Si3 0.580124 0.357956 0.392697
Si Si4 0.422077 0.505150 0.325822
Si Si5 0.421274 0.510861 0.946591
Si Si6 0.584935 0.860886 0.396808
Si Si7 0.080415 0.143386 0.864326
Si Si8 0.089268 0.861503 0.493623
O O1 0.750000 0.631179 0.887185
O O2 0.539445 0.750000 0.862219
O O3 0.544325 0.584029 0.820763
O O4 0.484428 0.602562 0.918500
O O5 0.750000 0.036303 0.794354
O O6 0.529576 0.000157 0.733032
O O7 0.499115 0.101102 0.815090
O O8 0.750000 0.374412 0.381428
O O9 0.537952 0.250000 0.386615
O O10 0.482279 0.412664 0.352649
O O11 0.541704 0.395132 0.449831
O O12 0.250000 0.509817 0.332120
O O13 0.491815 0.597647 0.350551
O O14 0.250000 0.524452 0.954718
O O15 0.457710 0.417355 0.914369
O O16 0.500000 0.500000 0.000000
O O17 0.750000 0.896765 0.392683
O O18 0.573649 0.750000 0.392565
O O19 0.523987 0.897776 0.451251
O O20 0.250000 0.139424 0.852251
O O21 0.027840 0.250000 0.873839
O O22 0.250000 0.900242 0.479929
O O23 0.095109 0.750000 0.494409
#
# Coordination Sequence:
#
# PCOD8243369 Si02
#       8
#     8   8   8   8   8   8   8   8
#     4   9  18  35  58  79 103 140 181 220 265 312
#     4   9  20  37  54  76 104 134 174 222 266 309
#     4   9  19  36  56  78 105 136 170 211 260 314
#     4  11  23  36  53  78 107 139 174 215 264 317
#     4  10  20  34  53  81 117 149 179 218 259 304
#     4  10  21  36  54  76 102 134 173 216 262 316
#     4   9  19  36  57  79 104 139 180 219 263 312
#     4   8  15  31  54  76 100 131 166 208 259 313
#
# _framework density 18.685886
#
# number of rings (size 3 to 8) (size 9 to 14) (size 15 to 20)
#    0.000    2.625    0.000    1.875    0.000    5.500 
#    0.000    6.250    0.000    0.000    0.000    0.000 
#    0.000    0.000    0.000    0.000    0.000    0.000 
#
# Total GULP energy -793629.730622 kJ/mol
# GULP energy per Si atom -12400.464541 kJ/mol
# Density = 1.864336 g / cm^3
# Si number density = 18.685886 Si / 1000 Ang^3
#
#
#
# Elastic Constant Matrix: (Units=GPa)
#
#
# Indices 1 2 3 4 5 6 
#
# 1 89.1540 46.3468 75.2770 0.0000 0.0000 0.0000
# 2 46.3468 111.5003 56.8775 0.0000 0.0000 0.0000
# 3 75.2770 56.8775 161.7679 0.0000 0.0000 0.0000
# 4 0.0000 0.0000 0.0000 20.5934 0.0000 0.0000
# 5 0.0000 0.0000 0.0000 0.0000 31.5081 0.0000
# 6 0.0000 0.0000 0.0000 0.0000 0.0000 30.3385
#
#
#
# Elastic Compliance Matrix: (Units=1/GPa)
#
#
# Indices 1 2 3 4 5 6 
#
# 1 0.020078 -0.004362 -0.007809 0.000000 0.000000 0.000000
# 2 -0.004362 0.011876 -0.002146 0.000000 0.000000 0.000000
# 3 -0.007809 -0.002146 0.010570 0.000000 0.000000 0.000000
# 4 0.000000 0.000000 0.000000 0.048559 0.000000 0.000000
# 5 0.000000 0.000000 0.000000 0.000000 0.031738 0.000000
# 6 0.000000 0.000000 0.000000 0.000000 0.000000 0.032961
#
#
# Mechanical properties :
#
#
# Convention : Reuss Voigt Hill
#
# Bulk Modulus (GPa) = 71.99476 79.93610 75.96543
# Shear Modulus (GPa) = 26.44833 28.74940 27.59887
#
# Velocity S-wave (km/s) = 3.76629 3.92671 3.84733
# Velocity P-wave (km/s) = 7.58458 7.96432 7.77677
#
# Compressibility (1/GPa) = 0.01388990
#
# Stress axis : x y z
#
# Youngs Moduli (GPa) = 49.80567 84.20070 94.60547
#
# Poissons Ratio (x) = 0.36729 0.73881
# Poissons Ratio (y) = 0.21726 0.20301
# Poissons Ratio (z) = 0.38895 0.18068
#
# Static dielectric constant tensor:
#      x y z
#    x 3.494570 0.000000 0.000000 
#    y 0.000000 3.444180 0.000000 
#    z 0.000000 0.000000 3.496090 
# 
# 
# High freq. dielectric constant tensor:
#      x y z
#    x 1.726830 0.000000 0.000000 
#    y 0.000000 1.727350 0.000000 
#    z 0.000000 0.000000 1.723270 
# 
# From -- ./inp_files/31567.got.cif
#   From: 2010.03.12/outbox.cif.g09.slc.cpg/sg59_16_cif.got.tgz:31567.got - 2010.04.16 16:29:54.
