data_PCOD8243222
_publ_section_title
;
Structure prediction by ZEFSAII (Michael W. Deem and Ramdas Pophale) SiO2 
 PCOD8243222
Probable space group: P M M N
;
_chemical_formula_sum "Si O2"
_cell_formula_units_Z 64
_cell_length_a 9.145650
_cell_length_b 22.939018
_cell_length_c 17.100939
_cell_angle_alpha 90.000000
_cell_angle_beta 90.000000
_cell_angle_gamma 90.000000
_cell_volume 3587.644127
_symmetry_space_group_name_H-M "P M M N"
_symmetry_group_IT_number 59
_space_group.IT_coordinate_system_code '2'
_symmetry_cell_setting 'orthorhombic'
loop_
_space_group_symop_operation_xyz
x,y,z
1/2-x,1/2-y,z
1/2+x,-y,-z
-x,1/2+y,-z
-x,-y,-z
1/2+x,1/2+y,-z
1/2-x,y,z
x,1/2-y,z
loop_
_atom_site_type_symbol
_atom_site_label
_atom_site_fract_x
_atom_site_fract_y
_atom_site_fract_z
Si Si1 0.413319 0.098931 0.821181
Si Si2 0.423276 0.814331 0.552187
Si Si3 0.416056 0.684186 0.271870
Si Si4 0.078476 0.989510 0.081008
Si Si5 0.914218 0.513469 0.324733
Si Si6 0.920595 0.183485 0.269320
Si Si7 0.581420 0.102228 0.580920
Si Si8 0.578370 0.925609 0.777841
O O1 0.250000 0.107343 0.854806
O O2 0.480401 0.161047 0.797404
O O3 0.411147 0.058994 0.745166
O O4 0.516547 0.071114 0.886547
O O5 0.250000 0.812287 0.543213
O O6 0.484416 0.750000 0.528177
O O7 0.467843 0.827500 0.641108
O O8 0.483537 0.866086 0.496588
O O9 0.250000 0.678901 0.242162
O O10 0.460886 0.750000 0.290414
O O11 0.437874 0.648666 0.350673
O O12 0.250000 0.983059 0.067357
O O13 0.041827 0.041716 0.141118
O O14 0.000000 0.000000 0.000000
O O15 0.750000 0.494193 0.348233
O O16 0.990623 0.543544 0.399947
O O17 0.003597 0.457063 0.296513
O O18 0.750000 0.170197 0.257284
O O19 0.955963 0.250000 0.244733
O O20 0.014362 0.139755 0.215404
O O21 0.750000 0.083908 0.570310
O O22 0.750000 0.924188 0.762270
#
# Coordination Sequence:
#
# PCOD8243222 Si02
#       8
#     8   8   8   8   8   8   8   8
#     4   9  17  29  45  66  94 126 157 190 228 271
#     4   8  14  26  45  68  93 124 165 211 254 293
#     4   9  16  25  40  64  93 127 165 200 235 277
#     4  10  20  34  54  79 102 122 147 184 230 281
#     4   9  17  29  45  66  94 127 161 198 241 287
#     4   9  18  33  53  75  98 127 164 203 243 288
#     4   9  15  25  43  66  93 125 164 209 251 289
#     4  10  20  34  53  76 100 126 158 195 236 285
#
# _framework density 17.839005
#
# number of rings (size 3 to 8) (size 9 to 14) (size 15 to 20)
#    0.000    2.875    0.000    2.625    0.000    6.500 
#    0.000    1.250    0.000    2.625    0.000    3.500 
#    0.000    0.000    0.000    0.000    0.000    0.000 
#
# Total GULP energy -793401.071603 kJ/mol
# GULP energy per Si atom -12396.891744 kJ/mol
# Density = 1.779840 g / cm^3
# Si number density = 17.839005 Si / 1000 Ang^3
#
#
#
# Elastic Constant Matrix: (Units=GPa)
#
#
# Indices 1 2 3 4 5 6 
#
# 1 93.2114 45.7736 33.9560 0.0000 0.0000 0.0000
# 2 45.7736 84.9548 24.7182 0.0000 0.0000 0.0000
# 3 33.9560 24.7182 53.7560 0.0000 0.0000 0.0000
# 4 0.0000 0.0000 0.0000 20.8429 0.0000 0.0000
# 5 0.0000 0.0000 0.0000 0.0000 20.9686 0.0000
# 6 0.0000 0.0000 0.0000 0.0000 0.0000 29.4593
#
#
#
# Elastic Compliance Matrix: (Units=1/GPa)
#
#
# Indices 1 2 3 4 5 6 
#
# 1 0.016835 -0.006900 -0.007461 0.000000 0.000000 0.000000
# 2 -0.006900 0.016417 -0.003191 0.000000 0.000000 0.000000
# 3 -0.007461 -0.003191 0.024783 0.000000 0.000000 0.000000
# 4 0.000000 0.000000 0.000000 0.047978 0.000000 0.000000
# 5 0.000000 0.000000 0.000000 0.000000 0.047690 0.000000
# 6 0.000000 0.000000 0.000000 0.000000 0.000000 0.033945
#
#
# Mechanical properties :
#
#
# Convention : Reuss Voigt Hill
#
# Bulk Modulus (GPa) = 43.60861 48.97973 46.29417
# Shear Modulus (GPa) = 21.70194 22.75244 22.22719
#
# Velocity S-wave (km/s) = 3.49168 3.57519 3.53369
# Velocity P-wave (km/s) = 6.38393 6.67524 6.53121
#
# Compressibility (1/GPa) = 0.02293125
#
# Stress axis : x y z
#
# Youngs Moduli (GPa) = 59.40164 60.91342 40.35066
#
# Poissons Ratio (x) = 0.42027 0.30107
# Poissons Ratio (y) = 0.40984 0.12874
# Poissons Ratio (z) = 0.44321 0.19435
#
# Static dielectric constant tensor:
#      x y z
#    x 3.304730 0.000000 0.000000 
#    y 0.000000 3.384770 0.000000 
#    z 0.000000 0.000000 3.142130 
# 
# 
# High freq. dielectric constant tensor:
#      x y z
#    x 1.681980 0.000000 0.000000 
#    y 0.000000 1.687900 0.000000 
#    z 0.000000 0.000000 1.659660 
# 
# From -- ./inp_files/26163.got.cif
#   From: 2010.03.12/outbox.cif.g09.slc.cpg/sg59_14_cif.got.tgz:26163.got - 2010.04.16 16:29:54.
