data_PCOD8243811
_publ_section_title
;
Structure prediction by ZEFSAII (Michael W. Deem and Ramdas Pophale) SiO2 
 PCOD8243811
Probable space group: P M M N
;
_chemical_formula_sum "Si O2"
_cell_formula_units_Z 32
_cell_length_a 8.871932
_cell_length_b 16.079883
_cell_length_c 11.280265
_cell_angle_alpha 90.000000
_cell_angle_beta 90.000000
_cell_angle_gamma 90.000000
_cell_volume 1609.238415
_symmetry_space_group_name_H-M "P M M N"
_symmetry_group_IT_number 59
_space_group.IT_coordinate_system_code '2'
_symmetry_cell_setting 'orthorhombic'
loop_
_space_group_symop_operation_xyz
x,y,z
1/2-x,1/2-y,z
1/2+x,-y,-z
-x,1/2+y,-z
-x,-y,-z
1/2+x,1/2+y,-z
1/2-x,y,z
x,1/2-y,z
loop_
_atom_site_type_symbol
_atom_site_label
_atom_site_fract_x
_atom_site_fract_y
_atom_site_fract_z
Si Si1 0.429082 0.250000 0.512841
Si Si2 0.428872 0.071369 0.417566
Si Si3 0.580993 0.063096 0.168387
Si Si4 0.570480 0.750000 0.223874
Si Si5 0.081016 0.114301 0.951378
O O1 0.250000 0.250000 0.514189
O O2 0.485819 0.164704 0.450850
O O3 0.498932 0.250000 0.644908
O O4 0.250000 0.064473 0.430512
O O5 0.476894 0.055615 0.283025
O O6 0.500000 0.000000 0.500000
O O7 0.750000 0.089747 0.205393
O O8 0.581426 0.977505 0.098702
O O9 0.512653 0.127540 0.072862
O O10 0.750000 0.750000 0.236161
O O11 0.510606 0.829775 0.152625
O O12 0.250000 0.143833 0.981510
#
# Coordination Sequence:
#
# PCOD8243811 Si02
#       5
#     4   8   8   4   8
#     4   9  20  37  57  82 112 149 190 229 274 339
#     4  11  22  38  60  84 113 150 191 233 279 331
#     4  10  20  35  54  78 110 144 180 223 275 333
#     4   9  16  31  55  78 100 131 178 227 270 323
#     4   9  18  33  55  79 103 136 178 225 274 327
#
# _framework density 19.885183999999999
#
# number of rings (size 3 to 8) (size 9 to 14) (size 15 to 20)
#    0.000    2.250    0.000    3.000    0.000    6.000 
#    0.000    8.125    0.000    3.000    0.000    0.000 
#    0.000    0.000    0.000    0.000    0.000    0.000 
#
# Total GULP energy -396630.553830 kJ/mol
# GULP energy per Si atom -12394.704807 kJ/mol
# Density = 1.983992 g / cm^3
# Si number density = 19.885184 Si / 1000 Ang^3
#
#
#
# Elastic Constant Matrix: (Units=GPa)
#
#
# Indices 1 2 3 4 5 6 
#
# 1 72.2378 32.3963 38.9557 0.0000 0.0000 0.0000
# 2 32.3963 67.1034 18.6311 0.0000 0.0000 0.0000
# 3 38.9557 18.6311 125.3289 0.0000 0.0000 0.0000
# 4 0.0000 0.0000 0.0000 15.0285 0.0000 0.0000
# 5 0.0000 0.0000 0.0000 0.0000 35.2791 0.0000
# 6 0.0000 0.0000 0.0000 0.0000 0.0000 12.4382
#
#
#
# Elastic Compliance Matrix: (Units=1/GPa)
#
#
# Indices 1 2 3 4 5 6 
#
# 1 0.020356 -0.008418 -0.005076 0.000000 0.000000 0.000000
# 2 -0.008418 0.019025 -0.000212 0.000000 0.000000 0.000000
# 3 -0.005076 -0.000212 0.009588 0.000000 0.000000 0.000000
# 4 0.000000 0.000000 0.000000 0.066540 0.000000 0.000000
# 5 0.000000 0.000000 0.000000 0.000000 0.028345 0.000000
# 6 0.000000 0.000000 0.000000 0.000000 0.000000 0.080398
#
#
# Mechanical properties :
#
#
# Convention : Reuss Voigt Hill
#
# Bulk Modulus (GPa) = 46.38622 49.40402 47.89512
# Shear Modulus (GPa) = 19.31627 24.19496 21.75561
#
# Velocity S-wave (km/s) = 3.12009 3.49195 3.31125
# Velocity P-wave (km/s) = 6.02973 6.41536 6.22553
#
# Compressibility (1/GPa) = 0.02155813
#
# Stress axis : x y z
#
# Youngs Moduli (GPa) = 49.12662 52.56177 104.29565
#
# Poissons Ratio (x) = 0.44247 0.52937
# Poissons Ratio (y) = 0.41355 0.02208
# Poissons Ratio (z) = 0.24935 0.01113
#
# Static dielectric constant tensor:
#      x y z
#    x 3.603340 0.000000 0.000000 
#    y 0.000000 3.706900 0.000000 
#    z 0.000000 0.000000 3.779090 
# 
# 
# High freq. dielectric constant tensor:
#      x y z
#    x 1.751390 0.000000 0.000000 
#    y 0.000000 1.773690 0.000000 
#    z 0.000000 0.000000 1.790190 
# 
# From -- ./inp_files/13676.got.cif
#   From: 2010.03.12/outbox.cif.g09.slc.cpg/sg59_7_cif.got.tgz:13676.got - 2010.04.16 16:29:54.
