data_PCOD8243583
_publ_section_title
;
Structure prediction by ZEFSAII (Michael W. Deem and Ramdas Pophale) SiO2 
 PCOD8243583
Probable space group: P M M N
;
_chemical_formula_sum "Si O2"
_cell_formula_units_Z 48
_cell_length_a 12.923044
_cell_length_b 28.084599
_cell_length_c 7.361298
_cell_angle_alpha 90.000000
_cell_angle_beta 90.000000
_cell_angle_gamma 90.000000
_cell_volume 2671.698517
_symmetry_space_group_name_H-M "P M M N"
_symmetry_group_IT_number 59
_space_group.IT_coordinate_system_code '2'
_symmetry_cell_setting 'orthorhombic'
loop_
_space_group_symop_operation_xyz
x,y,z
1/2-x,1/2-y,z
1/2+x,-y,-z
-x,1/2+y,-z
-x,-y,-z
1/2+x,1/2+y,-z
1/2-x,y,z
x,1/2-y,z
loop_
_atom_site_type_symbol
_atom_site_label
_atom_site_fract_x
_atom_site_fract_y
_atom_site_fract_z
Si Si1 0.972273 0.983002 0.702503
Si Si2 0.955482 0.359467 0.970693
Si Si3 0.133831 0.957432 0.997869
Si Si4 0.492784 0.803948 0.697751
Si Si5 0.628082 0.614074 0.788996
Si Si6 0.131700 0.804425 0.343681
O O1 0.905554 0.934449 0.688996
O O2 0.907733 0.022719 0.810258
O O3 0.000000 0.000000 0.500000
O O4 0.076141 0.975595 0.818069
O O5 0.870238 0.400420 0.992696
O O6 0.946476 0.336730 0.772809
O O7 0.934020 0.317232 0.115252
O O8 0.069826 0.382405 0.013173
O O9 0.250000 0.975217 0.974109
O O10 0.535886 0.750000 0.702635
O O11 0.589578 0.840466 0.668594
O O12 0.404909 0.810561 0.548424
O O13 0.750000 0.615961 0.819825
O O14 0.250000 0.822165 0.326121
O O15 0.122295 0.750000 0.279806
#
# Coordination Sequence:
#
# PCOD8243583 Si02
#       6
#     8   8   8   8   8   8
#     4  10  22  39  59  83 117 151 190 239 288 348
#     4   9  20  35  57  83 114 146 186 237 281 338
#     4  10  21  36  57  86 115 147 188 236 288 347
#     4   9  20  37  56  82 118 152 193 240 282 340
#     4   9  20  39  60  81 112 153 193 234 286 340
#     4  10  20  34  55  82 113 151 190 234 289 343
#
# _framework density 17.966100000000001
#
# number of rings (size 3 to 8) (size 9 to 14) (size 15 to 20)
#    1.000    1.500    0.000    1.500    2.333    3.000 
#    0.000    2.500    0.000    1.000    0.000    0.000 
#    0.000    0.000    0.000    0.000    0.000    0.000 
#
# Total GULP energy -594762.224331 kJ/mol
# GULP energy per Si atom -12390.879674 kJ/mol
# Density = 1.792521 g / cm^3
# Si number density = 17.966100 Si / 1000 Ang^3
#
#
#
# Elastic Constant Matrix: (Units=GPa)
#
#
# Indices 1 2 3 4 5 6 
#
# 1 117.8812 43.3909 42.3850 0.0000 0.0000 0.0000
# 2 43.3909 92.5192 43.2145 0.0000 0.0000 0.0000
# 3 42.3850 43.2145 98.4395 0.0000 0.0000 0.0000
# 4 0.0000 0.0000 0.0000 22.9094 0.0000 0.0000
# 5 0.0000 0.0000 0.0000 0.0000 18.8239 0.0000
# 6 0.0000 0.0000 0.0000 0.0000 0.0000 17.7673
#
#
#
# Elastic Compliance Matrix: (Units=1/GPa)
#
#
# Indices 1 2 3 4 5 6 
#
# 1 0.010955 -0.003692 -0.003096 0.000000 0.000000 0.000000
# 2 -0.003692 0.014841 -0.004925 0.000000 0.000000 0.000000
# 3 -0.003096 -0.004925 0.013654 0.000000 0.000000 0.000000
# 4 0.000000 0.000000 0.000000 0.043650 0.000000 0.000000
# 5 0.000000 0.000000 0.000000 0.000000 0.053124 0.000000
# 6 0.000000 0.000000 0.000000 0.000000 0.000000 0.056283
#
#
# Mechanical properties :
#
#
# Convention : Reuss Voigt Hill
#
# Bulk Modulus (GPa) = 62.41083 62.98007 62.69545
# Shear Modulus (GPa) = 22.59631 23.89009 23.24320
#
# Velocity S-wave (km/s) = 3.55028 3.65050 3.60074
# Velocity P-wave (km/s) = 7.18467 7.27319 7.22907
#
# Compressibility (1/GPa) = 0.01602286
#
# Stress axis : x y z
#
# Youngs Moduli (GPa) = 91.27984 67.38304 73.23876
#
# Poissons Ratio (x) = 0.24876 0.22678
# Poissons Ratio (y) = 0.33698 0.36073
# Poissons Ratio (z) = 0.28264 0.33189
#
# Static dielectric constant tensor:
#      x y z
#    x 3.085110 0.000000 0.000000 
#    y 0.000000 3.579110 0.000000 
#    z 0.000000 0.000000 3.092810 
# 
# 
# High freq. dielectric constant tensor:
#      x y z
#    x 1.678740 0.000000 0.000000 
#    y 0.000000 1.710930 0.000000 
#    z 0.000000 0.000000 1.681100 
# 
# From -- ./inp_files/2257.got.cif
#   From: 2010.03.12/outbox.cif.g09.slc.cpg/sg59_2_cif.got.tgz:2257.got - 2010.04.16 16:29:54.
