data_PCOD8243110
_publ_section_title
;
Structure prediction by ZEFSAII (Michael W. Deem and Ramdas Pophale) SiO2 
 PCOD8243110
Probable space group: P M M N
;
_chemical_formula_sum "Si O2"
_cell_formula_units_Z 48
_cell_length_a 18.305965
_cell_length_b 8.845184
_cell_length_c 16.744259
_cell_angle_alpha 90.000000
_cell_angle_beta 90.000000
_cell_angle_gamma 90.000000
_cell_volume 2711.224201
_symmetry_space_group_name_H-M "P M M N"
_symmetry_group_IT_number 59
_space_group.IT_coordinate_system_code '2'
_symmetry_cell_setting 'orthorhombic'
loop_
_space_group_symop_operation_xyz
x,y,z
1/2-x,1/2-y,z
1/2+x,-y,-z
-x,1/2+y,-z
-x,-y,-z
1/2+x,1/2+y,-z
1/2-x,y,z
x,1/2-y,z
loop_
_atom_site_type_symbol
_atom_site_label
_atom_site_fract_x
_atom_site_fract_y
_atom_site_fract_z
Si Si1 0.452864 0.928872 0.741259
Si Si2 0.524006 0.570908 0.582253
Si Si3 0.170048 0.429875 0.334841
Si Si4 0.666801 0.071290 0.140691
Si Si5 0.079774 0.429159 0.003004
Si Si6 0.096789 0.428779 0.178213
O O1 0.457145 0.750000 0.739334
O O2 0.466934 0.985841 0.650635
O O3 0.375520 0.981279 0.778557
O O4 0.516396 0.992344 0.799214
O O5 0.500000 0.500000 0.500000
O O6 0.522588 0.750000 0.573828
O O7 0.605975 0.514457 0.605513
O O8 0.250000 0.492143 0.361501
O O9 0.170481 0.250000 0.334993
O O10 0.154456 0.488795 0.244219
O O11 0.750000 0.019054 0.150985
O O12 0.659748 0.250000 0.127983
O O13 0.632896 0.991228 0.064256
O O14 0.072264 0.250000 0.994888
O O15 0.116420 0.477106 0.087997
O O16 0.000000 0.500000 0.000000
O O17 0.093981 0.250000 0.184156
#
# Coordination Sequence:
#
# PCOD8243110 Si02
#       6
#     8   8   8   8   8   8
#     4   8  14  29  49  67  89 122 163 198 235 291
#     4   9  17  30  51  74  97 124 158 199 239 294
#     4   8  14  26  46  71  95 121 156 197 240 283
#     4  10  20  34  51  70  97 134 174 214 254 294
#     4  11  20  31  50  74 102 134 170 210 251 297
#     4   8  14  25  45  68  90 120 159 200 235 281
#
# _framework density 17.704179
#
# number of rings (size 3 to 8) (size 9 to 14) (size 15 to 20)
#    0.000    3.000    1.667    2.500    0.000    1.000 
#    0.000    3.333    0.000    1.500    0.000    0.000 
#    0.000    0.000    0.000    0.000    0.000    0.000 
#
# Total GULP energy -594647.224603 kJ/mol
# GULP energy per Si atom -12388.483846 kJ/mol
# Density = 1.766388 g / cm^3
# Si number density = 17.704179 Si / 1000 Ang^3
#
#
#
# Elastic Constant Matrix: (Units=GPa)
#
#
# Indices 1 2 3 4 5 6 
#
# 1 153.1142 26.7772 94.0608 0.0000 0.0000 0.0000
# 2 26.7772 23.3894 27.2519 0.0000 0.0000 0.0000
# 3 94.0608 27.2519 167.7420 0.0000 0.0000 0.0000
# 4 0.0000 0.0000 0.0000 26.1462 0.0000 0.0000
# 5 0.0000 0.0000 0.0000 0.0000 25.2319 0.0000
# 6 0.0000 0.0000 0.0000 0.0000 0.0000 16.2187
#
#
#
# Elastic Compliance Matrix: (Units=1/GPa)
#
#
# Indices 1 2 3 4 5 6 
#
# 1 0.010707 -0.006491 -0.004949 0.000000 0.000000 0.000000
# 2 -0.006491 0.056672 -0.005567 0.000000 0.000000 0.000000
# 3 -0.004949 -0.005567 0.009641 0.000000 0.000000 0.000000
# 4 0.000000 0.000000 0.000000 0.038246 0.000000 0.000000
# 5 0.000000 0.000000 0.000000 0.000000 0.039632 0.000000
# 6 0.000000 0.000000 0.000000 0.000000 0.000000 0.061657
#
#
# Mechanical properties :
#
#
# Convention : Reuss Voigt Hill
#
# Bulk Modulus (GPa) = 23.25303 71.15836 47.20570
# Shear Modulus (GPa) = 18.87461 26.59640 22.73550
#
# Velocity S-wave (km/s) = 3.26868 3.88011 3.58745
# Velocity P-wave (km/s) = 5.23530 7.76878 6.62429
#
# Compressibility (1/GPa) = 0.04300514
#
# Stress axis : x y z
#
# Youngs Moduli (GPa) = 93.40055 17.64534 103.72094
#
# Poissons Ratio (x) = 0.11453 0.51333
# Poissons Ratio (y) = 0.60625 0.57746
# Poissons Ratio (z) = 0.46225 0.09824
#
# Static dielectric constant tensor:
#      x y z
#    x 3.615480 0.000000 0.000000 
#    y 0.000000 2.818640 0.000000 
#    z 0.000000 0.000000 3.434990 
# 
# 
# High freq. dielectric constant tensor:
#      x y z
#    x 1.681700 0.000000 0.000000 
#    y 0.000000 1.634750 0.000000 
#    z 0.000000 0.000000 1.687480 
# 
# From -- ./inp_files/27784.got.cif
#   From: 2010.03.12/outbox.cif.g09.slc.cpg/sg59_14_cif.got.tgz:27784.got - 2010.04.16 16:29:54.
