data_PCOD8243096
_publ_section_title
;
Structure prediction by ZEFSAII (Michael W. Deem and Ramdas Pophale) SiO2 
 PCOD8243096
Probable space group: P M M N
;
_chemical_formula_sum "Si O2"
_cell_formula_units_Z 64
_cell_length_a 8.857178
_cell_length_b 28.400251
_cell_length_c 15.745755
_cell_angle_alpha 90.000000
_cell_angle_beta 90.000000
_cell_angle_gamma 90.000000
_cell_volume 3960.782921
_symmetry_space_group_name_H-M "P M M N"
_symmetry_group_IT_number 59
_space_group.IT_coordinate_system_code '2'
_symmetry_cell_setting 'orthorhombic'
loop_
_space_group_symop_operation_xyz
x,y,z
1/2-x,1/2-y,z
1/2+x,-y,-z
-x,1/2+y,-z
-x,-y,-z
1/2+x,1/2+y,-z
1/2-x,y,z
x,1/2-y,z
loop_
_atom_site_type_symbol
_atom_site_label
_atom_site_fract_x
_atom_site_fract_y
_atom_site_fract_z
Si Si1 0.071325 0.139851 0.161681
Si Si2 0.569235 0.697102 0.677998
Si Si3 0.925394 0.447507 0.093957
Si Si4 0.084912 0.194248 0.503639
Si Si5 0.071053 0.304469 0.687980
Si Si6 0.926986 0.359747 0.839261
Si Si7 0.073912 0.445958 0.914137
Si Si8 0.073528 0.804393 0.991645
O O1 0.250000 0.138908 0.161278
O O2 0.008208 0.163272 0.248013
O O3 0.009607 0.086576 0.159813
O O4 0.017575 0.169571 0.081380
O O5 0.750000 0.696546 0.673556
O O6 0.512598 0.750000 0.698374
O O7 0.503512 0.679518 0.585500
O O8 0.750000 0.435346 0.095292
O O9 0.958227 0.501375 0.119979
O O10 0.983623 0.436343 0.000041
O O11 0.250000 0.170570 0.504953
O O12 0.104259 0.250000 0.500991
O O13 0.007178 0.180931 0.593663
O O14 0.250000 0.313935 0.694884
O O15 0.035893 0.250000 0.706659
O O16 0.978588 0.335385 0.753372
O O17 0.750000 0.369612 0.836022
O O18 0.014308 0.409428 0.844512
O O19 0.971696 0.326684 0.918183
O O20 0.250000 0.438580 0.932823
O O21 0.250000 0.810508 0.973361
O O22 0.025161 0.750000 0.993501
#
# Coordination Sequence:
#
# PCOD8243096 Si02
#       8
#     8   8   8   8   8   8   8   8
#     4  11  20  29  46  71  95 123 159 194 228 270
#     4   8  14  25  42  67  97 124 154 193 231 266
#     4  10  20  34  50  68  92 120 150 190 240 282
#     4   7  11  23  43  65  90 120 153 192 234 268
#     4   9  17  29  47  70  94 123 160 196 227 268
#     4  11  21  32  47  67  94 127 156 187 235 282
#     4  10  20  34  52  70  87 114 156 199 233 272
#     4  10  21  34  44  58  89 131 164 187 221 270
#
# _framework density 16.158422000000002
#
# number of rings (size 3 to 8) (size 9 to 14) (size 15 to 20)
#    0.000    2.500    1.250    3.750    0.000    3.500 
#    0.000    0.000    0.000    1.500    0.000    4.375 
#    0.000    0.000    0.000    0.000    0.000    0.000 
#
# Total GULP energy -793203.642402 kJ/mol
# GULP energy per Si atom -12393.806913 kJ/mol
# Density = 1.612165 g / cm^3
# Si number density = 16.158422 Si / 1000 Ang^3
#
#
#
# Elastic Constant Matrix: (Units=GPa)
#
#
# Indices 1 2 3 4 5 6 
#
# 1 38.9270 28.5236 29.1278 0.0000 0.0000 0.0000
# 2 28.5236 93.5331 52.4007 0.0000 0.0000 0.0000
# 3 29.1278 52.4007 124.4700 0.0000 0.0000 0.0000
# 4 0.0000 0.0000 0.0000 11.4182 0.0000 0.0000
# 5 0.0000 0.0000 0.0000 0.0000 9.6014 0.0000
# 6 0.0000 0.0000 0.0000 0.0000 0.0000 24.0023
#
#
#
# Elastic Compliance Matrix: (Units=1/GPa)
#
#
# Indices 1 2 3 4 5 6 
#
# 1 0.035198 -0.008008 -0.004865 0.000000 0.000000 0.000000
# 2 -0.008008 0.015813 -0.004783 0.000000 0.000000 0.000000
# 3 -0.004865 -0.004783 0.011186 0.000000 0.000000 0.000000
# 4 0.000000 0.000000 0.000000 0.087579 0.000000 0.000000
# 5 0.000000 0.000000 0.000000 0.000000 0.104152 0.000000
# 6 0.000000 0.000000 0.000000 0.000000 0.000000 0.041663
#
#
# Mechanical properties :
#
#
# Convention : Reuss Voigt Hill
#
# Bulk Modulus (GPa) = 37.19706 53.00380 45.10043
# Shear Modulus (GPa) = 14.71170 18.79625 16.75397
#
# Velocity S-wave (km/s) = 3.02067 3.41434 3.22352
# Velocity P-wave (km/s) = 5.93600 6.95826 6.46736
#
# Compressibility (1/GPa) = 0.02688384
#
# Stress axis : x y z
#
# Youngs Moduli (GPa) = 28.41107 63.23827 89.39453
#
# Poissons Ratio (x) = 0.50641 0.43495
# Poissons Ratio (y) = 0.22751 0.42760
# Poissons Ratio (z) = 0.13823 0.30248
#
# Static dielectric constant tensor:
#      x y z
#    x 2.882960 0.000000 0.000000 
#    y 0.000000 3.120040 0.000000 
#    z 0.000000 0.000000 3.306440 
# 
# 
# High freq. dielectric constant tensor:
#      x y z
#    x 1.606380 0.000000 0.000000 
#    y 0.000000 1.605560 0.000000 
#    z 0.000000 0.000000 1.615950 
# 
# From -- ./inp_files/21881.got.cif
#   From: 2010.03.12/outbox.cif.g09.slc.cpg/sg59_11_cif.got.tgz:21881.got - 2010.04.16 16:29:54.
