data_PCOD8243463
_publ_section_title
;
Structure prediction by ZEFSAII (Michael W. Deem and Ramdas Pophale) SiO2 
 PCOD8243463
Probable space group: P M M N
;
_chemical_formula_sum "Si O2"
_cell_formula_units_Z 56
_cell_length_a 21.517382
_cell_length_b 9.267580
_cell_length_c 14.373675
_cell_angle_alpha 90.000000
_cell_angle_beta 90.000000
_cell_angle_gamma 90.000000
_cell_volume 2866.312876
_symmetry_space_group_name_H-M "P M M N"
_symmetry_group_IT_number 59
_space_group.IT_coordinate_system_code '2'
_symmetry_cell_setting 'orthorhombic'
loop_
_space_group_symop_operation_xyz
x,y,z
1/2-x,1/2-y,z
1/2+x,-y,-z
-x,1/2+y,-z
-x,-y,-z
1/2+x,1/2+y,-z
1/2-x,y,z
x,1/2-y,z
loop_
_atom_site_type_symbol
_atom_site_label
_atom_site_fract_x
_atom_site_fract_y
_atom_site_fract_z
Si Si1 0.990701 0.089153 0.593106
Si Si2 0.680310 0.593459 0.754405
Si Si3 0.932699 0.079891 0.260671
Si Si4 0.321866 0.581333 0.070636
Si Si5 0.681716 0.420980 0.378184
Si Si6 0.441736 0.919129 0.953800
Si Si7 0.151846 0.590392 0.416970
O O1 0.020351 0.250000 0.583790
O O2 0.918728 0.104682 0.612224
O O3 0.015776 0.004526 0.681847
O O4 0.000000 0.000000 0.500000
O O5 0.750000 0.622209 0.785801
O O6 0.645680 0.750000 0.748259
O O7 0.652008 0.495018 0.836013
O O8 0.683352 0.516997 0.654897
O O9 0.941835 0.250000 0.277081
O O10 0.865588 0.027023 0.298623
O O11 0.939298 0.036545 0.153868
O O12 0.250000 0.538443 0.042114
O O13 0.323612 0.750000 0.091252
O O14 0.373253 0.538330 0.993189
O O15 0.750000 0.483783 0.355119
O O16 0.683163 0.250000 0.380013
O O17 0.659549 0.475969 0.479597
O O18 0.453656 0.750000 0.967238
O O19 0.500000 0.000000 0.000000
O O20 0.183030 0.750000 0.411816
#
# Coordination Sequence:
#
# PCOD8243463 Si02
#       7
#     8   8   8   8   8   8   8
#     4  11  22  37  58  83 113 149 187 228 274 332
#     4  10  21  35  53  82 116 149 186 231 284 337
#     4  10  21  39  58  84 116 147 187 235 288 343
#     4   9  19  38  61  84 113 151 196 244 295 354
#     4   9  17  32  56  83 111 144 184 228 274 330
#     4  10  23  40  61  87 117 150 191 245 301 352
#     4  10  20  34  54  80 112 151 190 227 272 331
#
# _framework density 19.537295
#
# number of rings (size 3 to 8) (size 9 to 14) (size 15 to 20)
#    0.000    2.143    1.429    1.286    2.000    4.286 
#    0.000    2.857    0.000    0.429    0.000    2.000 
#    0.000    0.000    0.000    0.000    0.000    0.000 
#
# Total GULP energy -694028.151833 kJ/mol
# GULP energy per Si atom -12393.359854 kJ/mol
# Density = 1.949283 g / cm^3
# Si number density = 19.537295 Si / 1000 Ang^3
#
#
#
# Elastic Constant Matrix: (Units=GPa)
#
#
# Indices 1 2 3 4 5 6 
#
# 1 113.4536 30.3834 61.3232 0.0000 0.0000 0.0000
# 2 30.3834 76.4143 57.6930 0.0000 0.0000 0.0000
# 3 61.3232 57.6930 163.8263 0.0000 0.0000 0.0000
# 4 0.0000 0.0000 0.0000 23.6868 0.0000 0.0000
# 5 0.0000 0.0000 0.0000 0.0000 34.6232 0.0000
# 6 0.0000 0.0000 0.0000 0.0000 0.0000 22.7876
#
#
#
# Elastic Compliance Matrix: (Units=1/GPa)
#
#
# Indices 1 2 3 4 5 6 
#
# 1 0.011221 -0.001758 -0.003581 0.000000 0.000000 0.000000
# 2 -0.001758 0.018102 -0.005717 0.000000 0.000000 0.000000
# 3 -0.003581 -0.005717 0.009458 0.000000 0.000000 0.000000
# 4 0.000000 0.000000 0.000000 0.042218 0.000000 0.000000
# 5 0.000000 0.000000 0.000000 0.000000 0.028882 0.000000
# 6 0.000000 0.000000 0.000000 0.000000 0.000000 0.043884
#
#
# Mechanical properties :
#
#
# Convention : Reuss Voigt Hill
#
# Bulk Modulus (GPa) = 59.99229 72.49926 66.24578
# Shear Modulus (GPa) = 27.55877 29.83916 28.69897
#
# Velocity S-wave (km/s) = 3.75983 3.91230 3.83682
# Velocity P-wave (km/s) = 7.04427 7.58926 7.32183
#
# Compressibility (1/GPa) = 0.01666881
#
# Stress axis : x y z
#
# Youngs Moduli (GPa) = 89.12255 55.24383 105.73450
#
# Poissons Ratio (x) = 0.09710 0.37864
# Poissons Ratio (y) = 0.15665 0.60445
# Poissons Ratio (z) = 0.31915 0.31581
#
# Static dielectric constant tensor:
#      x y z
#    x 3.658640 0.000000 0.000000 
#    y 0.000000 3.738850 0.000000 
#    z 0.000000 0.000000 3.548360 
# 
# 
# High freq. dielectric constant tensor:
#      x y z
#    x 1.764760 0.000000 0.000000 
#    y 0.000000 1.743700 0.000000 
#    z 0.000000 0.000000 1.759270 
# 
# From -- ./inp_files/24287.got.cif
#   From: 2010.03.12/outbox.cif.g09.slc.cpg/sg59_13_cif.got.tgz:24287.got - 2010.04.16 16:29:54.
