data_PCOD8243978
_publ_section_title
;
Structure prediction by ZEFSAII (Michael W. Deem and Ramdas Pophale) SiO2 
 PCOD8243978
Probable space group: P M M N
;
_chemical_formula_sum "Si O2"
_cell_formula_units_Z 56
_cell_length_a 15.711065
_cell_length_b 9.031359
_cell_length_c 20.926804
_cell_angle_alpha 90.000000
_cell_angle_beta 90.000000
_cell_angle_gamma 90.000000
_cell_volume 2969.351688
_symmetry_space_group_name_H-M "P M M N"
_symmetry_group_IT_number 59
_space_group.IT_coordinate_system_code '2'
_symmetry_cell_setting 'orthorhombic'
loop_
_space_group_symop_operation_xyz
x,y,z
1/2-x,1/2-y,z
1/2+x,-y,-z
-x,1/2+y,-z
-x,-y,-z
1/2+x,1/2+y,-z
1/2-x,y,z
x,1/2-y,z
loop_
_atom_site_type_symbol
_atom_site_label
_atom_site_fract_x
_atom_site_fract_y
_atom_site_fract_z
Si Si1 0.415624 0.075636 0.808276
Si Si2 0.653539 0.583206 0.868075
Si Si3 0.750000 0.425891 0.403646
Si Si4 0.562635 0.917343 0.741941
Si Si5 0.906599 0.423836 0.495334
Si Si6 0.653866 0.583088 0.614827
Si Si7 0.006996 0.576595 0.067489
Si Si8 0.750000 0.573274 0.264252
O O1 0.415045 0.250000 0.810906
O O2 0.436267 0.018090 0.880700
O O3 0.327997 0.015939 0.779174
O O4 0.487399 0.026820 0.759142
O O5 0.750000 0.546805 0.884453
O O6 0.629289 0.750000 0.890592
O O7 0.639560 0.568661 0.792228
O O8 0.599351 0.462079 0.905394
O O9 0.750000 0.250000 0.396248
O O10 0.838842 0.474362 0.439686
O O11 0.750000 0.500326 0.334053
O O12 0.527192 0.750000 0.740879
O O13 0.594425 0.965816 0.672830
O O14 0.922807 0.250000 0.489857
O O15 0.858155 0.463552 0.559910
O O16 0.000000 0.500000 0.500000
O O17 0.750000 0.578464 0.639490
O O18 0.630818 0.750000 0.591297
O O19 0.998338 0.750000 0.057130
O O20 0.000000 0.500000 0.000000
O O21 0.750000 0.750000 0.273723
#
# Coordination Sequence:
#
# PCOD8243978 Si02
#       8
#     8   8   4   8   8   8   8   4
#     4   9  20  38  57  82 112 146 188 235 280 335
#     4   9  17  32  54  80 109 143 182 219 267 328
#     4  10  24  44  62  84 118 153 194 247 304 353
#     4   9  18  32  54  82 112 144 179 224 275 333
#     4  11  24  42  60  82 113 150 193 243 296 355
#     4  10  20  35  56  83 114 147 185 229 282 340
#     4  10  20  36  57  81 115 150 186 228 277 330
#     4  10  22  40  62  84 110 147 196 241 286 341
#
# _framework density 18.859334
#
# number of rings (size 3 to 8) (size 9 to 14) (size 15 to 20)
#    0.000    2.286    0.714    1.286    2.000    4.857 
#    1.286    0.000    0.000    2.571    0.000    0.000 
#    0.000    0.000    0.000    0.000    0.000    0.000 
#
# Total GULP energy -693981.224740 kJ/mol
# GULP energy per Si atom -12392.521870 kJ/mol
# Density = 1.881641 g / cm^3
# Si number density = 18.859334 Si / 1000 Ang^3
#
#
#
# Elastic Constant Matrix: (Units=GPa)
#
#
# Indices 1 2 3 4 5 6 
#
# 1 127.3794 32.6254 70.4671 0.0000 0.0000 0.0000
# 2 32.6254 32.2552 39.3913 0.0000 0.0000 0.0000
# 3 70.4671 39.3913 147.7726 0.0000 0.0000 0.0000
# 4 0.0000 0.0000 0.0000 31.0032 0.0000 0.0000
# 5 0.0000 0.0000 0.0000 0.0000 17.5896 0.0000
# 6 0.0000 0.0000 0.0000 0.0000 0.0000 29.8741
#
#
#
# Elastic Compliance Matrix: (Units=1/GPa)
#
#
# Indices 1 2 3 4 5 6 
#
# 1 0.011769 -0.007488 -0.003616 0.000000 0.000000 0.000000
# 2 -0.007488 0.050731 -0.009953 0.000000 0.000000 0.000000
# 3 -0.003616 -0.009953 0.011145 0.000000 0.000000 0.000000
# 4 0.000000 0.000000 0.000000 0.032255 0.000000 0.000000
# 5 0.000000 0.000000 0.000000 0.000000 0.056852 0.000000
# 6 0.000000 0.000000 0.000000 0.000000 0.000000 0.033474
#
#
# Mechanical properties :
#
#
# Convention : Reuss Voigt Hill
#
# Bulk Modulus (GPa) = 31.71434 65.81940 48.76687
# Shear Modulus (GPa) = 20.09259 26.68829 23.39044
#
# Velocity S-wave (km/s) = 3.26758 3.76589 3.52555
# Velocity P-wave (km/s) = 5.57574 7.34065 6.51821
#
# Compressibility (1/GPa) = 0.03153148
#
# Stress axis : x y z
#
# Youngs Moduli (GPa) = 84.97009 19.71181 89.72975
#
# Poissons Ratio (x) = 0.14760 0.32447
# Poissons Ratio (y) = 0.63624 0.89304
# Poissons Ratio (z) = 0.30726 0.19618
#
# Static dielectric constant tensor:
#      x y z
#    x 3.698550 0.000000 0.000000 
#    y 0.000000 3.431780 0.000000 
#    z 0.000000 0.000000 3.594970 
# 
# 
# High freq. dielectric constant tensor:
#      x y z
#    x 1.736590 0.000000 0.000000 
#    y 0.000000 1.723980 0.000000 
#    z 0.000000 0.000000 1.735100 
# 
# From -- ./inp_files/30454.got.cif
#   From: 2010.03.12/outbox.cif.g09.slc.cpg/sg59_16_cif.got.tgz:30454.got - 2010.04.16 16:29:54.
