data_PCOD8243531
_publ_section_title
;
Structure prediction by ZEFSAII (Michael W. Deem and Ramdas Pophale) SiO2 
 PCOD8243531
Probable space group: P M M N
;
_chemical_formula_sum "Si O2"
_cell_formula_units_Z 64
_cell_length_a 8.829801
_cell_length_b 14.562747
_cell_length_c 25.953901
_cell_angle_alpha 90.000000
_cell_angle_beta 90.000000
_cell_angle_gamma 90.000000
_cell_volume 3337.312415
_symmetry_space_group_name_H-M "P M M N"
_symmetry_group_IT_number 59
_space_group.IT_coordinate_system_code '2'
_symmetry_cell_setting 'orthorhombic'
loop_
_space_group_symop_operation_xyz
x,y,z
1/2-x,1/2-y,z
1/2+x,-y,-z
-x,1/2+y,-z
-x,-y,-z
1/2+x,1/2+y,-z
1/2-x,y,z
x,1/2-y,z
loop_
_atom_site_type_symbol
_atom_site_label
_atom_site_fract_x
_atom_site_fract_y
_atom_site_fract_z
Si Si1 0.427229 0.994173 0.787371
Si Si2 0.072868 0.355538 0.870339
Si Si3 0.428807 0.144470 0.137789
Si Si4 0.080558 0.853005 0.608348
Si Si5 0.928325 0.494094 0.944413
Si Si6 0.928557 0.997483 0.677199
Si Si7 0.428867 0.401046 0.495847
Si Si8 0.920850 0.149093 0.597267
O O1 0.250000 0.977363 0.783892
O O2 0.467337 0.085799 0.819572
O O3 0.492396 0.011594 0.731355
O O4 0.498462 0.902328 0.811967
O O5 0.250000 0.360386 0.882816
O O6 0.020127 0.250000 0.862520
O O7 0.985148 0.400298 0.918152
O O8 0.250000 0.142085 0.145227
O O9 0.485750 0.250000 0.131654
O O10 0.477931 0.084611 0.087957
O O11 0.250000 0.895831 0.603614
O O12 0.092012 0.750000 0.628687
O O13 0.999623 0.851406 0.553228
O O14 0.981370 0.904132 0.650815
O O15 0.750000 0.489058 0.949822
O O16 0.000000 0.500000 0.000000
O O17 0.750000 0.996556 0.685524
O O18 0.982587 0.079611 0.640012
O O19 0.500000 0.500000 0.500000
O O20 0.250000 0.405359 0.488802
O O21 0.471119 0.347643 0.547705
O O22 0.750000 0.120896 0.580351
O O23 0.922138 0.250000 0.622342
#
# Coordination Sequence:
#
# PCOD8243531 Si02
#       8
#     8   8   8   8   8   8   8   8
#     4  10  21  37  58  83 112 144 183 236 288 336
#     4   9  19  37  59  82 111 151 195 237 284 336
#     4   9  19  37  59  81 108 147 193 235 278 333
#     4  11  24  41  61  85 114 147 184 231 283 335
#     4  10  20  34  54  84 120 155 192 235 283 334
#     4  11  23  39  60  84 113 150 187 229 279 337
#     4  12  23  37  60  86 114 149 186 226 276 335
#     4  10  22  40  60  84 114 147 184 228 278 332
#
# _framework density 19.177105999999998
#
# number of rings (size 3 to 8) (size 9 to 14) (size 15 to 20)
#    0.000    1.750    1.250    3.000    0.000    6.250 
#    0.000    1.250    0.000    0.000    0.000    0.000 
#    0.000    0.000    0.000    0.000    0.000    0.000 
#
# Total GULP energy -793710.228058 kJ/mol
# GULP energy per Si atom -12401.722313 kJ/mol
# Density = 1.913346 g / cm^3
# Si number density = 19.177106 Si / 1000 Ang^3
#
#
#
# Elastic Constant Matrix: (Units=GPa)
#
#
# Indices 1 2 3 4 5 6 
#
# 1 15.3411 33.7606 26.0878 0.0000 0.0000 0.0000
# 2 33.7606 135.4352 51.2505 0.0000 0.0000 0.0000
# 3 26.0878 51.2505 135.3180 0.0000 0.0000 0.0000
# 4 0.0000 0.0000 0.0000 155.5894 0.0000 0.0000
# 5 0.0000 0.0000 0.0000 0.0000 35.7382 0.0000
# 6 0.0000 0.0000 0.0000 0.0000 0.0000 27.4765
#
#
#
# Elastic Compliance Matrix: (Units=1/GPa)
#
#
# Indices 1 2 3 4 5 6 
#
# 1 0.185298 -0.038138 -0.021279 0.000000 0.000000 0.000000
# 2 -0.038138 0.016468 0.001115 0.000000 0.000000 0.000000
# 3 -0.021279 0.001115 0.011070 0.000000 0.000000 0.000000
# 4 0.000000 0.000000 0.000000 0.006427 0.000000 0.000000
# 5 0.000000 0.000000 0.000000 0.000000 0.027981 0.000000
# 6 0.000000 0.000000 0.000000 0.000000 0.000000 0.036395
#
#
# Mechanical properties :
#
#
# Convention : Reuss Voigt Hill
#
# Bulk Modulus (GPa) = 10.39144 56.47692 33.43418
# Shear Modulus (GPa) = 11.56551 55.42718 33.49634
#
# Velocity S-wave (km/s) = 2.45845 5.38196 4.18387
# Velocity P-wave (km/s) = 3.67275 8.25438 6.38842
#
# Compressibility (1/GPa) = 0.09623306
#
# Stress axis : x y z
#
# Youngs Moduli (GPa) = 5.39672 60.72234 90.33496
#
# Poissons Ratio (x) = 2.31582 1.92223
# Poissons Ratio (y) = 0.20582 -0.10075
# Poissons Ratio (z) = 0.11484 -0.06772
#
# Static dielectric constant tensor:
#      x y z
#    x 3.703000 0.000000 0.000000 
#    y 0.000000 3.557810 0.000000 
#    z 0.000000 0.000000 3.547040 
# 
# 
# High freq. dielectric constant tensor:
#      x y z
#    x 1.752610 0.000000 0.000000 
#    y 0.000000 1.754310 0.000000 
#    z 0.000000 0.000000 1.741260 
# 
# From -- ./inp_files/31425.got.cif
#   From: 2010.03.12/outbox.cif.g09.slc.cpg/sg59_16_cif.got.tgz:31425.got - 2010.04.16 16:29:54.
