data_PCOD8243856
_publ_section_title
;
Structure prediction by ZEFSAII (Michael W. Deem and Ramdas Pophale) SiO2 
 PCOD8243856
Probable space group: P M M N
;
_chemical_formula_sum "Si O2"
_cell_formula_units_Z 64
_cell_length_a 8.966018
_cell_length_b 19.900669
_cell_length_c 19.248510
_cell_angle_alpha 90.000000
_cell_angle_beta 90.000000
_cell_angle_gamma 90.000000
_cell_volume 3434.506952
_symmetry_space_group_name_H-M "P M M N"
_symmetry_group_IT_number 59
_space_group.IT_coordinate_system_code '2'
_symmetry_cell_setting 'orthorhombic'
loop_
_space_group_symop_operation_xyz
x,y,z
1/2-x,1/2-y,z
1/2+x,-y,-z
-x,1/2+y,-z
-x,-y,-z
1/2+x,1/2+y,-z
1/2-x,y,z
x,1/2-y,z
loop_
_atom_site_type_symbol
_atom_site_label
_atom_site_fract_x
_atom_site_fract_y
_atom_site_fract_z
Si Si1 0.428117 0.969091 0.432871
Si Si2 0.575743 0.539549 0.709442
Si Si3 0.426747 0.067226 0.975022
Si Si4 0.915447 0.822599 0.272137
Si Si5 0.575593 0.178138 0.589136
Si Si6 0.923728 0.826065 0.779698
Si Si7 0.576776 0.171910 0.075121
Si Si8 0.422193 0.446724 0.817597
O O1 0.250000 0.973682 0.435660
O O2 0.487629 0.891988 0.440022
O O3 0.500000 0.000000 0.500000
O O4 0.487925 0.007336 0.362796
O O5 0.750000 0.526411 0.709510
O O6 0.539447 0.619705 0.718241
O O7 0.510864 0.504679 0.777914
O O8 0.250000 0.067007 0.985463
O O9 0.475169 0.066906 0.895130
O O10 0.492818 0.130830 0.015528
O O11 0.500000 0.000000 0.000000
O O12 0.750000 0.837335 0.304005
O O13 0.915292 0.750000 0.235119
O O14 0.960225 0.876060 0.215915
O O15 0.041611 0.824175 0.329896
O O16 0.750000 0.178900 0.577381
O O17 0.510276 0.250000 0.558286
O O18 0.750000 0.829880 0.799040
O O19 0.965790 0.750000 0.754478
O O20 0.013860 0.845825 0.848757
O O21 0.750000 0.152023 0.074843
O O22 0.551472 0.250000 0.058428
O O23 0.250000 0.467283 0.813769
#
# Coordination Sequence:
#
# PCOD8243856 Si02
#       8
#     8   8   8   8   8   8   8   8
#     4  10  21  36  54  80 111 143 178 217 264 318
#     4  10  20  35  55  79 106 135 174 221 268 321
#     4  11  23  37  53  76 107 145 186 229 278 331
#     4   9  17  30  49  74 102 130 164 207 252 301
#     4   9  17  32  54  77 104 138 173 208 248 300
#     4   9  18  34  57  81 104 136 177 222 275 330
#     4  10  21  37  56  79 109 144 185 232 277 328
#     4  10  21  34  51  76 104 136 175 219 269 318
#
# _framework density 18.634408000000001
#
# number of rings (size 3 to 8) (size 9 to 14) (size 15 to 20)
#    0.000    2.250    1.250    1.500    0.000    5.750 
#    0.000    1.875    0.000    2.250    0.000    0.000 
#    0.000    0.000    0.000    0.000    0.000    0.000 
#
# Total GULP energy -792899.011307 kJ/mol
# GULP energy per Si atom -12389.047052 kJ/mol
# Density = 1.859199 g / cm^3
# Si number density = 18.634408 Si / 1000 Ang^3
#
#
#
# Elastic Constant Matrix: (Units=GPa)
#
#
# Indices 1 2 3 4 5 6 
#
# 1 36.2571 37.6998 28.9349 0.0000 0.0000 0.0000
# 2 37.6998 163.9446 78.0577 0.0000 0.0000 0.0000
# 3 28.9349 78.0577 91.6337 0.0000 0.0000 0.0000
# 4 0.0000 0.0000 0.0000 31.1911 0.0000 0.0000
# 5 0.0000 0.0000 0.0000 0.0000 26.4193 0.0000
# 6 0.0000 0.0000 0.0000 0.0000 0.0000 25.1656
#
#
#
# Elastic Compliance Matrix: (Units=1/GPa)
#
#
# Indices 1 2 3 4 5 6 
#
# 1 0.039413 -0.005279 -0.007949 0.000000 0.000000 0.000000
# 2 -0.005279 0.010968 -0.007677 0.000000 0.000000 0.000000
# 3 -0.007949 -0.007677 0.019962 0.000000 0.000000 0.000000
# 4 0.000000 0.000000 0.000000 0.032060 0.000000 0.000000
# 5 0.000000 0.000000 0.000000 0.000000 0.037851 0.000000
# 6 0.000000 0.000000 0.000000 0.000000 0.000000 0.039737
#
#
# Mechanical properties :
#
#
# Convention : Reuss Voigt Hill
#
# Bulk Modulus (GPa) = 35.04381 64.58004 49.81192
# Shear Modulus (GPa) = 21.61584 26.36475 23.99030
#
# Velocity S-wave (km/s) = 3.40957 3.76552 3.59196
# Velocity P-wave (km/s) = 5.86063 7.32374 6.63265
#
# Compressibility (1/GPa) = 0.02853571
#
# Stress axis : x y z
#
# Youngs Moduli (GPa) = 25.37234 91.17044 50.09455
#
# Poissons Ratio (x) = 0.48125 0.39819
# Poissons Ratio (y) = 0.13393 0.38456
# Poissons Ratio (z) = 0.20168 0.69988
#
# Static dielectric constant tensor:
#      x y z
#    x 3.406000 0.000000 0.000000 
#    y 0.000000 3.999680 0.000000 
#    z 0.000000 0.000000 3.268800 
# 
# 
# High freq. dielectric constant tensor:
#      x y z
#    x 1.716510 0.000000 0.000000 
#    y 0.000000 1.749010 0.000000 
#    z 0.000000 0.000000 1.698160 
# 
# From -- ./inp_files/26364.got.cif
#   From: 2010.03.12/outbox.cif.g09.slc.cpg/sg59_14_cif.got.tgz:26364.got - 2010.04.16 16:29:54.
