data_PCOD8243484
_publ_section_title
;
Structure prediction by ZEFSAII (Michael W. Deem and Ramdas Pophale) SiO2 
 PCOD8243484
Probable space group: P M M N
;
_chemical_formula_sum "Si O2"
_cell_formula_units_Z 64
_cell_length_a 18.504242
_cell_length_b 17.927285
_cell_length_c 10.225110
_cell_angle_alpha 90.000000
_cell_angle_beta 90.000000
_cell_angle_gamma 90.000000
_cell_volume 3391.984125
_symmetry_space_group_name_H-M "P M M N"
_symmetry_group_IT_number 59
_space_group.IT_coordinate_system_code '2'
_symmetry_cell_setting 'orthorhombic'
loop_
_space_group_symop_operation_xyz
x,y,z
1/2-x,1/2-y,z
1/2+x,-y,-z
-x,1/2+y,-z
-x,-y,-z
1/2+x,1/2+y,-z
1/2-x,y,z
x,1/2-y,z
loop_
_atom_site_type_symbol
_atom_site_label
_atom_site_fract_x
_atom_site_fract_y
_atom_site_fract_z
Si Si1 0.567777 0.837108 0.749727
Si Si2 0.914824 0.590480 0.490083
Si Si3 0.083958 0.592896 0.747550
Si Si4 0.164718 0.439953 0.763768
Si Si5 0.576699 0.419741 0.543241
Si Si6 0.172163 0.663600 0.962138
Si Si7 0.167121 0.164776 0.006224
Si Si8 0.664485 0.165796 0.754658
O O1 0.544172 0.750000 0.756409
O O2 0.604625 0.852512 0.607909
O O3 0.501677 0.895514 0.763976
O O4 0.621972 0.857799 0.866127
O O5 0.856260 0.598961 0.374082
O O6 0.916071 0.508254 0.551182
O O7 0.994589 0.606942 0.431603
O O8 0.113018 0.511261 0.786966
O O9 0.104673 0.609570 0.597682
O O10 0.119118 0.652824 0.842439
O O11 0.250000 0.460770 0.760987
O O12 0.145637 0.384674 0.881758
O O13 0.628362 0.387286 0.651109
O O14 0.250000 0.625907 0.930222
O O15 0.184557 0.750000 0.985517
O O16 0.142212 0.633913 0.101548
O O17 0.250000 0.152084 0.044751
O O18 0.152012 0.250000 0.966008
O O19 0.750000 0.161830 0.737588
O O20 0.636385 0.250000 0.732871
#
# Coordination Sequence:
#
# PCOD8243484 Si02
#       8
#     8   8   8   8   8   8   8   8
#     4  10  21  37  58  84 112 144 183 227 276 329
#     4   9  20  36  52  75 106 138 176 223 268 321
#     4  10  20  34  54  81 113 142 177 220 269 330
#     4  10  21  37  58  84 112 144 183 227 276 329
#     4   9  19  35  52  72 105 145 178 217 270 318
#     4   9  18  32  48  71 108 148 182 217 255 303
#     4   9  20  39  58  78 108 143 182 231 280 324
#     4   9  19  34  52  78 110 143 183 227 268 319
#
# _framework density 18.868013000000001
#
# number of rings (size 3 to 8) (size 9 to 14) (size 15 to 20)
#    0.000    2.625    0.000    2.250    0.000    8.500 
#    0.000    3.750    0.000    0.000    0.000    0.000 
#    0.000    0.000    0.000    0.000    0.000    0.000 
#
# Total GULP energy -793288.822407 kJ/mol
# GULP energy per Si atom -12395.137850 kJ/mol
# Density = 1.882507 g / cm^3
# Si number density = 18.868013 Si / 1000 Ang^3
#
#
#
# Elastic Constant Matrix: (Units=GPa)
#
#
# Indices 1 2 3 4 5 6 
#
# 1 72.6246 41.7034 64.6690 0.0000 0.0000 0.0000
# 2 41.7034 58.5123 51.5131 0.0000 0.0000 0.0000
# 3 64.6690 51.5131 127.4999 0.0000 0.0000 0.0000
# 4 0.0000 0.0000 0.0000 34.7981 0.0000 0.0000
# 5 0.0000 0.0000 0.0000 0.0000 28.8582 0.0000
# 6 0.0000 0.0000 0.0000 0.0000 0.0000 28.3847
#
#
#
# Elastic Compliance Matrix: (Units=1/GPa)
#
#
# Indices 1 2 3 4 5 6 
#
# 1 0.029950 -0.012374 -0.010192 0.000000 0.000000 0.000000
# 2 -0.012374 0.031638 -0.006506 0.000000 0.000000 0.000000
# 3 -0.010192 -0.006506 0.015641 0.000000 0.000000 0.000000
# 4 0.000000 0.000000 0.000000 0.028737 0.000000 0.000000
# 5 0.000000 0.000000 0.000000 0.000000 0.034652 0.000000
# 6 0.000000 0.000000 0.000000 0.000000 0.000000 0.035230
#
#
# Mechanical properties :
#
#
# Convention : Reuss Voigt Hill
#
# Bulk Modulus (GPa) = 52.39603 63.82309 58.10956
# Shear Modulus (GPa) = 20.80272 25.12495 22.96383
#
# Velocity S-wave (km/s) = 3.32405 3.65309 3.49245
# Velocity P-wave (km/s) = 6.52399 7.18978 6.86496
#
# Compressibility (1/GPa) = 0.01908542
#
# Stress axis : x y z
#
# Youngs Moduli (GPa) = 33.38903 31.60805 63.93409
#
# Poissons Ratio (x) = 0.39111 0.65159
# Poissons Ratio (y) = 0.41315 0.41597
# Poissons Ratio (z) = 0.34029 0.20565
#
# Static dielectric constant tensor:
#      x y z
#    x 3.421530 0.000000 0.000000 
#    y 0.000000 3.399820 0.000000 
#    z 0.000000 0.000000 3.615360 
# 
# 
# High freq. dielectric constant tensor:
#      x y z
#    x 1.725320 0.000000 0.000000 
#    y 0.000000 1.721000 0.000000 
#    z 0.000000 0.000000 1.745000 
# 
# From -- ./inp_files/10707.got.cif
#   From: 2010.03.12/outbox.cif.g09.slc.cpg/sg59_6_cif.got.tgz:10707.got - 2010.04.16 16:29:54.
