data_PCOD8243059
_publ_section_title
;
Structure prediction by ZEFSAII (Michael W. Deem and Ramdas Pophale) SiO2 
 PCOD8243059
Probable space group: P M M N
;
_chemical_formula_sum "Si O2"
_cell_formula_units_Z 64
_cell_length_a 8.944247
_cell_length_b 19.167645
_cell_length_c 20.767347
_cell_angle_alpha 90.000000
_cell_angle_beta 90.000000
_cell_angle_gamma 90.000000
_cell_volume 3560.357112
_symmetry_space_group_name_H-M "P M M N"
_symmetry_group_IT_number 59
_space_group.IT_coordinate_system_code '2'
_symmetry_cell_setting 'orthorhombic'
loop_
_space_group_symop_operation_xyz
x,y,z
1/2-x,1/2-y,z
1/2+x,-y,-z
-x,1/2+y,-z
-x,-y,-z
1/2+x,1/2+y,-z
1/2-x,y,z
x,1/2-y,z
loop_
_atom_site_type_symbol
_atom_site_label
_atom_site_fract_x
_atom_site_fract_y
_atom_site_fract_z
Si Si1 0.073737 0.457833 0.189979
Si Si2 0.576974 0.829801 0.256381
Si Si3 0.073017 0.543965 0.314738
Si Si4 0.924025 0.032019 0.938217
Si Si5 0.927900 0.028926 0.435875
Si Si6 0.072829 0.674176 0.615834
Si Si7 0.078400 0.827840 0.122393
Si Si8 0.577165 0.171155 0.239499
O O1 0.250000 0.454971 0.188342
O O2 0.019753 0.500311 0.252595
O O3 0.012045 0.495181 0.125987
O O4 0.010922 0.379565 0.191701
O O5 0.750000 0.850897 0.261557
O O6 0.550485 0.750000 0.277183
O O7 0.478991 0.876434 0.304736
O O8 0.525854 0.841657 0.183241
O O9 0.250000 0.540913 0.326064
O O10 0.988646 0.514634 0.376343
O O11 0.750000 0.017500 0.945346
O O12 0.958367 0.115109 0.932628
O O13 0.000000 0.000000 0.000000
O O14 0.750000 0.021916 0.439006
O O15 0.978805 0.110219 0.429137
O O16 0.000000 0.000000 0.500000
O O17 0.250000 0.676602 0.620404
O O18 0.015046 0.750000 0.589513
O O19 0.011749 0.662510 0.688206
O O20 0.250000 0.837461 0.145689
O O21 0.052091 0.750000 0.093990
O O22 0.750000 0.150180 0.237803
O O23 0.552961 0.250000 0.215061
#
# Coordination Sequence:
#
# PCOD8243059 Si02
#       8
#     8   8   8   8   8   8   8   8
#     4  10  20  34  53  79 111 140 176 222 271 324
#     4  10  20  33  53  84 115 141 178 229 279 326
#     4  11  21  36  57  81 110 145 183 224 271 330
#     4  10  21  37  53  78 109 144 183 224 272 326
#     4  11  22  37  57  82 113 148 185 231 280 330
#     4   8  15  30  53  79 105 136 177 222 267 319
#     4   9  17  33  56  78 105 141 180 224 274 330
#     4   9  17  31  53  81 108 136 178 226 269 318
#
# _framework density 17.975726000000002
#
# number of rings (size 3 to 8) (size 9 to 14) (size 15 to 20)
#    0.000    2.250    2.500    1.875    0.000    2.500 
#    0.000    1.250    0.000    6.000    0.000    0.000 
#    0.000    0.000    0.000    0.000    0.000    0.000 
#
# Total GULP energy -793466.176072 kJ/mol
# GULP energy per Si atom -12397.909001 kJ/mol
# Density = 1.793481 g / cm^3
# Si number density = 17.975726 Si / 1000 Ang^3
#
#
#
# Elastic Constant Matrix: (Units=GPa)
#
#
# Indices 1 2 3 4 5 6 
#
# 1 45.0236 40.1444 38.0370 0.0000 0.0000 0.0000
# 2 40.1444 150.4431 74.7450 0.0000 0.0000 0.0000
# 3 38.0370 74.7450 117.5787 0.0000 0.0000 0.0000
# 4 0.0000 0.0000 0.0000 28.8680 0.0000 0.0000
# 5 0.0000 0.0000 0.0000 0.0000 30.2659 0.0000
# 6 0.0000 0.0000 0.0000 0.0000 0.0000 29.4238
#
#
#
# Elastic Compliance Matrix: (Units=1/GPa)
#
#
# Indices 1 2 3 4 5 6 
#
# 1 0.033066 -0.005129 -0.007437 0.000000 0.000000 0.000000
# 2 -0.005129 0.010511 -0.005023 0.000000 0.000000 0.000000
# 3 -0.007437 -0.005023 0.014104 0.000000 0.000000 0.000000
# 4 0.000000 0.000000 0.000000 0.034640 0.000000 0.000000
# 5 0.000000 0.000000 0.000000 0.000000 0.033040 0.000000
# 6 0.000000 0.000000 0.000000 0.000000 0.000000 0.033986
#
#
# Mechanical properties :
#
#
# Convention : Reuss Voigt Hill
#
# Bulk Modulus (GPa) = 44.43520 68.76646 56.60083
# Shear Modulus (GPa) = 24.74937 28.38617 26.56777
#
# Velocity S-wave (km/s) = 3.71458 3.97815 3.84862
# Velocity P-wave (km/s) = 6.57044 7.70968 7.16274
#
# Compressibility (1/GPa) = 0.02250468
#
# Stress axis : x y z
#
# Youngs Moduli (GPa) = 30.24250 95.13824 70.90330
#
# Poissons Ratio (x) = 0.48793 0.52729
# Poissons Ratio (y) = 0.15510 0.35613
# Poissons Ratio (z) = 0.22490 0.47786
#
# Static dielectric constant tensor:
#      x y z
#    x 3.196590 0.000000 0.000000 
#    y 0.000000 3.768270 0.000000 
#    z 0.000000 0.000000 3.315530 
# 
# 
# High freq. dielectric constant tensor:
#      x y z
#    x 1.685390 0.000000 0.000000 
#    y 0.000000 1.714930 0.000000 
#    z 0.000000 0.000000 1.664990 
# 
# From -- ./inp_files/29386.got.cif
#   From: 2010.03.12/outbox.cif.g09.slc.cpg/sg59_15_cif.got.tgz:29386.got - 2010.04.16 16:29:54.
