data_PCOD8243596
_publ_section_title
;
Structure prediction by ZEFSAII (Michael W. Deem and Ramdas Pophale) SiO2 
 PCOD8243596
Probable space group: P M M N
;
_chemical_formula_sum "Si O2"
_cell_formula_units_Z 48
_cell_length_a 15.261566
_cell_length_b 17.205386
_cell_length_c 9.696188
_cell_angle_alpha 90.000000
_cell_angle_beta 90.000000
_cell_angle_gamma 90.000000
_cell_volume 2546.036040
_symmetry_space_group_name_H-M "P M M N"
_symmetry_group_IT_number 59
_space_group.IT_coordinate_system_code '2'
_symmetry_cell_setting 'orthorhombic'
loop_
_space_group_symop_operation_xyz
x,y,z
1/2-x,1/2-y,z
1/2+x,-y,-z
-x,1/2+y,-z
-x,-y,-z
1/2+x,1/2+y,-z
1/2-x,y,z
x,1/2-y,z
loop_
_atom_site_type_symbol
_atom_site_label
_atom_site_fract_x
_atom_site_fract_y
_atom_site_fract_z
Si Si1 0.004713 0.837878 0.525471
Si Si2 0.151215 0.059626 0.410513
Si Si3 0.846240 0.054411 0.828931
Si Si4 0.495773 0.338933 0.801091
Si Si5 0.411235 0.479302 0.922888
Si Si6 0.649661 0.055284 0.349952
O O1 0.014179 0.750000 0.574501
O O2 0.093318 0.879845 0.572300
O O3 0.918197 0.871063 0.600169
O O4 0.991685 0.844489 0.362676
O O5 0.250000 0.089419 0.377219
O O6 0.120763 0.993971 0.302792
O O7 0.147388 0.023908 0.562948
O O8 0.750000 0.089088 0.799973
O O9 0.911502 0.126476 0.853474
O O10 0.838540 0.995573 0.960253
O O11 0.486482 0.250000 0.851822
O O12 0.416739 0.390119 0.868289
O O13 0.393098 0.537809 0.797367
O O14 0.500000 0.500000 0.000000
O O15 0.750000 0.084815 0.334468
#
# Coordination Sequence:
#
# PCOD8243596 Si02
#       6
#     8   8   8   8   8   8
#     4  11  21  35  57  85 118 150 187 242 298 346
#     4  10  20  36  59  83 111 149 197 243 285 342
#     4  10  20  36  57  82 109 145 189 232 281 341
#     4  10  20  34  55  83 113 143 183 234 289 348
#     4  10  20  36  58  81 111 150 194 236 275 341
#     4  11  21  36  59  85 115 151 194 239 287 345
#
# _framework density 18.852837000000001
#
# number of rings (size 3 to 8) (size 9 to 14) (size 15 to 20)
#    0.000    1.667    3.333    3.000    0.000    1.000 
#    0.000    9.167    0.000    7.000    0.000    0.000 
#    0.000    0.000    0.000    0.000    0.000    0.000 
#
# Total GULP energy -594988.534777 kJ/mol
# GULP energy per Si atom -12395.594475 kJ/mol
# Density = 1.880993 g / cm^3
# Si number density = 18.852837 Si / 1000 Ang^3
#
#
#
# Elastic Constant Matrix: (Units=GPa)
#
#
# Indices 1 2 3 4 5 6 
#
# 1 82.2960 48.2746 9.2343 0.0000 0.0000 0.0000
# 2 48.2746 110.8485 19.6037 0.0000 0.0000 0.0000
# 3 9.2343 19.6037 81.1430 0.0000 0.0000 0.0000
# 4 0.0000 0.0000 0.0000 24.6394 0.0000 0.0000
# 5 0.0000 0.0000 0.0000 0.0000 27.7282 0.0000
# 6 0.0000 0.0000 0.0000 0.0000 0.0000 15.6031
#
#
#
# Elastic Compliance Matrix: (Units=1/GPa)
#
#
# Indices 1 2 3 4 5 6 
#
# 1 0.016322 -0.007082 -0.000146 0.000000 0.000000 0.000000
# 2 -0.007082 0.012497 -0.002213 0.000000 0.000000 0.000000
# 3 -0.000146 -0.002213 0.012875 0.000000 0.000000 0.000000
# 4 0.000000 0.000000 0.000000 0.040585 0.000000 0.000000
# 5 0.000000 0.000000 0.000000 0.000000 0.036064 0.000000
# 6 0.000000 0.000000 0.000000 0.000000 0.000000 0.064090
#
#
# Mechanical properties :
#
#
# Convention : Reuss Voigt Hill
#
# Bulk Modulus (GPa) = 43.83959 47.61253 45.72606
# Shear Modulus (GPa) = 23.93235 26.73912 25.33574
#
# Velocity S-wave (km/s) = 3.56677 3.77013 3.66986
# Velocity P-wave (km/s) = 6.34559 6.65293 6.50108
#
# Compressibility (1/GPa) = 0.02281043
#
# Stress axis : x y z
#
# Youngs Moduli (GPa) = 61.26608 80.01822 77.66817
#
# Poissons Ratio (x) = 0.56673 0.01137
# Poissons Ratio (y) = 0.43391 0.17190
# Poissons Ratio (z) = 0.00897 0.17710
#
# Static dielectric constant tensor:
#      x y z
#    x 3.741810 0.000000 0.000000 
#    y 0.000000 3.358360 0.000000 
#    z 0.000000 0.000000 3.811660 
# 
# 
# High freq. dielectric constant tensor:
#      x y z
#    x 1.737310 0.000000 0.000000 
#    y 0.000000 1.703450 0.000000 
#    z 0.000000 0.000000 1.740700 
# 
# From -- ./inp_files/9014.got.cif
#   From: 2010.03.12/outbox.cif.g09.slc.cpg/sg59_5_cif.got.tgz:9014.got - 2010.04.16 16:29:54.
