data_PCOD8243249
_publ_section_title
;
Structure prediction by ZEFSAII (Michael W. Deem and Ramdas Pophale) SiO2 
 PCOD8243249
Probable space group: P M M N
;
_chemical_formula_sum "Si O2"
_cell_formula_units_Z 56
_cell_length_a 8.933214
_cell_length_b 14.135800
_cell_length_c 23.057330
_cell_angle_alpha 90.000000
_cell_angle_beta 90.000000
_cell_angle_gamma 90.000000
_cell_volume 2911.636434
_symmetry_space_group_name_H-M "P M M N"
_symmetry_group_IT_number 59
_space_group.IT_coordinate_system_code '2'
_symmetry_cell_setting 'orthorhombic'
loop_
_space_group_symop_operation_xyz
x,y,z
1/2-x,1/2-y,z
1/2+x,-y,-z
-x,1/2+y,-z
-x,-y,-z
1/2+x,1/2+y,-z
1/2-x,y,z
x,1/2-y,z
loop_
_atom_site_type_symbol
_atom_site_label
_atom_site_fract_x
_atom_site_fract_y
_atom_site_fract_z
Si Si1 0.924941 0.540104 0.854250
Si Si2 0.427142 0.642885 0.747984
Si Si3 0.425117 0.642556 0.408743
Si Si4 0.422295 0.360227 0.029970
Si Si5 0.077394 0.140653 0.468775
Si Si6 0.924565 0.354860 0.913216
Si Si7 0.572601 0.031599 0.365473
O O1 0.750000 0.561251 0.844876
O O2 0.985050 0.589047 0.912797
O O3 0.958022 0.427492 0.860637
O O4 0.014130 0.580276 0.800425
O O5 0.250000 0.645106 0.751026
O O6 0.491289 0.750000 0.750814
O O7 0.481718 0.594352 0.688664
O O8 0.250000 0.623247 0.417347
O O9 0.454365 0.750000 0.387966
O O10 0.509524 0.620952 0.468431
O O11 0.494423 0.571645 0.360887
O O12 0.250000 0.385944 0.021237
O O13 0.450384 0.250000 0.039160
O O14 0.506162 0.395789 0.972492
O O15 0.250000 0.107704 0.468116
O O16 0.062350 0.250000 0.451945
O O17 0.981303 0.081576 0.423707
O O18 0.750000 0.349017 0.924912
O O19 0.988587 0.250000 0.897572
O O20 0.750000 0.019217 0.366313
#
# Coordination Sequence:
#
# PCOD8243249 Si02
#       7
#     8   8   8   8   8   8   8
#     4  10  20  34  53  76 104 139 176 216 262 309
#     4  10  23  41  58  78 104 135 173 216 262 313
#     4  10  21  37  57  82 112 144 179 220 265 315
#     4   9  17  29  47  74 105 135 170 214 264 314
#     4  10  20  34  55  84 115 146 181 221 267 320
#     4   9  18  32  50  75 106 138 173 213 257 307
#     4  11  22  37  57  79 108 144 180 222 270 319
#
# _framework density 19.233170000000001
#
# number of rings (size 3 to 8) (size 9 to 14) (size 15 to 20)
#    0.000    2.143    0.000    3.000    0.000    5.429 
#    0.000    2.143    0.000    2.571    0.000    0.000 
#    0.000    0.000    0.000    0.000    0.000    0.000 
#
# Total GULP energy -694428.336879 kJ/mol
# GULP energy per Si atom -12400.506016 kJ/mol
# Density = 1.918939 g / cm^3
# Si number density = 19.233170 Si / 1000 Ang^3
#
#
#
# Elastic Constant Matrix: (Units=GPa)
#
#
# Indices 1 2 3 4 5 6 
#
# 1 41.9387 34.1271 24.4918 0.0000 0.0000 0.0000
# 2 34.1271 111.7684 62.5194 0.0000 0.0000 0.0000
# 3 24.4918 62.5194 68.1866 0.0000 0.0000 0.0000
# 4 0.0000 0.0000 0.0000 31.5757 0.0000 0.0000
# 5 0.0000 0.0000 0.0000 0.0000 32.9225 0.0000
# 6 0.0000 0.0000 0.0000 0.0000 0.0000 29.9275
#
#
#
# Elastic Compliance Matrix: (Units=1/GPa)
#
#
# Indices 1 2 3 4 5 6 
#
# 1 0.032637 -0.006996 -0.005308 0.000000 0.000000 0.000000
# 2 -0.006996 0.019867 -0.015703 0.000000 0.000000 0.000000
# 3 -0.005308 -0.015703 0.030970 0.000000 0.000000 0.000000
# 4 0.000000 0.000000 0.000000 0.031670 0.000000 0.000000
# 5 0.000000 0.000000 0.000000 0.000000 0.030374 0.000000
# 6 0.000000 0.000000 0.000000 0.000000 0.000000 0.033414
#
#
# Mechanical properties :
#
#
# Convention : Reuss Voigt Hill
#
# Bulk Modulus (GPa) = 36.41680 51.57448 43.99564
# Shear Modulus (GPa) = 20.48341 25.60217 23.04279
#
# Velocity S-wave (km/s) = 3.26698 3.65245 3.46508
# Velocity P-wave (km/s) = 5.76250 6.68287 6.23968
#
# Compressibility (1/GPa) = 0.02745985
#
# Stress axis : x y z
#
# Youngs Moduli (GPa) = 30.63970 50.33518 32.28941
#
# Poissons Ratio (x) = 0.35215 0.17140
# Poissons Ratio (y) = 0.21436 0.50703
# Poissons Ratio (z) = 0.16264 0.79040
#
# Static dielectric constant tensor:
#      x y z
#    x 5.194220 0.000000 0.000000 
#    y 0.000000 4.004950 0.000000 
#    z 0.000000 0.000000 3.391080 
# 
# 
# High freq. dielectric constant tensor:
#      x y z
#    x 1.744790 0.000000 0.000000 
#    y 0.000000 1.769610 0.000000 
#    z 0.000000 0.000000 1.726050 
# 
# From -- ./inp_files/28986.got.cif
#   From: 2010.03.12/outbox.cif.g09.slc.cpg/sg59_15_cif.got.tgz:28986.got - 2010.04.16 16:29:54.
