data_PCOD8243774
_publ_section_title
;
Structure prediction by ZEFSAII (Michael W. Deem and Ramdas Pophale) SiO2 
 PCOD8243774
Probable space group: P M M N
;
_chemical_formula_sum "Si O2"
_cell_formula_units_Z 48
_cell_length_a 16.015365
_cell_length_b 8.873638
_cell_length_c 18.135278
_cell_angle_alpha 90.000000
_cell_angle_beta 90.000000
_cell_angle_gamma 90.000000
_cell_volume 2577.286898
_symmetry_space_group_name_H-M "P M M N"
_symmetry_group_IT_number 59
_space_group.IT_coordinate_system_code '2'
_symmetry_cell_setting 'orthorhombic'
loop_
_space_group_symop_operation_xyz
x,y,z
1/2-x,1/2-y,z
1/2+x,-y,-z
-x,1/2+y,-z
-x,-y,-z
1/2+x,1/2+y,-z
1/2-x,y,z
x,1/2-y,z
loop_
_atom_site_type_symbol
_atom_site_label
_atom_site_fract_x
_atom_site_fract_y
_atom_site_fract_z
Si Si1 0.087885 0.071025 0.788350
Si Si2 0.925498 0.426621 0.699228
Si Si3 0.082963 0.929504 0.466912
Si Si4 0.250000 0.928493 0.548512
Si Si5 0.750000 0.070543 0.282359
Si Si6 0.498231 0.071289 0.079789
Si Si7 0.657878 0.923185 0.827078
O O1 0.098409 0.250000 0.794801
O O2 0.015130 0.023536 0.731485
O O3 0.170706 0.995821 0.758494
O O4 0.069374 0.002921 0.869137
O O5 0.916952 0.250000 0.699666
O O6 0.912603 0.488182 0.616984
O O7 0.852357 0.490158 0.750285
O O8 0.076136 0.750000 0.471948
O O9 0.165955 0.989487 0.508792
O O10 0.000000 0.000000 0.500000
O O11 0.250000 0.750000 0.543856
O O12 0.250000 0.984413 0.632827
O O13 0.750000 0.250000 0.276975
O O14 0.511838 0.250000 0.075858
O O15 0.408140 0.024093 0.111991
O O16 0.500000 0.000000 0.000000
O O17 0.750000 0.955492 0.858965
O O18 0.643655 0.750000 0.808138
#
# Coordination Sequence:
#
# PCOD8243774 Si02
#       7
#     8   8   8   4   4   8   8
#     4  10  20  36  56  81 109 144 184 228 279 326
#     4   9  19  33  54  79 106 141 184 226 272 327
#     4  10  20  35  53  77 108 145 185 230 282 333
#     4   9  20  35  53  77 110 149 186 227 285 340
#     4  11  21  35  55  79 106 143 192 233 271 330
#     4  10  20  37  59  82 113 146 179 221 268 325
#     4   9  19  35  55  80 108 141 178 216 266 322
#
# _framework density 18.624236
#
# number of rings (size 3 to 8) (size 9 to 14) (size 15 to 20)
#    0.000    2.333    0.000    2.250    1.167    2.333 
#    1.500    1.250    0.000    0.000    0.000    0.000 
#    0.000    0.000    0.000    0.000    0.000    0.000 
#
# Total GULP energy -595212.170846 kJ/mol
# GULP energy per Si atom -12400.253559 kJ/mol
# Density = 1.858185 g / cm^3
# Si number density = 18.624236 Si / 1000 Ang^3
#
#
#
# Elastic Constant Matrix: (Units=GPa)
#
#
# Indices 1 2 3 4 5 6 
#
# 1 138.1114 36.9104 81.5156 0.0000 0.0000 0.0000
# 2 36.9104 46.0090 44.6152 0.0000 0.0000 0.0000
# 3 81.5156 44.6152 177.8755 0.0000 0.0000 0.0000
# 4 0.0000 0.0000 0.0000 28.3292 0.0000 0.0000
# 5 0.0000 0.0000 0.0000 0.0000 21.9736 0.0000
# 6 0.0000 0.0000 0.0000 0.0000 0.0000 28.6328
#
#
#
# Elastic Compliance Matrix: (Units=1/GPa)
#
#
# Indices 1 2 3 4 5 6 
#
# 1 0.010756 -0.005086 -0.003654 0.000000 0.000000 0.000000
# 2 -0.005086 0.031125 -0.005476 0.000000 0.000000 0.000000
# 3 -0.003654 -0.005476 0.008670 0.000000 0.000000 0.000000
# 4 0.000000 0.000000 0.000000 0.035299 0.000000 0.000000
# 5 0.000000 0.000000 0.000000 0.000000 0.045509 0.000000
# 6 0.000000 0.000000 0.000000 0.000000 0.000000 0.034925
#
#
# Mechanical properties :
#
#
# Convention : Reuss Voigt Hill
#
# Bulk Modulus (GPa) = 45.20858 76.45315 60.83086
# Shear Modulus (GPa) = 24.74149 29.05077 26.89613
#
# Velocity S-wave (km/s) = 3.64875 3.95376 3.80432
# Velocity P-wave (km/s) = 6.48675 7.87289 7.21320
#
# Compressibility (1/GPa) = 0.02211970
#
# Stress axis : x y z
#
# Youngs Moduli (GPa) = 92.96952 32.12807 115.34356
#
# Poissons Ratio (x) = 0.16341 0.42141
# Poissons Ratio (y) = 0.47286 0.63163
# Poissons Ratio (z) = 0.33967 0.17594
#
# Static dielectric constant tensor:
#      x y z
#    x 3.564540 0.000000 0.000000 
#    y 0.000000 3.336340 0.000000 
#    z 0.000000 0.000000 3.673010 
# 
# 
# High freq. dielectric constant tensor:
#      x y z
#    x 1.729140 0.000000 0.000000 
#    y 0.000000 1.716320 0.000000 
#    z 0.000000 0.000000 1.727770 
# 
# From -- ./inp_files/25513.got.cif
#   From: 2010.03.12/outbox.cif.g09.slc.cpg/sg59_13_cif.got.tgz:25513.got - 2010.04.16 16:29:54.
