data_PCOD8243060
_publ_section_title
;
Structure prediction by ZEFSAII (Michael W. Deem and Ramdas Pophale) SiO2 
 PCOD8243060
Probable space group: P M M N
;
_chemical_formula_sum "Si O2"
_cell_formula_units_Z 64
_cell_length_a 8.862572
_cell_length_b 19.002427
_cell_length_c 20.618590
_cell_angle_alpha 90.000000
_cell_angle_beta 90.000000
_cell_angle_gamma 90.000000
_cell_volume 3472.384525
_symmetry_space_group_name_H-M "P M M N"
_symmetry_group_IT_number 59
_space_group.IT_coordinate_system_code '2'
_symmetry_cell_setting 'orthorhombic'
loop_
_space_group_symop_operation_xyz
x,y,z
1/2-x,1/2-y,z
1/2+x,-y,-z
-x,1/2+y,-z
-x,-y,-z
1/2+x,1/2+y,-z
1/2-x,y,z
x,1/2-y,z
loop_
_atom_site_type_symbol
_atom_site_label
_atom_site_fract_x
_atom_site_fract_y
_atom_site_fract_z
Si Si1 0.926066 0.031335 0.436759
Si Si2 0.577377 0.329668 0.755443
Si Si3 0.923968 0.328698 0.372622
Si Si4 0.426249 0.170019 0.891386
Si Si5 0.575007 0.951380 0.309016
Si Si6 0.925026 0.459591 0.181199
Si Si7 0.924895 0.669876 0.763927
Si Si8 0.571746 0.463153 0.938601
O O1 0.750000 0.021637 0.445222
O O2 0.968113 0.114036 0.427400
O O3 0.983304 0.989187 0.373813
O O4 0.000000 0.000000 0.500000
O O5 0.750000 0.346056 0.774421
O O6 0.559410 0.250000 0.730501
O O7 0.473708 0.344000 0.817566
O O8 0.521537 0.380176 0.698085
O O9 0.750000 0.340077 0.351233
O O10 0.949269 0.250000 0.401022
O O11 0.025095 0.341394 0.309934
O O12 0.250000 0.153321 0.897065
O O13 0.463860 0.250000 0.912054
O O14 0.517473 0.118059 0.938368
O O15 0.750000 0.931278 0.313572
O O16 0.543261 0.003015 0.249322
O O17 0.750000 0.460857 0.161715
O O18 0.980976 0.379288 0.187353
O O19 0.019678 0.498678 0.126549
O O20 0.750000 0.650005 0.769095
O O21 0.955229 0.750000 0.785692
O O22 0.750000 0.466103 0.944361
O O23 0.500000 0.500000 0.000000
#
# Coordination Sequence:
#
# PCOD8243060 Si02
#       8
#     8   8   8   8   8   8   8   8
#     4  10  21  37  54  80 111 146 187 230 282 341
#     4  10  20  33  53  84 116 147 189 238 286 335
#     4   9  17  33  56  78 105 143 186 231 280 338
#     4  10  20  36  59  86 117 153 192 234 283 339
#     4  10  20  35  56  81 112 146 186 231 282 341
#     4  11  21  37  60  85 114 149 190 234 281 339
#     4  10  20  33  53  85 119 148 185 235 288 338
#     4  12  25  41  61  87 120 155 193 238 286 341
#
# _framework density 18.431139000000002
#
# number of rings (size 3 to 8) (size 9 to 14) (size 15 to 20)
#    0.000    1.750    2.500    2.625    0.000    3.750 
#    0.000    1.250    0.000    6.000    0.000    0.000 
#    0.000    0.000    0.000    0.000    0.000    0.000 
#
# Total GULP energy -793744.561053 kJ/mol
# GULP energy per Si atom -12402.258766 kJ/mol
# Density = 1.838919 g / cm^3
# Si number density = 18.431139 Si / 1000 Ang^3
#
#
#
# Elastic Constant Matrix: (Units=GPa)
#
#
# Indices 1 2 3 4 5 6 
#
# 1 100.3186 65.0615 49.4901 0.0000 0.0000 0.0000
# 2 65.0615 144.1882 59.4386 0.0000 0.0000 0.0000
# 3 49.4901 59.4386 92.6504 0.0000 0.0000 0.0000
# 4 0.0000 0.0000 0.0000 29.4883 0.0000 0.0000
# 5 0.0000 0.0000 0.0000 0.0000 30.6702 0.0000
# 6 0.0000 0.0000 0.0000 0.0000 0.0000 34.1005
#
#
#
# Elastic Compliance Matrix: (Units=1/GPa)
#
#
# Indices 1 2 3 4 5 6 
#
# 1 0.015768 -0.004953 -0.005245 0.000000 0.000000 0.000000
# 2 -0.004953 0.010985 -0.004401 0.000000 0.000000 0.000000
# 3 -0.005245 -0.004401 0.016419 0.000000 0.000000 0.000000
# 4 0.000000 0.000000 0.000000 0.033912 0.000000 0.000000
# 5 0.000000 0.000000 0.000000 0.000000 0.032605 0.000000
# 6 0.000000 0.000000 0.000000 0.000000 0.000000 0.029325
#
#
# Mechanical properties :
#
#
# Convention : Reuss Voigt Hill
#
# Bulk Modulus (GPa) = 71.56945 76.12639 73.84792
# Shear Modulus (GPa) = 28.92357 29.72960 29.32659
#
# Velocity S-wave (km/s) = 3.96571 4.02059 3.99324
# Velocity P-wave (km/s) = 7.73848 7.93387 7.83679
#
# Compressibility (1/GPa) = 0.01397244
#
# Stress axis : x y z
#
# Youngs Moduli (GPa) = 63.41992 91.03687 60.90582
#
# Poissons Ratio (x) = 0.45087 0.31947
# Poissons Ratio (y) = 0.31410 0.26808
# Poissons Ratio (z) = 0.33266 0.40070
#
# Static dielectric constant tensor:
#      x y z
#    x 3.483560 0.000000 0.000000 
#    y 0.000000 3.765300 0.000000 
#    z 0.000000 0.000000 3.353480 
# 
# 
# High freq. dielectric constant tensor:
#      x y z
#    x 1.722410 0.000000 0.000000 
#    y 0.000000 1.733310 0.000000 
#    z 0.000000 0.000000 1.680890 
# 
# From -- ./inp_files/29524.got.cif
#   From: 2010.03.12/outbox.cif.g09.slc.cpg/sg59_15_cif.got.tgz:29524.got - 2010.04.16 16:29:54.
