data_PCOD8243516
_publ_section_title
;
Structure prediction by ZEFSAII (Michael W. Deem and Ramdas Pophale) SiO2 
 PCOD8243516
Probable space group: P M M N
;
_chemical_formula_sum "Si O2"
_cell_formula_units_Z 64
_cell_length_a 27.800117
_cell_length_b 9.594750
_cell_length_c 12.837387
_cell_angle_alpha 90.000000
_cell_angle_beta 90.000000
_cell_angle_gamma 90.000000
_cell_volume 3424.182637
_symmetry_space_group_name_H-M "P M M N"
_symmetry_group_IT_number 59
_space_group.IT_coordinate_system_code '2'
_symmetry_cell_setting 'orthorhombic'
loop_
_space_group_symop_operation_xyz
x,y,z
1/2-x,1/2-y,z
1/2+x,-y,-z
-x,1/2+y,-z
-x,-y,-z
1/2+x,1/2+y,-z
1/2-x,y,z
x,1/2-y,z
loop_
_atom_site_type_symbol
_atom_site_label
_atom_site_fract_x
_atom_site_fract_y
_atom_site_fract_z
Si Si1 0.365235 0.590373 0.851191
Si Si2 0.860943 0.089250 0.914924
Si Si3 0.352472 0.089098 0.469494
Si Si4 0.305522 0.912919 0.651999
Si Si5 0.956347 0.589894 0.460587
Si Si6 0.053083 0.092347 0.772568
Si Si7 0.970242 0.408587 0.919993
Si Si8 0.806125 0.912118 0.747001
O O1 0.380144 0.750000 0.834406
O O2 0.327397 0.542377 0.763579
O O3 0.413980 0.502278 0.845767
O O4 0.342827 0.569202 0.966075
O O5 0.856650 0.250000 0.880119
O O6 0.916059 0.036515 0.904106
O O7 0.826913 0.997651 0.843078
O O8 0.338900 0.250000 0.491095
O O9 0.410025 0.068753 0.466064
O O10 0.331736 0.038650 0.359221
O O11 0.330341 0.997587 0.560582
O O12 0.250000 0.953361 0.655617
O O13 0.313370 0.750000 0.630154
O O14 0.973114 0.750000 0.457856
O O15 0.942838 0.538003 0.345149
O O16 0.000000 0.500000 0.500000
O O17 0.072484 0.250000 0.780906
O O18 0.997719 0.083002 0.809459
O O19 0.968493 0.250000 0.962472
O O20 0.000000 0.500000 0.000000
O O21 0.750000 0.944757 0.735890
O O22 0.815972 0.750000 0.768143
#
# Coordination Sequence:
#
# PCOD8243516 Si02
#       8
#     8   8   8   8   8   8   8   8
#     4  10  20  36  57  83 114 149 188 231 282 342
#     4  10  22  38  58  85 116 153 196 235 283 343
#     4  10  21  40  62  84 112 149 191 233 283 344
#     4  10  21  36  57  86 113 139 179 233 289 341
#     4  10  22  37  55  83 116 150 186 226 280 342
#     4  10  20  35  55  80 114 150 188 233 280 334
#     4  10  20  34  54  83 114 147 186 229 273 328
#     4  10  23  42  61  82 110 147 194 246 293 338
#
# _framework density 18.690591000000001
#
# number of rings (size 3 to 8) (size 9 to 14) (size 15 to 20)
#    0.000    2.000    2.500    0.375    1.750    4.000 
#    0.000    1.250    0.000    0.000    0.000    0.000 
#    0.000    0.000    0.000    0.000    0.000    0.000 
#
# Total GULP energy -793743.780651 kJ/mol
# GULP energy per Si atom -12402.246573 kJ/mol
# Density = 1.864805 g / cm^3
# Si number density = 18.690591 Si / 1000 Ang^3
#
#
#
# Elastic Constant Matrix: (Units=GPa)
#
#
# Indices 1 2 3 4 5 6 
#
# 1 103.7958 46.2670 56.6580 0.0000 0.0000 0.0000
# 2 46.2670 59.0469 51.5309 0.0000 0.0000 0.0000
# 3 56.6580 51.5309 124.1317 0.0000 0.0000 0.0000
# 4 0.0000 0.0000 0.0000 33.2912 0.0000 0.0000
# 5 0.0000 0.0000 0.0000 0.0000 32.0347 0.0000
# 6 0.0000 0.0000 0.0000 0.0000 0.0000 32.4372
#
#
#
# Elastic Compliance Matrix: (Units=1/GPa)
#
#
# Indices 1 2 3 4 5 6 
#
# 1 0.015578 -0.009410 -0.003204 0.000000 0.000000 0.000000
# 2 -0.009410 0.032242 -0.009089 0.000000 0.000000 0.000000
# 3 -0.003204 -0.009089 0.013292 0.000000 0.000000 0.000000
# 4 0.000000 0.000000 0.000000 0.030038 0.000000 0.000000
# 5 0.000000 0.000000 0.000000 0.000000 0.031216 0.000000
# 6 0.000000 0.000000 0.000000 0.000000 0.000000 0.030829
#
#
# Mechanical properties :
#
#
# Convention : Reuss Voigt Hill
#
# Bulk Modulus (GPa) = 56.48359 66.20958 61.34658
# Shear Modulus (GPa) = 24.69116 28.38718 26.53917
#
# Velocity S-wave (km/s) = 3.63857 3.90140 3.77227
# Velocity P-wave (km/s) = 6.92374 7.46964 7.20186
#
# Compressibility (1/GPa) = 0.01770426
#
# Stress axis : x y z
#
# Youngs Moduli (GPa) = 64.19442 31.01589 75.23585
#
# Poissons Ratio (x) = 0.29186 0.24104
# Poissons Ratio (y) = 0.60408 0.68384
# Poissons Ratio (z) = 0.20566 0.28191
#
# Static dielectric constant tensor:
#      x y z
#    x 3.493260 0.000000 0.000000 
#    y 0.000000 3.390130 0.000000 
#    z 0.000000 0.000000 3.589640 
# 
# 
# High freq. dielectric constant tensor:
#      x y z
#    x 1.726960 0.000000 0.000000 
#    y 0.000000 1.720740 0.000000 
#    z 0.000000 0.000000 1.731190 
# 
# From -- ./inp_files/19276.got.cif
#   From: 2010.03.12/outbox.cif.g09.slc.cpg/sg59_10_cif.got.tgz:19276.got - 2010.04.16 16:29:54.
