data_PCOD8243934
_publ_section_title
;
Structure prediction by ZEFSAII (Michael W. Deem and Ramdas Pophale) SiO2 
 PCOD8243934
Probable space group: P M M N
;
_chemical_formula_sum "Si O2"
_cell_formula_units_Z 48
_cell_length_a 8.563836
_cell_length_b 14.835100
_cell_length_c 19.211241
_cell_angle_alpha 90.000000
_cell_angle_beta 90.000000
_cell_angle_gamma 90.000000
_cell_volume 2440.699095
_symmetry_space_group_name_H-M "P M M N"
_symmetry_group_IT_number 59
_space_group.IT_coordinate_system_code '2'
_symmetry_cell_setting 'orthorhombic'
loop_
_space_group_symop_operation_xyz
x,y,z
1/2-x,1/2-y,z
1/2+x,-y,-z
-x,1/2+y,-z
-x,-y,-z
1/2+x,1/2+y,-z
1/2-x,y,z
x,1/2-y,z
loop_
_atom_site_type_symbol
_atom_site_label
_atom_site_fract_x
_atom_site_fract_y
_atom_site_fract_z
Si Si1 0.567938 0.058800 0.437439
Si Si2 0.068867 0.423018 0.682846
Si Si3 0.434172 0.529086 0.170417
Si Si4 0.569831 0.250000 0.616781
Si Si5 0.567236 0.845439 0.894690
Si Si6 0.432006 0.250000 0.466906
Si Si7 0.931894 0.586339 0.037074
O O1 0.750000 0.067353 0.451131
O O2 0.499939 0.159468 0.432453
O O3 0.500000 0.000000 0.500000
O O4 0.528462 0.008626 0.365426
O O5 0.250000 0.396673 0.676009
O O6 0.028664 0.447258 0.761229
O O7 0.964805 0.338123 0.661717
O O8 0.250000 0.529686 0.185265
O O9 0.503884 0.432190 0.144492
O O10 0.475467 0.602016 0.109751
O O11 0.750000 0.250000 0.594031
O O12 0.462982 0.250000 0.548867
O O13 0.750000 0.854308 0.881667
O O14 0.503724 0.750000 0.863523
O O15 0.537175 0.838274 0.978276
O O16 0.250000 0.250000 0.452928
O O17 0.750000 0.575680 0.054737
O O18 0.000000 0.500000 0.000000
#
# Coordination Sequence:
#
# PCOD8243934 Si02
#       7
#     8   8   8   4   8   4   8
#     4  11  23  40  65  92 123 161 204 254 305 359
#     4  11  24  42  63  88 122 159 199 245 303 367
#     4  10  20  35  56  80 114 153 192 240 297 357
#     4  12  24  40  66  92 120 153 196 249 304 362
#     4   8  15  30  53  80 108 143 190 241 291 346
#     4  12  24  40  64  94 126 159 204 251 300 364
#     4   9  16  29  52  77 104 141 186 234 288 346
#
# _framework density 19.666497
#
# number of rings (size 3 to 8) (size 9 to 14) (size 15 to 20)
#    0.000    1.833    1.667    4.500    0.000    2.000 
#    3.000    0.000    0.000   17.000    0.000    0.000 
#    0.000    0.000    0.000    0.000    0.000    0.000 
#
# Total GULP energy -594861.285440 kJ/mol
# GULP energy per Si atom -12392.943447 kJ/mol
# Density = 1.962174 g / cm^3
# Si number density = 19.666497 Si / 1000 Ang^3
#
#
#
# Elastic Constant Matrix: (Units=GPa)
#
#
# Indices 1 2 3 4 5 6 
#
# 1 73.5793 34.2869 21.1008 0.0000 0.0000 0.0000
# 2 34.2869 119.6882 30.1313 0.0000 0.0000 0.0000
# 3 21.1008 30.1313 104.5788 0.0000 0.0000 0.0000
# 4 0.0000 0.0000 0.0000 15.2868 0.0000 0.0000
# 5 0.0000 0.0000 0.0000 0.0000 33.2584 0.0000
# 6 0.0000 0.0000 0.0000 0.0000 0.0000 23.0916
#
#
#
# Elastic Compliance Matrix: (Units=1/GPa)
#
#
# Indices 1 2 3 4 5 6 
#
# 1 0.016089 -0.004088 -0.002068 0.000000 0.000000 0.000000
# 2 -0.004088 0.010047 -0.002070 0.000000 0.000000 0.000000
# 3 -0.002068 -0.002070 0.010576 0.000000 0.000000 0.000000
# 4 0.000000 0.000000 0.000000 0.065416 0.000000 0.000000
# 5 0.000000 0.000000 0.000000 0.000000 0.030068 0.000000
# 6 0.000000 0.000000 0.000000 0.000000 0.000000 0.043306
#
#
# Mechanical properties :
#
#
# Convention : Reuss Voigt Hill
#
# Bulk Modulus (GPa) = 49.36068 52.09826 50.72947
# Shear Modulus (GPa) = 25.16261 28.48253 26.82257
#
# Velocity S-wave (km/s) = 3.58084 3.80975 3.69707
# Velocity P-wave (km/s) = 6.49999 6.77500 6.63892
#
# Compressibility (1/GPa) = 0.02025904
#
# Stress axis : x y z
#
# Youngs Moduli (GPa) = 62.15421 99.52907 94.55471
#
# Poissons Ratio (x) = 0.40690 0.19557
# Poissons Ratio (y) = 0.25410 0.19572
# Poissons Ratio (z) = 0.12856 0.20602
#
# Static dielectric constant tensor:
#      x y z
#    x 3.620190 0.000000 0.000000 
#    y 0.000000 -34.154950 0.000000 
#    z 0.000000 0.000000 3.778220 
# 
# 
# High freq. dielectric constant tensor:
#      x y z
#    x 1.763900 0.000000 0.000000 
#    y 0.000000 1.766950 0.000000 
#    z 0.000000 0.000000 1.761900 
# 
# From -- ./inp_files/25573.got.cif
#   From: 2010.03.12/outbox.cif.g09.slc.cpg/sg59_13_cif.got.tgz:25573.got - 2010.04.16 16:29:54.
