data_PCOD8243789
_publ_section_title
;
Structure prediction by ZEFSAII (Michael W. Deem and Ramdas Pophale) SiO2 
 PCOD8243789
Probable space group: P M M N
;
_chemical_formula_sum "Si O2"
_cell_formula_units_Z 56
_cell_length_a 18.341891
_cell_length_b 9.273258
_cell_length_c 18.740462
_cell_angle_alpha 90.000000
_cell_angle_beta 90.000000
_cell_angle_gamma 90.000000
_cell_volume 3187.548080
_symmetry_space_group_name_H-M "P M M N"
_symmetry_group_IT_number 59
_space_group.IT_coordinate_system_code '2'
_symmetry_cell_setting 'orthorhombic'
loop_
_space_group_symop_operation_xyz
x,y,z
1/2-x,1/2-y,z
1/2+x,-y,-z
-x,1/2+y,-z
-x,-y,-z
1/2+x,1/2+y,-z
1/2-x,y,z
x,1/2-y,z
loop_
_atom_site_type_symbol
_atom_site_label
_atom_site_fract_x
_atom_site_fract_y
_atom_site_fract_z
Si Si1 0.833837 0.917833 0.868977
Si Si2 0.336716 0.587701 0.560597
Si Si3 0.335856 0.084188 0.424840
Si Si4 0.332049 0.083482 0.698376
Si Si5 0.095154 0.418425 0.278588
Si Si6 0.531590 0.585000 0.214626
Si Si7 0.035698 0.920183 0.065949
O O1 0.750000 0.955842 0.885094
O O2 0.850223 0.750000 0.884697
O O3 0.850351 0.955179 0.786491
O O4 0.883890 0.015481 0.920127
O O5 0.250000 0.585104 0.557961
O O6 0.367411 0.750000 0.561840
O O7 0.367841 0.507502 0.490736
O O8 0.362952 0.506726 0.631746
O O9 0.250000 0.065030 0.417746
O O10 0.356823 0.250000 0.438042
O O11 0.370359 0.023651 0.351879
O O12 0.250000 0.035834 0.719727
O O13 0.333279 0.250000 0.675131
O O14 0.383724 0.055095 0.766666
O O15 0.081132 0.250000 0.283518
O O16 0.017530 0.492421 0.267738
O O17 0.510289 0.750000 0.228018
O O18 0.517070 0.544119 0.132606
O O19 0.042179 0.750000 0.051146
O O20 0.000000 0.000000 0.000000
#
# Coordination Sequence:
#
# PCOD8243789 Si02
#       7
#     8   8   8   8   8   8   8
#     4   9  17  31  52  77 103 132 167 204 242 287
#     4   9  17  28  43  66  94 122 155 197 243 286
#     4   9  16  27  44  66  93 126 163 199 234 277
#     4   9  17  32  53  71  88 116 156 200 243 286
#     4   9  17  29  47  71  98 128 161 197 238 284
#     4   9  19  34  51  72  96 122 155 195 239 289
#     4  10  20  35  54  76 104 135 165 198 241 293
#
# _framework density 17.568362
#
# number of rings (size 3 to 8) (size 9 to 14) (size 15 to 20)
#    0.000    2.857    0.000    1.286    0.000    5.429 
#    0.000    1.429    0.000    5.143    0.000    0.000 
#    0.000    0.000    0.000    0.000    0.000    0.000 
#
# Total GULP energy -694351.450750 kJ/mol
# GULP energy per Si atom -12399.133049 kJ/mol
# Density = 1.752838 g / cm^3
# Si number density = 17.568362 Si / 1000 Ang^3
#
#
#
# Elastic Constant Matrix: (Units=GPa)
#
#
# Indices 1 2 3 4 5 6 
#
# 1 93.0630 47.1570 63.2218 0.0000 0.0000 0.0000
# 2 47.1570 75.1873 55.3752 0.0000 0.0000 0.0000
# 3 63.2218 55.3752 112.8815 0.0000 0.0000 0.0000
# 4 0.0000 0.0000 0.0000 25.6646 0.0000 0.0000
# 5 0.0000 0.0000 0.0000 0.0000 27.4241 0.0000
# 6 0.0000 0.0000 0.0000 0.0000 0.0000 25.4382
#
#
#
# Elastic Compliance Matrix: (Units=1/GPa)
#
#
# Indices 1 2 3 4 5 6 
#
# 1 0.019147 -0.006436 -0.007566 0.000000 0.000000 0.000000
# 2 -0.006436 0.022987 -0.007672 0.000000 0.000000 0.000000
# 3 -0.007566 -0.007672 0.016860 0.000000 0.000000 0.000000
# 4 0.000000 0.000000 0.000000 0.038964 0.000000 0.000000
# 5 0.000000 0.000000 0.000000 0.000000 0.036464 0.000000
# 6 0.000000 0.000000 0.000000 0.000000 0.000000 0.039311
#
#
# Mechanical properties :
#
#
# Convention : Reuss Voigt Hill
#
# Bulk Modulus (GPa) = 63.91677 68.07110 65.99394
# Shear Modulus (GPa) = 22.49241 23.39725 22.94483
#
# Velocity S-wave (km/s) = 3.58198 3.65332 3.61783
# Velocity P-wave (km/s) = 7.31903 7.52504 7.42275
#
# Compressibility (1/GPa) = 0.01564535
#
# Stress axis : x y z
#
# Youngs Moduli (GPa) = 52.22777 43.50248 59.31194
#
# Poissons Ratio (x) = 0.27999 0.44877
# Poissons Ratio (y) = 0.33615 0.45503
# Poissons Ratio (z) = 0.39517 0.33374
#
# Static dielectric constant tensor:
#      x y z
#    x 3.155010 0.000000 0.000000 
#    y 0.000000 3.325550 0.000000 
#    z 0.000000 0.000000 3.281610 
# 
# 
# High freq. dielectric constant tensor:
#      x y z
#    x 1.661460 0.000000 0.000000 
#    y 0.000000 1.679400 0.000000 
#    z 0.000000 0.000000 1.672840 
# 
# From -- ./inp_files/30617.got.cif
#   From: 2010.03.12/outbox.cif.g09.slc.cpg/sg59_16_cif.got.tgz:30617.got - 2010.04.16 16:29:54.
