data_PCOD8243220
_publ_section_title
;
Structure prediction by ZEFSAII (Michael W. Deem and Ramdas Pophale) SiO2 
 PCOD8243220
Probable space group: P M M N
;
_chemical_formula_sum "Si O2"
_cell_formula_units_Z 48
_cell_length_a 18.882436
_cell_length_b 9.215897
_cell_length_c 15.224601
_cell_angle_alpha 90.000000
_cell_angle_beta 90.000000
_cell_angle_gamma 90.000000
_cell_volume 2649.363528
_symmetry_space_group_name_H-M "P M M N"
_symmetry_group_IT_number 59
_space_group.IT_coordinate_system_code '2'
_symmetry_cell_setting 'orthorhombic'
loop_
_space_group_symop_operation_xyz
x,y,z
1/2-x,1/2-y,z
1/2+x,-y,-z
-x,1/2+y,-z
-x,-y,-z
1/2+x,1/2+y,-z
1/2-x,y,z
x,1/2-y,z
loop_
_atom_site_type_symbol
_atom_site_label
_atom_site_fract_x
_atom_site_fract_y
_atom_site_fract_z
Si Si1 0.571130 0.920237 0.900920
Si Si2 0.419579 0.080588 0.415175
Si Si3 0.171131 0.077509 0.250896
Si Si4 0.570238 0.917878 0.099485
Si Si5 0.582999 0.080347 0.408452
Si Si6 0.668019 0.581419 0.258965
O O1 0.560020 0.750000 0.888809
O O2 0.633150 0.978182 0.837645
O O3 0.498113 0.992829 0.870710
O O4 0.592487 0.961816 0.000427
O O5 0.407934 0.250000 0.434597
O O6 0.371891 0.022817 0.335440
O O7 0.500678 0.048155 0.389578
O O8 0.394610 0.992630 0.500179
O O9 0.250000 0.011368 0.253487
O O10 0.174022 0.250000 0.251207
O O11 0.549213 0.750000 0.103614
O O12 0.635291 0.954105 0.163549
O O13 0.598952 0.250000 0.414499
O O14 0.629378 0.013733 0.331401
O O15 0.750000 0.537685 0.255404
O O16 0.657941 0.750000 0.282873
#
# Coordination Sequence:
#
# PCOD8243220 Si02
#       6
#     8   8   8   8   8   8
#     4   9  17  31  52  76 100 127 162 203 242 283
#     4   9  18  33  52  74 100 130 164 202 245 294
#     4   9  17  29  48  74 100 127 160 197 238 285
#     4   9  18  32  51  74  99 129 164 201 242 288
#     4  10  20  34  53  75  98 127 166 210 250 291
#     4  10  21  35  50  71 101 135 168 204 249 299
#
# _framework density 18.117560000000001
#
# number of rings (size 3 to 8) (size 9 to 14) (size 15 to 20)
#    0.000    2.667    0.000    1.500    0.000    4.333 
#    0.000    5.833    0.000    1.500    0.000    4.667 
#    0.000    0.000    0.000    0.000    0.000    0.000 
#
# Total GULP energy -595255.364117 kJ/mol
# GULP energy per Si atom -12401.153419 kJ/mol
# Density = 1.807632 g / cm^3
# Si number density = 18.117560 Si / 1000 Ang^3
#
#
#
# Elastic Constant Matrix: (Units=GPa)
#
#
# Indices 1 2 3 4 5 6 
#
# 1 128.4689 42.1996 91.4988 0.0000 0.0000 0.0000
# 2 42.1996 48.0737 47.5716 0.0000 0.0000 0.0000
# 3 91.4988 47.5716 144.1462 0.0000 0.0000 0.0000
# 4 0.0000 0.0000 0.0000 17.5213 0.0000 0.0000
# 5 0.0000 0.0000 0.0000 0.0000 16.5330 0.0000
# 6 0.0000 0.0000 0.0000 0.0000 0.0000 22.2578
#
#
#
# Elastic Compliance Matrix: (Units=1/GPa)
#
#
# Indices 1 2 3 4 5 6 
#
# 1 0.015166 -0.005623 -0.007771 0.000000 0.000000 0.000000
# 2 -0.005623 0.032974 -0.007313 0.000000 0.000000 0.000000
# 3 -0.007771 -0.007313 0.014284 0.000000 0.000000 0.000000
# 4 0.000000 0.000000 0.000000 0.057073 0.000000 0.000000
# 5 0.000000 0.000000 0.000000 0.000000 0.060485 0.000000
# 6 0.000000 0.000000 0.000000 0.000000 0.000000 0.044928
#
#
# Mechanical properties :
#
#
# Convention : Reuss Voigt Hill
#
# Bulk Modulus (GPa) = 47.59741 75.91431 61.75586
# Shear Modulus (GPa) = 18.29319 20.55701 19.42510
#
# Velocity S-wave (km/s) = 3.18102 3.37210 3.27795
# Velocity P-wave (km/s) = 6.31033 7.55999 6.96325
#
# Compressibility (1/GPa) = 0.02100955
#
# Stress axis : x y z
#
# Youngs Moduli (GPa) = 65.93857 30.32722 70.01050
#
# Poissons Ratio (x) = 0.17052 0.54405
# Poissons Ratio (y) = 0.37076 0.51198
# Poissons Ratio (z) = 0.51241 0.22178
#
# Static dielectric constant tensor:
#      x y z
#    x 3.433930 0.000000 0.000000 
#    y 0.000000 3.162240 0.000000 
#    z 0.000000 0.000000 3.532390 
# 
# 
# High freq. dielectric constant tensor:
#      x y z
#    x 1.697400 0.000000 0.000000 
#    y 0.000000 1.680190 0.000000 
#    z 0.000000 0.000000 1.715260 
# 
# From -- ./inp_files/23637.got.cif
#   From: 2010.03.12/outbox.cif.g09.slc.cpg/sg59_12_cif.got.tgz:23637.got - 2010.04.16 16:29:54.
