data_PCOD8243023
_publ_section_title
;
Structure prediction by ZEFSAII (Michael W. Deem and Ramdas Pophale) SiO2 
 PCOD8243023
Probable space group: P M M N
;
_chemical_formula_sum "Si O2"
_cell_formula_units_Z 40
_cell_length_a 9.161609
_cell_length_b 14.917428
_cell_length_c 14.243239
_cell_angle_alpha 90.000000
_cell_angle_beta 90.000000
_cell_angle_gamma 90.000000
_cell_volume 1946.589897
_symmetry_space_group_name_H-M "P M M N"
_symmetry_group_IT_number 59
_space_group.IT_coordinate_system_code '2'
_symmetry_cell_setting 'orthorhombic'
loop_
_space_group_symop_operation_xyz
x,y,z
1/2-x,1/2-y,z
1/2+x,-y,-z
-x,1/2+y,-z
-x,-y,-z
1/2+x,1/2+y,-z
1/2-x,y,z
x,1/2-y,z
loop_
_atom_site_type_symbol
_atom_site_label
_atom_site_fract_x
_atom_site_fract_y
_atom_site_fract_z
Si Si1 0.079733 0.486800 0.902530
Si Si2 0.593419 0.848354 0.598065
Si Si3 0.915913 0.147550 0.231068
Si Si4 0.421817 0.583653 0.446773
Si Si5 0.078887 0.644497 0.238732
O O1 0.250000 0.464363 0.916833
O O2 0.056833 0.583871 0.856495
O O3 0.010061 0.405744 0.842712
O O4 0.000000 0.500000 0.000000
O O5 0.750000 0.899339 0.581459
O O6 0.628206 0.750000 0.634305
O O7 0.508726 0.895811 0.683440
O O8 0.495968 0.836184 0.504644
O O9 0.750000 0.144355 0.265494
O O10 0.959044 0.250000 0.204119
O O11 0.500000 0.500000 0.500000
O O12 0.250000 0.583356 0.462835
O O13 0.461259 0.597059 0.337768
O O14 0.250000 0.634191 0.217692
O O15 0.035995 0.750000 0.241343
#
# Coordination Sequence:
#
# PCOD8243023 Si02
#       5
#     8   8   8   8   8
#     4  11  24  41  63  90 118 152 197 252 313 374
#     4  10  20  33  52  81 115 149 186 230 279 334
#     4   9  19  37  60  85 115 153 196 242 297 364
#     4  11  22  36  57  85 119 160 203 246 296 354
#     4  10  23  43  64  87 121 167 214 259 310 370
#
# _framework density 20.548755
#
# number of rings (size 3 to 8) (size 9 to 14) (size 15 to 20)
#    0.000    1.800    0.000    3.600    0.000    9.600 
#    0.000    2.000    0.000    0.000    0.000    0.000 
#    0.000    0.000    0.000    0.000    0.000    0.000 
#
# Total GULP energy -495522.560041 kJ/mol
# GULP energy per Si atom -12388.064001 kJ/mol
# Density = 2.050199 g / cm^3
# Si number density = 20.548755 Si / 1000 Ang^3
#
#
#
# Elastic Constant Matrix: (Units=GPa)
#
#
# Indices 1 2 3 4 5 6 
#
# 1 140.2568 56.9764 101.6318 0.0000 0.0000 0.0000
# 2 56.9764 113.2017 59.1094 0.0000 0.0000 0.0000
# 3 101.6318 59.1094 170.9561 0.0000 0.0000 0.0000
# 4 0.0000 0.0000 0.0000 29.9810 0.0000 0.0000
# 5 0.0000 0.0000 0.0000 0.0000 39.9860 0.0000
# 6 0.0000 0.0000 0.0000 0.0000 0.0000 27.8387
#
#
#
# Elastic Compliance Matrix: (Units=1/GPa)
#
#
# Indices 1 2 3 4 5 6 
#
# 1 0.013387 -0.003151 -0.006869 0.000000 0.000000 0.000000
# 2 -0.003151 0.011522 -0.002110 0.000000 0.000000 0.000000
# 3 -0.006869 -0.002110 0.010663 0.000000 0.000000 0.000000
# 4 0.000000 0.000000 0.000000 0.033354 0.000000 0.000000
# 5 0.000000 0.000000 0.000000 0.000000 0.025009 0.000000
# 6 0.000000 0.000000 0.000000 0.000000 0.000000 0.035921
#
#
# Mechanical properties :
#
#
# Convention : Reuss Voigt Hill
#
# Bulk Modulus (GPa) = 88.41375 95.53885 91.97630
# Shear Modulus (GPa) = 31.66806 33.34096 32.50451
#
# Velocity S-wave (km/s) = 3.92997 4.03243 3.98153
# Velocity P-wave (km/s) = 7.98202 8.26289 8.12367
#
# Compressibility (1/GPa) = 0.01131046
#
# Stress axis : x y z
#
# Youngs Moduli (GPa) = 74.69745 86.79171 93.78494
#
# Poissons Ratio (x) = 0.27351 0.64421
# Poissons Ratio (y) = 0.23540 0.19792
# Poissons Ratio (z) = 0.51310 0.18316
#
# Static dielectric constant tensor:
#      x y z
#    x 4.550590 0.000000 0.000000 
#    y 0.000000 4.624030 0.000000 
#    z 0.000000 0.000000 3.944230 
# 
# 
# High freq. dielectric constant tensor:
#      x y z
#    x 1.814780 0.000000 0.000000 
#    y 0.000000 1.817240 0.000000 
#    z 0.000000 0.000000 1.796300 
# 
# From -- ./inp_files/19877.got.cif
#   From: 2010.03.12/outbox.cif.g09.slc.cpg/sg59_10_cif.got.tgz:19877.got - 2010.04.16 16:29:54.
