data_PCOD8243338
_publ_section_title
;
Structure prediction by ZEFSAII (Michael W. Deem and Ramdas Pophale) SiO2 
 PCOD8243338
Probable space group: P M M N
;
_chemical_formula_sum "Si O2"
_cell_formula_units_Z 64
_cell_length_a 9.289949
_cell_length_b 30.633399
_cell_length_c 11.957966
_cell_angle_alpha 90.000000
_cell_angle_beta 90.000000
_cell_angle_gamma 90.000000
_cell_volume 3403.030423
_symmetry_space_group_name_H-M "P M M N"
_symmetry_group_IT_number 59
_space_group.IT_coordinate_system_code '2'
_symmetry_cell_setting 'orthorhombic'
loop_
_space_group_symop_operation_xyz
x,y,z
1/2-x,1/2-y,z
1/2+x,-y,-z
-x,1/2+y,-z
-x,-y,-z
1/2+x,1/2+y,-z
1/2-x,y,z
x,1/2-y,z
loop_
_atom_site_type_symbol
_atom_site_label
_atom_site_fract_x
_atom_site_fract_y
_atom_site_fract_z
Si Si1 0.580521 0.876925 0.879573
Si Si2 0.416265 0.045508 0.718906
Si Si3 0.915137 0.700369 0.717002
Si Si4 0.085373 0.298376 0.714422
Si Si5 0.417924 0.824254 0.496741
Si Si6 0.583889 0.052752 0.261036
Si Si7 0.920855 0.624474 0.130662
Si Si8 0.916631 0.425718 0.508941
O O1 0.750000 0.885238 0.879609
O O2 0.540783 0.831878 0.817515
O O3 0.508788 0.918331 0.821808
O O4 0.517525 0.874064 0.005141
O O5 0.250000 0.054951 0.692965
O O6 0.477603 0.081057 0.806439
O O7 0.497320 0.047474 0.601323
O O8 0.437527 0.997773 0.772649
O O9 0.750000 0.692252 0.680558
O O10 0.936958 0.750000 0.759077
O O11 0.017258 0.691058 0.613345
O O12 0.250000 0.310297 0.683382
O O13 0.076059 0.250000 0.767833
O O14 0.022437 0.332922 0.803362
O O15 0.992645 0.297875 0.602122
O O16 0.250000 0.813214 0.498532
O O17 0.448322 0.874866 0.475774
O O18 0.750000 0.067295 0.251902
O O19 0.528436 0.059747 0.387261
O O20 0.750000 0.624897 0.125291
O O21 0.750000 0.437181 0.523909
#
# Coordination Sequence:
#
# PCOD8243338 Si02
#       8
#     8   8   8   8   8   8   8   8
#     4  10  21  37  57  78 105 142 181 224 268 312
#     4  10  20  35  58  81 107 143 178 218 269 322
#     4  10  21  36  55  80 107 138 179 221 262 314
#     4  10  20  35  57  82 109 143 180 220 267 321
#     4  11  21  34  55  81 111 144 174 214 270 324
#     4  10  21  37  55  80 111 142 177 219 268 323
#     4   9  19  36  55  79 107 137 180 226 266 311
#     4  10  20  34  53  79 111 140 174 220 266 319
#
# _framework density 18.806766
#
# number of rings (size 3 to 8) (size 9 to 14) (size 15 to 20)
#    0.000    2.000    2.500    1.125    0.000    4.500 
#    0.000    3.750    0.000    0.000    0.000    1.750 
#    0.000    0.000    0.000    0.000    0.000    0.000 
#
# Total GULP energy -793766.039854 kJ/mol
# GULP energy per Si atom -12402.594373 kJ/mol
# Density = 1.876396 g / cm^3
# Si number density = 18.806766 Si / 1000 Ang^3
#
#
#
# Elastic Constant Matrix: (Units=GPa)
#
#
# Indices 1 2 3 4 5 6 
#
# 1 47.4958 47.6994 44.6013 0.0000 0.0000 0.0000
# 2 47.6994 91.2609 63.0780 0.0000 0.0000 0.0000
# 3 44.6013 63.0780 149.9372 0.0000 0.0000 0.0000
# 4 0.0000 0.0000 0.0000 17.0486 0.0000 0.0000
# 5 0.0000 0.0000 0.0000 0.0000 11.9794 0.0000
# 6 0.0000 0.0000 0.0000 0.0000 0.0000 22.6526
#
#
#
# Elastic Compliance Matrix: (Units=1/GPa)
#
#
# Indices 1 2 3 4 5 6 
#
# 1 0.046965 -0.020996 -0.005137 0.000000 0.000000 0.000000
# 2 -0.020996 0.024837 -0.004203 0.000000 0.000000 0.000000
# 3 -0.005137 -0.004203 0.009966 0.000000 0.000000 0.000000
# 4 0.000000 0.000000 0.000000 0.058656 0.000000 0.000000
# 5 0.000000 0.000000 0.000000 0.000000 0.083476 0.000000
# 6 0.000000 0.000000 0.000000 0.000000 0.000000 0.044145
#
#
# Mechanical properties :
#
#
# Convention : Reuss Voigt Hill
#
# Bulk Modulus (GPa) = 47.40647 66.60569 57.00608
# Shear Modulus (GPa) = 14.89200 19.22380 17.05790
#
# Velocity S-wave (km/s) = 2.81702 3.20062 3.01493
# Velocity P-wave (km/s) = 5.98688 7.01080 6.51897
#
# Compressibility (1/GPa) = 0.02109417
#
# Stress axis : x y z
#
# Youngs Moduli (GPa) = 21.29230 40.26266 100.34217
#
# Poissons Ratio (x) = 0.84537 0.51551
# Poissons Ratio (y) = 0.44706 0.42174
# Poissons Ratio (z) = 0.10939 0.16923
#
# Static dielectric constant tensor:
#      x y z
#    x 3.251800 0.000000 0.000000 
#    y 0.000000 3.654550 0.000000 
#    z 0.000000 0.000000 3.479680 
# 
# 
# High freq. dielectric constant tensor:
#      x y z
#    x 1.709580 0.000000 0.000000 
#    y 0.000000 1.747150 0.000000 
#    z 0.000000 0.000000 1.723600 
# 
# From -- ./inp_files/14910.got.cif
#   From: 2010.03.12/outbox.cif.g09.slc.cpg/sg59_8_cif.got.tgz:14910.got - 2010.04.16 16:29:54.
