data_PCOD8243541
_publ_section_title
;
Structure prediction by ZEFSAII (Michael W. Deem and Ramdas Pophale) SiO2 
 PCOD8243541
Probable space group: P M M N
;
_chemical_formula_sum "Si O2"
_cell_formula_units_Z 64
_cell_length_a 23.263965
_cell_length_b 9.308045
_cell_length_c 15.696621
_cell_angle_alpha 90.000000
_cell_angle_beta 90.000000
_cell_angle_gamma 90.000000
_cell_volume 3398.978224
_symmetry_space_group_name_H-M "P M M N"
_symmetry_group_IT_number 59
_space_group.IT_coordinate_system_code '2'
_symmetry_cell_setting 'orthorhombic'
loop_
_space_group_symop_operation_xyz
x,y,z
1/2-x,1/2-y,z
1/2+x,-y,-z
-x,1/2+y,-z
-x,-y,-z
1/2+x,1/2+y,-z
1/2-x,y,z
x,1/2-y,z
loop_
_atom_site_type_symbol
_atom_site_label
_atom_site_fract_x
_atom_site_fract_y
_atom_site_fract_z
Si Si1 0.316226 0.415420 0.176314
Si Si2 0.416475 0.914623 0.233085
Si Si3 0.000953 0.414428 0.912019
Si Si4 0.687238 0.579221 0.013760
Si Si5 0.616073 0.579804 0.169794
Si Si6 0.024070 0.415462 0.377408
Si Si7 0.418699 0.414627 0.550994
Si Si8 0.184493 0.418903 0.666056
O O1 0.250000 0.437087 0.200433
O O2 0.334311 0.250000 0.187826
O O3 0.353921 0.512855 0.238871
O O4 0.329482 0.470838 0.080858
O O5 0.411628 0.750000 0.261128
O O6 0.440842 0.931263 0.137083
O O7 0.458646 0.994474 0.296235
O O8 0.013689 0.250000 0.937300
O O9 0.049658 0.466067 0.843424
O O10 0.000000 0.500000 0.000000
O O11 0.750000 0.520182 0.037202
O O12 0.687606 0.750000 0.014242
O O13 0.645178 0.515887 0.084563
O O14 0.622303 0.750000 0.175053
O O15 0.647946 0.516046 0.253674
O O16 0.015569 0.250000 0.352441
O O17 0.073808 0.431470 0.449413
O O18 0.962874 0.476601 0.406026
O O19 0.433030 0.250000 0.578727
O O20 0.353407 0.453409 0.581079
O O21 0.250000 0.484060 0.659926
O O22 0.191173 0.250000 0.678099
#
# Coordination Sequence:
#
# PCOD8243541 Si02
#       8
#     8   8   8   8   8   8   8   8
#     4   9  18  33  52  72  96 130 172 215 256 301
#     4  11  22  35  52  76 106 135 167 212 264 314
#     4  10  21  34  49  72 103 140 176 215 262 308
#     4   8  13  22  39  64  92 123 161 203 241 280
#     4   9  15  24  41  67  99 131 165 204 247 299
#     4  10  20  34  55  79 102 136 178 217 263 317
#     4   9  18  34  54  78 107 134 169 218 266 314
#     4   9  16  27  47  75 106 138 169 207 260 319
#
# _framework density 18.829187000000001
#
# number of rings (size 3 to 8) (size 9 to 14) (size 15 to 20)
#    0.000    2.625    0.000    3.375    0.000    6.250 
#    0.000    0.625    0.000    2.625    0.000    0.000 
#    0.000    4.000    0.000    0.000    0.000    0.000 
#
# Total GULP energy -793083.990638 kJ/mol
# GULP energy per Si atom -12391.937354 kJ/mol
# Density = 1.878633 g / cm^3
# Si number density = 18.829187 Si / 1000 Ang^3
#
#
#
# Elastic Constant Matrix: (Units=GPa)
#
#
# Indices 1 2 3 4 5 6 
#
# 1 108.0724 34.1025 31.0257 0.0000 0.0000 0.0000
# 2 34.1025 66.2492 27.3060 0.0000 0.0000 0.0000
# 3 31.0257 27.3060 57.5075 0.0000 0.0000 0.0000
# 4 0.0000 0.0000 0.0000 22.8762 0.0000 0.0000
# 5 0.0000 0.0000 0.0000 0.0000 33.1483 0.0000
# 6 0.0000 0.0000 0.0000 0.0000 0.0000 23.6198
#
#
#
# Elastic Compliance Matrix: (Units=1/GPa)
#
#
# Indices 1 2 3 4 5 6 
#
# 1 0.011864 -0.004313 -0.004353 0.000000 0.000000 0.000000
# 2 -0.004313 0.020335 -0.007329 0.000000 0.000000 0.000000
# 3 -0.004353 -0.007329 0.023217 0.000000 0.000000 0.000000
# 4 0.000000 0.000000 0.000000 0.043714 0.000000 0.000000
# 5 0.000000 0.000000 0.000000 0.000000 0.030167 0.000000
# 6 0.000000 0.000000 0.000000 0.000000 0.000000 0.042337
#
#
# Mechanical properties :
#
#
# Convention : Reuss Voigt Hill
#
# Bulk Modulus (GPa) = 42.68509 46.29973 44.49241
# Shear Modulus (GPa) = 23.64820 25.22185 24.43503
#
# Velocity S-wave (km/s) = 3.54776 3.66390 3.60630
# Velocity P-wave (km/s) = 6.28498 6.52239 6.40479
#
# Compressibility (1/GPa) = 0.02342739
#
# Stress axis : x y z
#
# Youngs Moduli (GPa) = 84.29180 49.17530 43.07140
#
# Poissons Ratio (x) = 0.21209 0.18747
# Poissons Ratio (y) = 0.36354 0.31567
# Poissons Ratio (z) = 0.36689 0.36040
#
# Static dielectric constant tensor:
#      x y z
#    x 3.616030 0.000000 0.000000 
#    y 0.000000 3.060220 0.000000 
#    z 0.000000 0.000000 3.503400 
# 
# 
# High freq. dielectric constant tensor:
#      x y z
#    x 1.737690 0.000000 0.000000 
#    y 0.000000 1.686310 0.000000 
#    z 0.000000 0.000000 1.724730 
# 
# From -- ./inp_files/24779.got.cif
#   From: 2010.03.12/outbox.cif.g09.slc.cpg/sg59_13_cif.got.tgz:24779.got - 2010.04.16 16:29:54.
