data_PCOD8243571
_publ_section_title
;
Structure prediction by ZEFSAII (Michael W. Deem and Ramdas Pophale) SiO2 
 PCOD8243571
Probable space group: P M M N
;
_chemical_formula_sum "Si O2"
_cell_formula_units_Z 48
_cell_length_a 9.552792
_cell_length_b 9.066452
_cell_length_c 29.209630
_cell_angle_alpha 90.000000
_cell_angle_beta 90.000000
_cell_angle_gamma 90.000000
_cell_volume 2529.844014
_symmetry_space_group_name_H-M "P M M N"
_symmetry_group_IT_number 59
_space_group.IT_coordinate_system_code '2'
_symmetry_cell_setting 'orthorhombic'
loop_
_space_group_symop_operation_xyz
x,y,z
1/2-x,1/2-y,z
1/2+x,-y,-z
-x,1/2+y,-z
-x,-y,-z
1/2+x,1/2+y,-z
1/2-x,y,z
x,1/2-y,z
loop_
_atom_site_type_symbol
_atom_site_label
_atom_site_fract_x
_atom_site_fract_y
_atom_site_fract_z
Si Si1 0.914553 0.921821 0.119850
Si Si2 0.915124 0.574691 0.959119
Si Si3 0.493184 0.578555 0.389230
Si Si4 0.909228 0.420069 0.791067
Si Si5 0.750000 0.918034 0.451672
Si Si6 0.750000 0.075559 0.547300
Si Si7 0.588155 0.578225 0.699075
O O1 0.750000 0.966853 0.118365
O O2 0.931294 0.750000 0.106435
O O3 0.978408 0.953711 0.169594
O O4 0.008351 0.020649 0.086558
O O5 0.750000 0.528661 0.959667
O O6 0.928421 0.750000 0.963252
O O7 0.000000 0.500000 0.000000
O O8 0.471168 0.750000 0.377727
O O9 0.626613 0.542814 0.418336
O O10 0.377429 0.515061 0.423220
O O11 0.501401 0.493137 0.341423
O O12 0.750000 0.463819 0.806212
O O13 0.913221 0.250000 0.776967
O O14 0.959720 0.513049 0.747578
O O15 0.750000 0.750000 0.468548
O O16 0.750000 0.016274 0.496318
O O17 0.750000 0.250000 0.542834
O O18 0.750000 0.540058 0.690154
O O19 0.557980 0.750000 0.700223
#
# Coordination Sequence:
#
# PCOD8243571 Si02
#       7
#     8   8   8   8   4   4   8
#     4  10  21  38  60  88 120 154 195 239 287 345
#     4  11  24  40  60  88 121 159 202 247 294 343
#     4  10  20  36  55  77 105 139 177 217 266 324
#     4   9  18  34  57  81 108 146 187 229 279 334
#     4  10  22  36  52  78 108 138 172 216 267 320
#     4  10  20  34  56  78 102 138 178 216 261 322
#     4  10  20  34  55  82 107 137 181 230 275 322
#
# _framework density 18.973502
#
# number of rings (size 3 to 8) (size 9 to 14) (size 15 to 20)
#    0.000    2.000    0.833    2.500    0.000    7.000 
#    1.500    1.667    0.000    0.000    0.000    0.000 
#    0.000    0.000    0.000    0.000    0.000    0.000 
#
# Total GULP energy -595064.695565 kJ/mol
# GULP energy per Si atom -12397.181158 kJ/mol
# Density = 1.893032 g / cm^3
# Si number density = 18.973502 Si / 1000 Ang^3
#
#
#
# Elastic Constant Matrix: (Units=GPa)
#
#
# Indices 1 2 3 4 5 6 
#
# 1 136.7568 49.8488 65.3949 0.0000 0.0000 0.0000
# 2 49.8488 71.9622 67.4650 0.0000 0.0000 0.0000
# 3 65.3949 67.4650 138.5848 0.0000 0.0000 0.0000
# 4 0.0000 0.0000 0.0000 39.7252 0.0000 0.0000
# 5 0.0000 0.0000 0.0000 0.0000 -310.0623 0.0000
# 6 0.0000 0.0000 0.0000 0.0000 0.0000 40.9976
#
#
#
# Elastic Compliance Matrix: (Units=1/GPa)
#
#
# Indices 1 2 3 4 5 6 
#
# 1 0.010246 -0.004718 -0.002538 0.000000 0.000000 0.000000
# 2 -0.004718 0.027735 -0.011276 0.000000 0.000000 0.000000
# 3 -0.002538 -0.011276 0.013903 0.000000 0.000000 0.000000
# 4 0.000000 0.000000 0.000000 0.025173 0.000000 0.000000
# 5 0.000000 0.000000 0.000000 0.000000 -0.003225 0.000000
# 6 0.000000 0.000000 0.000000 0.000000 0.000000 0.024392
#
#
# Mechanical properties :
#
#
# Convention : Reuss Voigt Hill
#
# Bulk Modulus (GPa) = 67.47427 79.19126 73.33276
# Shear Modulus (GPa) = 35.65678 -34.89489 0.38095
#
# Velocity S-wave (km/s) = 4.33978 -4.29317 0.44857
# Velocity P-wave (km/s) = 7.79431 4.15372 6.24518
#
# Compressibility (1/GPa) = 0.01482046
#
# Stress axis : x y z
#
# Youngs Moduli (GPa) = 97.60358 36.05517 71.92938
#
# Poissons Ratio (x) = 0.17010 0.18255
# Poissons Ratio (y) = 0.46048 0.81105
# Poissons Ratio (z) = 0.24771 0.40655
#
# Static dielectric constant tensor:
#      x y z
#    x 3.598120 0.000000 0.000000 
#    y 0.000000 3.365150 0.000000 
#    z 0.000000 0.000000 3.517590 
# 
# 
# High freq. dielectric constant tensor:
#      x y z
#    x 1.739770 0.000000 0.000000 
#    y 0.000000 1.731080 0.000000 
#    z 0.000000 0.000000 1.750540 
# 
# From -- ./inp_files/33103.got.cif
#   From: 2010.03.12/outbox.cif.g09.slc.cpg/sg59_17_cif.got.tgz:33103.got - 2010.04.16 16:29:54.
