data_PCOD8243588
_publ_section_title
;
Structure prediction by ZEFSAII (Michael W. Deem and Ramdas Pophale) SiO2 
 PCOD8243588
Probable space group: P M M N
;
_chemical_formula_sum "Si O2"
_cell_formula_units_Z 48
_cell_length_a 9.249591
_cell_length_b 9.141592
_cell_length_c 30.914188
_cell_angle_alpha 90.000000
_cell_angle_beta 90.000000
_cell_angle_gamma 90.000000
_cell_volume 2613.979681
_symmetry_space_group_name_H-M "P M M N"
_symmetry_group_IT_number 59
_space_group.IT_coordinate_system_code '2'
_symmetry_cell_setting 'orthorhombic'
loop_
_space_group_symop_operation_xyz
x,y,z
1/2-x,1/2-y,z
1/2+x,-y,-z
-x,1/2+y,-z
-x,-y,-z
1/2+x,1/2+y,-z
1/2-x,y,z
x,1/2-y,z
loop_
_atom_site_type_symbol
_atom_site_label
_atom_site_fract_x
_atom_site_fract_y
_atom_site_fract_z
Si Si1 0.419761 0.079514 0.884185
Si Si2 0.421401 0.585766 0.367171
Si Si3 0.580005 0.577480 0.960739
Si Si4 0.586908 0.421710 0.536990
Si Si5 0.588959 0.422983 0.294721
Si Si6 0.078828 0.587841 0.799971
O O1 0.250000 0.049506 0.892532
O O2 0.455899 0.250000 0.889483
O O3 0.514473 0.985681 0.916896
O O4 0.468173 0.027880 0.836430
O O5 0.250000 0.576797 0.365854
O O6 0.473438 0.750000 0.356729
O O7 0.475079 0.539684 0.415232
O O8 0.484599 0.478384 0.331808
O O9 0.750000 0.542592 0.963028
O O10 0.550720 0.750000 0.963074
O O11 0.500000 0.500000 0.000000
O O12 0.500000 0.500000 0.500000
O O13 0.750000 0.478360 0.533594
O O14 0.578540 0.250000 0.529321
O O15 0.750000 0.488008 0.301669
O O16 0.594822 0.250000 0.297150
O O17 0.526230 0.468200 0.247290
O O18 0.250000 0.600584 0.797719
O O19 0.015412 0.750000 0.810648
#
# Coordination Sequence:
#
# PCOD8243588 Si02
#       6
#     8   8   8   8   8   8
#     4  10  20  34  55  83 110 137 173 214 256 304
#     4   9  19  35  51  69  98 134 168 203 248 302
#     4  11  24  40  58  81 108 139 176 215 256 305
#     4   9  19  35  52  71  97 128 163 205 251 300
#     4   9  18  32  51  77 105 132 168 212 253 297
#     4   8  15  30  51  74 103 138 172 208 252 299
#
# _framework density 18.362805999999999
#
# number of rings (size 3 to 8) (size 9 to 14) (size 15 to 20)
#    0.000    2.667    0.000    3.500    0.000    7.333 
#    0.000    7.500    0.000    1.000    0.000    0.000 
#    0.000    0.000    0.000    0.000    0.000    0.000 
#
# Total GULP energy -595025.074773 kJ/mol
# GULP energy per Si atom -12396.355724 kJ/mol
# Density = 1.832101 g / cm^3
# Si number density = 18.362806 Si / 1000 Ang^3
#
#
#
# Elastic Constant Matrix: (Units=GPa)
#
#
# Indices 1 2 3 4 5 6 
#
# 1 57.8122 41.5747 56.5022 0.0000 0.0000 0.0000
# 2 41.5747 75.4837 64.6904 0.0000 0.0000 0.0000
# 3 56.5022 64.6904 162.4572 0.0000 0.0000 0.0000
# 4 0.0000 0.0000 0.0000 38.7295 0.0000 0.0000
# 5 0.0000 0.0000 0.0000 0.0000 28.0618 0.0000
# 6 0.0000 0.0000 0.0000 0.0000 0.0000 28.9182
#
#
#
# Elastic Compliance Matrix: (Units=1/GPa)
#
#
# Indices 1 2 3 4 5 6 
#
# 1 0.032422 -0.012438 -0.006324 0.000000 0.000000 0.000000
# 2 -0.012438 0.024883 -0.005582 0.000000 0.000000 0.000000
# 3 -0.006324 -0.005582 0.010578 0.000000 0.000000 0.000000
# 4 0.000000 0.000000 0.000000 0.025820 0.000000 0.000000
# 5 0.000000 0.000000 0.000000 0.000000 0.035636 0.000000
# 6 0.000000 0.000000 0.000000 0.000000 0.000000 0.034580
#
#
# Mechanical properties :
#
#
# Convention : Reuss Voigt Hill
#
# Bulk Modulus (GPa) = 52.09784 69.03195 60.56490
# Shear Modulus (GPa) = 22.83057 28.00762 25.41910
#
# Velocity S-wave (km/s) = 3.52988 3.90966 3.72462
# Velocity P-wave (km/s) = 6.71166 7.61942 7.17990
#
# Compressibility (1/GPa) = 0.01919465
#
# Stress axis : x y z
#
# Youngs Moduli (GPa) = 30.84303 40.18873 94.53891
#
# Poissons Ratio (x) = 0.49987 0.59782
# Poissons Ratio (y) = 0.38363 0.52775
# Poissons Ratio (z) = 0.19504 0.22435
#
# Static dielectric constant tensor:
#      x y z
#    x 3.323890 0.000000 0.000000 
#    y 0.000000 3.318870 0.000000 
#    z 0.000000 0.000000 3.724930 
# 
# 
# High freq. dielectric constant tensor:
#      x y z
#    x 1.687530 0.000000 0.000000 
#    y 0.000000 1.709450 0.000000 
#    z 0.000000 0.000000 1.730650 
# 
# From -- ./inp_files/33257.got.cif
#   From: 2010.03.12/outbox.cif.g09.slc.cpg/sg59_17_cif.got.tgz:33257.got - 2010.04.16 16:29:54.
