data_PCOD8243471
_publ_section_title
;
Structure prediction by ZEFSAII (Michael W. Deem and Ramdas Pophale) SiO2 
 PCOD8243471
Probable space group: P M M N
;
_chemical_formula_sum "Si O2"
_cell_formula_units_Z 56
_cell_length_a 14.259126
_cell_length_b 8.872857
_cell_length_c 23.098009
_cell_angle_alpha 90.000000
_cell_angle_beta 90.000000
_cell_angle_gamma 90.000000
_cell_volume 2922.341296
_symmetry_space_group_name_H-M "P M M N"
_symmetry_group_IT_number 59
_space_group.IT_coordinate_system_code '2'
_symmetry_cell_setting 'orthorhombic'
loop_
_space_group_symop_operation_xyz
x,y,z
1/2-x,1/2-y,z
1/2+x,-y,-z
-x,1/2+y,-z
-x,-y,-z
1/2+x,1/2+y,-z
1/2-x,y,z
x,1/2-y,z
loop_
_atom_site_type_symbol
_atom_site_label
_atom_site_fract_x
_atom_site_fract_y
_atom_site_fract_z
Si Si1 0.858447 0.923976 0.533631
Si Si2 0.856481 0.425953 0.411160
Si Si3 0.351507 0.925820 0.897481
Si Si4 0.043223 0.571856 0.139865
Si Si5 0.593234 0.424597 0.981220
Si Si6 0.355997 0.929467 0.253733
Si Si7 0.471207 0.928376 0.364827
O O1 0.750000 0.942956 0.550009
O O2 0.889982 0.750000 0.536501
O O3 0.878576 0.985966 0.470011
O O4 0.917680 0.023202 0.577545
O O5 0.750000 0.455495 0.390389
O O6 0.874850 0.250000 0.421334
O O7 0.926688 0.492099 0.362713
O O8 0.250000 0.967129 0.869045
O O9 0.374155 0.750000 0.889611
O O10 0.436220 0.014779 0.867572
O O11 0.335503 0.962647 0.966726
O O12 0.036353 0.750000 0.146101
O O13 0.111596 0.522911 0.085496
O O14 0.090955 0.504191 0.197314
O O15 0.574539 0.250000 0.977199
O O16 0.500000 0.500000 0.000000
O O17 0.250000 0.993627 0.255989
O O18 0.352872 0.750000 0.251755
O O19 0.412290 0.986177 0.309820
O O20 0.484477 0.750000 0.363783
#
# Coordination Sequence:
#
# PCOD8243471 Si02
#       7
#     8   8   8   8   8   8   8
#     4  10  20  34  54  81 111 140 171 208 250 299
#     4  10  21  37  56  78 105 136 170 209 253 302
#     4   9  17  29  46  71 103 135 164 198 247 305
#     4   9  17  31  51  73  97 128 168 212 251 290
#     4   8  14  25  43  67  94 124 159 199 243 289
#     4   9  19  35  54  76 100 128 166 210 253 297
#     4  11  21  34  54  77 104 137 171 210 255 302
#
# _framework density 19.162718000000002
#
# number of rings (size 3 to 8) (size 9 to 14) (size 15 to 20)
#    0.000    2.571    0.000    2.143    0.000    3.143 
#    0.000    5.000    0.000    6.429    0.000    4.000 
#    0.000    0.000    0.000    0.000    0.000    0.000 
#
# Total GULP energy -693750.694793 kJ/mol
# GULP energy per Si atom -12388.405264 kJ/mol
# Density = 1.911910 g / cm^3
# Si number density = 19.162718 Si / 1000 Ang^3
#
#
#
# Elastic Constant Matrix: (Units=GPa)
#
#
# Indices 1 2 3 4 5 6 
#
# 1 130.9313 26.2244 70.8485 0.0000 0.0000 0.0000
# 2 26.2244 30.5171 17.8252 0.0000 0.0000 0.0000
# 3 70.8485 17.8252 87.2561 0.0000 0.0000 0.0000
# 4 0.0000 0.0000 0.0000 18.8865 0.0000 0.0000
# 5 0.0000 0.0000 0.0000 0.0000 25.7369 0.0000
# 6 0.0000 0.0000 0.0000 0.0000 0.0000 26.9166
#
#
#
# Elastic Compliance Matrix: (Units=1/GPa)
#
#
# Indices 1 2 3 4 5 6 
#
# 1 0.014648 -0.006405 -0.010585 0.000000 0.000000 0.000000
# 2 -0.006405 0.040009 -0.002973 0.000000 0.000000 0.000000
# 3 -0.010585 -0.002973 0.020663 0.000000 0.000000 0.000000
# 4 0.000000 0.000000 0.000000 0.052948 0.000000 0.000000
# 5 0.000000 0.000000 0.000000 0.000000 0.038855 0.000000
# 6 0.000000 0.000000 0.000000 0.000000 0.000000 0.037152
#
#
# Mechanical properties :
#
#
# Convention : Reuss Voigt Hill
#
# Bulk Modulus (GPa) = 28.25356 53.16674 40.71015
# Shear Modulus (GPa) = 19.53138 23.22843 21.37990
#
# Velocity S-wave (km/s) = 3.19602 3.48540 3.34384
# Velocity P-wave (km/s) = 5.32873 6.63343 6.01655
#
# Compressibility (1/GPa) = 0.03539377
#
# Stress axis : x y z
#
# Youngs Moduli (GPa) = 68.26718 24.99454 48.39615
#
# Poissons Ratio (x) = 0.16008 0.51230
# Poissons Ratio (y) = 0.43724 0.14387
# Poissons Ratio (z) = 0.72264 0.07430
#
# Static dielectric constant tensor:
#      x y z
#    x 3.617390 0.000000 0.000000 
#    y 0.000000 3.283550 0.000000 
#    z 0.000000 0.000000 3.355900 
# 
# 
# High freq. dielectric constant tensor:
#      x y z
#    x 1.751430 0.000000 0.000000 
#    y 0.000000 1.728250 0.000000 
#    z 0.000000 0.000000 1.733680 
# 
# From -- ./inp_files/30338.got.cif
#   From: 2010.03.12/outbox.cif.g09.slc.cpg/sg59_16_cif.got.tgz:30338.got - 2010.04.16 16:29:54.
