data_PCOD8243305
_publ_section_title
;
Structure prediction by ZEFSAII (Michael W. Deem and Ramdas Pophale) SiO2 
 PCOD8243305
Probable space group: P M M N
;
_chemical_formula_sum "Si O2"
_cell_formula_units_Z 48
_cell_length_a 30.114722
_cell_length_b 8.807370
_cell_length_c 9.902935
_cell_angle_alpha 90.000000
_cell_angle_beta 90.000000
_cell_angle_gamma 90.000000
_cell_volume 2626.570296
_symmetry_space_group_name_H-M "P M M N"
_symmetry_group_IT_number 59
_space_group.IT_coordinate_system_code '2'
_symmetry_cell_setting 'orthorhombic'
loop_
_space_group_symop_operation_xyz
x,y,z
1/2-x,1/2-y,z
1/2+x,-y,-z
-x,1/2+y,-z
-x,-y,-z
1/2+x,1/2+y,-z
1/2-x,y,z
x,1/2-y,z
loop_
_atom_site_type_symbol
_atom_site_label
_atom_site_fract_x
_atom_site_fract_y
_atom_site_fract_z
Si Si1 0.635461 0.572057 0.876315
Si Si2 0.960976 0.082078 0.167922
Si Si3 0.802121 0.075226 0.664315
Si Si4 0.046561 0.582024 0.152107
Si Si5 0.137110 0.930219 0.834243
Si Si6 0.301512 0.074568 0.614159
O O1 0.635822 0.750000 0.907410
O O2 0.673818 0.530841 0.771864
O O3 0.587880 0.526267 0.812167
O O4 0.645031 0.479974 0.012335
O O5 0.969489 0.250000 0.225715
O O6 0.912575 0.022780 0.215200
O O7 0.960686 0.087071 0.006889
O O8 0.001036 0.977172 0.221727
O O9 0.750000 0.051702 0.686017
O O10 0.816218 0.250000 0.683385
O O11 0.816276 0.022461 0.515204
O O12 0.056497 0.750000 0.208886
O O13 0.143831 0.750000 0.825422
O O14 0.172084 0.016725 0.743094
O O15 0.250000 0.049510 0.646940
O O16 0.312296 0.250000 0.586045
#
# Coordination Sequence:
#
# PCOD8243305 Si02
#       6
#     8   8   8   8   8   8
#     4  11  21  33  52  78 108 138 171 215 261 303
#     4   8  15  27  44  69 100 133 169 208 250 297
#     4  10  21  38  58  77 100 134 174 213 256 310
#     4   9  16  27  45  70 101 135 170 207 250 303
#     4  10  20  34  53  78 107 138 174 215 257 303
#     4  10  21  37  56  78 104 135 172 212 256 309
#
# _framework density 18.274781999999998
#
# number of rings (size 3 to 8) (size 9 to 14) (size 15 to 20)
#    0.000    2.333    0.000    4.500    0.000    7.333 
#    0.000    0.000    0.000    1.000    0.000    0.000 
#    0.000    0.000    0.000    0.000    0.000    0.000 
#
# Total GULP energy -595161.638069 kJ/mol
# GULP energy per Si atom -12399.200793 kJ/mol
# Density = 1.823319 g / cm^3
# Si number density = 18.274782 Si / 1000 Ang^3
#
#
#
# Elastic Constant Matrix: (Units=GPa)
#
#
# Indices 1 2 3 4 5 6 
#
# 1 83.2980 35.7034 37.9037 0.0000 0.0000 0.0000
# 2 35.7034 76.8464 8.8332 0.0000 0.0000 0.0000
# 3 37.9037 8.8332 44.1530 0.0000 0.0000 0.0000
# 4 0.0000 0.0000 0.0000 26.8074 0.0000 0.0000
# 5 0.0000 0.0000 0.0000 0.0000 -2.6609 0.0000
# 6 0.0000 0.0000 0.0000 0.0000 0.0000 34.1597
#
#
#
# Elastic Compliance Matrix: (Units=1/GPa)
#
#
# Indices 1 2 3 4 5 6 
#
# 1 0.024859 -0.009311 -0.019478 0.000000 0.000000 0.000000
# 2 -0.009311 0.016807 0.004631 0.000000 0.000000 0.000000
# 3 -0.019478 0.004631 0.038443 0.000000 0.000000 0.000000
# 4 0.000000 0.000000 0.000000 0.037303 0.000000 0.000000
# 5 0.000000 0.000000 0.000000 0.000000 -0.375818 0.000000
# 6 0.000000 0.000000 0.000000 0.000000 0.000000 0.029274
#
#
# Mechanical properties :
#
#
# Convention : Reuss Voigt Hill
#
# Bulk Modulus (GPa) = 31.45372 41.01978 36.23675
# Shear Modulus (GPa) = -29.37410 19.78505 -4.79452
#
# Velocity S-wave (km/s) = -4.01354 3.29392 -1.62150
# Velocity P-wave (km/s) = 2.05646 6.07959 4.04551
#
# Compressibility (1/GPa) = 0.03179274
#
# Stress axis : x y z
#
# Youngs Moduli (GPa) = 40.22678 59.50052 26.01250
#
# Poissons Ratio (x) = 0.55400 0.50667
# Poissons Ratio (y) = 0.37454 -0.12046
# Poissons Ratio (z) = 0.78353 -0.27553
#
# Static dielectric constant tensor:
#      x y z
#    x 3.590910 0.000000 0.000000 
#    y 0.000000 3.578400 0.000000 
#    z 0.000000 0.000000 2.954060 
# 
# 
# High freq. dielectric constant tensor:
#      x y z
#    x 1.718550 0.000000 0.000000 
#    y 0.000000 1.722990 0.000000 
#    z 0.000000 0.000000 1.663290 
# 
# From -- ./inp_files/6254.got.cif
#   From: 2010.03.12/outbox.cif.g09.slc.cpg/sg59_4_cif.got.tgz:6254.got - 2010.04.16 16:29:54.
