data_PCOD8243538
_publ_section_title
;
Structure prediction by ZEFSAII (Michael W. Deem and Ramdas Pophale) SiO2 
 PCOD8243538
Probable space group: P M M N
;
_chemical_formula_sum "Si O2"
_cell_formula_units_Z 52
_cell_length_a 13.334712
_cell_length_b 9.198920
_cell_length_c 22.302007
_cell_angle_alpha 90.000000
_cell_angle_beta 90.000000
_cell_angle_gamma 90.000000
_cell_volume 2735.674549
_symmetry_space_group_name_H-M "P M M N"
_symmetry_group_IT_number 59
_space_group.IT_coordinate_system_code '2'
_symmetry_cell_setting 'orthorhombic'
loop_
_space_group_symop_operation_xyz
x,y,z
1/2-x,1/2-y,z
1/2+x,-y,-z
-x,1/2+y,-z
-x,-y,-z
1/2+x,1/2+y,-z
1/2-x,y,z
x,1/2-y,z
loop_
_atom_site_type_symbol
_atom_site_label
_atom_site_fract_x
_atom_site_fract_y
_atom_site_fract_z
Si Si1 0.041460 0.578428 0.361399
Si Si2 0.635645 0.080326 0.766131
Si Si3 0.640630 0.750000 0.948691
Si Si4 0.634087 0.078155 0.407401
Si Si5 0.030079 0.473481 0.121152
Si Si6 0.868397 0.250000 0.084181
Si Si7 0.131616 0.084458 0.473274
Si Si8 0.530645 0.250000 0.960524
O O1 0.030952 0.750000 0.373992
O O2 0.101854 0.547042 0.301088
O O3 0.102649 0.499311 0.413414
O O4 0.931486 0.502747 0.356343
O O5 0.750000 0.024509 0.774898
O O6 0.630263 0.250000 0.780504
O O7 0.556544 0.999646 0.809437
O O8 0.750000 0.750000 0.975441
O O9 0.622176 0.613341 0.906582
O O10 0.574677 0.750000 0.007305
O O11 0.750000 0.042247 0.395274
O O12 0.614692 0.250000 0.407812
O O13 0.593143 0.009407 0.469790
O O14 0.923181 0.390794 0.113443
O O15 0.032834 0.616595 0.082987
O O16 0.750000 0.250000 0.099658
O O17 0.882517 0.250000 0.011759
O O18 0.250000 0.091055 0.476981
O O19 0.088062 0.250000 0.474491
#
# Coordination Sequence:
#
# PCOD8243538 Si02
#       8
#     8   8   4   8   8   4   8   4
#     4  11  22  36  56  82 113 146 187 239 287 338
#     4  10  21  38  61  85 111 149 193 237 288 345
#     4  10  20  34  54  86 120 150 183 230 292 345
#     4  10  21  38  59  81 109 148 190 233 285 342
#     4  10  20  38  58  83 119 153 195 239 282 340
#     4  10  22  38  58  88 122 158 193 234 295 346
#     4  10  20  35  56  85 117 148 184 230 286 346
#     4  10  20  34  60  88 116 152 192 242 283 335
#
# _framework density 19.008108
#
# number of rings (size 3 to 8) (size 9 to 14) (size 15 to 20)
#    0.000    2.000    0.769    4.615    0.000    5.538 
#    5.538    0.769    0.000    0.923    0.000    0.000 
#    0.000    0.000    0.000    0.000    0.000    0.000 
#
# Total GULP energy -644552.668879 kJ/mol
# GULP energy per Si atom -12395.243632 kJ/mol
# Density = 1.896485 g / cm^3
# Si number density = 19.008108 Si / 1000 Ang^3
#
#
#
# Elastic Constant Matrix: (Units=GPa)
#
#
# Indices 1 2 3 4 5 6 
#
# 1 105.0901 40.4940 44.9453 0.0000 0.0000 0.0000
# 2 40.4940 135.4964 56.6482 0.0000 0.0000 0.0000
# 3 44.9453 56.6482 96.2024 0.0000 0.0000 0.0000
# 4 0.0000 0.0000 0.0000 28.5009 0.0000 0.0000
# 5 0.0000 0.0000 0.0000 0.0000 15.2868 0.0000
# 6 0.0000 0.0000 0.0000 0.0000 0.0000 28.8414
#
#
#
# Elastic Compliance Matrix: (Units=1/GPa)
#
#
# Indices 1 2 3 4 5 6 
#
# 1 0.012171 -0.001672 -0.004702 0.000000 0.000000 0.000000
# 2 -0.001672 0.010020 -0.005119 0.000000 0.000000 0.000000
# 3 -0.004702 -0.005119 0.015606 0.000000 0.000000 0.000000
# 4 0.000000 0.000000 0.000000 0.035087 0.000000 0.000000
# 5 0.000000 0.000000 0.000000 0.000000 0.065416 0.000000
# 6 0.000000 0.000000 0.000000 0.000000 0.000000 0.034672
#
#
# Mechanical properties :
#
#
# Convention : Reuss Voigt Hill
#
# Bulk Modulus (GPa) = 67.51609 68.99599 68.25604
# Shear Modulus (GPa) = 24.88874 27.50590 26.19732
#
# Velocity S-wave (km/s) = 3.62245 3.80815 3.71646
# Velocity P-wave (km/s) = 7.28649 7.46412 7.37584
#
# Compressibility (1/GPa) = 0.01481128
#
# Stress axis : x y z
#
# Youngs Moduli (GPa) = 82.16519 99.79919 64.07831
#
# Poissons Ratio (x) = 0.16682 0.30128
# Poissons Ratio (y) = 0.13734 0.32804
# Poissons Ratio (z) = 0.38632 0.51091
#
# Static dielectric constant tensor:
#      x y z
#    x 3.587470 0.000000 0.000000 
#    y 0.000000 3.666130 0.000000 
#    z 0.000000 0.000000 3.400620 
# 
# 
# High freq. dielectric constant tensor:
#      x y z
#    x 1.744080 0.000000 0.000000 
#    y 0.000000 1.752700 0.000000 
#    z 0.000000 0.000000 1.726310 
# 
# From -- ./inp_files/30281.got.cif
#   From: 2010.03.12/outbox.cif.g09.slc.cpg/sg59_16_cif.got.tgz:30281.got - 2010.04.16 16:29:54.
