data_PCOD8243745
_publ_section_title
;
Structure prediction by ZEFSAII (Michael W. Deem and Ramdas Pophale) SiO2 
 PCOD8243745
Probable space group: P M M N
;
_chemical_formula_sum "Si O2"
_cell_formula_units_Z 48
_cell_length_a 14.652599
_cell_length_b 8.712706
_cell_length_c 19.482312
_cell_angle_alpha 90.000000
_cell_angle_beta 90.000000
_cell_angle_gamma 90.000000
_cell_volume 2487.185734
_symmetry_space_group_name_H-M "P M M N"
_symmetry_group_IT_number 59
_space_group.IT_coordinate_system_code '2'
_symmetry_cell_setting 'orthorhombic'
loop_
_space_group_symop_operation_xyz
x,y,z
1/2-x,1/2-y,z
1/2+x,-y,-z
-x,1/2+y,-z
-x,-y,-z
1/2+x,1/2+y,-z
1/2-x,y,z
x,1/2-y,z
loop_
_atom_site_type_symbol
_atom_site_label
_atom_site_fract_x
_atom_site_fract_y
_atom_site_fract_z
Si Si1 0.354967 0.429324 0.909730
Si Si2 0.441458 0.929027 0.306520
Si Si3 0.750000 0.073541 0.626338
Si Si4 0.250000 0.430703 0.520996
Si Si5 0.854972 0.427641 0.947638
Si Si6 0.555349 0.931302 0.437613
Si Si7 0.016698 0.071166 0.163475
O O1 0.250000 0.474988 0.897602
O O2 0.372051 0.250000 0.899206
O O3 0.413504 0.522948 0.854539
O O4 0.385837 0.474497 0.986430
O O5 0.454070 0.750000 0.288342
O O6 0.338155 0.965011 0.328407
O O7 0.510449 0.982077 0.366215
O O8 0.464871 0.033258 0.242111
O O9 0.750000 0.250000 0.602724
O O10 0.750000 0.972665 0.558603
O O11 0.250000 0.250000 0.526203
O O12 0.340563 0.494264 0.559018
O O13 0.750000 0.460246 0.929181
O O14 0.872066 0.250000 0.964586
O O15 0.913592 0.475408 0.882594
O O16 0.551144 0.750000 0.445603
O O17 0.500000 0.000000 0.500000
O O18 0.031392 0.250000 0.150095
#
# Coordination Sequence:
#
# PCOD8243745 Si02
#       7
#     8   8   4   4   8   8   8
#     4  10  21  40  65  89 115 151 196 242 289 344
#     4  10  22  39  57  82 116 153 195 237 288 349
#     4  10  20  36  60  86 112 149 190 235 288 344
#     4  10  20  34  58  90 116 143 184 239 292 342
#     4  10  21  38  62  90 120 154 194 241 289 342
#     4  10  20  36  59  85 116 149 190 237 284 343
#     4  12  25  39  58  85 120 157 195 241 293 348
#
# _framework density 19.298921
#
# number of rings (size 3 to 8) (size 9 to 14) (size 15 to 20)
#    0.000    1.667    1.667    3.000    1.167    3.333 
#    1.500    0.000    0.000    0.000    0.000    0.000 
#    0.000    0.000    0.000    0.000    0.000    0.000 
#
# Total GULP energy -595406.242181 kJ/mol
# GULP energy per Si atom -12404.296712 kJ/mol
# Density = 1.925500 g / cm^3
# Si number density = 19.298921 Si / 1000 Ang^3
#
#
#
# Elastic Constant Matrix: (Units=GPa)
#
#
# Indices 1 2 3 4 5 6 
#
# 1 142.5114 26.0173 63.9656 0.0000 0.0000 0.0000
# 2 26.0173 39.1008 13.1907 0.0000 0.0000 0.0000
# 3 63.9656 13.1907 95.9474 0.0000 0.0000 0.0000
# 4 0.0000 0.0000 0.0000 35.2789 0.0000 0.0000
# 5 0.0000 0.0000 0.0000 0.0000 25.9296 0.0000
# 6 0.0000 0.0000 0.0000 0.0000 0.0000 25.8043
#
#
#
# Elastic Compliance Matrix: (Units=1/GPa)
#
#
# Indices 1 2 3 4 5 6 
#
# 1 0.010880 -0.005026 -0.006563 0.000000 0.000000 0.000000
# 2 -0.005026 0.029140 -0.000656 0.000000 0.000000 0.000000
# 3 -0.006563 -0.000656 0.014888 0.000000 0.000000 0.000000
# 4 0.000000 0.000000 0.000000 0.028346 0.000000 0.000000
# 5 0.000000 0.000000 0.000000 0.000000 0.038566 0.000000
# 6 0.000000 0.000000 0.000000 0.000000 0.000000 0.038753
#
#
# Mechanical properties :
#
#
# Convention : Reuss Voigt Hill
#
# Bulk Modulus (GPa) = 32.87304 53.76743 43.32024
# Shear Modulus (GPa) = 25.61474 29.02829 27.32152
#
# Velocity S-wave (km/s) = 3.64711 3.88253 3.76666
# Velocity P-wave (km/s) = 5.89965 6.92961 6.43527
#
# Compressibility (1/GPa) = 0.03042006
#
# Stress axis : x y z
#
# Youngs Moduli (GPa) = 91.91149 34.31701 67.17006
#
# Poissons Ratio (x) = 0.17246 0.44081
# Poissons Ratio (y) = 0.46191 0.04404
# Poissons Ratio (z) = 0.60317 0.02250
#
# Static dielectric constant tensor:
#      x y z
#    x 3.994050 0.000000 0.000000 
#    y 0.000000 3.527150 0.000000 
#    z 0.000000 0.000000 3.421520 
# 
# 
# High freq. dielectric constant tensor:
#      x y z
#    x 1.769270 0.000000 0.000000 
#    y 0.000000 1.748490 0.000000 
#    z 0.000000 0.000000 1.743510 
# 
# From -- ./inp_files/27460.got.cif
#   From: 2010.03.12/outbox.cif.g09.slc.cpg/sg59_14_cif.got.tgz:27460.got - 2010.04.16 16:29:54.
