data_PCOD8243529
_publ_section_title
;
Structure prediction by ZEFSAII (Michael W. Deem and Ramdas Pophale) SiO2 
 PCOD8243529
Probable space group: P M M N
;
_chemical_formula_sum "Si O2"
_cell_formula_units_Z 64
_cell_length_a 9.001355
_cell_length_b 14.722505
_cell_length_c 26.035994
_cell_angle_alpha 90.000000
_cell_angle_beta 90.000000
_cell_angle_gamma 90.000000
_cell_volume 3450.354858
_symmetry_space_group_name_H-M "P M M N"
_symmetry_group_IT_number 59
_space_group.IT_coordinate_system_code '2'
_symmetry_cell_setting 'orthorhombic'
loop_
_space_group_symop_operation_xyz
x,y,z
1/2-x,1/2-y,z
1/2+x,-y,-z
-x,1/2+y,-z
-x,-y,-z
1/2+x,1/2+y,-z
1/2-x,y,z
x,1/2-y,z
loop_
_atom_site_type_symbol
_atom_site_label
_atom_site_fract_x
_atom_site_fract_y
_atom_site_fract_z
Si Si1 0.425725 0.903926 0.002095
Si Si2 0.423850 0.144343 0.371207
Si Si3 0.924019 0.491003 0.709101
Si Si4 0.573966 0.502479 0.181636
Si Si5 0.084917 0.149042 0.898161
Si Si6 0.923625 0.644786 0.364802
Si Si7 0.575473 0.151779 0.108249
Si Si8 0.924330 0.008507 0.445505
O O1 0.250000 0.911626 0.004728
O O2 0.481737 0.854566 0.950331
O O3 0.479754 0.851690 0.052430
O O4 0.500000 0.000000 0.000000
O O5 0.250000 0.139136 0.384165
O O6 0.472995 0.250000 0.363527
O O7 0.512078 0.098495 0.418020
O O8 0.461694 0.085016 0.320604
O O9 0.750000 0.475502 0.712951
O O10 0.991850 0.499766 0.764897
O O11 0.991297 0.401432 0.682485
O O12 0.750000 0.496631 0.191381
O O13 0.525991 0.590928 0.149612
O O14 0.507626 0.420416 0.147466
O O15 0.250000 0.114028 0.914196
O O16 0.091385 0.250000 0.876461
O O17 0.750000 0.641109 0.352046
O O18 0.974939 0.750000 0.372671
O O19 0.960454 0.584972 0.415197
O O20 0.750000 0.135574 0.106720
O O21 0.531707 0.250000 0.130067
O O22 0.750000 0.022435 0.452244
O O23 0.000000 0.000000 0.500000
#
# Coordination Sequence:
#
# PCOD8243529 Si02
#       8
#     8   8   8   8   8   8   8   8
#     4  11  20  34  56  79 106 138 174 214 264 320
#     4   9  19  37  58  78 107 149 189 226 275 328
#     4  10  21  36  55  81 109 137 176 229 279 322
#     4  10  20  36  54  75 105 141 177 215 265 324
#     4  10  21  37  55  77 105 138 177 218 263 319
#     4   9  19  37  59  80 105 144 189 225 265 321
#     4   9  18  33  53  76 102 133 171 213 258 313
#     4  10  20  34  54  84 119 151 186 228 270 318
#
# _framework density 18.548815999999999
#
# number of rings (size 3 to 8) (size 9 to 14) (size 15 to 20)
#    0.000    2.250    1.250    1.500    0.000    4.250 
#    0.000    2.500    0.000    1.500    0.000    0.000 
#    0.000    0.000    0.000    0.000    0.000    0.000 
#
# Total GULP energy -793377.836077 kJ/mol
# GULP energy per Si atom -12396.528689 kJ/mol
# Density = 1.850660 g / cm^3
# Si number density = 18.548816 Si / 1000 Ang^3
#
#
#
# Elastic Constant Matrix: (Units=GPa)
#
#
# Indices 1 2 3 4 5 6 
#
# 1 60.1280 44.8976 58.1239 0.0000 0.0000 0.0000
# 2 44.8976 159.7191 75.4667 0.0000 0.0000 0.0000
# 3 58.1239 75.4667 163.1133 0.0000 0.0000 0.0000
# 4 0.0000 0.0000 0.0000 1960.9094 0.0000 0.0000
# 5 0.0000 0.0000 0.0000 0.0000 35.1584 0.0000
# 6 0.0000 0.0000 0.0000 0.0000 0.0000 22.0173
#
#
#
# Elastic Compliance Matrix: (Units=1/GPa)
#
#
# Indices 1 2 3 4 5 6 
#
# 1 0.027160 -0.003919 -0.007865 0.000000 0.000000 0.000000
# 2 -0.003919 0.008578 -0.002572 0.000000 0.000000 0.000000
# 3 -0.007865 -0.002572 0.010124 0.000000 0.000000 0.000000
# 4 0.000000 0.000000 0.000000 0.000510 0.000000 0.000000
# 5 0.000000 0.000000 0.000000 0.000000 0.028443 0.000000
# 6 0.000000 0.000000 0.000000 0.000000 0.000000 0.045419
#
#
# Mechanical properties :
#
#
# Convention : Reuss Voigt Hill
#
# Bulk Modulus (GPa) = 58.31121 82.21520 70.26320
# Shear Modulus (GPa) = 32.32845 417.24849 224.78847
#
# Velocity S-wave (km/s) = 4.17932 15.01448 11.02046
# Velocity P-wave (km/s) = 7.40228 18.57416 14.13848
#
# Compressibility (1/GPa) = 0.01714936
#
# Stress axis : x y z
#
# Youngs Moduli (GPa) = 36.81836 116.57816 98.77902
#
# Poissons Ratio (x) = 0.45681 0.77693
# Poissons Ratio (y) = 0.14427 0.25410
# Poissons Ratio (z) = 0.28959 0.29988
#
# Static dielectric constant tensor:
#      x y z
#    x 1.872120 0.000000 0.000000 
#    y 0.000000 3.599330 0.000000 
#    z 0.000000 0.000000 4.164810 
# 
# 
# High freq. dielectric constant tensor:
#      x y z
#    x 1.706670 0.000000 0.000000 
#    y 0.000000 1.731960 0.000000 
#    z 0.000000 0.000000 1.718170 
# 
# From -- ./inp_files/31424.got.cif
#   From: 2010.03.12/outbox.cif.g09.slc.cpg/sg59_16_cif.got.tgz:31424.got - 2010.04.16 16:29:54.
