data_PCOD8243851
_publ_section_title
;
Structure prediction by ZEFSAII (Michael W. Deem and Ramdas Pophale) SiO2 
 PCOD8243851
Probable space group: P M M N
;
_chemical_formula_sum "Si O2"
_cell_formula_units_Z 48
_cell_length_a 8.821617
_cell_length_b 30.722028
_cell_length_c 9.551669
_cell_angle_alpha 90.000000
_cell_angle_beta 90.000000
_cell_angle_gamma 90.000000
_cell_volume 2588.673890
_symmetry_space_group_name_H-M "P M M N"
_symmetry_group_IT_number 59
_space_group.IT_coordinate_system_code '2'
_symmetry_cell_setting 'orthorhombic'
loop_
_space_group_symop_operation_xyz
x,y,z
1/2-x,1/2-y,z
1/2+x,-y,-z
-x,1/2+y,-z
-x,-y,-z
1/2+x,1/2+y,-z
1/2-x,y,z
x,1/2-y,z
loop_
_atom_site_type_symbol
_atom_site_label
_atom_site_fract_x
_atom_site_fract_y
_atom_site_fract_z
Si Si1 0.928555 0.013447 0.852693
Si Si2 0.427564 0.866417 0.493202
Si Si3 0.573949 0.434829 0.274586
Si Si4 0.922058 0.631566 0.916408
Si Si5 0.924663 0.604067 0.217213
Si Si6 0.426103 0.299447 0.306719
O O1 0.750000 0.012773 0.869545
O O2 0.979948 0.060482 0.802206
O O3 0.979069 0.979343 0.732727
O O4 0.000000 0.000000 0.000000
O O5 0.250000 0.863752 0.464553
O O6 0.469491 0.909097 0.584217
O O7 0.515509 0.868656 0.347863
O O8 0.478808 0.822964 0.572606
O O9 0.750000 0.446463 0.268855
O O10 0.534675 0.405189 0.140743
O O11 0.750000 0.616660 0.881769
O O12 0.956839 0.677817 0.843497
O O13 0.945876 0.635469 0.082693
O O14 0.750000 0.591348 0.239327
O O15 0.250000 0.301972 0.347509
O O16 0.482789 0.250000 0.294329
#
# Coordination Sequence:
#
# PCOD8243851 Si02
#       6
#     8   8   8   8   8   8
#     4  12  23  35  54  80 111 148 190 236 280 326
#     4  10  22  38  56  81 114 150 186 228 282 336
#     4  10  20  35  55  78 106 146 192 234 275 324
#     4   9  18  33  55  81 109 141 180 226 275 327
#     4  11  22  36  55  81 113 150 189 231 279 331
#     4   9  18  36  62  87 109 138 179 226 277 336
#
# _framework density 18.542313
#
# number of rings (size 3 to 8) (size 9 to 14) (size 15 to 20)
#    0.000    1.833    1.667    3.000    0.000    3.667 
#    0.000    0.833    0.000    3.000    0.000    0.000 
#    0.000    0.000    0.000    0.000    0.000    0.000 
#
# Total GULP energy -595328.469616 kJ/mol
# GULP energy per Si atom -12402.676450 kJ/mol
# Density = 1.850011 g / cm^3
# Si number density = 18.542313 Si / 1000 Ang^3
#
#
#
# Elastic Constant Matrix: (Units=GPa)
#
#
# Indices 1 2 3 4 5 6 
#
# 1 98.8208 40.7328 47.1994 0.0000 0.0000 0.0000
# 2 40.7328 113.4739 49.2221 0.0000 0.0000 0.0000
# 3 47.1994 49.2221 121.1984 0.0000 0.0000 0.0000
# 4 0.0000 0.0000 0.0000 18.5979 0.0000 0.0000
# 5 0.0000 0.0000 0.0000 0.0000 28.0225 0.0000
# 6 0.0000 0.0000 0.0000 0.0000 0.0000 27.9369
#
#
#
# Elastic Compliance Matrix: (Units=1/GPa)
#
#
# Indices 1 2 3 4 5 6 
#
# 1 0.013251 -0.003057 -0.003919 0.000000 0.000000 0.000000
# 2 -0.003057 0.011402 -0.003440 0.000000 0.000000 0.000000
# 3 -0.003919 -0.003440 0.011174 0.000000 0.000000 0.000000
# 4 0.000000 0.000000 0.000000 0.053770 0.000000 0.000000
# 5 0.000000 0.000000 0.000000 0.000000 0.035686 0.000000
# 6 0.000000 0.000000 0.000000 0.000000 0.000000 0.035795
#
#
# Mechanical properties :
#
#
# Convention : Reuss Voigt Hill
#
# Bulk Modulus (GPa) = 66.68685 67.53353 67.11019
# Shear Modulus (GPa) = 26.75104 28.00070 27.37587
#
# Velocity S-wave (km/s) = 3.80241 3.89021 3.84656
# Velocity P-wave (km/s) = 7.43778 7.52853 7.48329
#
# Compressibility (1/GPa) = 0.01499546
#
# Stress axis : x y z
#
# Youngs Moduli (GPa) = 75.46539 87.70278 89.49011
#
# Poissons Ratio (x) = 0.26807 0.35072
# Poissons Ratio (y) = 0.23067 0.30788
# Poissons Ratio (z) = 0.29576 0.30173
#
# Static dielectric constant tensor:
#      x y z
#    x 3.493870 0.000000 0.000000 
#    y 0.000000 3.390510 0.000000 
#    z 0.000000 0.000000 3.457700 
# 
# 
# High freq. dielectric constant tensor:
#      x y z
#    x 1.728700 0.000000 0.000000 
#    y 0.000000 1.704590 0.000000 
#    z 0.000000 0.000000 1.716510 
# 
# From -- ./inp_files/6209.got.cif
#   From: 2010.03.12/outbox.cif.g09.slc.cpg/sg59_4_cif.got.tgz:6209.got - 2010.04.16 16:29:54.
