data_PCOD8243756
_publ_section_title
;
Structure prediction by ZEFSAII (Michael W. Deem and Ramdas Pophale) SiO2 
 PCOD8243756
Probable space group: P M M N
;
_chemical_formula_sum "Si O2"
_cell_formula_units_Z 48
_cell_length_a 31.350844
_cell_length_b 8.857789
_cell_length_c 9.649702
_cell_angle_alpha 90.000000
_cell_angle_beta 90.000000
_cell_angle_gamma 90.000000
_cell_volume 2679.714150
_symmetry_space_group_name_H-M "P M M N"
_symmetry_group_IT_number 59
_space_group.IT_coordinate_system_code '2'
_symmetry_cell_setting 'orthorhombic'
loop_
_space_group_symop_operation_xyz
x,y,z
1/2-x,1/2-y,z
1/2+x,-y,-z
-x,1/2+y,-z
-x,-y,-z
1/2+x,1/2+y,-z
1/2-x,y,z
x,1/2-y,z
loop_
_atom_site_type_symbol
_atom_site_label
_atom_site_fract_x
_atom_site_fract_y
_atom_site_fract_z
Si Si1 0.885855 0.069579 0.366946
Si Si2 0.618407 0.926824 0.663184
Si Si3 0.295001 0.918642 0.656189
Si Si4 0.451113 0.924103 0.152101
Si Si5 0.538652 0.424800 0.168178
Si Si6 0.796582 0.418696 0.672820
O O1 0.883138 0.250000 0.378131
O O2 0.840540 0.006439 0.301737
O O3 0.923590 0.016645 0.266919
O O4 0.894073 0.005928 0.519395
O O5 0.617196 0.750000 0.639365
O O6 0.584446 0.973954 0.777688
O O7 0.665167 0.972885 0.721218
O O8 0.250000 0.000992 0.703192
O O9 0.293212 0.750000 0.717315
O O10 0.296004 0.912862 0.491546
O O11 0.444611 0.750000 0.192924
O O12 0.497466 0.976284 0.204619
O O13 0.446577 0.950720 0.988601
O O14 0.527753 0.250000 0.195532
O O15 0.750000 0.476863 0.726318
O O16 0.805011 0.250000 0.730930
#
# Coordination Sequence:
#
# PCOD8243756 Si02
#       6
#     8   8   8   8   8   8
#     4   9  17  31  50  72  98 125 156 199 246 287
#     4  11  21  31  47  74 104 131 162 198 237 284
#     4   7  10  19  39  66  92 118 147 179 221 274
#     4  10  20  35  53  70  93 127 164 201 245 297
#     4   9  19  35  54  73  92 120 162 207 249 295
#     4   8  14  27  47  69  95 128 163 198 238 282
#
# _framework density 17.912358000000001
#
# number of rings (size 3 to 8) (size 9 to 14) (size 15 to 20)
#    0.000    3.000    0.000    4.000    0.000    2.333 
#    0.000    0.000    0.000    1.000    0.000    4.667 
#    0.000    2.667    0.000    0.000    0.000    0.000 
#
# Total GULP energy -594649.031784 kJ/mol
# GULP energy per Si atom -12388.521495 kJ/mol
# Density = 1.787159 g / cm^3
# Si number density = 17.912358 Si / 1000 Ang^3
#
#
#
# Elastic Constant Matrix: (Units=GPa)
#
#
# Indices 1 2 3 4 5 6 
#
# 1 150.9448 38.6405 47.9810 0.0000 0.0000 0.0000
# 2 38.6405 50.8816 18.5322 0.0000 0.0000 0.0000
# 3 47.9810 18.5322 38.7943 0.0000 0.0000 0.0000
# 4 0.0000 0.0000 0.0000 16.3278 0.0000 0.0000
# 5 0.0000 0.0000 0.0000 0.0000 1.1328 0.0000
# 6 0.0000 0.0000 0.0000 0.0000 0.0000 28.0932
#
#
#
# Elastic Compliance Matrix: (Units=1/GPa)
#
#
# Indices 1 2 3 4 5 6 
#
# 1 0.011666 -0.004363 -0.012344 0.000000 0.000000 0.000000
# 2 -0.004363 0.025425 -0.006749 0.000000 0.000000 0.000000
# 3 -0.012344 -0.006749 0.044268 0.000000 0.000000 0.000000
# 4 0.000000 0.000000 0.000000 0.061245 0.000000 0.000000
# 5 0.000000 0.000000 0.000000 0.000000 0.882797 0.000000
# 6 0.000000 0.000000 0.000000 0.000000 0.000000 0.035596
#
#
# Mechanical properties :
#
#
# Convention : Reuss Voigt Hill
#
# Bulk Modulus (GPa) = 29.03072 50.10310 39.56691
# Shear Modulus (GPa) = 4.46671 18.14190 11.30431
#
# Velocity S-wave (km/s) = 1.58084 3.18593 2.51488
# Velocity P-wave (km/s) = 4.42429 6.44713 5.52901
#
# Compressibility (1/GPa) = 0.03444627
#
# Stress axis : x y z
#
# Youngs Moduli (GPa) = 85.72220 39.33100 22.58974
#
# Poissons Ratio (x) = 0.17161 0.27884
# Poissons Ratio (y) = 0.37402 0.15246
# Poissons Ratio (z) = 1.05813 0.26546
#
# Static dielectric constant tensor:
#      x y z
#    x 4.120540 0.000000 0.000000 
#    y 0.000000 3.117190 0.000000 
#    z 0.000000 0.000000 2.898350 
# 
# 
# High freq. dielectric constant tensor:
#      x y z
#    x 1.721750 0.000000 0.000000 
#    y 0.000000 1.667460 0.000000 
#    z 0.000000 0.000000 1.645260 
# 
# From -- ./inp_files/12976.got.cif
#   From: 2010.03.12/outbox.cif.g09.slc.cpg/sg59_7_cif.got.tgz:12976.got - 2010.04.16 16:29:54.
