data_PCOD8243366
_publ_section_title
;
Structure prediction by ZEFSAII (Michael W. Deem and Ramdas Pophale) SiO2 
 PCOD8243366
Probable space group: P M M N
;
_chemical_formula_sum "Si O2"
_cell_formula_units_Z 40
_cell_length_a 9.101847
_cell_length_b 29.108980
_cell_length_c 7.770028
_cell_angle_alpha 90.000000
_cell_angle_beta 90.000000
_cell_angle_gamma 90.000000
_cell_volume 2058.633816
_symmetry_space_group_name_H-M "P M M N"
_symmetry_group_IT_number 59
_space_group.IT_coordinate_system_code '2'
_symmetry_cell_setting 'orthorhombic'
loop_
_space_group_symop_operation_xyz
x,y,z
1/2-x,1/2-y,z
1/2+x,-y,-z
-x,1/2+y,-z
-x,-y,-z
1/2+x,1/2+y,-z
1/2-x,y,z
x,1/2-y,z
loop_
_atom_site_type_symbol
_atom_site_label
_atom_site_fract_x
_atom_site_fract_y
_atom_site_fract_z
Si Si1 0.917525 0.542867 0.421576
Si Si2 0.918336 0.357188 0.931283
Si Si3 0.420796 0.696246 0.735709
Si Si4 0.080600 0.144134 0.566216
Si Si5 0.583578 0.457945 0.918752
O O1 0.750000 0.527595 0.391436
O O2 0.928701 0.592203 0.516330
O O3 0.000000 0.500000 0.500000
O O4 0.999595 0.555078 0.250410
O O5 0.750000 0.344942 0.884574
O O6 0.923867 0.408947 0.015374
O O7 0.009620 0.350293 0.755830
O O8 0.979615 0.324850 0.083890
O O9 0.250000 0.683991 0.713054
O O10 0.449928 0.750000 0.744819
O O11 0.504833 0.677256 0.570099
O O12 0.250000 0.158222 0.587260
O O13 0.750000 0.474133 0.885090
O O14 0.500000 0.500000 0.000000
#
# Coordination Sequence:
#
# PCOD8243366 Si02
#       5
#     8   8   8   8   8
#     4  10  21  36  54  81 114 153 194 236 288 348
#     4   9  20  39  60  84 116 156 198 242 291 346
#     4  10  22  40  63  89 115 151 199 245 293 350
#     4  10  22  39  59  87 121 155 192 241 299 353
#     4  10  20  34  53  81 114 152 194 237 286 345
#
# _framework density 19.430363
#
# number of rings (size 3 to 8) (size 9 to 14) (size 15 to 20)
#    0.000    2.200    0.000    1.800    2.800    5.200 
#    0.000    2.000    0.000    0.000    0.000    0.000 
#    0.000    0.000    0.000    0.000    0.000    0.000 
#
# Total GULP energy -495530.963711 kJ/mol
# GULP energy per Si atom -12388.274093 kJ/mol
# Density = 1.938614 g / cm^3
# Si number density = 19.430363 Si / 1000 Ang^3
#
#
#
# Elastic Constant Matrix: (Units=GPa)
#
#
# Indices 1 2 3 4 5 6 
#
# 1 131.0930 62.8360 57.3487 0.0000 0.0000 0.0000
# 2 62.8360 122.1442 67.2929 0.0000 0.0000 0.0000
# 3 57.3487 67.2929 113.0152 0.0000 0.0000 0.0000
# 4 0.0000 0.0000 0.0000 34.8505 0.0000 0.0000
# 5 0.0000 0.0000 0.0000 0.0000 29.8129 0.0000
# 6 0.0000 0.0000 0.0000 0.0000 0.0000 30.4363
#
#
#
# Elastic Compliance Matrix: (Units=1/GPa)
#
#
# Indices 1 2 3 4 5 6 
#
# 1 0.010874 -0.003801 -0.003255 0.000000 0.000000 0.000000
# 2 -0.003801 0.013512 -0.006117 0.000000 0.000000 0.000000
# 3 -0.003255 -0.006117 0.014142 0.000000 0.000000 0.000000
# 4 0.000000 0.000000 0.000000 0.028694 0.000000 0.000000
# 5 0.000000 0.000000 0.000000 0.000000 0.033543 0.000000
# 6 0.000000 0.000000 0.000000 0.000000 0.000000 0.032856
#
#
# Mechanical properties :
#
#
# Convention : Reuss Voigt Hill
#
# Bulk Modulus (GPa) = 82.07934 82.35640 82.21787
# Shear Modulus (GPa) = 30.48285 30.93826 30.71056
#
# Velocity S-wave (km/s) = 3.96514 3.99465 3.97992
# Velocity P-wave (km/s) = 7.95598 7.98459 7.97030
#
# Compressibility (1/GPa) = 0.01218333
#
# Stress axis : x y z
#
# Youngs Moduli (GPa) = 91.96396 74.00614 70.71033
#
# Poissons Ratio (x) = 0.28128 0.23014
# Poissons Ratio (y) = 0.34954 0.43254
# Poissons Ratio (z) = 0.29932 0.45270
#
# Static dielectric constant tensor:
#      x y z
#    x 3.663650 0.000000 0.000000 
#    y 0.000000 2.916800 0.000000 
#    z 0.000000 0.000000 2.978200 
# 
# 
# High freq. dielectric constant tensor:
#      x y z
#    x 1.763840 0.000000 0.000000 
#    y 0.000000 1.768980 0.000000 
#    z 0.000000 0.000000 1.741190 
# 
# From -- ./inp_files/5842.got.cif
#   From: 2010.03.12/outbox.cif.g09.slc.cpg/sg59_3_cif.got.tgz:5842.got - 2010.04.16 16:29:54.
