data_PCOD8243410
_publ_section_title
;
Structure prediction by ZEFSAII (Michael W. Deem and Ramdas Pophale) SiO2 
 PCOD8243410
Probable space group: P M M N
;
_chemical_formula_sum "Si O2"
_cell_formula_units_Z 48
_cell_length_a 37.806414
_cell_length_b 9.154469
_cell_length_c 7.627588
_cell_angle_alpha 90.000000
_cell_angle_beta 90.000000
_cell_angle_gamma 90.000000
_cell_volume 2639.890244
_symmetry_space_group_name_H-M "P M M N"
_symmetry_group_IT_number 59
_space_group.IT_coordinate_system_code '2'
_symmetry_cell_setting 'orthorhombic'
loop_
_space_group_symop_operation_xyz
x,y,z
1/2-x,1/2-y,z
1/2+x,-y,-z
-x,1/2+y,-z
-x,-y,-z
1/2+x,1/2+y,-z
1/2-x,y,z
x,1/2-y,z
loop_
_atom_site_type_symbol
_atom_site_label
_atom_site_fract_x
_atom_site_fract_y
_atom_site_fract_z
Si Si1 0.087369 0.422940 0.500014
Si Si2 0.963962 0.921179 0.802109
Si Si3 0.290748 0.081715 0.835822
Si Si4 0.708996 0.420789 0.813156
Si Si5 0.035972 0.078531 0.800060
Si Si6 0.667083 0.922913 0.508375
O O1 0.089094 0.250000 0.505777
O O2 0.067383 0.476146 0.324364
O O3 0.066826 0.480042 0.672542
O O4 0.127112 0.484114 0.499669
O O5 0.970785 0.750000 0.779339
O O6 0.953065 0.960744 0.001014
O O7 0.999727 0.001155 0.745930
O O8 0.250000 0.054745 0.785545
O O9 0.297618 0.250000 0.885457
O O10 0.314131 0.032391 0.671804
O O11 0.302553 0.983471 0.998923
O O12 0.750000 0.455683 0.777496
O O13 0.701043 0.250000 0.810610
O O14 0.686332 0.499083 0.666721
O O15 0.029869 0.250000 0.775955
O O16 0.668908 0.750000 0.539863
#
# Coordination Sequence:
#
# PCOD8243410 Si02
#       6
#     8   8   8   8   8   8
#     4   9  18  31  48  72  99 127 159 197 245 297
#     4   9  17  30  49  71  94 123 160 200 241 286
#     4   9  18  33  54  78 101 129 169 213 251 292
#     4  10  21  36  54  76 103 136 171 208 253 304
#     4   9  17  30  48  69  94 125 162 201 239 284
#     4  10  20  34  54  79 105 134 170 212 256 302
#
# _framework density 18.182573999999999
#
# number of rings (size 3 to 8) (size 9 to 14) (size 15 to 20)
#    0.000    2.667    0.000    1.500    0.000    3.667 
#    0.000    8.333    0.000    4.000    0.000    0.000 
#    0.000    0.000    0.000    0.000    0.000    0.000 
#
# Total GULP energy -595254.896001 kJ/mol
# GULP energy per Si atom -12401.143667 kJ/mol
# Density = 1.814119 g / cm^3
# Si number density = 18.182574 Si / 1000 Ang^3
#
#
#
# Elastic Constant Matrix: (Units=GPa)
#
#
# Indices 1 2 3 4 5 6 
#
# 1 144.5081 47.6353 110.7104 0.0000 0.0000 0.0000
# 2 47.6353 41.3163 49.2953 0.0000 0.0000 0.0000
# 3 110.7104 49.2953 161.4479 0.0000 0.0000 0.0000
# 4 0.0000 0.0000 0.0000 12.2267 0.0000 0.0000
# 5 0.0000 0.0000 0.0000 0.0000 -131.8159 0.0000
# 6 0.0000 0.0000 0.0000 0.0000 0.0000 62.3903
#
#
#
# Elastic Compliance Matrix: (Units=1/GPa)
#
#
# Indices 1 2 3 4 5 6 
#
# 1 0.016312 -0.008590 -0.008563 0.000000 0.000000 0.000000
# 2 -0.008590 0.042598 -0.007116 0.000000 0.000000 0.000000
# 3 -0.008563 -0.007116 0.014238 0.000000 0.000000 0.000000
# 4 0.000000 0.000000 0.000000 0.081788 0.000000 0.000000
# 5 0.000000 0.000000 0.000000 0.000000 -0.007586 0.000000
# 6 0.000000 0.000000 0.000000 0.000000 0.000000 0.016028
#
#
# Mechanical properties :
#
#
# Convention : Reuss Voigt Hill
#
# Bulk Modulus (GPa) = 40.63337 84.72824 62.68080
# Shear Modulus (GPa) = 22.71504 -2.13103 10.29200
#
# Velocity S-wave (km/s) = 3.53834 -1.08377 2.38173
# Velocity P-wave (km/s) = 6.25213 6.71816 6.48933
#
# Compressibility (1/GPa) = 0.02461032
#
# Stress axis : x y z
#
# Youngs Moduli (GPa) = 61.30597 23.47549 70.23300
#
# Poissons Ratio (x) = 0.20166 0.60138
# Poissons Ratio (y) = 0.52663 0.49977
# Poissons Ratio (z) = 0.52494 0.16705
#
# Static dielectric constant tensor:
#      x y z
#    x 3.450720 0.000000 0.000000 
#    y 0.000000 3.146690 0.000000 
#    z 0.000000 0.000000 3.538390 
# 
# 
# High freq. dielectric constant tensor:
#      x y z
#    x 1.701620 0.000000 0.000000 
#    y 0.000000 1.680600 0.000000 
#    z 0.000000 0.000000 1.718930 
# 
# From -- ./inp_files/12963.got.cif
#   From: 2010.03.12/outbox.cif.g09.slc.cpg/sg59_7_cif.got.tgz:12963.got - 2010.04.16 16:29:54.
