data_PCOD8243847
_publ_section_title
;
Structure prediction by ZEFSAII (Michael W. Deem and Ramdas Pophale) SiO2 
 PCOD8243847
Probable space group: P M M N
;
_chemical_formula_sum "Si O2"
_cell_formula_units_Z 64
_cell_length_a 31.316967
_cell_length_b 8.954507
_cell_length_c 11.986437
_cell_angle_alpha 90.000000
_cell_angle_beta 90.000000
_cell_angle_gamma 90.000000
_cell_volume 3361.332558
_symmetry_space_group_name_H-M "P M M N"
_symmetry_group_IT_number 59
_space_group.IT_coordinate_system_code '2'
_symmetry_cell_setting 'orthorhombic'
loop_
_space_group_symop_operation_xyz
x,y,z
1/2-x,1/2-y,z
1/2+x,-y,-z
-x,1/2+y,-z
-x,-y,-z
1/2+x,1/2+y,-z
1/2-x,y,z
x,1/2-y,z
loop_
_atom_site_type_symbol
_atom_site_label
_atom_site_fract_x
_atom_site_fract_y
_atom_site_fract_z
Si Si1 0.632011 0.075819 0.082497
Si Si2 0.122130 0.077931 0.379528
Si Si3 0.553975 0.079018 0.241796
Si Si4 0.603649 0.921474 0.868985
Si Si5 0.015442 0.574920 0.112467
Si Si6 0.453836 0.923263 0.505968
Si Si7 0.701231 0.420036 0.255863
Si Si8 0.797707 0.573407 0.483068
O O1 0.630447 0.250000 0.050920
O O2 0.592599 0.031565 0.161883
O O3 0.674626 0.031338 0.148098
O O4 0.632861 0.978046 0.970543
O O5 0.115565 0.250000 0.413911
O O6 0.128820 0.061013 0.247015
O O7 0.165856 0.012538 0.433147
O O8 0.079804 0.991832 0.419159
O O9 0.540682 0.250000 0.219607
O O10 0.566307 0.055294 0.370756
O O11 0.513784 0.974428 0.215624
O O12 0.590220 0.750000 0.889740
O O13 0.562926 0.026397 0.860921
O O14 0.013595 0.750000 0.096184
O O15 0.000000 0.500000 0.000000
O O16 0.460009 0.750000 0.476411
O O17 0.500000 0.000000 0.500000
O O18 0.750000 0.439725 0.220923
O O19 0.690169 0.250000 0.289607
O O20 0.688976 0.522770 0.359800
O O21 0.750000 0.510540 0.513580
O O22 0.796362 0.750000 0.486707
#
# Coordination Sequence:
#
# PCOD8243847 Si02
#       8
#     8   8   8   8   8   8   8   8
#     4  10  20  35  55  78 106 142 180 221 272 325
#     4  10  22  39  57  80 114 152 190 236 287 337
#     4  10  21  36  54  78 108 140 180 228 274 321
#     4  11  23  38  55  78 109 147 189 233 277 325
#     4  12  23  36  55  79 107 143 185 228 274 326
#     4  11  23  38  57  82 113 149 188 231 280 337
#     4   9  18  34  57  85 115 144 175 219 277 334
#     4   9  18  35  60  87 113 145 186 231 281 337
#
# _framework density 19.040067000000001
#
# number of rings (size 3 to 8) (size 9 to 14) (size 15 to 20)
#    0.000    1.750    1.250    3.375    0.000    7.000 
#    0.000    0.625    0.000    0.750    0.000    0.000 
#    0.000    0.000    0.000    0.000    0.000    0.000 
#
# Total GULP energy -793720.007729 kJ/mol
# GULP energy per Si atom -12401.875121 kJ/mol
# Density = 1.899673 g / cm^3
# Si number density = 19.040067 Si / 1000 Ang^3
#
#
#
# Elastic Constant Matrix: (Units=GPa)
#
#
# Indices 1 2 3 4 5 6 
#
# 1 111.2296 38.4762 57.0544 0.0000 0.0000 0.0000
# 2 38.4762 78.2906 39.5629 0.0000 0.0000 0.0000
# 3 57.0544 39.5629 115.7854 0.0000 0.0000 0.0000
# 4 0.0000 0.0000 0.0000 30.5060 0.0000 0.0000
# 5 0.0000 0.0000 0.0000 0.0000 34.9534 0.0000
# 6 0.0000 0.0000 0.0000 0.0000 0.0000 23.2107
#
#
#
# Elastic Compliance Matrix: (Units=1/GPa)
#
#
# Indices 1 2 3 4 5 6 
#
# 1 0.012894 -0.003779 -0.005063 0.000000 0.000000 0.000000
# 2 -0.003779 0.016546 -0.003792 0.000000 0.000000 0.000000
# 3 -0.005063 -0.003792 0.012427 0.000000 0.000000 0.000000
# 4 0.000000 0.000000 0.000000 0.032780 0.000000 0.000000
# 5 0.000000 0.000000 0.000000 0.000000 0.028610 0.000000
# 6 0.000000 0.000000 0.000000 0.000000 0.000000 0.043084
#
#
# Mechanical properties :
#
#
# Convention : Reuss Voigt Hill
#
# Bulk Modulus (GPa) = 60.23619 63.94362 62.08990
# Shear Modulus (GPa) = 28.22616 29.08149 28.65383
#
# Velocity S-wave (km/s) = 3.85445 3.91242 3.88354
# Velocity P-wave (km/s) = 7.17734 7.35296 7.26568
#
# Compressibility (1/GPa) = 0.01660132
#
# Stress axis : x y z
#
# Youngs Moduli (GPa) = 77.55309 60.43756 80.47023
#
# Poissons Ratio (x) = 0.22837 0.40740
# Poissons Ratio (y) = 0.29304 0.30512
# Poissons Ratio (z) = 0.39263 0.22916
#
# Static dielectric constant tensor:
#      x y z
#    x 3.600520 0.000000 0.000000 
#    y 0.000000 3.262590 0.000000 
#    z 0.000000 0.000000 3.306050 
# 
# 
# High freq. dielectric constant tensor:
#      x y z
#    x 1.735860 0.000000 0.000000 
#    y 0.000000 1.737780 0.000000 
#    z 0.000000 0.000000 1.743960 
# 
# From -- ./inp_files/19243.got.cif
#   From: 2010.03.12/outbox.cif.g09.slc.cpg/sg59_10_cif.got.tgz:19243.got - 2010.04.16 16:29:54.
