data_PCOD8243206
_publ_section_title
;
Structure prediction by ZEFSAII (Michael W. Deem and Ramdas Pophale) SiO2 
 PCOD8243206
Probable space group: P M M N
;
_chemical_formula_sum "Si O2"
_cell_formula_units_Z 64
_cell_length_a 18.668673
_cell_length_b 9.408362
_cell_length_c 20.542857
_cell_angle_alpha 90.000000
_cell_angle_beta 90.000000
_cell_angle_gamma 90.000000
_cell_volume 3608.180963
_symmetry_space_group_name_H-M "P M M N"
_symmetry_group_IT_number 59
_space_group.IT_coordinate_system_code '2'
_symmetry_cell_setting 'orthorhombic'
loop_
_space_group_symop_operation_xyz
x,y,z
1/2-x,1/2-y,z
1/2+x,-y,-z
-x,1/2+y,-z
-x,-y,-z
1/2+x,1/2+y,-z
1/2-x,y,z
x,1/2-y,z
loop_
_atom_site_type_symbol
_atom_site_label
_atom_site_fract_x
_atom_site_fract_y
_atom_site_fract_z
Si Si1 0.666691 0.913867 0.005440
Si Si2 0.428395 0.414809 0.117140
Si Si3 0.334079 0.413104 0.624380
Si Si4 0.576682 0.413506 0.756784
Si Si5 0.406403 0.582586 0.881887
Si Si6 0.664610 0.408212 0.496079
Si Si7 0.910107 0.913981 0.245834
Si Si8 0.170111 0.919516 0.361832
O O1 0.750000 0.936598 0.989213
O O2 0.650602 0.750000 0.023854
O O3 0.644570 0.014708 0.064299
O O4 0.620431 0.960637 0.943237
O O5 0.419618 0.250000 0.133921
O O6 0.400485 0.501469 0.179109
O O7 0.510945 0.451833 0.100872
O O8 0.250000 0.437549 0.631323
O O9 0.354419 0.250000 0.613942
O O10 0.365961 0.494780 0.561921
O O11 0.370002 0.470764 0.690191
O O12 0.597171 0.250000 0.768890
O O13 0.493732 0.432528 0.741154
O O14 0.619011 0.477669 0.695057
O O15 0.391908 0.750000 0.878093
O O16 0.384730 0.511799 0.813591
O O17 0.750000 0.404926 0.494435
O O18 0.633784 0.250000 0.485584
O O19 0.641445 0.470044 0.567004
O O20 0.890286 0.750000 0.230410
O O21 0.250000 0.978452 0.348734
O O22 0.171079 0.750000 0.362773
#
# Coordination Sequence:
#
# PCOD8243206 Si02
#       8
#     8   8   8   8   8   8   8   8
#     4  10  21  36  53  73  99 129 157 189 233 283
#     4   9  19  35  52  71  97 128 159 191 232 281
#     4   9  17  29  45  64  87 117 153 191 228 270
#     4   9  17  30  49  70  92 121 156 192 228 272
#     4  10  20  34  53  74  96 124 159 198 234 273
#     4   8  14  26  44  64  87 117 152 189 230 277
#     4   9  18  32  48  67  93 124 156 189 231 282
#     4   8  14  26  45  68  92 119 153 191 231 276
#
# _framework density 17.737470999999999
#
# number of rings (size 3 to 8) (size 9 to 14) (size 15 to 20)
#    0.000    3.000    0.000    1.500    0.000    2.750 
#    0.000    2.500    0.000    0.750    0.000    0.000 
#    0.000    0.000    0.000    0.000    0.000    0.000 
#
# Total GULP energy -793523.494630 kJ/mol
# GULP energy per Si atom -12398.804604 kJ/mol
# Density = 1.769710 g / cm^3
# Si number density = 17.737471 Si / 1000 Ang^3
#
#
#
# Elastic Constant Matrix: (Units=GPa)
#
#
# Indices 1 2 3 4 5 6 
#
# 1 37.6895 23.5582 43.2875 0.0000 0.0000 0.0000
# 2 23.5582 59.2131 58.8764 0.0000 0.0000 0.0000
# 3 43.2875 58.8764 150.0634 0.0000 0.0000 0.0000
# 4 0.0000 0.0000 0.0000 34.9853 0.0000 0.0000
# 5 0.0000 0.0000 0.0000 0.0000 34.2374 0.0000
# 6 0.0000 0.0000 0.0000 0.0000 0.0000 17.4747
#
#
#
# Elastic Compliance Matrix: (Units=1/GPa)
#
#
# Indices 1 2 3 4 5 6 
#
# 1 0.041657 -0.007584 -0.009041 0.000000 0.000000 0.000000
# 2 -0.007584 0.029071 -0.009218 0.000000 0.000000 0.000000
# 3 -0.009041 -0.009218 0.012889 0.000000 0.000000 0.000000
# 4 0.000000 0.000000 0.000000 0.028583 0.000000 0.000000
# 5 0.000000 0.000000 0.000000 0.000000 0.029208 0.000000
# 6 0.000000 0.000000 0.000000 0.000000 0.000000 0.057225
#
#
# Mechanical properties :
#
#
# Convention : Reuss Voigt Hill
#
# Bulk Modulus (GPa) = 31.31802 55.37892 43.34847
# Shear Modulus (GPa) = 19.15982 25.42242 22.29112
#
# Velocity S-wave (km/s) = 3.29019 3.78995 3.54888
# Velocity P-wave (km/s) = 5.66820 7.10217 6.42532
#
# Compressibility (1/GPa) = 0.03193050
#
# Stress axis : x y z
#
# Youngs Moduli (GPa) = 24.00576 34.39815 77.58823
#
# Poissons Ratio (x) = 0.26087 0.70147
# Poissons Ratio (y) = 0.18206 0.71523
# Poissons Ratio (z) = 0.21703 0.31709
#
# Static dielectric constant tensor:
#      x y z
#    x 3.154730 0.000000 0.000000 
#    y 0.000000 3.200820 0.000000 
#    z 0.000000 0.000000 3.564790 
# 
# 
# High freq. dielectric constant tensor:
#      x y z
#    x 1.666750 0.000000 0.000000 
#    y 0.000000 1.668450 0.000000 
#    z 0.000000 0.000000 1.698260 
# 
# From -- ./inp_files/30841.got.cif
#   From: 2010.03.12/outbox.cif.g09.slc.cpg/sg59_16_cif.got.tgz:30841.got - 2010.04.16 16:29:54.
