data_PCOD8243981
_publ_section_title
;
Structure prediction by ZEFSAII (Michael W. Deem and Ramdas Pophale) SiO2 
 PCOD8243981
Probable space group: P M M N
;
_chemical_formula_sum "Si O2"
_cell_formula_units_Z 64
_cell_length_a 8.766817
_cell_length_b 22.852649
_cell_length_c 16.649050
_cell_angle_alpha 90.000000
_cell_angle_beta 90.000000
_cell_angle_gamma 90.000000
_cell_volume 3335.553785
_symmetry_space_group_name_H-M "P M M N"
_symmetry_group_IT_number 59
_space_group.IT_coordinate_system_code '2'
_symmetry_cell_setting 'orthorhombic'
loop_
_space_group_symop_operation_xyz
x,y,z
1/2-x,1/2-y,z
1/2+x,-y,-z
-x,1/2+y,-z
-x,-y,-z
1/2+x,1/2+y,-z
1/2-x,y,z
x,1/2-y,z
loop_
_atom_site_type_symbol
_atom_site_label
_atom_site_fract_x
_atom_site_fract_y
_atom_site_fract_z
Si Si1 0.930251 0.515089 0.915268
Si Si2 0.069028 0.424489 0.789851
Si Si3 0.071590 0.314621 0.364342
Si Si4 0.427268 0.535906 0.375723
Si Si5 0.586875 0.183681 0.211811
Si Si6 0.927507 0.133369 0.051919
Si Si7 0.571173 0.920149 0.532577
Si Si8 0.568391 0.318048 0.880072
O O1 0.750000 0.505687 0.913768
O O2 0.001767 0.473828 0.847991
O O3 0.975067 0.582321 0.905412
O O4 0.000000 0.500000 0.000000
O O5 0.250000 0.422785 0.798569
O O6 0.024827 0.442025 0.699667
O O7 0.004493 0.359699 0.811929
O O8 0.250000 0.311038 0.365540
O O9 0.002105 0.250000 0.381013
O O10 0.015234 0.358180 0.433175
O O11 0.029197 0.342517 0.277135
O O12 0.250000 0.544465 0.354900
O O13 0.465093 0.468900 0.399436
O O14 0.471770 0.573944 0.452893
O O15 0.750000 0.150916 0.221760
O O16 0.604119 0.250000 0.237225
O O17 0.541196 0.183125 0.118057
O O18 0.750000 0.115398 0.042941
O O19 0.988211 0.156528 0.966323
O O20 0.750000 0.922336 0.510495
O O21 0.750000 0.321305 0.874244
O O22 0.515334 0.250000 0.870033
#
# Coordination Sequence:
#
# PCOD8243981 Si02
#       8
#     8   8   8   8   8   8   8   8
#     4  12  24  39  58  83 116 152 190 238 290 341
#     4  12  25  41  61  87 119 155 195 241 290 345
#     4   9  18  33  53  79 113 151 188 230 284 343
#     4  10  21  38  61  87 114 147 188 240 292 348
#     4   9  18  32  50  77 113 150 190 231 272 327
#     4  10  20  35  56  83 114 152 194 237 286 341
#     4   9  19  37  59  85 114 147 186 232 291 352
#     4  10  21  39  63  86 114 155 199 245 296 347
#
# _framework density 19.187218999999999
#
# number of rings (size 3 to 8) (size 9 to 14) (size 15 to 20)
#    0.000    1.875    1.250    3.000    1.750    3.250 
#    0.000    0.625    0.000    4.500    0.000    0.000 
#    0.000    0.000    0.000    0.000    0.000    0.000 
#
# Total GULP energy -793012.648876 kJ/mol
# GULP energy per Si atom -12390.822639 kJ/mol
# Density = 1.914355 g / cm^3
# Si number density = 19.187219 Si / 1000 Ang^3
#
#
#
# Elastic Constant Matrix: (Units=GPa)
#
#
# Indices 1 2 3 4 5 6 
#
# 1 69.4190 42.7444 42.3678 0.0000 0.0000 0.0000
# 2 42.7444 112.6937 62.9331 0.0000 0.0000 0.0000
# 3 42.3678 62.9331 109.3593 0.0000 0.0000 0.0000
# 4 0.0000 0.0000 0.0000 20.6704 0.0000 0.0000
# 5 0.0000 0.0000 0.0000 0.0000 31.9727 0.0000
# 6 0.0000 0.0000 0.0000 0.0000 0.0000 24.1473
#
#
#
# Elastic Compliance Matrix: (Units=1/GPa)
#
#
# Indices 1 2 3 4 5 6 
#
# 1 0.020578 -0.004941 -0.005129 0.000000 0.000000 0.000000
# 2 -0.004941 0.014262 -0.006293 0.000000 0.000000 0.000000
# 3 -0.005129 -0.006293 0.014753 0.000000 0.000000 0.000000
# 4 0.000000 0.000000 0.000000 0.048378 0.000000 0.000000
# 5 0.000000 0.000000 0.000000 0.000000 0.031277 0.000000
# 6 0.000000 0.000000 0.000000 0.000000 0.000000 0.041412
#
#
# Mechanical properties :
#
#
# Convention : Reuss Voigt Hill
#
# Bulk Modulus (GPa) = 59.28851 65.28472 62.28661
# Shear Modulus (GPa) = 23.92245 24.91985 24.42115
#
# Velocity S-wave (km/s) = 3.53482 3.60776 3.57148
# Velocity P-wave (km/s) = 6.90124 7.17311 7.03849
#
# Compressibility (1/GPa) = 0.01686667
#
# Stress axis : x y z
#
# Youngs Moduli (GPa) = 48.59586 70.11590 67.78392
#
# Poissons Ratio (x) = 0.34644 0.34766
# Poissons Ratio (y) = 0.24011 0.42658
# Poissons Ratio (z) = 0.24924 0.44125
#
# Static dielectric constant tensor:
#      x y z
#    x 3.522360 0.000000 0.000000 
#    y 0.000000 4.103900 0.000000 
#    z 0.000000 0.000000 3.499820 
# 
# 
# High freq. dielectric constant tensor:
#      x y z
#    x 1.740420 0.000000 0.000000 
#    y 0.000000 1.746500 0.000000 
#    z 0.000000 0.000000 1.745910 
# 
# From -- ./inp_files/21482.got.cif
#   From: 2010.03.12/outbox.cif.g09.slc.cpg/sg59_11_cif.got.tgz:21482.got - 2010.04.16 16:29:54.
