data_PCOD8243567
_publ_section_title
;
Structure prediction by ZEFSAII (Michael W. Deem and Ramdas Pophale) SiO2 
 PCOD8243567
Probable space group: P M M N
;
_chemical_formula_sum "Si O2"
_cell_formula_units_Z 48
_cell_length_a 8.964563
_cell_length_b 9.256622
_cell_length_c 30.870210
_cell_angle_alpha 90.000000
_cell_angle_beta 90.000000
_cell_angle_gamma 90.000000
_cell_volume 2561.658526
_symmetry_space_group_name_H-M "P M M N"
_symmetry_group_IT_number 59
_space_group.IT_coordinate_system_code '2'
_symmetry_cell_setting 'orthorhombic'
loop_
_space_group_symop_operation_xyz
x,y,z
1/2-x,1/2-y,z
1/2+x,-y,-z
-x,1/2+y,-z
-x,-y,-z
1/2+x,1/2+y,-z
1/2-x,y,z
x,1/2-y,z
loop_
_atom_site_type_symbol
_atom_site_label
_atom_site_fract_x
_atom_site_fract_y
_atom_site_fract_z
Si Si1 0.074022 0.087847 0.962153
Si Si2 0.421971 0.580005 0.217810
Si Si3 0.421935 0.419036 0.538876
Si Si4 0.925227 0.416290 0.627711
Si Si5 0.915452 0.578546 0.132627
Si Si6 0.923546 0.419310 0.294805
O O1 0.250000 0.083875 0.968010
O O2 0.012460 0.250000 0.965714
O O3 0.031937 0.021602 0.914700
O O4 0.000000 0.000000 0.000000
O O5 0.250000 0.539936 0.225413
O O6 0.449832 0.750000 0.224583
O O7 0.468461 0.530153 0.169529
O O8 0.524376 0.493653 0.250803
O O9 0.500000 0.500000 0.500000
O O10 0.250000 0.464274 0.540795
O O11 0.443268 0.250000 0.531111
O O12 0.497567 0.467584 0.583558
O O13 0.750000 0.438099 0.622457
O O14 0.965120 0.250000 0.638387
O O15 0.983539 0.516490 0.665750
O O16 0.750000 0.518496 0.144044
O O17 0.906519 0.750000 0.129461
O O18 0.750000 0.452426 0.302178
O O19 0.956062 0.250000 0.291660
#
# Coordination Sequence:
#
# PCOD8243567 Si02
#       6
#     8   8   8   8   8   8
#     4   9  18  32  50  74 103 134 171 213 256 306
#     4  10  20  34  55  82 106 131 169 215 262 313
#     4  10  21  37  58  84 113 146 183 222 266 314
#     4  10  21  38  60  84 109 140 180 223 265 312
#     4   8  15  30  51  73  99 133 172 213 255 302
#     4  11  24  39  55  78 108 142 178 215 259 312
#
# _framework density 18.737860000000001
#
# number of rings (size 3 to 8) (size 9 to 14) (size 15 to 20)
#    0.000    2.333    0.000    3.500    0.000    8.000 
#    0.000    2.500    0.000    1.000    0.000    0.000 
#    0.000    0.000    0.000    0.000    0.000    0.000 
#
# Total GULP energy -595206.556659 kJ/mol
# GULP energy per Si atom -12400.136597 kJ/mol
# Density = 1.869521 g / cm^3
# Si number density = 18.737860 Si / 1000 Ang^3
#
#
#
# Elastic Constant Matrix: (Units=GPa)
#
#
# Indices 1 2 3 4 5 6 
#
# 1 84.4947 36.5350 55.0847 0.0000 0.0000 0.0000
# 2 36.5350 54.3506 49.5687 0.0000 0.0000 0.0000
# 3 55.0847 49.5687 150.4109 0.0000 0.0000 0.0000
# 4 0.0000 0.0000 0.0000 32.4471 0.0000 0.0000
# 5 0.0000 0.0000 0.0000 0.0000 42.8620 0.0000
# 6 0.0000 0.0000 0.0000 0.0000 0.0000 28.2752
#
#
#
# Elastic Compliance Matrix: (Units=1/GPa)
#
#
# Indices 1 2 3 4 5 6 
#
# 1 0.018040 -0.008723 -0.003732 0.000000 0.000000 0.000000
# 2 -0.008723 0.030523 -0.006865 0.000000 0.000000 0.000000
# 3 -0.003732 -0.006865 0.010277 0.000000 0.000000 0.000000
# 4 0.000000 0.000000 0.000000 0.030819 0.000000 0.000000
# 5 0.000000 0.000000 0.000000 0.000000 0.023331 0.000000
# 6 0.000000 0.000000 0.000000 0.000000 0.000000 0.035367
#
#
# Mechanical properties :
#
#
# Convention : Reuss Voigt Hill
#
# Bulk Modulus (GPa) = 49.50088 63.51478 56.50783
# Shear Modulus (GPa) = 25.80914 30.58806 28.19860
#
# Velocity S-wave (km/s) = 3.71533 4.04471 3.88351
# Velocity P-wave (km/s) = 6.69924 7.46880 7.09446
#
# Compressibility (1/GPa) = 0.02020166
#
# Stress axis : x y z
#
# Youngs Moduli (GPa) = 55.43308 32.76196 97.30025
#
# Poissons Ratio (x) = 0.28578 0.36313
# Poissons Ratio (y) = 0.48353 0.66792
# Poissons Ratio (z) = 0.20688 0.22490
#
# Static dielectric constant tensor:
#      x y z
#    x 3.516130 0.000000 0.000000 
#    y 0.000000 3.307710 0.000000 
#    z 0.000000 0.000000 3.385240 
# 
# 
# High freq. dielectric constant tensor:
#      x y z
#    x 1.735250 0.000000 0.000000 
#    y 0.000000 1.701040 0.000000 
#    z 0.000000 0.000000 1.746200 
# 
# From -- ./inp_files/32778.got.cif
#   From: 2010.03.12/outbox.cif.g09.slc.cpg/sg59_17_cif.got.tgz:32778.got - 2010.04.16 16:29:54.
