data_PCOD8243922
_publ_section_title
;
Structure prediction by ZEFSAII (Michael W. Deem and Ramdas Pophale) SiO2 
 PCOD8243922
Probable space group: P M M N
;
_chemical_formula_sum "Si O2"
_cell_formula_units_Z 64
_cell_length_a 8.982789
_cell_length_b 18.146502
_cell_length_c 20.570713
_cell_angle_alpha 90.000000
_cell_angle_beta 90.000000
_cell_angle_gamma 90.000000
_cell_volume 3353.153728
_symmetry_space_group_name_H-M "P M M N"
_symmetry_group_IT_number 59
_space_group.IT_coordinate_system_code '2'
_symmetry_cell_setting 'orthorhombic'
loop_
_space_group_symop_operation_xyz
x,y,z
1/2-x,1/2-y,z
1/2+x,-y,-z
-x,1/2+y,-z
-x,-y,-z
1/2+x,1/2+y,-z
1/2-x,y,z
x,1/2-y,z
loop_
_atom_site_type_symbol
_atom_site_label
_atom_site_fract_x
_atom_site_fract_y
_atom_site_fract_z
Si Si1 0.424202 0.429931 0.808714
Si Si2 0.582010 0.337463 0.300307
Si Si3 0.082130 0.337881 0.428426
Si Si4 0.423686 0.835308 0.934607
Si Si5 0.426265 0.085243 0.182744
Si Si6 0.576374 0.834216 0.315284
Si Si7 0.420938 0.165581 0.932954
Si Si8 0.917833 0.162210 0.555798
O O1 0.250000 0.449953 0.807925
O O2 0.521840 0.502523 0.805665
O O3 0.469503 0.381209 0.747014
O O4 0.467480 0.385029 0.872943
O O5 0.750000 0.368495 0.295360
O O6 0.583195 0.250000 0.300313
O O7 0.508833 0.367992 0.366483
O O8 0.487018 0.363161 0.239399
O O9 0.250000 0.368048 0.424404
O O10 0.080529 0.250000 0.428925
O O11 0.006824 0.369287 0.493815
O O12 0.250000 0.852500 0.927300
O O13 0.459246 0.750000 0.919615
O O14 0.513447 0.886334 0.885749
O O15 0.474636 0.856232 0.007002
O O16 0.250000 0.089382 0.182444
O O17 0.750000 0.839701 0.330507
O O18 0.529519 0.750000 0.301442
O O19 0.491441 0.866893 0.377817
O O20 0.250000 0.152569 0.953333
O O21 0.446344 0.250000 0.911848
O O22 0.750000 0.132609 0.551963
O O23 0.923287 0.250000 0.554611
#
# Coordination Sequence:
#
# PCOD8243922 Si02
#       8
#     8   8   8   8   8   8   8   8
#     4  10  21  37  56  78 108 144 179 218 264 314
#     4  10  20  35  56  80 106 137 174 218 268 320
#     4   9  16  27  46  74 106 137 172 216 263 312
#     4  10  21  38  60  84 109 138 173 215 264 316
#     4  12  25  38  54  77 107 143 181 220 261 310
#     4   9  17  31  53  79 105 137 178 221 265 314
#     4   9  18  35  60  87 111 137 173 217 264 314
#     4   9  16  26  43  71 106 140 174 216 265 312
#
# _framework density 19.086509
#
# number of rings (size 3 to 8) (size 9 to 14) (size 15 to 20)
#    0.000    2.250    0.000    3.375    0.000    9.000 
#    0.000    0.000    0.000    4.500    0.000    0.000 
#    0.000    0.000    0.000    0.000    0.000    0.000 
#
# Total GULP energy -793775.386368 kJ/mol
# GULP energy per Si atom -12402.740412 kJ/mol
# Density = 1.904307 g / cm^3
# Si number density = 19.086509 Si / 1000 Ang^3
#
#
#
# Elastic Constant Matrix: (Units=GPa)
#
#
# Indices 1 2 3 4 5 6 
#
# 1 119.8720 24.9199 60.0664 0.0000 0.0000 0.0000
# 2 24.9199 28.3628 22.9222 0.0000 0.0000 0.0000
# 3 60.0664 22.9222 127.1272 0.0000 0.0000 0.0000
# 4 0.0000 0.0000 0.0000 -0.4299 0.0000 0.0000
# 5 0.0000 0.0000 0.0000 0.0000 35.2707 0.0000
# 6 0.0000 0.0000 0.0000 0.0000 0.0000 22.6524
#
#
#
# Elastic Compliance Matrix: (Units=1/GPa)
#
#
# Indices 1 2 3 4 5 6 
#
# 1 0.012005 -0.006981 -0.004414 0.000000 0.000000 0.000000
# 2 -0.006981 0.045331 -0.004875 0.000000 0.000000 0.000000
# 3 -0.004414 -0.004875 0.010831 0.000000 0.000000 0.000000
# 4 0.000000 0.000000 0.000000 -2.326359 0.000000 0.000000
# 5 0.000000 0.000000 0.000000 0.000000 0.028352 0.000000
# 6 0.000000 0.000000 0.000000 0.000000 0.000000 0.044145
#
#
# Mechanical properties :
#
#
# Convention : Reuss Voigt Hill
#
# Bulk Modulus (GPa) = 28.06837 54.57546 41.32192
# Shear Modulus (GPa) = -2.33505 22.66223 10.16359
#
# Velocity S-wave (km/s) = -1.10728 3.44952 2.31010
# Velocity P-wave (km/s) = 3.61981 6.67244 5.36770
#
# Compressibility (1/GPa) = 0.03562729
#
# Stress axis : x y z
#
# Youngs Moduli (GPa) = 83.29839 22.06002 92.33146
#
# Poissons Ratio (x) = 0.15400 0.40751
# Poissons Ratio (y) = 0.58149 0.45014
# Poissons Ratio (z) = 0.36764 0.10755
#
# Static dielectric constant tensor:
#      x y z
#    x 3.601020 0.000000 0.000000 
#    y 0.000000 3.183290 0.000000 
#    z 0.000000 0.000000 3.660540 
# 
# 
# High freq. dielectric constant tensor:
#      x y z
#    x 1.748150 0.000000 0.000000 
#    y 0.000000 1.706020 0.000000 
#    z 0.000000 0.000000 1.759220 
# 
# From -- ./inp_files/29566.got.cif
#   From: 2010.03.12/outbox.cif.g09.slc.cpg/sg59_15_cif.got.tgz:29566.got - 2010.04.16 16:29:54.
