data_PCOD8243306
_publ_section_title
;
Structure prediction by ZEFSAII (Michael W. Deem and Ramdas Pophale) SiO2 
 PCOD8243306
Probable space group: P M M N
;
_chemical_formula_sum "Si O2"
_cell_formula_units_Z 48
_cell_length_a 15.114289
_cell_length_b 15.073666
_cell_length_c 10.978147
_cell_angle_alpha 90.000000
_cell_angle_beta 90.000000
_cell_angle_gamma 90.000000
_cell_volume 2501.126467
_symmetry_space_group_name_H-M "P M M N"
_symmetry_group_IT_number 59
_space_group.IT_coordinate_system_code '2'
_symmetry_cell_setting 'orthorhombic'
loop_
_space_group_symop_operation_xyz
x,y,z
1/2-x,1/2-y,z
1/2+x,-y,-z
-x,1/2+y,-z
-x,-y,-z
1/2+x,1/2+y,-z
1/2-x,y,z
x,1/2-y,z
loop_
_atom_site_type_symbol
_atom_site_label
_atom_site_fract_x
_atom_site_fract_y
_atom_site_fract_z
Si Si1 0.845337 0.649685 0.977561
Si Si2 0.847650 0.562480 0.205487
Si Si3 0.489971 0.348211 0.199775
Si Si4 0.646187 0.354337 0.769821
Si Si5 0.150057 0.891017 0.951026
Si Si6 0.490250 0.983918 0.358458
O O1 0.750000 0.603076 0.948481
O O2 0.840771 0.750000 0.934363
O O3 0.924224 0.607379 0.899691
O O4 0.862137 0.650314 0.124206
O O5 0.750000 0.556319 0.265847
O O6 0.858732 0.491573 0.095074
O O7 0.918318 0.558604 0.311864
O O8 0.462965 0.250000 0.247256
O O9 0.585839 0.335949 0.137235
O O10 0.483894 0.416076 0.310141
O O11 0.750000 0.371608 0.744210
O O12 0.623654 0.250000 0.747518
O O13 0.590094 0.417971 0.678513
O O14 0.621090 0.380887 0.908159
O O15 0.250000 0.854326 0.935315
O O16 0.500000 0.000000 0.500000
#
# Coordination Sequence:
#
# PCOD8243306 Si02
#       6
#     8   8   8   8   8   8
#     4   9  17  30  51  79 106 129 158 207 274 340
#     4   9  18  33  52  76 106 139 176 219 271 327
#     4  10  20  34  53  78 107 139 176 219 271 327
#     4  10  21  37  59  86 112 139 174 220 276 331
#     4   9  17  31  54  83 111 136 167 217 281 340
#     4  11  24  38  53  74 105 149 193 230 260 300
#
# _framework density 19.191351999999998
#
# number of rings (size 3 to 8) (size 9 to 14) (size 15 to 20)
#    0.000    2.333    0.000    2.500    0.000    9.000 
#    0.000    0.000    0.000    0.000    0.000    2.333 
#    0.000    0.000    0.000    0.000    0.000    0.000 
#
# Total GULP energy -594628.631058 kJ/mol
# GULP energy per Si atom -12388.096480 kJ/mol
# Density = 1.914767 g / cm^3
# Si number density = 19.191352 Si / 1000 Ang^3
#
#
#
# Elastic Constant Matrix: (Units=GPa)
#
#
# Indices 1 2 3 4 5 6 
#
# 1 118.6446 45.4783 69.2857 0.0000 0.0000 0.0000
# 2 45.4783 74.7378 44.6147 0.0000 0.0000 0.0000
# 3 69.2857 44.6147 132.0409 0.0000 0.0000 0.0000
# 4 0.0000 0.0000 0.0000 14.8067 0.0000 0.0000
# 5 0.0000 0.0000 0.0000 0.0000 17.4199 0.0000
# 6 0.0000 0.0000 0.0000 0.0000 0.0000 26.1195
#
#
#
# Elastic Compliance Matrix: (Units=1/GPa)
#
#
# Indices 1 2 3 4 5 6 
#
# 1 0.013491 -0.004990 -0.005393 0.000000 0.000000 0.000000
# 2 -0.004990 0.018606 -0.003669 0.000000 0.000000 0.000000
# 3 -0.005393 -0.003669 0.011643 0.000000 0.000000 0.000000
# 4 0.000000 0.000000 0.000000 0.067537 0.000000 0.000000
# 5 0.000000 0.000000 0.000000 0.000000 0.057406 0.000000
# 6 0.000000 0.000000 0.000000 0.000000 0.000000 0.038286
#
#
# Mechanical properties :
#
#
# Convention : Reuss Voigt Hill
#
# Bulk Modulus (GPa) = 63.94996 71.57563 67.76279
# Shear Modulus (GPa) = 20.80882 22.73885 21.77383
#
# Velocity S-wave (km/s) = 3.29641 3.44590 3.37198
# Velocity P-wave (km/s) = 6.91976 7.29445 7.10957
#
# Compressibility (1/GPa) = 0.01563723
#
# Stress axis : x y z
#
# Youngs Moduli (GPa) = 74.12618 53.74522 85.89021
#
# Poissons Ratio (x) = 0.26817 0.46320
# Poissons Ratio (y) = 0.36987 0.31509
# Poissons Ratio (z) = 0.39976 0.19717
#
# Static dielectric constant tensor:
#      x y z
#    x 3.946320 0.000000 0.000000 
#    y 0.000000 3.668090 0.000000 
#    z 0.000000 0.000000 3.091960 
# 
# 
# High freq. dielectric constant tensor:
#      x y z
#    x 1.762390 0.000000 0.000000 
#    y 0.000000 1.752460 0.000000 
#    z 0.000000 0.000000 1.703110 
# 
# From -- ./inp_files/17022.got.cif
#   From: 2010.03.12/outbox.cif.g09.slc.cpg/sg59_9_cif.got.tgz:17022.got - 2010.04.16 16:29:54.
