data_PCOD8243927
_publ_section_title
;
Structure prediction by ZEFSAII (Michael W. Deem and Ramdas Pophale) SiO2 
 PCOD8243927
Probable space group: P M M N
;
_chemical_formula_sum "Si O2"
_cell_formula_units_Z 40
_cell_length_a 8.983993
_cell_length_b 18.041644
_cell_length_c 12.894005
_cell_angle_alpha 90.000000
_cell_angle_beta 90.000000
_cell_angle_gamma 90.000000
_cell_volume 2089.937738
_symmetry_space_group_name_H-M "P M M N"
_symmetry_group_IT_number 59
_space_group.IT_coordinate_system_code '2'
_symmetry_cell_setting 'orthorhombic'
loop_
_space_group_symop_operation_xyz
x,y,z
1/2-x,1/2-y,z
1/2+x,-y,-z
-x,1/2+y,-z
-x,-y,-z
1/2+x,1/2+y,-z
1/2-x,y,z
x,1/2-y,z
loop_
_atom_site_type_symbol
_atom_site_label
_atom_site_fract_x
_atom_site_fract_y
_atom_site_fract_z
Si Si1 0.573792 0.420688 0.490142
Si Si2 0.575756 0.663876 0.692183
Si Si3 0.419000 0.162024 0.673810
Si Si4 0.414662 0.161980 0.075902
Si Si5 0.416014 0.661686 0.122138
O O1 0.500000 0.500000 0.500000
O O2 0.750000 0.428711 0.493478
O O3 0.525536 0.384790 0.382070
O O4 0.521449 0.369009 0.583499
O O5 0.750000 0.648689 0.671193
O O6 0.540011 0.750000 0.673078
O O7 0.531160 0.639604 0.809068
O O8 0.250000 0.133503 0.661090
O O9 0.425926 0.250000 0.667459
O O10 0.480999 0.133305 0.784024
O O11 0.250000 0.129672 0.055668
O O12 0.407667 0.250000 0.069213
O O13 0.522855 0.129878 0.987124
O O14 0.250000 0.630548 0.138380
O O15 0.415366 0.750000 0.119451
#
# Coordination Sequence:
#
# PCOD8243927 Si02
#       5
#     8   8   8   8   8
#     4  12  25  39  55  75 103 138 177 220 266 316
#     4   9  18  34  56  81 109 140 175 215 259 309
#     4  10  20  35  56  80 107 139 175 215 260 311
#     4   8  14  26  46  73 105 139 171 205 250 303
#     4   9  16  26  44  74 109 139 170 211 255 299
#
# _framework density 19.139324999999999
#
# number of rings (size 3 to 8) (size 9 to 14) (size 15 to 20)
#    0.000    2.400    0.000    4.800    0.000    7.200 
#    0.000    2.000    0.000    1.200    0.000    0.000 
#    0.000    0.000    0.000    0.000    0.000    0.000 
#
# Total GULP energy -495943.324296 kJ/mol
# GULP energy per Si atom -12398.583107 kJ/mol
# Density = 1.909576 g / cm^3
# Si number density = 19.139325 Si / 1000 Ang^3
#
#
#
# Elastic Constant Matrix: (Units=GPa)
#
#
# Indices 1 2 3 4 5 6 
#
# 1 143.3601 28.0608 71.4807 0.0000 0.0000 0.0000
# 2 28.0608 22.9159 22.5088 0.0000 0.0000 0.0000
# 3 71.4807 22.5088 149.5170 0.0000 0.0000 0.0000
# 4 0.0000 0.0000 0.0000 -2.8025 0.0000 0.0000
# 5 0.0000 0.0000 0.0000 0.0000 35.2849 0.0000
# 6 0.0000 0.0000 0.0000 0.0000 0.0000 22.8787
#
#
#
# Elastic Compliance Matrix: (Units=1/GPa)
#
#
# Indices 1 2 3 4 5 6 
#
# 1 0.010654 -0.009439 -0.003673 0.000000 0.000000 0.000000
# 2 -0.009439 0.059572 -0.004456 0.000000 0.000000 0.000000
# 3 -0.003673 -0.004456 0.009115 0.000000 0.000000 0.000000
# 4 0.000000 0.000000 0.000000 -0.356818 0.000000 0.000000
# 5 0.000000 0.000000 0.000000 0.000000 0.028341 0.000000
# 6 0.000000 0.000000 0.000000 0.000000 0.000000 0.043709
#
#
# Mechanical properties :
#
#
# Convention : Reuss Voigt Hill
#
# Bulk Modulus (GPa) = 22.62081 62.21039 42.41560
# Shear Modulus (GPa) = -32.14247 23.98839 -4.07704
#
# Velocity S-wave (km/s) = -4.10249 3.54412 -1.46110
# Velocity P-wave (km/s) = 3.25513 7.02298 4.40036
#
# Compressibility (1/GPa) = 0.04420707
#
# Stress axis : x y z
#
# Youngs Moduli (GPa) = 93.86027 16.78630 109.71225
#
# Poissons Ratio (x) = 0.15844 0.40292
# Poissons Ratio (y) = 0.88593 0.48885
# Poissons Ratio (z) = 0.34471 0.07480
#
# Static dielectric constant tensor:
#      x y z
#    x 3.704440 0.000000 0.000000 
#    y 0.000000 3.048610 0.000000 
#    z 0.000000 0.000000 3.822060 
# 
# 
# High freq. dielectric constant tensor:
#      x y z
#    x 1.749900 0.000000 0.000000 
#    y 0.000000 1.691010 0.000000 
#    z 0.000000 0.000000 1.765030 
# 
# From -- ./inp_files/13855.got.cif
#   From: 2010.03.12/outbox.cif.g09.slc.cpg/sg59_7_cif.got.tgz:13855.got - 2010.04.16 16:29:54.
