data_PCOD8243486
_publ_section_title
;
Structure prediction by ZEFSAII (Michael W. Deem and Ramdas Pophale) SiO2 
 PCOD8243486
Probable space group: P M M N
;
_chemical_formula_sum "Si O2"
_cell_formula_units_Z 48
_cell_length_a 9.413846
_cell_length_b 9.105815
_cell_length_c 28.984321
_cell_angle_alpha 90.000000
_cell_angle_beta 90.000000
_cell_angle_gamma 90.000000
_cell_volume 2484.557448
_symmetry_space_group_name_H-M "P M M N"
_symmetry_group_IT_number 59
_space_group.IT_coordinate_system_code '2'
_symmetry_cell_setting 'orthorhombic'
loop_
_space_group_symop_operation_xyz
x,y,z
1/2-x,1/2-y,z
1/2+x,-y,-z
-x,1/2+y,-z
-x,-y,-z
1/2+x,1/2+y,-z
1/2-x,y,z
x,1/2-y,z
loop_
_atom_site_type_symbol
_atom_site_label
_atom_site_fract_x
_atom_site_fract_y
_atom_site_fract_z
Si Si1 0.915460 0.576046 0.459113
Si Si2 0.750000 0.419825 0.064967
Si Si3 0.412681 0.424168 0.718053
Si Si4 0.088268 0.924333 0.369534
Si Si5 0.591131 0.919871 0.792835
Si Si6 0.750000 0.075419 0.962364
Si Si7 0.457730 0.078505 0.103439
O O1 0.750000 0.526411 0.458042
O O2 0.926097 0.750000 0.465195
O O3 0.000000 0.500000 0.500000
O O4 0.994279 0.522877 0.412746
O O5 0.750000 0.250000 0.053114
O O6 0.620870 0.462468 0.097639
O O7 0.750000 0.493204 0.014163
O O8 0.250000 0.477217 0.711830
O O9 0.419322 0.250000 0.720242
O O10 0.508233 0.484627 0.675827
O O11 0.476557 0.486711 0.765091
O O12 0.250000 0.987221 0.372233
O O13 0.094247 0.750000 0.368249
O O14 0.750000 0.946360 0.773148
O O15 0.547083 0.750000 0.789273
O O16 0.590256 0.971452 0.845893
O O17 0.750000 0.250000 0.961340
O O18 0.886224 0.015818 0.936146
O O19 0.422773 0.250000 0.095855
#
# Coordination Sequence:
#
# PCOD8243486 Si02
#       7
#     8   4   8   8   8   4   8
#     4  10  20  34  54  81 113 149 190 235 279 326
#     4   9  20  35  57  83 107 139 183 223 262 317
#     4  10  21  36  56  83 112 141 175 220 274 327
#     4   9  17  32  55  80 108 146 187 223 269 330
#     4  10  21  37  57  80 104 138 184 223 261 319
#     4  11  21  35  55  85 113 137 175 225 270 313
#     4  10  20  38  59  78 105 145 183 216 263 326
#
# _framework density 19.319336
#
# number of rings (size 3 to 8) (size 9 to 14) (size 15 to 20)
#    0.000    2.167    0.833    2.250    1.167    5.000 
#    0.000    2.083    0.000    5.000    0.000    0.000 
#    0.000    0.000    0.000    0.000    0.000    0.000 
#
# Total GULP energy -595095.880867 kJ/mol
# GULP energy per Si atom -12397.830851 kJ/mol
# Density = 1.927536 g / cm^3
# Si number density = 19.319336 Si / 1000 Ang^3
#
#
#
# Elastic Constant Matrix: (Units=GPa)
#
#
# Indices 1 2 3 4 5 6 
#
# 1 171.6271 27.3171 60.8058 0.0000 0.0000 0.0000
# 2 27.3171 26.0448 23.3084 0.0000 0.0000 0.0000
# 3 60.8058 23.3084 111.0593 0.0000 0.0000 0.0000
# 4 0.0000 0.0000 0.0000 27.8766 0.0000 0.0000
# 5 0.0000 0.0000 0.0000 0.0000 41.1097 0.0000
# 6 0.0000 0.0000 0.0000 0.0000 0.0000 25.9240
#
#
#
# Elastic Compliance Matrix: (Units=1/GPa)
#
#
# Indices 1 2 3 4 5 6 
#
# 1 0.007793 -0.005362 -0.003141 0.000000 0.000000 0.000000
# 2 -0.005362 0.050965 -0.007760 0.000000 0.000000 0.000000
# 3 -0.003141 -0.007760 0.012353 0.000000 0.000000 0.000000
# 4 0.000000 0.000000 0.000000 0.035872 0.000000 0.000000
# 5 0.000000 0.000000 0.000000 0.000000 0.024325 0.000000
# 6 0.000000 0.000000 0.000000 0.000000 0.000000 0.038574
#
#
# Mechanical properties :
#
#
# Convention : Reuss Voigt Hill
#
# Bulk Modulus (GPa) = 25.91841 59.06598 42.49220
# Shear Modulus (GPa) = 23.22655 32.13540 27.68097
#
# Velocity S-wave (km/s) = 3.47110 4.08288 3.78936
# Velocity P-wave (km/s) = 5.43228 7.27093 6.41779
#
# Compressibility (1/GPa) = 0.03858261
#
# Stress axis : x y z
#
# Youngs Moduli (GPa) = 128.31971 19.62145 80.95377
#
# Poissons Ratio (x) = 0.10522 0.25430
# Poissons Ratio (y) = 0.68811 0.62821
# Poissons Ratio (z) = 0.40309 0.15227
#
# Static dielectric constant tensor:
#      x y z
#    x 3.759960 0.000000 0.000000 
#    y 0.000000 3.165750 0.000000 
#    z 0.000000 0.000000 3.607810 
# 
# 
# High freq. dielectric constant tensor:
#      x y z
#    x 1.772960 0.000000 0.000000 
#    y 0.000000 1.711600 0.000000 
#    z 0.000000 0.000000 1.762550 
# 
# From -- ./inp_files/32973.got.cif
#   From: 2010.03.12/outbox.cif.g09.slc.cpg/sg59_17_cif.got.tgz:32973.got - 2010.04.16 16:29:54.
