data_PCOD8243783
_publ_section_title
;
Structure prediction by ZEFSAII (Michael W. Deem and Ramdas Pophale) SiO2 
 PCOD8243783
Probable space group: P M M N
;
_chemical_formula_sum "Si O2"
_cell_formula_units_Z 48
_cell_length_a 18.179386
_cell_length_b 9.223675
_cell_length_c 15.514246
_cell_angle_alpha 90.000000
_cell_angle_beta 90.000000
_cell_angle_gamma 90.000000
_cell_volume 2601.440376
_symmetry_space_group_name_H-M "P M M N"
_symmetry_group_IT_number 59
_space_group.IT_coordinate_system_code '2'
_symmetry_cell_setting 'orthorhombic'
loop_
_space_group_symop_operation_xyz
x,y,z
1/2-x,1/2-y,z
1/2+x,-y,-z
-x,1/2+y,-z
-x,-y,-z
1/2+x,1/2+y,-z
1/2-x,y,z
x,1/2-y,z
loop_
_atom_site_type_symbol
_atom_site_label
_atom_site_fract_x
_atom_site_fract_y
_atom_site_fract_z
Si Si1 0.667905 0.421697 0.501754
Si Si2 0.579317 0.077426 0.668837
Si Si3 0.164381 0.419607 0.183451
Si Si4 0.662631 0.589875 0.008618
Si Si5 0.166435 0.579944 0.828161
Si Si6 0.574997 0.421962 0.337984
O O1 0.750000 0.488732 0.499430
O O2 0.673030 0.250000 0.500340
O O3 0.627823 0.475130 0.588032
O O4 0.623369 0.475300 0.418565
O O5 0.572331 0.250000 0.673261
O O6 0.616801 0.019809 0.754983
O O7 0.500171 0.007837 0.657664
O O8 0.250000 0.455275 0.197543
O O9 0.149111 0.250000 0.201178
O O10 0.138353 0.461723 0.086625
O O11 0.750000 0.593153 0.009526
O O12 0.631171 0.750000 0.026777
O O13 0.632578 0.486140 0.083959
O O14 0.250000 0.526293 0.812091
O O15 0.164387 0.750000 0.839769
O O16 0.117502 0.530136 0.748053
O O17 0.560277 0.250000 0.340353
#
# Coordination Sequence:
#
# PCOD8243783 Si02
#       6
#     8   8   8   8   8   8
#     4   9  18  34  56  79 101 129 168 212 256 302
#     4  11  22  34  51  77 108 138 169 209 255 299
#     4   9  18  34  55  77 102 135 174 211 251 304
#     4   8  15  29  50  75 102 132 165 206 257 305
#     4   9  17  30  51  78 102 128 169 216 256 298
#     4  10  20  35  54  74 102 139 172 204 249 307
#
# _framework density 18.451315999999998
#
# number of rings (size 3 to 8) (size 9 to 14) (size 15 to 20)
#    0.000    2.667    0.000    3.000    0.000    4.333 
#    0.000    3.333    0.000    3.500    0.000    0.000 
#    0.000    0.000    0.000    0.000    0.000    0.000 
#
# Total GULP energy -595117.040948 kJ/mol
# GULP energy per Si atom -12398.271686 kJ/mol
# Density = 1.840932 g / cm^3
# Si number density = 18.451316 Si / 1000 Ang^3
#
#
#
# Elastic Constant Matrix: (Units=GPa)
#
#
# Indices 1 2 3 4 5 6 
#
# 1 123.7098 46.2239 80.2900 0.0000 0.0000 0.0000
# 2 46.2239 44.6001 51.0887 0.0000 0.0000 0.0000
# 3 80.2900 51.0887 176.0173 0.0000 0.0000 0.0000
# 4 0.0000 0.0000 0.0000 23.4733 0.0000 0.0000
# 5 0.0000 0.0000 0.0000 0.0000 6.7140 0.0000
# 6 0.0000 0.0000 0.0000 0.0000 0.0000 26.1403
#
#
#
# Elastic Compliance Matrix: (Units=1/GPa)
#
#
# Indices 1 2 3 4 5 6 
#
# 1 0.014401 -0.011086 -0.003351 0.000000 0.000000 0.000000
# 2 -0.011086 0.042124 -0.007169 0.000000 0.000000 0.000000
# 3 -0.003351 -0.007169 0.009291 0.000000 0.000000 0.000000
# 4 0.000000 0.000000 0.000000 0.042602 0.000000 0.000000
# 5 0.000000 0.000000 0.000000 0.000000 0.148943 0.000000
# 6 0.000000 0.000000 0.000000 0.000000 0.000000 0.038255
#
#
# Mechanical properties :
#
#
# Convention : Reuss Voigt Hill
#
# Bulk Modulus (GPa) = 44.24446 77.72584 60.98515
# Shear Modulus (GPa) = 14.43572 22.38049 18.40811
#
# Velocity S-wave (km/s) = 2.80012 3.48652 3.16200
# Velocity P-wave (km/s) = 5.87242 7.64356 6.81577
#
# Compressibility (1/GPa) = 0.02260170
#
# Stress axis : x y z
#
# Youngs Moduli (GPa) = 69.44065 23.73947 107.63422
#
# Poissons Ratio (x) = 0.26319 0.36069
# Poissons Ratio (y) = 0.76985 0.77166
# Poissons Ratio (z) = 0.23270 0.17020
#
# Static dielectric constant tensor:
#      x y z
#    x 3.888230 0.000000 0.000000 
#    y 0.000000 3.221210 0.000000 
#    z 0.000000 0.000000 3.720460 
# 
# 
# High freq. dielectric constant tensor:
#      x y z
#    x 1.702630 0.000000 0.000000 
#    y 0.000000 1.693150 0.000000 
#    z 0.000000 0.000000 1.734950 
# 
# From -- ./inp_files/23636.got.cif
#   From: 2010.03.12/outbox.cif.g09.slc.cpg/sg59_12_cif.got.tgz:23636.got - 2010.04.16 16:29:54.
