data_PCOD8243474
_publ_section_title
;
Structure prediction by ZEFSAII (Michael W. Deem and Ramdas Pophale) SiO2 
 PCOD8243474
Probable space group: P M M N
;
_chemical_formula_sum "Si O2"
_cell_formula_units_Z 64
_cell_length_a 18.990657
_cell_length_b 8.884392
_cell_length_c 20.285322
_cell_angle_alpha 90.000000
_cell_angle_beta 90.000000
_cell_angle_gamma 90.000000
_cell_volume 3422.548476
_symmetry_space_group_name_H-M "P M M N"
_symmetry_group_IT_number 59
_space_group.IT_coordinate_system_code '2'
_symmetry_cell_setting 'orthorhombic'
loop_
_space_group_symop_operation_xyz
x,y,z
1/2-x,1/2-y,z
1/2+x,-y,-z
-x,1/2+y,-z
-x,-y,-z
1/2+x,1/2+y,-z
1/2-x,y,z
x,1/2-y,z
loop_
_atom_site_type_symbol
_atom_site_label
_atom_site_fract_x
_atom_site_fract_y
_atom_site_fract_z
Si Si1 0.333504 0.577578 0.636760
Si Si2 0.833738 0.919987 0.495629
Si Si3 0.073174 0.426103 0.264277
Si Si4 0.925353 0.928078 0.255062
Si Si5 0.170992 0.927919 0.003054
Si Si6 0.666750 0.076689 0.628248
Si Si7 0.415993 0.422238 0.113302
Si Si8 0.423705 0.926808 0.883252
O O1 0.250000 0.564499 0.641235
O O2 0.358504 0.750000 0.641645
O O3 0.361692 0.509733 0.567919
O O4 0.364654 0.480971 0.695967
O O5 0.750000 0.919413 0.495974
O O6 0.863353 0.750000 0.494192
O O7 0.861910 0.003544 0.560767
O O8 0.062738 0.250000 0.276670
O O9 0.133449 0.490403 0.310581
O O10 0.097552 0.458387 0.189763
O O11 0.999407 0.505696 0.279452
O O12 0.930260 0.750000 0.254690
O O13 0.904114 0.985203 0.182782
O O14 0.250000 0.993416 0.998799
O O15 0.171954 0.750000 0.001115
O O16 0.136041 0.975796 0.071360
O O17 0.126748 0.988693 0.940814
O O18 0.750000 0.058072 0.634310
O O19 0.643784 0.250000 0.629200
O O20 0.398992 0.250000 0.096805
O O21 0.496456 0.461166 0.094935
O O22 0.413813 0.750000 0.869068
#
# Coordination Sequence:
#
# PCOD8243474 Si02
#       8
#     8   8   8   8   8   8   8   8
#     4  10  20  35  56  80 108 144 182 220 265 318
#     4   9  17  31  52  78 108 142 181 223 266 316
#     4  10  21  38  57  78 107 143 183 223 268 322
#     4  11  22  36  56  82 110 139 176 223 273 321
#     4  10  21  35  53  79 109 138 170 214 265 314
#     4  10  20  34  54  81 111 143 181 224 270 320
#     4   9  19  35  55  76 100 136 178 218 259 310
#     4   9  19  37  56  75 103 140 180 215 256 316
#
# _framework density 18.699515999999999
#
# number of rings (size 3 to 8) (size 9 to 14) (size 15 to 20)
#    0.000    2.250    0.000    3.750    0.000    7.250 
#    0.000    4.375    0.000    0.000    0.000    0.000 
#    0.000    0.000    0.000    0.000    0.000    0.000 
#
# Total GULP energy -793795.516987 kJ/mol
# GULP energy per Si atom -12403.054953 kJ/mol
# Density = 1.865696 g / cm^3
# Si number density = 18.699516 Si / 1000 Ang^3
#
#
#
# Elastic Constant Matrix: (Units=GPa)
#
#
# Indices 1 2 3 4 5 6 
#
# 1 67.4698 38.2545 59.4907 0.0000 0.0000 0.0000
# 2 38.2545 111.0101 60.8542 0.0000 0.0000 0.0000
# 3 59.4907 60.8542 125.4223 0.0000 0.0000 0.0000
# 4 0.0000 0.0000 0.0000 37.6492 0.0000 0.0000
# 5 0.0000 0.0000 0.0000 0.0000 25.5276 0.0000
# 6 0.0000 0.0000 0.0000 0.0000 0.0000 28.7616
#
#
#
# Elastic Compliance Matrix: (Units=1/GPa)
#
#
# Indices 1 2 3 4 5 6 
#
# 1 0.026199 -0.003019 -0.010962 0.000000 0.000000 0.000000
# 2 -0.003019 0.012620 -0.004691 0.000000 0.000000 0.000000
# 3 -0.010962 -0.004691 0.015449 0.000000 0.000000 0.000000
# 4 0.000000 0.000000 0.000000 0.026561 0.000000 0.000000
# 5 0.000000 0.000000 0.000000 0.000000 0.039173 0.000000
# 6 0.000000 0.000000 0.000000 0.000000 0.000000 0.034769
#
#
# Mechanical properties :
#
#
# Convention : Reuss Voigt Hill
#
# Bulk Modulus (GPa) = 59.09001 69.01124 64.05063
# Shear Modulus (GPa) = 25.28371 28.07453 26.67912
#
# Velocity S-wave (km/s) = 3.68109 3.87893 3.78130
# Velocity P-wave (km/s) = 7.05234 7.55294 7.30693
#
# Compressibility (1/GPa) = 0.01692333
#
# Stress axis : x y z
#
# Youngs Moduli (GPa) = 38.16991 79.23772 64.73038
#
# Poissons Ratio (x) = 0.23922 0.70956
# Poissons Ratio (y) = 0.11524 0.30367
# Poissons Ratio (z) = 0.41841 0.37173
#
# Static dielectric constant tensor:
#      x y z
#    x 3.313590 0.000000 0.000000 
#    y 0.000000 3.489910 0.000000 
#    z 0.000000 0.000000 3.540040 
# 
# 
# High freq. dielectric constant tensor:
#      x y z
#    x 1.707630 0.000000 0.000000 
#    y 0.000000 1.732800 0.000000 
#    z 0.000000 0.000000 1.736910 
# 
# From -- ./inp_files/28258.got.cif
#   From: 2010.03.12/outbox.cif.g09.slc.cpg/sg59_15_cif.got.tgz:28258.got - 2010.04.16 16:29:54.
