data_PCOD8243620
_publ_section_title
;
Structure prediction by ZEFSAII (Michael W. Deem and Ramdas Pophale) SiO2 
 PCOD8243620
Probable space group: P M M N
;
_chemical_formula_sum "Si O2"
_cell_formula_units_Z 64
_cell_length_a 8.757159
_cell_length_b 13.972668
_cell_length_c 26.598444
_cell_angle_alpha 90.000000
_cell_angle_beta 90.000000
_cell_angle_gamma 90.000000
_cell_volume 3254.608890
_symmetry_space_group_name_H-M "P M M N"
_symmetry_group_IT_number 59
_space_group.IT_coordinate_system_code '2'
_symmetry_cell_setting 'orthorhombic'
loop_
_space_group_symop_operation_xyz
x,y,z
1/2-x,1/2-y,z
1/2+x,-y,-z
-x,1/2+y,-z
-x,-y,-z
1/2+x,1/2+y,-z
1/2-x,y,z
x,1/2-y,z
loop_
_atom_site_type_symbol
_atom_site_label
_atom_site_fract_x
_atom_site_fract_y
_atom_site_fract_z
Si Si1 0.922623 0.853256 0.784774
Si Si2 0.929496 0.042875 0.574822
Si Si3 0.078533 0.643401 0.888048
Si Si4 0.070294 0.360866 0.862624
Si Si5 0.428755 0.358352 0.666700
Si Si6 0.570947 0.857448 0.517384
Si Si7 0.926576 0.059681 0.762907
Si Si8 0.927936 0.483200 0.946071
O O1 0.750000 0.860030 0.806622
O O2 0.942249 0.750000 0.755947
O O3 0.044089 0.855803 0.829201
O O4 0.950417 0.946377 0.749881
O O5 0.750000 0.051084 0.576829
O O6 0.992854 0.066124 0.629683
O O7 0.990196 0.120286 0.535227
O O8 0.980960 0.934967 0.559262
O O9 0.250000 0.601924 0.895774
O O10 0.068435 0.750000 0.910479
O O11 0.952684 0.580572 0.915621
O O12 0.250000 0.379161 0.858693
O O13 0.029148 0.250000 0.856734
O O14 0.986227 0.420001 0.818943
O O15 0.010002 0.396360 0.916696
O O16 0.250000 0.372737 0.662662
O O17 0.475677 0.250000 0.652448
O O18 0.479227 0.378097 0.723531
O O19 0.750000 0.865620 0.507280
O O20 0.526048 0.750000 0.535095
O O21 0.750000 0.089141 0.759275
O O22 0.750000 0.459727 0.951257
O O23 0.000000 0.500000 0.000000
#
# Coordination Sequence:
#
# PCOD8243620 Si02
#       8
#     8   8   8   8   8   8   8   8
#     4   9  18  34  57  85 114 144 179 221 273 331
#     4  10  20  34  55  84 115 149 194 246 292 340
#     4  10  20  35  58  86 113 143 180 223 271 328
#     4  11  24  42  63  87 118 154 190 233 287 345
#     4  11  24  40  57  79 112 155 197 241 295 349
#     4   9  18  34  56  82 115 155 194 234 289 354
#     4  11  22  37  61  90 117 151 193 239 285 337
#     4  12  25  41  61  85 115 151 188 233 284 339
#
# _framework density 19.664422999999999
#
# number of rings (size 3 to 8) (size 9 to 14) (size 15 to 20)
#    0.000    1.625    1.250    3.750    0.000    7.500 
#    0.000    0.625    0.000    3.750    0.000    0.000 
#    0.000    0.000    0.000    0.000    0.000    0.000 
#
# Total GULP energy -793528.461260 kJ/mol
# GULP energy per Si atom -12398.882207 kJ/mol
# Density = 1.961967 g / cm^3
# Si number density = 19.664423 Si / 1000 Ang^3
#
#
#
# Elastic Constant Matrix: (Units=GPa)
#
#
# Indices 1 2 3 4 5 6 
#
# 1 30.6114 42.1927 5.8094 0.0000 0.0000 0.0000
# 2 42.1927 129.9843 31.2211 0.0000 0.0000 0.0000
# 3 5.8094 31.2211 72.3162 0.0000 0.0000 0.0000
# 4 0.0000 0.0000 0.0000 25.2056 0.0000 0.0000
# 5 0.0000 0.0000 0.0000 0.0000 34.7003 0.0000
# 6 0.0000 0.0000 0.0000 0.0000 0.0000 28.7353
#
#
#
# Elastic Compliance Matrix: (Units=1/GPa)
#
#
# Indices 1 2 3 4 5 6 
#
# 1 0.060143 -0.020486 0.004013 0.000000 0.000000 0.000000
# 2 -0.020486 0.015561 -0.005073 0.000000 0.000000 0.000000
# 3 0.004013 -0.005073 0.015696 0.000000 0.000000 0.000000
# 4 0.000000 0.000000 0.000000 0.039674 0.000000 0.000000
# 5 0.000000 0.000000 0.000000 0.000000 0.028818 0.000000
# 6 0.000000 0.000000 0.000000 0.000000 0.000000 0.034800
#
#
# Mechanical properties :
#
#
# Convention : Reuss Voigt Hill
#
# Bulk Modulus (GPa) = 20.70030 43.48423 32.09226
# Shear Modulus (GPa) = 19.69385 27.97415 23.83400
#
# Velocity S-wave (km/s) = 3.16808 3.77580 3.48521
# Velocity P-wave (km/s) = 4.89202 6.41639 5.70535
#
# Compressibility (1/GPa) = 0.04830849
#
# Stress axis : x y z
#
# Youngs Moduli (GPa) = 16.62713 64.26168 63.71141
#
# Poissons Ratio (x) = 1.31647 -0.25568
# Poissons Ratio (y) = 0.34062 0.32318
# Poissons Ratio (z) = -0.06673 0.32597
#
# Static dielectric constant tensor:
#      x y z
#    x 4.033980 0.000000 0.000000 
#    y 0.000000 4.088570 0.000000 
#    z 0.000000 0.000000 3.500110 
# 
# 
# High freq. dielectric constant tensor:
#      x y z
#    x 1.775760 0.000000 0.000000 
#    y 0.000000 1.783710 0.000000 
#    z 0.000000 0.000000 1.738500 
# 
# From -- ./inp_files/31585.got.cif
#   From: 2010.03.12/outbox.cif.g09.slc.cpg/sg59_16_cif.got.tgz:31585.got - 2010.04.16 16:29:54.
