data_PCOD8243079
_publ_section_title
;
Structure prediction by ZEFSAII (Michael W. Deem and Ramdas Pophale) SiO2 
 PCOD8243079
Probable space group: P M M N
;
_chemical_formula_sum "Si O2"
_cell_formula_units_Z 64
_cell_length_a 8.852077
_cell_length_b 18.954194
_cell_length_c 20.556418
_cell_angle_alpha 90.000000
_cell_angle_beta 90.000000
_cell_angle_gamma 90.000000
_cell_volume 3449.037724
_symmetry_space_group_name_H-M "P M M N"
_symmetry_group_IT_number 59
_space_group.IT_coordinate_system_code '2'
_symmetry_cell_setting 'orthorhombic'
loop_
_space_group_symop_operation_xyz
x,y,z
1/2-x,1/2-y,z
1/2+x,-y,-z
-x,1/2+y,-z
-x,-y,-z
1/2+x,1/2+y,-z
1/2-x,y,z
x,1/2-y,z
loop_
_atom_site_type_symbol
_atom_site_label
_atom_site_fract_x
_atom_site_fract_y
_atom_site_fract_z
Si Si1 0.576614 0.829970 0.251222
Si Si2 0.574838 0.959959 0.682019
Si Si3 0.075303 0.669652 0.737205
Si Si4 0.071977 0.036522 0.061731
Si Si5 0.925275 0.453095 0.811152
Si Si6 0.071665 0.463372 0.561811
Si Si7 0.926521 0.329692 0.113609
Si Si8 0.573234 0.169771 0.612014
O O1 0.750000 0.845613 0.269298
O O2 0.555485 0.750000 0.226817
O O3 0.520122 0.880763 0.193714
O O4 0.475697 0.845357 0.314281
O O5 0.750000 0.963823 0.662658
O O6 0.525332 0.878793 0.690210
O O7 0.539243 0.998712 0.749290
O O8 0.477099 0.995907 0.626369
O O9 0.250000 0.648247 0.730109
O O10 0.050047 0.750000 0.714735
O O11 0.022500 0.660264 0.811717
O O12 0.250000 0.035996 0.054230
O O13 0.017317 0.117207 0.067398
O O14 0.017984 0.993989 0.125297
O O15 0.000000 0.000000 0.000000
O O16 0.750000 0.433650 0.816257
O O17 0.250000 0.464526 0.555062
O O18 0.000000 0.500000 0.500000
O O19 0.015085 0.382351 0.563887
O O20 0.750000 0.345258 0.106486
O O21 0.963675 0.250000 0.090976
O O22 0.750000 0.153938 0.607003
O O23 0.534177 0.250000 0.591858
#
# Coordination Sequence:
#
# PCOD8243079 Si02
#       8
#     8   8   8   8   8   8   8   8
#     4  10  20  33  54  86 117 147 189 238 286 337
#     4  11  21  36  58  86 117 148 189 237 283 339
#     4   9  18  33  55  85 118 151 190 236 287 340
#     4  11  23  39  57  83 115 152 194 238 286 341
#     4  10  21  36  56  82 114 148 187 233 285 340
#     4  12  25  41  61  86 118 155 194 238 286 341
#     4   9  18  34  57  84 113 147 188 233 283 342
#     4  10  20  36  59  86 117 152 190 233 283 340
#
# _framework density 18.555900000000001
#
# number of rings (size 3 to 8) (size 9 to 14) (size 15 to 20)
#    0.000    1.750    2.500    3.375    0.000    3.500 
#    0.000    2.500    0.000    4.500    0.000    0.000 
#    0.000    0.000    0.000    0.000    0.000    0.000 
#
# Total GULP energy -793832.656222 kJ/mol
# GULP energy per Si atom -12403.635253 kJ/mol
# Density = 1.851367 g / cm^3
# Si number density = 18.555900 Si / 1000 Ang^3
#
#
#
# Elastic Constant Matrix: (Units=GPa)
#
#
# Indices 1 2 3 4 5 6 
#
# 1 102.5477 66.2430 53.9860 0.0000 0.0000 0.0000
# 2 66.2430 140.5822 59.7018 0.0000 0.0000 0.0000
# 3 53.9860 59.7018 94.5752 0.0000 0.0000 0.0000
# 4 0.0000 0.0000 0.0000 30.9565 0.0000 0.0000
# 5 0.0000 0.0000 0.0000 0.0000 28.8591 0.0000
# 6 0.0000 0.0000 0.0000 0.0000 0.0000 38.5420
#
#
#
# Elastic Compliance Matrix: (Units=1/GPa)
#
#
# Indices 1 2 3 4 5 6 
#
# 1 0.016213 -0.005068 -0.006056 0.000000 0.000000 0.000000
# 2 -0.005068 0.011303 -0.004242 0.000000 0.000000 0.000000
# 3 -0.006056 -0.004242 0.016708 0.000000 0.000000 0.000000
# 4 0.000000 0.000000 0.000000 0.032303 0.000000 0.000000
# 5 0.000000 0.000000 0.000000 0.000000 0.034651 0.000000
# 6 0.000000 0.000000 0.000000 0.000000 0.000000 0.025946
#
#
# Mechanical properties :
#
#
# Convention : Reuss Voigt Hill
#
# Bulk Modulus (GPa) = 74.11416 77.50740 75.81078
# Shear Modulus (GPa) = 29.00999 30.18980 29.59990
#
# Velocity S-wave (km/s) = 3.95825 4.03794 3.99830
# Velocity P-wave (km/s) = 7.80501 7.97498 7.89045
#
# Compressibility (1/GPa) = 0.01349270
#
# Stress axis : x y z
#
# Youngs Moduli (GPa) = 61.67714 88.47271 59.85070
#
# Poissons Ratio (x) = 0.44839 0.36244
# Poissons Ratio (y) = 0.31259 0.25389
# Poissons Ratio (z) = 0.37350 0.37531
#
# Static dielectric constant tensor:
#      x y z
#    x 3.441740 0.000000 0.000000 
#    y 0.000000 3.621320 0.000000 
#    z 0.000000 0.000000 3.415160 
# 
# 
# High freq. dielectric constant tensor:
#      x y z
#    x 1.727160 0.000000 0.000000 
#    y 0.000000 1.735600 0.000000 
#    z 0.000000 0.000000 1.690080 
# 
# From -- ./inp_files/29447.got.cif
#   From: 2010.03.12/outbox.cif.g09.slc.cpg/sg59_15_cif.got.tgz:29447.got - 2010.04.16 16:29:54.
