data_PCOD8243650
_publ_section_title
;
Structure prediction by ZEFSAII (Michael W. Deem and Ramdas Pophale) SiO2 
 PCOD8243650
Probable space group: P M M N
;
_chemical_formula_sum "Si O2"
_cell_formula_units_Z 56
_cell_length_a 20.454943
_cell_length_b 9.020239
_cell_length_c 15.849189
_cell_angle_alpha 90.000000
_cell_angle_beta 90.000000
_cell_angle_gamma 90.000000
_cell_volume 2924.309686
_symmetry_space_group_name_H-M "P M M N"
_symmetry_group_IT_number 59
_space_group.IT_coordinate_system_code '2'
_symmetry_cell_setting 'orthorhombic'
loop_
_space_group_symop_operation_xyz
x,y,z
1/2-x,1/2-y,z
1/2+x,-y,-z
-x,1/2+y,-z
-x,-y,-z
1/2+x,1/2+y,-z
1/2-x,y,z
x,1/2-y,z
loop_
_atom_site_type_symbol
_atom_site_label
_atom_site_fract_x
_atom_site_fract_y
_atom_site_fract_z
Si Si1 0.890936 0.923667 0.705787
Si Si2 0.750000 0.425767 0.458125
Si Si3 0.123977 0.919126 0.645057
Si Si4 0.250000 0.421461 0.362604
Si Si5 0.996839 0.073951 0.590397
Si Si6 0.919902 0.922519 0.065027
Si Si7 0.823445 0.084150 0.170289
Si Si8 0.454850 0.423628 0.120306
O O1 0.905420 0.750000 0.691985
O O2 0.814253 0.959830 0.692526
O O3 0.910379 0.973834 0.800675
O O4 0.933062 0.015892 0.639098
O O5 0.750000 0.250000 0.457993
O O6 0.815174 0.481072 0.409895
O O7 0.750000 0.484024 0.552690
O O8 0.106746 0.750000 0.617550
O O9 0.138773 0.925352 0.742845
O O10 0.062865 0.027840 0.637039
O O11 0.250000 0.250000 0.389070
O O12 0.992000 0.250000 0.582577
O O13 0.000000 0.000000 0.500000
O O14 0.931146 0.750000 0.073996
O O15 0.850359 0.970266 0.101296
O O16 0.920562 0.972027 0.967129
O O17 0.974562 0.000360 0.122832
O O18 0.750000 0.036830 0.189027
O O19 0.828282 0.250000 0.133041
O O20 0.467498 0.250000 0.123864
#
# Coordination Sequence:
#
# PCOD8243650 Si02
#       8
#     8   4   8   4   8   8   8   8
#     4  10  21  40  61  83 111 147 191 236 285 339
#     4  10  20  36  58  81 108 146 188 227 276 338
#     4  10  20  37  59  83 112 149 190 233 279 335
#     4  10  22  38  58  81 106 138 182 235 282 330
#     4  12  25  39  57  85 116 149 188 235 286 337
#     4  10  20  34  55  86 116 145 185 235 282 327
#     4  10  20  36  56  80 114 155 191 223 274 341
#     4   9  19  37  59  82 110 150 189 226 281 343
#
# _framework density 19.149819000000001
#
# number of rings (size 3 to 8) (size 9 to 14) (size 15 to 20)
#    0.000    1.857    0.714    3.429    0.000    8.857 
#    1.286    0.000    0.000    0.000    0.000    0.000 
#    0.000    0.000    0.000    0.000    0.000    0.000 
#
# Total GULP energy -694463.689396 kJ/mol
# GULP energy per Si atom -12401.137311 kJ/mol
# Density = 1.910623 g / cm^3
# Si number density = 19.149819 Si / 1000 Ang^3
#
#
#
# Elastic Constant Matrix: (Units=GPa)
#
#
# Indices 1 2 3 4 5 6 
#
# 1 128.6727 46.3851 56.7812 0.0000 0.0000 0.0000
# 2 46.3851 55.6519 41.8524 0.0000 0.0000 0.0000
# 3 56.7812 41.8524 108.9460 0.0000 0.0000 0.0000
# 4 0.0000 0.0000 0.0000 30.4602 0.0000 0.0000
# 5 0.0000 0.0000 0.0000 0.0000 37.9106 0.0000
# 6 0.0000 0.0000 0.0000 0.0000 0.0000 24.4295
#
#
#
# Elastic Compliance Matrix: (Units=1/GPa)
#
#
# Indices 1 2 3 4 5 6 
#
# 1 0.011930 -0.007408 -0.003372 0.000000 0.000000 0.000000
# 2 -0.007408 0.029869 -0.007614 0.000000 0.000000 0.000000
# 3 -0.003372 -0.007614 0.013861 0.000000 0.000000 0.000000
# 4 0.000000 0.000000 0.000000 0.032830 0.000000 0.000000
# 5 0.000000 0.000000 0.000000 0.000000 0.026378 0.000000
# 6 0.000000 0.000000 0.000000 0.000000 0.000000 0.040934
#
#
# Mechanical properties :
#
#
# Convention : Reuss Voigt Hill
#
# Bulk Modulus (GPa) = 52.98462 64.81201 58.89831
# Shear Modulus (GPa) = 25.14091 28.44353 26.79222
#
# Velocity S-wave (km/s) = 3.62726 3.85816 3.74449
# Velocity P-wave (km/s) = 6.72839 7.33249 7.03693
#
# Compressibility (1/GPa) = 0.01887340
#
# Stress axis : x y z
#
# Youngs Moduli (GPa) = 83.82176 33.47995 72.14413
#
# Poissons Ratio (x) = 0.24801 0.24328
# Poissons Ratio (y) = 0.62092 0.54927
# Poissons Ratio (z) = 0.28266 0.25490
#
# Static dielectric constant tensor:
#      x y z
#    x 3.526120 0.000000 0.000000 
#    y 0.000000 3.527930 0.000000 
#    z 0.000000 0.000000 3.653720 
# 
# 
# High freq. dielectric constant tensor:
#      x y z
#    x 1.750500 0.000000 0.000000 
#    y 0.000000 1.735520 0.000000 
#    z 0.000000 0.000000 1.751230 
# 
# From -- ./inp_files/24346.got.cif
#   From: 2010.03.12/outbox.cif.g09.slc.cpg/sg59_13_cif.got.tgz:24346.got - 2010.04.16 16:29:54.
