data_PCOD8243394
_publ_section_title
;
Structure prediction by ZEFSAII (Michael W. Deem and Ramdas Pophale) SiO2 
 PCOD8243394
Probable space group: P M M N
;
_chemical_formula_sum "Si O2"
_cell_formula_units_Z 48
_cell_length_a 14.175211
_cell_length_b 8.506004
_cell_length_c 21.273447
_cell_angle_alpha 90.000000
_cell_angle_beta 90.000000
_cell_angle_gamma 90.000000
_cell_volume 2565.033139
_symmetry_space_group_name_H-M "P M M N"
_symmetry_group_IT_number 59
_space_group.IT_coordinate_system_code '2'
_symmetry_cell_setting 'orthorhombic'
loop_
_space_group_symop_operation_xyz
x,y,z
1/2-x,1/2-y,z
1/2+x,-y,-z
-x,1/2+y,-z
-x,-y,-z
1/2+x,1/2+y,-z
1/2-x,y,z
x,1/2-y,z
loop_
_atom_site_type_symbol
_atom_site_label
_atom_site_fract_x
_atom_site_fract_y
_atom_site_fract_z
Si Si1 0.644780 0.936110 0.498400
Si Si2 0.358510 0.065212 0.830662
Si Si3 0.506631 0.935175 0.739325
Si Si4 0.007372 0.563973 0.597178
Si Si5 0.358417 0.565842 0.161372
Si Si6 0.505772 0.434664 0.069428
O O1 0.750000 0.004324 0.506531
O O2 0.646259 0.750000 0.497221
O O3 0.581916 0.997766 0.556755
O O4 0.603059 0.996163 0.432485
O O5 0.250000 0.013290 0.832572
O O6 0.370204 0.250000 0.820113
O O7 0.408273 0.975179 0.773253
O O8 0.406496 0.017787 0.896273
O O9 0.524900 0.750000 0.742728
O O10 0.502507 0.997684 0.668105
O O11 0.593510 0.023129 0.772462
O O12 0.013563 0.750000 0.595865
O O13 0.250000 0.513717 0.163853
O O14 0.369725 0.750000 0.148346
O O15 0.408424 0.471745 0.105211
O O16 0.523620 0.250000 0.068663
O O17 0.500000 0.500000 0.000000
#
# Coordination Sequence:
#
# PCOD8243394 Si02
#       6
#     8   8   8   8   8   8
#     4   9  18  33  52  73  99 133 172 213 257 306
#     4  10  21  37  56  78 106 139 175 216 260 307
#     4  10  20  34  54  78 105 138 174 214 260 311
#     4   9  19  34  51  74 103 134 169 212 259 306
#     4  10  21  37  56  79 108 139 173 215 259 305
#     4  11  22  37  58  81 108 140 174 215 259 306
#
# _framework density 18.713208000000002
#
# number of rings (size 3 to 8) (size 9 to 14) (size 15 to 20)
#    0.000    2.167    0.000    5.000    0.000    6.333 
#    0.000    5.000    0.000    0.000    0.000    0.000 
#    0.000    0.000    0.000    0.000    0.000    0.000 
#
# Total GULP energy -595314.990008 kJ/mol
# GULP energy per Si atom -12402.395625 kJ/mol
# Density = 1.867062 g / cm^3
# Si number density = 18.713208 Si / 1000 Ang^3
#
#
#
# Elastic Constant Matrix: (Units=GPa)
#
#
# Indices 1 2 3 4 5 6 
#
# 1 152.7126 12.1273 58.0444 0.0000 0.0000 0.0000
# 2 12.1273 33.9839 8.4823 0.0000 0.0000 0.0000
# 3 58.0444 8.4823 153.3023 0.0000 0.0000 0.0000
# 4 0.0000 0.0000 0.0000 31.0849 0.0000 0.0000
# 5 0.0000 0.0000 0.0000 0.0000 12.9407 0.0000
# 6 0.0000 0.0000 0.0000 0.0000 0.0000 28.2992
#
#
#
# Elastic Compliance Matrix: (Units=1/GPa)
#
#
# Indices 1 2 3 4 5 6 
#
# 1 0.007790 -0.002072 -0.002835 0.000000 0.000000 0.000000
# 2 -0.002072 0.030389 -0.000897 0.000000 0.000000 0.000000
# 3 -0.002835 -0.000897 0.007646 0.000000 0.000000 0.000000
# 4 0.000000 0.000000 0.000000 0.032170 0.000000 0.000000
# 5 0.000000 0.000000 0.000000 0.000000 0.077276 0.000000
# 6 0.000000 0.000000 0.000000 0.000000 0.000000 0.035337
#
#
# Mechanical properties :
#
#
# Convention : Reuss Voigt Hill
#
# Bulk Modulus (GPa) = 29.22506 55.25631 42.24069
# Shear Modulus (GPa) = 23.40582 31.88792 27.64687
#
# Velocity S-wave (km/s) = 3.54045 4.13247 3.84786
# Velocity P-wave (km/s) = 5.68896 7.23615 6.50869
#
# Compressibility (1/GPa) = 0.03421721
#
# Stress axis : x y z
#
# Youngs Moduli (GPa) = 128.36364 32.90653 130.78606
#
# Poissons Ratio (x) = 0.06820 0.37078
# Poissons Ratio (y) = 0.26602 0.11729
# Poissons Ratio (z) = 0.36391 0.02951
#
# Static dielectric constant tensor:
#      x y z
#    x 3.610870 0.000000 0.000000 
#    y 0.000000 3.443670 0.000000 
#    z 0.000000 0.000000 3.558280 
# 
# 
# High freq. dielectric constant tensor:
#      x y z
#    x 1.729210 0.000000 0.000000 
#    y 0.000000 1.731070 0.000000 
#    z 0.000000 0.000000 1.729360 
# 
# From -- ./inp_files/28818.got.cif
#   From: 2010.03.12/outbox.cif.g09.slc.cpg/sg59_15_cif.got.tgz:28818.got - 2010.04.16 16:29:54.
