data_PCOD8243181
_publ_section_title
;
Structure prediction by ZEFSAII (Michael W. Deem and Ramdas Pophale) SiO2 
 PCOD8243181
Probable space group: P M M N
;
_chemical_formula_sum "Si O2"
_cell_formula_units_Z 48
_cell_length_a 7.887230
_cell_length_b 29.686497
_cell_length_c 11.630767
_cell_angle_alpha 90.000000
_cell_angle_beta 90.000000
_cell_angle_gamma 90.000000
_cell_volume 2723.276980
_symmetry_space_group_name_H-M "P M M N"
_symmetry_group_IT_number 59
_space_group.IT_coordinate_system_code '2'
_symmetry_cell_setting 'orthorhombic'
loop_
_space_group_symop_operation_xyz
x,y,z
1/2-x,1/2-y,z
1/2+x,-y,-z
-x,1/2+y,-z
-x,-y,-z
1/2+x,1/2+y,-z
1/2-x,y,z
x,1/2-y,z
loop_
_atom_site_type_symbol
_atom_site_label
_atom_site_fract_x
_atom_site_fract_y
_atom_site_fract_z
Si Si1 0.556008 0.445804 0.620682
Si Si2 0.446524 0.131719 0.347413
Si Si3 0.443772 0.537630 0.635320
Si Si4 0.055486 0.302696 0.144752
Si Si5 0.250000 0.696758 0.014897
Si Si6 0.444530 0.147623 0.607689
Si Si7 0.750000 0.303368 0.726812
O O1 0.750000 0.430909 0.619876
O O2 0.531800 0.492863 0.691358
O O3 0.483199 0.454903 0.492887
O O4 0.454882 0.402109 0.667331
O O5 0.250000 0.122697 0.351641
O O6 0.526284 0.084818 0.298551
O O7 0.494532 0.171993 0.262015
O O8 0.508754 0.144616 0.475251
O O9 0.250000 0.524781 0.632762
O O10 0.250000 0.313598 0.106498
O O11 0.034121 0.250000 0.170493
O O12 0.922952 0.319444 0.048134
O O13 0.250000 0.750000 0.019177
O O14 0.250000 0.677116 0.143346
O O15 0.250000 0.165486 0.618133
O O16 0.575206 0.181173 0.668059
O O17 0.750000 0.250000 0.724941
#
# Coordination Sequence:
#
# PCOD8243181 Si02
#       7
#     8   8   8   8   4   8   4
#     4   9  15  27  44  65 101 139 171 204 242 290
#     4   9  18  30  47  75 110 138 167 205 251 313
#     4   9  16  23  40  69 102 137 168 203 244 290
#     4   9  18  33  53  75 100 130 166 211 261 310
#     4   9  20  37  55  73  93 124 175 229 265 296
#     4  10  20  34  52  75 108 143 170 204 251 310
#     4  11  24  39  53  75 101 132 181 223 254 300
#
# _framework density 17.625824999999999
#
# number of rings (size 3 to 8) (size 9 to 14) (size 15 to 20)
#    0.000    2.667    0.833    1.000    2.333    5.667 
#    0.000    4.167    0.000    0.000    0.000    1.167 
#    0.000    0.000    0.000    0.000    0.000    0.000 
#
# Total GULP energy -594729.830080 kJ/mol
# GULP energy per Si atom -12390.204793 kJ/mol
# Density = 1.758571 g / cm^3
# Si number density = 17.625825 Si / 1000 Ang^3
#
#
#
# Elastic Constant Matrix: (Units=GPa)
#
#
# Indices 1 2 3 4 5 6 
#
# 1 94.0371 41.7893 43.2128 0.0000 0.0000 0.0000
# 2 41.7893 91.4882 36.4595 0.0000 0.0000 0.0000
# 3 43.2128 36.4595 71.5827 0.0000 0.0000 0.0000
# 4 0.0000 0.0000 0.0000 1.4270 0.0000 0.0000
# 5 0.0000 0.0000 0.0000 0.0000 18.8790 0.0000
# 6 0.0000 0.0000 0.0000 0.0000 0.0000 28.9229
#
#
#
# Elastic Compliance Matrix: (Units=1/GPa)
#
#
# Indices 1 2 3 4 5 6 
#
# 1 0.015978 -0.004334 -0.007438 0.000000 0.000000 0.000000
# 2 -0.004334 0.014890 -0.004967 0.000000 0.000000 0.000000
# 3 -0.007438 -0.004967 0.020990 0.000000 0.000000 0.000000
# 4 0.000000 0.000000 0.000000 0.700760 0.000000 0.000000
# 5 0.000000 0.000000 0.000000 0.000000 0.052969 0.000000
# 6 0.000000 0.000000 0.000000 0.000000 0.000000 0.034575
#
#
# Mechanical properties :
#
#
# Convention : Reuss Voigt Hill
#
# Bulk Modulus (GPa) = 54.41097 55.55904 54.98500
# Shear Modulus (GPa) = 5.68332 18.88889 12.28611
#
# Velocity S-wave (km/s) = 1.79762 3.27717 2.64304
# Velocity P-wave (km/s) = 5.93680 6.77566 6.37006
#
# Compressibility (1/GPa) = 0.01837865
#
# Stress axis : x y z
#
# Youngs Moduli (GPa) = 62.58519 67.16059 47.64145
#
# Poissons Ratio (x) = 0.29109 0.35436
# Poissons Ratio (y) = 0.27126 0.23665
# Poissons Ratio (z) = 0.46552 0.33361
#
# Static dielectric constant tensor:
#      x y z
#    x 3.313280 0.000000 0.000000 
#    y 0.000000 3.455510 0.000000 
#    z 0.000000 0.000000 2.993990 
# 
# 
# High freq. dielectric constant tensor:
#      x y z
#    x 1.696370 0.000000 0.000000 
#    y 0.000000 1.688810 0.000000 
#    z 0.000000 0.000000 1.612650 
# 
# From -- ./inp_files/6353.got.cif
#   From: 2010.03.12/outbox.cif.g09.slc.cpg/sg59_4_cif.got.tgz:6353.got - 2010.04.16 16:29:54.
