data_PCOD8243171
_publ_section_title
;
Structure prediction by ZEFSAII (Michael W. Deem and Ramdas Pophale) SiO2 
 PCOD8243171
Probable space group: P M M N
;
_chemical_formula_sum "Si O2"
_cell_formula_units_Z 64
_cell_length_a 8.909461
_cell_length_b 18.628063
_cell_length_c 21.673885
_cell_angle_alpha 90.000000
_cell_angle_beta 90.000000
_cell_angle_gamma 90.000000
_cell_volume 3597.128015
_symmetry_space_group_name_H-M "P M M N"
_symmetry_group_IT_number 59
_space_group.IT_coordinate_system_code '2'
_symmetry_cell_setting 'orthorhombic'
loop_
_space_group_symop_operation_xyz
x,y,z
1/2-x,1/2-y,z
1/2+x,-y,-z
-x,1/2+y,-z
-x,-y,-z
1/2+x,1/2+y,-z
1/2-x,y,z
x,1/2-y,z
loop_
_atom_site_type_symbol
_atom_site_label
_atom_site_fract_x
_atom_site_fract_y
_atom_site_fract_z
Si Si1 0.577720 0.832257 0.996893
Si Si2 0.917160 0.608301 0.517149
Si Si3 0.423090 0.669969 0.629041
Si Si4 0.572627 0.040795 0.057214
Si Si5 0.417929 0.540889 0.412330
Si Si6 0.573209 0.471479 0.301594
Si Si7 0.424501 0.977117 0.177516
Si Si8 0.921496 0.329834 0.875519
O O1 0.750000 0.856654 0.991519
O O2 0.555579 0.750000 0.978685
O O3 0.476256 0.876248 0.948823
O O4 0.527698 0.846999 0.066936
O O5 0.750000 0.634713 0.501031
O O6 0.912578 0.530625 0.547731
O O7 0.989444 0.664282 0.564625
O O8 0.012074 0.604639 0.453773
O O9 0.250000 0.656737 0.613081
O O10 0.450835 0.750000 0.656550
O O11 0.474436 0.609564 0.678237
O O12 0.750000 0.032702 0.054973
O O13 0.512407 0.011166 0.121044
O O14 0.500000 0.000000 0.000000
O O15 0.250000 0.562926 0.391499
O O16 0.521789 0.528788 0.352777
O O17 0.750000 0.478415 0.291345
O O18 0.488199 0.489026 0.239247
O O19 0.250000 0.996681 0.172086
O O20 0.449301 0.890417 0.176634
O O21 0.750000 0.333935 0.899292
O O22 0.956121 0.250000 0.848451
#
# Coordination Sequence:
#
# PCOD8243171 Si02
#       8
#     8   8   8   8   8   8   8   8
#     4  10  20  34  54  80 108 136 169 213 267 326
#     4   9  16  26  45  74 102 128 162 207 258 306
#     4   9  18  33  52  74 103 141 184 226 268 316
#     4  12  23  36  55  79 108 141 177 223 276 329
#     4   9  16  28  47  71 100 131 164 206 255 308
#     4  10  20  34  52  75 104 140 182 227 271 322
#     4  11  22  36  55  79 107 140 179 225 272 329
#     4   9  18  33  54  78 102 130 165 208 262 324
#
# _framework density 17.791972999999999
#
# number of rings (size 3 to 8) (size 9 to 14) (size 15 to 20)
#    0.000    2.125    1.250    3.000    0.000    5.000 
#    0.000    0.625    0.000    3.000    0.000    1.750 
#    0.000    0.000    0.000    0.000    0.000    0.000 
#
# Total GULP energy -793500.187291 kJ/mol
# GULP energy per Si atom -12398.440426 kJ/mol
# Density = 1.775148 g / cm^3
# Si number density = 17.791973 Si / 1000 Ang^3
#
#
#
# Elastic Constant Matrix: (Units=GPa)
#
#
# Indices 1 2 3 4 5 6 
#
# 1 118.7197 48.7971 48.1057 0.0000 0.0000 0.0000
# 2 48.7971 96.9729 55.3679 0.0000 0.0000 0.0000
# 3 48.1057 55.3679 93.1574 0.0000 0.0000 0.0000
# 4 0.0000 0.0000 0.0000 21.3962 0.0000 0.0000
# 5 0.0000 0.0000 0.0000 0.0000 34.5432 0.0000
# 6 0.0000 0.0000 0.0000 0.0000 0.0000 23.4901
#
#
#
# Elastic Compliance Matrix: (Units=1/GPa)
#
#
# Indices 1 2 3 4 5 6 
#
# 1 0.011428 -0.003604 -0.003759 0.000000 0.000000 0.000000
# 2 -0.003604 0.016746 -0.008092 0.000000 0.000000 0.000000
# 3 -0.003759 -0.008092 0.017485 0.000000 0.000000 0.000000
# 4 0.000000 0.000000 0.000000 0.046737 0.000000 0.000000
# 5 0.000000 0.000000 0.000000 0.000000 0.028949 0.000000
# 6 0.000000 0.000000 0.000000 0.000000 0.000000 0.042571
#
#
# Mechanical properties :
#
#
# Convention : Reuss Voigt Hill
#
# Bulk Modulus (GPa) = 67.80264 68.15460 67.97862
# Shear Modulus (GPa) = 25.03224 26.32453 25.67838
#
# Velocity S-wave (km/s) = 3.75499 3.85070 3.80314
# Velocity P-wave (km/s) = 7.54925 7.62627 7.58786
#
# Compressibility (1/GPa) = 0.01474869
#
# Stress axis : x y z
#
# Youngs Moduli (GPa) = 87.50560 59.71624 57.19205
#
# Poissons Ratio (x) = 0.21523 0.21499
# Poissons Ratio (y) = 0.31539 0.46278
# Poissons Ratio (z) = 0.32894 0.48320
#
# Static dielectric constant tensor:
#      x y z
#    x 3.510150 0.000000 0.000000 
#    y 0.000000 3.443380 0.000000 
#    z 0.000000 0.000000 2.882270 
# 
# 
# High freq. dielectric constant tensor:
#      x y z
#    x 1.704620 0.000000 0.000000 
#    y 0.000000 1.678180 0.000000 
#    z 0.000000 0.000000 1.660730 
# 
# From -- ./inp_files/29606.got.cif
#   From: 2010.03.12/outbox.cif.g09.slc.cpg/sg59_15_cif.got.tgz:29606.got - 2010.04.16 16:29:54.
