data_PCOD8243714
_publ_section_title
;
Structure prediction by ZEFSAII (Michael W. Deem and Ramdas Pophale) SiO2 
 PCOD8243714
Probable space group: P M M N
;
_chemical_formula_sum "Si O2"
_cell_formula_units_Z 56
_cell_length_a 21.013549
_cell_length_b 14.413782
_cell_length_c 9.223572
_cell_angle_alpha 90.000000
_cell_angle_beta 90.000000
_cell_angle_gamma 90.000000
_cell_volume 2793.678970
_symmetry_space_group_name_H-M "P M M N"
_symmetry_group_IT_number 59
_space_group.IT_coordinate_system_code '2'
_symmetry_cell_setting 'orthorhombic'
loop_
_space_group_symop_operation_xyz
x,y,z
1/2-x,1/2-y,z
1/2+x,-y,-z
-x,1/2+y,-z
-x,-y,-z
1/2+x,1/2+y,-z
1/2-x,y,z
x,1/2-y,z
loop_
_atom_site_type_symbol
_atom_site_label
_atom_site_fract_x
_atom_site_fract_y
_atom_site_fract_z
Si Si1 0.823837 0.145186 0.323681
Si Si2 0.434425 0.542579 0.197103
Si Si3 0.177715 0.536430 0.395614
Si Si4 0.542618 0.644213 0.370668
Si Si5 0.967401 0.852188 0.707970
Si Si6 0.179419 0.144555 0.552409
Si Si7 0.583946 0.147054 0.090283
O O1 0.750000 0.135233 0.304452
O O2 0.844888 0.250000 0.362605
O O3 0.846558 0.078371 0.452296
O O4 0.850677 0.115596 0.166173
O O5 0.369525 0.577712 0.273899
O O6 0.499237 0.577101 0.273925
O O7 0.429543 0.431048 0.203866
O O8 0.436255 0.574139 0.031351
O O9 0.250000 0.567418 0.357179
O O10 0.173326 0.424482 0.414410
O O11 0.524247 0.750000 0.332039
O O12 0.529010 0.622094 0.538699
O O13 0.618838 0.627402 0.340183
O O14 0.935607 0.750000 0.728866
O O15 0.037559 0.851586 0.772488
O O16 0.250000 0.128658 0.626425
O O17 0.174507 0.250000 0.492905
O O18 0.588222 0.250000 0.019485
#
# Coordination Sequence:
#
# PCOD8243714 Si02
#       7
#     8   8   8   8   8   8   8
#     4   9  19  37  58  78 106 148 190 223 265 331
#     4  12  22  34  56  84 117 141 180 236 288 319
#     4  10  21  35  57  86 112 142 184 230 277 328
#     4  10  20  34  57  86 111 142 182 227 278 327
#     4  10  21  37  54  75 105 146 187 219 266 336
#     4   9  18  34  55  81 112 143 180 226 275 328
#     4  10  22  37  53  76 108 147 185 224 275 332
#
# _framework density 20.045251
#
# number of rings (size 3 to 8) (size 9 to 14) (size 15 to 20)
#    0.000    2.000    1.429    2.143    2.000    2.857 
#    0.000    0.000    0.000    0.000    0.000    1.000 
#    0.000    5.714    0.000    0.000    0.000    0.000 
#
# Total GULP energy -693909.352547 kJ/mol
# GULP energy per Si atom -12391.238438 kJ/mol
# Density = 1.999963 g / cm^3
# Si number density = 20.045251 Si / 1000 Ang^3
#
#
#
# Elastic Constant Matrix: (Units=GPa)
#
#
# Indices 1 2 3 4 5 6 
#
# 1 105.0881 30.6289 38.7129 0.0000 0.0000 0.0000
# 2 30.6289 88.6925 39.3159 0.0000 0.0000 0.0000
# 3 38.7129 39.3159 78.9122 0.0000 0.0000 0.0000
# 4 0.0000 0.0000 0.0000 21.3020 0.0000 0.0000
# 5 0.0000 0.0000 0.0000 0.0000 19.8540 0.0000
# 6 0.0000 0.0000 0.0000 0.0000 0.0000 23.6663
#
#
#
# Elastic Compliance Matrix: (Units=1/GPa)
#
#
# Indices 1 2 3 4 5 6 
#
# 1 0.011872 -0.001948 -0.004853 0.000000 0.000000 0.000000
# 2 -0.001948 0.014791 -0.006413 0.000000 0.000000 0.000000
# 3 -0.004853 -0.006413 0.018248 0.000000 0.000000 0.000000
# 4 0.000000 0.000000 0.000000 0.046944 0.000000 0.000000
# 5 0.000000 0.000000 0.000000 0.000000 0.050368 0.000000
# 6 0.000000 0.000000 0.000000 0.000000 0.000000 0.042254
#
#
# Mechanical properties :
#
#
# Convention : Reuss Voigt Hill
#
# Bulk Modulus (GPa) = 54.10966 54.44539 54.27752
# Shear Modulus (GPa) = 23.03442 23.90013 23.46727
#
# Velocity S-wave (km/s) = 3.39355 3.45673 3.42528
# Velocity P-wave (km/s) = 6.51208 6.56903 6.54062
#
# Compressibility (1/GPa) = 0.01848099
#
# Stress axis : x y z
#
# Youngs Moduli (GPa) = 84.23499 67.61040 54.79918
#
# Poissons Ratio (x) = 0.13173 0.26595
# Poissons Ratio (y) = 0.16412 0.35144
# Poissons Ratio (z) = 0.40881 0.43360
#
# Static dielectric constant tensor:
#      x y z
#    x 3.956820 0.000000 0.000000 
#    y 0.000000 3.944600 0.000000 
#    z 0.000000 0.000000 3.261250 
# 
# 
# High freq. dielectric constant tensor:
#      x y z
#    x 1.794090 0.000000 0.000000 
#    y 0.000000 1.795490 0.000000 
#    z 0.000000 0.000000 1.732770 
# 
# From -- ./inp_files/11449.got.cif
#   From: 2010.03.12/outbox.cif.g09.slc.cpg/sg59_6_cif.got.tgz:11449.got - 2010.04.16 16:29:54.
