data_PCOD8243900
_publ_section_title
;
Structure prediction by ZEFSAII (Michael W. Deem and Ramdas Pophale) SiO2 
 PCOD8243900
Probable space group: P M M N
;
_chemical_formula_sum "Si O2"
_cell_formula_units_Z 56
_cell_length_a 9.434699
_cell_length_b 13.828847
_cell_length_c 21.672198
_cell_angle_alpha 90.000000
_cell_angle_beta 90.000000
_cell_angle_gamma 90.000000
_cell_volume 2827.593539
_symmetry_space_group_name_H-M "P M M N"
_symmetry_group_IT_number 59
_space_group.IT_coordinate_system_code '2'
_symmetry_cell_setting 'orthorhombic'
loop_
_space_group_symop_operation_xyz
x,y,z
1/2-x,1/2-y,z
1/2+x,-y,-z
-x,1/2+y,-z
-x,-y,-z
1/2+x,1/2+y,-z
1/2-x,y,z
x,1/2-y,z
loop_
_atom_site_type_symbol
_atom_site_label
_atom_site_fract_x
_atom_site_fract_y
_atom_site_fract_z
Si Si1 0.094972 0.643979 0.350667
Si Si2 0.588477 0.975805 0.560326
Si Si3 0.088476 0.941121 0.797471
Si Si4 0.909485 0.644476 0.240405
Si Si5 0.414874 0.442726 0.086544
Si Si6 0.587777 0.359871 0.975506
Si Si7 0.413592 0.635727 0.663324
O O1 0.250000 0.645995 0.319599
O O2 0.046276 0.750000 0.372093
O O3 0.095673 0.580793 0.410827
O O4 0.989383 0.603381 0.299873
O O5 0.750000 0.938439 0.546559
O O6 0.510412 0.902778 0.607281
O O7 0.500000 0.000000 0.500000
O O8 0.250000 0.905282 0.808014
O O9 0.037031 0.907114 0.729690
O O10 0.986018 0.901895 0.850736
O O11 0.078723 0.057788 0.808138
O O12 0.750000 0.658941 0.261811
O O13 0.969244 0.750000 0.217186
O O14 0.250000 0.417422 0.089666
O O15 0.438974 0.558712 0.077130
O O16 0.482935 0.381504 0.031556
O O17 0.750000 0.368589 0.998957
O O18 0.558570 0.250000 0.950581
O O19 0.250000 0.606868 0.650604
O O20 0.433103 0.750000 0.666142
#
# Coordination Sequence:
#
# PCOD8243900 Si02
#       7
#     8   8   8   8   8   8   8
#     4   9  18  33  53  77 104 135 172 217 273 332
#     4  11  23  38  59  85 114 147 188 235 288 344
#     4  10  20  35  55  81 116 154 191 230 284 348
#     4   9  17  30  51  78 106 137 176 223 272 327
#     4  10  21  35  55  86 117 147 191 241 286 333
#     4   9  19  38  60  80 110 153 195 235 284 341
#     4  10  22  41  62  83 112 153 198 241 286 338
#
# _framework density 19.804827
#
# number of rings (size 3 to 8) (size 9 to 14) (size 15 to 20)
#    0.000    2.286    1.429    0.857    0.000    4.571 
#    0.000    2.857    0.000    0.000    0.000    0.000 
#    0.000    0.000    0.000    0.000    0.000    0.000 
#
# Total GULP energy -693799.664056 kJ/mol
# GULP energy per Si atom -12389.279715 kJ/mol
# Density = 1.975975 g / cm^3
# Si number density = 19.804827 Si / 1000 Ang^3
#
#
#
# Elastic Constant Matrix: (Units=GPa)
#
#
# Indices 1 2 3 4 5 6 
#
# 1 98.5120 26.8123 59.1328 0.0000 0.0000 0.0000
# 2 26.8123 72.8121 17.9767 0.0000 0.0000 0.0000
# 3 59.1328 17.9767 93.6606 0.0000 0.0000 0.0000
# 4 0.0000 0.0000 0.0000 12.9222 0.0000 0.0000
# 5 0.0000 0.0000 0.0000 0.0000 31.4472 0.0000
# 6 0.0000 0.0000 0.0000 0.0000 0.0000 26.1455
#
#
#
# Elastic Compliance Matrix: (Units=1/GPa)
#
#
# Indices 1 2 3 4 5 6 
#
# 1 0.017322 -0.003861 -0.010195 0.000000 0.000000 0.000000
# 2 -0.003861 0.015278 -0.000494 0.000000 0.000000 0.000000
# 3 -0.010195 -0.000494 0.017208 0.000000 0.000000 0.000000
# 4 0.000000 0.000000 0.000000 0.077386 0.000000 0.000000
# 5 0.000000 0.000000 0.000000 0.000000 0.031799 0.000000
# 6 0.000000 0.000000 0.000000 0.000000 0.000000 0.038247
#
#
# Mechanical properties :
#
#
# Convention : Reuss Voigt Hill
#
# Bulk Modulus (GPa) = 48.29435 52.53647 50.41541
# Shear Modulus (GPa) = 21.43672 24.84051 23.13861
#
# Velocity S-wave (km/s) = 3.29355 3.54540 3.42180
# Velocity P-wave (km/s) = 6.23710 6.58366 6.41272
#
# Compressibility (1/GPa) = 0.02070636
#
# Stress axis : x y z
#
# Youngs Moduli (GPa) = 57.73138 65.45360 58.11152
#
# Poissons Ratio (x) = 0.25275 0.59244
# Poissons Ratio (y) = 0.22293 0.02873
# Poissons Ratio (z) = 0.58856 0.03236
#
# Static dielectric constant tensor:
#      x y z
#    x 3.774740 0.000000 0.000000 
#    y 0.000000 3.822860 0.000000 
#    z 0.000000 0.000000 3.302540 
# 
# 
# High freq. dielectric constant tensor:
#      x y z
#    x 1.775530 0.000000 0.000000 
#    y 0.000000 1.778840 0.000000 
#    z 0.000000 0.000000 1.748880 
# 
# From -- ./inp_files/28980.got.cif
#   From: 2010.03.12/outbox.cif.g09.slc.cpg/sg59_15_cif.got.tgz:28980.got - 2010.04.16 16:29:54.
