data_PCOD8243572
_publ_section_title
;
Structure prediction by ZEFSAII (Michael W. Deem and Ramdas Pophale) SiO2 
 PCOD8243572
Probable space group: P M M N
;
_chemical_formula_sum "Si O2"
_cell_formula_units_Z 48
_cell_length_a 13.455297
_cell_length_b 14.572495
_cell_length_c 12.516468
_cell_angle_alpha 90.000000
_cell_angle_beta 90.000000
_cell_angle_gamma 90.000000
_cell_volume 2454.194603
_symmetry_space_group_name_H-M "P M M N"
_symmetry_group_IT_number 59
_space_group.IT_coordinate_system_code '2'
_symmetry_cell_setting 'orthorhombic'
loop_
_space_group_symop_operation_xyz
x,y,z
1/2-x,1/2-y,z
1/2+x,-y,-z
-x,1/2+y,-z
-x,-y,-z
1/2+x,1/2+y,-z
1/2-x,y,z
x,1/2-y,z
loop_
_atom_site_type_symbol
_atom_site_label
_atom_site_fract_x
_atom_site_fract_y
_atom_site_fract_z
Si Si1 0.863638 0.852607 0.508300
Si Si2 0.636159 0.645319 0.129814
Si Si3 0.952670 0.855686 0.912299
Si Si4 0.860583 0.544361 0.721547
Si Si5 0.440677 0.030583 0.676530
Si Si6 0.364016 0.854459 0.771948
O O1 0.750000 0.857394 0.470248
O O2 0.905778 0.750000 0.490685
O O3 0.873837 0.876785 0.632549
O O4 0.924537 0.926360 0.439518
O O5 0.750000 0.634289 0.092933
O O6 0.611648 0.750000 0.160194
O O7 0.618567 0.585872 0.234326
O O8 0.564495 0.610287 0.033836
O O9 0.920932 0.750000 0.905698
O O10 0.878351 0.910584 0.836137
O O11 0.067663 0.870438 0.877270
O O12 0.750000 0.501296 0.717505
O O13 0.941311 0.464810 0.699984
O O14 0.400998 0.924797 0.679876
O O15 0.250000 0.873739 0.804354
O O16 0.376854 0.750000 0.729089
#
# Coordination Sequence:
#
# PCOD8243572 Si02
#       6
#     8   8   8   8   8   8
#     4  10  20  35  58  84 106 132 170 217 267 314
#     4  10  20  34  55  82 108 135 171 218 269 315
#     4   9  18  33  53  77 105 137 175 221 269 311
#     4  10  21  35  52  76 105 139 178 218 260 307
#     4  11  21  35  54  78 108 140 173 215 262 314
#     4   9  18  32  50  74 106 143 180 216 256 309
#
# _framework density 19.558350999999998
#
# number of rings (size 3 to 8) (size 9 to 14) (size 15 to 20)
#    0.000    2.167    0.000    3.500    0.000    6.333 
#    0.000    2.500    0.000    3.000    0.000    2.333 
#    0.000    0.000    0.000    0.333    0.000    0.000 
#
# Total GULP energy -595162.339787 kJ/mol
# GULP energy per Si atom -12399.215412 kJ/mol
# Density = 1.951384 g / cm^3
# Si number density = 19.558351 Si / 1000 Ang^3
#
#
#
# Elastic Constant Matrix: (Units=GPa)
#
#
# Indices 1 2 3 4 5 6 
#
# 1 106.1747 23.5485 9.6234 0.0000 0.0000 0.0000
# 2 23.5485 71.1951 20.2500 0.0000 0.0000 0.0000
# 3 9.6234 20.2500 58.1888 0.0000 0.0000 0.0000
# 4 0.0000 0.0000 0.0000 22.1644 0.0000 0.0000
# 5 0.0000 0.0000 0.0000 0.0000 25.5612 0.0000
# 6 0.0000 0.0000 0.0000 0.0000 0.0000 25.4829
#
#
#
# Elastic Compliance Matrix: (Units=1/GPa)
#
#
# Indices 1 2 3 4 5 6 
#
# 1 0.010181 -0.003206 -0.000568 0.000000 0.000000 0.000000
# 2 -0.003206 0.016598 -0.005246 0.000000 0.000000 0.000000
# 3 -0.000568 -0.005246 0.019105 0.000000 0.000000 0.000000
# 4 0.000000 0.000000 0.000000 0.045117 0.000000 0.000000
# 5 0.000000 0.000000 0.000000 0.000000 0.039122 0.000000
# 6 0.000000 0.000000 0.000000 0.000000 0.000000 0.039242
#
#
# Mechanical properties :
#
#
# Convention : Reuss Voigt Hill
#
# Bulk Modulus (GPa) = 35.91403 38.04470 36.97937
# Shear Modulus (GPa) = 25.42104 26.78413 26.10259
#
# Velocity S-wave (km/s) = 3.60912 3.70462 3.65718
# Velocity P-wave (km/s) = 5.98081 6.14761 6.06478
#
# Compressibility (1/GPa) = 0.02784427
#
# Stress axis : x y z
#
# Youngs Moduli (GPa) = 98.22258 60.24654 52.34207
#
# Poissons Ratio (x) = 0.19314 0.02973
# Poissons Ratio (y) = 0.31489 0.27459
# Poissons Ratio (z) = 0.05580 0.31606
#
# Static dielectric constant tensor:
#      x y z
#    x 3.734700 0.000000 0.000000 
#    y 0.000000 3.574050 0.000000 
#    z 0.000000 0.000000 3.411680 
# 
# 
# High freq. dielectric constant tensor:
#      x y z
#    x 1.764960 0.000000 0.000000 
#    y 0.000000 1.751240 0.000000 
#    z 0.000000 0.000000 1.750770 
# 
# From -- ./inp_files/16827.got.cif
#   From: 2010.03.12/outbox.cif.g09.slc.cpg/sg59_9_cif.got.tgz:16827.got - 2010.04.16 16:29:54.
