data_PCOD8243768
_publ_section_title
;
Structure prediction by ZEFSAII (Michael W. Deem and Ramdas Pophale) SiO2 
 PCOD8243768
Probable space group: P M M N
;
_chemical_formula_sum "Si O2"
_cell_formula_units_Z 48
_cell_length_a 9.602740
_cell_length_b 15.760317
_cell_length_c 16.924298
_cell_angle_alpha 90.000000
_cell_angle_beta 90.000000
_cell_angle_gamma 90.000000
_cell_volume 2561.360941
_symmetry_space_group_name_H-M "P M M N"
_symmetry_group_IT_number 59
_space_group.IT_coordinate_system_code '2'
_symmetry_cell_setting 'orthorhombic'
loop_
_space_group_symop_operation_xyz
x,y,z
1/2-x,1/2-y,z
1/2+x,-y,-z
-x,1/2+y,-z
-x,-y,-z
1/2+x,1/2+y,-z
1/2-x,y,z
x,1/2-y,z
loop_
_atom_site_type_symbol
_atom_site_label
_atom_site_fract_x
_atom_site_fract_y
_atom_site_fract_z
Si Si1 0.084413 0.250000 0.565975
Si Si2 0.590939 0.091640 0.170139
Si Si3 0.089846 0.100290 0.854889
Si Si4 0.915032 0.750000 0.256335
Si Si5 0.405571 0.346466 0.308981
Si Si6 0.913855 0.581872 0.524699
Si Si7 0.411265 0.849409 0.000417
O O1 0.250000 0.250000 0.564972
O O2 0.023117 0.250000 0.655259
O O3 0.031462 0.164484 0.523010
O O4 0.750000 0.121103 0.177828
O O5 0.507647 0.140744 0.236478
O O6 0.574238 0.991611 0.184002
O O7 0.534422 0.118676 0.084322
O O8 0.250000 0.119988 0.877183
O O9 0.032198 0.167183 0.790816
O O10 0.000441 0.102468 0.934188
O O11 0.750000 0.750000 0.262203
O O12 0.250000 0.367846 0.279609
O O13 0.414705 0.250000 0.339009
O O14 0.445154 0.405272 0.382781
O O15 0.750000 0.567059 0.508747
O O16 0.000000 0.500000 0.500000
O O17 0.250000 0.873655 0.012342
O O18 0.437068 0.750000 0.008477
#
# Coordination Sequence:
#
# PCOD8243768 Si02
#       7
#     4   8   8   4   8   8   8
#     4   9  18  36  61  82 111 152 188 227 283 343
#     4  10  22  36  55  84 112 144 186 230 277 330
#     4  10  20  35  55  80 108 139 185 234 273 325
#     4   9  18  32  53  80 105 134 180 231 267 315
#     4  10  21  39  59  83 115 150 188 229 277 333
#     4  10  21  38  61  87 115 151 191 233 284 342
#     4  10  20  35  53  75 109 148 183 223 280 336
#
# _framework density 18.740037000000001
#
# number of rings (size 3 to 8) (size 9 to 14) (size 15 to 20)
#    0.000    2.167    1.667    1.000    2.333    3.000 
#    0.000    0.417    0.000    1.000    0.000    0.000 
#    0.000    0.000    0.000    0.000    0.000    0.000 
#
# Total GULP energy -595308.722313 kJ/mol
# GULP energy per Si atom -12402.265048 kJ/mol
# Density = 1.869738 g / cm^3
# Si number density = 18.740037 Si / 1000 Ang^3
#
#
#
# Elastic Constant Matrix: (Units=GPa)
#
#
# Indices 1 2 3 4 5 6 
#
# 1 53.4340 31.5324 48.7146 0.0000 0.0000 0.0000
# 2 31.5324 83.4103 37.5189 0.0000 0.0000 0.0000
# 3 48.7146 37.5189 123.5901 0.0000 0.0000 0.0000
# 4 0.0000 0.0000 0.0000 32.2985 0.0000 0.0000
# 5 0.0000 0.0000 0.0000 0.0000 24.6538 0.0000
# 6 0.0000 0.0000 0.0000 0.0000 0.0000 27.5011
#
#
#
# Elastic Compliance Matrix: (Units=1/GPa)
#
#
# Indices 1 2 3 4 5 6 
#
# 1 0.032960 -0.007663 -0.010665 0.000000 0.000000 0.000000
# 2 -0.007663 0.015666 -0.001736 0.000000 0.000000 0.000000
# 3 -0.010665 -0.001736 0.012822 0.000000 0.000000 0.000000
# 4 0.000000 0.000000 0.000000 0.030961 0.000000 0.000000
# 5 0.000000 0.000000 0.000000 0.000000 0.040562 0.000000
# 6 0.000000 0.000000 0.000000 0.000000 0.000000 0.036362
#
#
# Mechanical properties :
#
#
# Convention : Reuss Voigt Hill
#
# Bulk Modulus (GPa) = 46.90201 55.10736 51.00468
# Shear Modulus (GPa) = 23.08743 26.40192 24.74467
#
# Velocity S-wave (km/s) = 3.51377 3.75754 3.63770
# Velocity P-wave (km/s) = 6.44548 6.94950 6.70223
#
# Compressibility (1/GPa) = 0.02132105
#
# Stress axis : x y z
#
# Youngs Moduli (GPa) = 30.33976 63.83070 77.99074
#
# Poissons Ratio (x) = 0.48912 0.83180
# Poissons Ratio (y) = 0.23249 0.13536
# Poissons Ratio (z) = 0.32359 0.11078
#
# Static dielectric constant tensor:
#      x y z
#    x 3.202300 0.000000 0.000000 
#    y 0.000000 3.485720 0.000000 
#    z 0.000000 0.000000 3.471720 
# 
# 
# High freq. dielectric constant tensor:
#      x y z
#    x 1.700830 0.000000 0.000000 
#    y 0.000000 1.739260 0.000000 
#    z 0.000000 0.000000 1.734610 
# 
# From -- ./inp_files/25630.got.cif
#   From: 2010.03.12/outbox.cif.g09.slc.cpg/sg59_13_cif.got.tgz:25630.got - 2010.04.16 16:29:54.
