data_PCOD8243855
_publ_section_title
;
Structure prediction by ZEFSAII (Michael W. Deem and Ramdas Pophale) SiO2 
 PCOD8243855
Probable space group: P M M N
;
_chemical_formula_sum "Si O2"
_cell_formula_units_Z 64
_cell_length_a 31.263871
_cell_length_b 8.923655
_cell_length_c 12.063218
_cell_angle_alpha 90.000000
_cell_angle_beta 90.000000
_cell_angle_gamma 90.000000
_cell_volume 3365.493049
_symmetry_space_group_name_H-M "P M M N"
_symmetry_group_IT_number 59
_space_group.IT_coordinate_system_code '2'
_symmetry_cell_setting 'orthorhombic'
loop_
_space_group_symop_operation_xyz
x,y,z
1/2-x,1/2-y,z
1/2+x,-y,-z
-x,1/2+y,-z
-x,-y,-z
1/2+x,1/2+y,-z
1/2-x,y,z
x,1/2-y,z
loop_
_atom_site_type_symbol
_atom_site_label
_atom_site_fract_x
_atom_site_fract_y
_atom_site_fract_z
Si Si1 0.869917 0.428730 0.401433
Si Si2 0.947578 0.422465 0.255224
Si Si3 0.623367 0.573191 0.870411
Si Si4 0.046570 0.575509 0.995860
Si Si5 0.612657 0.420009 0.644581
Si Si6 0.299555 0.574602 0.003459
Si Si7 0.203383 0.571988 0.752518
Si Si8 0.512627 0.417730 0.611270
O O1 0.870852 0.250000 0.395583
O O2 0.911537 0.489659 0.336884
O O3 0.867571 0.481113 0.528898
O O4 0.829346 0.496315 0.336398
O O5 0.955895 0.250000 0.282421
O O6 0.934371 0.444490 0.127582
O O7 0.991431 0.508495 0.280441
O O8 0.618520 0.750000 0.883516
O O9 0.627315 0.529705 0.741620
O O10 0.667812 0.520747 0.923781
O O11 0.580997 0.497465 0.921826
O O12 0.041657 0.750000 0.027506
O O13 0.000000 0.500000 0.000000
O O14 0.628160 0.250000 0.669625
O O15 0.562389 0.423628 0.630838
O O16 0.250000 0.538793 0.034497
O O17 0.308912 0.750000 0.021683
O O18 0.309077 0.526506 0.877180
O O19 0.250000 0.507228 0.722648
O O20 0.203916 0.750000 0.745432
O O21 0.500000 0.500000 0.500000
O O22 0.495757 0.250000 0.599788
#
# Coordination Sequence:
#
# PCOD8243855 Si02
#       8
#     8   8   8   8   8   8   8   8
#     4   9  16  30  51  76 106 137 174 221 273 325
#     4  10  20  35  55  79 104 138 182 229 282 330
#     4  12  25  39  57  82 117 157 198 242 293 351
#     4  11  23  39  60  84 116 152 191 239 290 348
#     4  10  21  37  55  75 107 150 193 236 279 331
#     4   9  18  36  63  91 116 146 189 238 291 353
#     4   8  14  27  53  87 114 135 167 218 278 337
#     4  11  21  34  53  77 108 145 185 231 276 329
#
# _framework density 19.016528999999998
#
# number of rings (size 3 to 8) (size 9 to 14) (size 15 to 20)
#    0.000    2.000    1.250    4.125    0.000    6.250 
#    0.000    0.625    0.000    3.000    0.000    0.000 
#    0.000    0.000    0.000    0.000    0.000    0.000 
#
# Total GULP energy -793486.400051 kJ/mol
# GULP energy per Si atom -12398.225001 kJ/mol
# Density = 1.897325 g / cm^3
# Si number density = 19.016529 Si / 1000 Ang^3
#
#
#
# Elastic Constant Matrix: (Units=GPa)
#
#
# Indices 1 2 3 4 5 6 
#
# 1 101.2880 46.0259 61.7147 0.0000 0.0000 0.0000
# 2 46.0259 88.0685 50.2984 0.0000 0.0000 0.0000
# 3 61.7147 50.2984 129.2108 0.0000 0.0000 0.0000
# 4 0.0000 0.0000 0.0000 21.1634 0.0000 0.0000
# 5 0.0000 0.0000 0.0000 0.0000 35.4861 0.0000
# 6 0.0000 0.0000 0.0000 0.0000 0.0000 24.5138
#
#
#
# Elastic Compliance Matrix: (Units=1/GPa)
#
#
# Indices 1 2 3 4 5 6 
#
# 1 0.015446 -0.004962 -0.005446 0.000000 0.000000 0.000000
# 2 -0.004962 0.016195 -0.003934 0.000000 0.000000 0.000000
# 3 -0.005446 -0.003934 0.011872 0.000000 0.000000 0.000000
# 4 0.000000 0.000000 0.000000 0.047251 0.000000 0.000000
# 5 0.000000 0.000000 0.000000 0.000000 0.028180 0.000000
# 6 0.000000 0.000000 0.000000 0.000000 0.000000 0.040793
#
#
# Mechanical properties :
#
#
# Convention : Reuss Voigt Hill
#
# Bulk Modulus (GPa) = 67.43759 70.51615 68.97687
# Shear Modulus (GPa) = 25.85794 26.93454 26.39624
#
# Velocity S-wave (km/s) = 3.69149 3.76756 3.72972
# Velocity P-wave (km/s) = 7.32865 7.48919 7.40936
#
# Compressibility (1/GPa) = 0.01482853
#
# Stress axis : x y z
#
# Youngs Moduli (GPa) = 64.74317 61.74756 84.23281
#
# Poissons Ratio (x) = 0.30639 0.45871
# Poissons Ratio (y) = 0.32125 0.33140
# Poissons Ratio (z) = 0.35257 0.24293
#
# Static dielectric constant tensor:
#      x y z
#    x 3.677520 0.000000 0.000000 
#    y 0.000000 3.292720 0.000000 
#    z 0.000000 0.000000 3.499110 
# 
# 
# High freq. dielectric constant tensor:
#      x y z
#    x 1.737830 0.000000 0.000000 
#    y 0.000000 1.709900 0.000000 
#    z 0.000000 0.000000 1.749150 
# 
# From -- ./inp_files/19237.got.cif
#   From: 2010.03.12/outbox.cif.g09.slc.cpg/sg59_10_cif.got.tgz:19237.got - 2010.04.16 16:29:54.
