data_PCOD8243411
_publ_section_title
;
Structure prediction by ZEFSAII (Michael W. Deem and Ramdas Pophale) SiO2 
 PCOD8243411
Probable space group: P M M N
;
_chemical_formula_sum "Si O2"
_cell_formula_units_Z 48
_cell_length_a 24.818399
_cell_length_b 9.233423
_cell_length_c 11.776233
_cell_angle_alpha 90.000000
_cell_angle_beta 90.000000
_cell_angle_gamma 90.000000
_cell_volume 2698.627142
_symmetry_space_group_name_H-M "P M M N"
_symmetry_group_IT_number 59
_space_group.IT_coordinate_system_code '2'
_symmetry_cell_setting 'orthorhombic'
loop_
_space_group_symop_operation_xyz
x,y,z
1/2-x,1/2-y,z
1/2+x,-y,-z
-x,1/2+y,-z
-x,-y,-z
1/2+x,1/2+y,-z
1/2-x,y,z
x,1/2-y,z
loop_
_atom_site_type_symbol
_atom_site_label
_atom_site_fract_x
_atom_site_fract_y
_atom_site_fract_z
Si Si1 0.055704 0.582580 0.995680
Si Si2 0.105161 0.582406 0.762181
Si Si3 0.812717 0.582274 0.381576
Si Si4 0.000988 0.418821 0.381605
Si Si5 0.810820 0.417028 0.606566
Si Si6 0.590133 0.416183 0.756615
O O1 0.040985 0.750000 0.979294
O O2 0.090735 0.529064 0.888922
O O3 0.090243 0.553943 0.108968
O O4 0.000000 0.500000 0.000000
O O5 0.121976 0.750000 0.760891
O O6 0.155670 0.488196 0.722699
O O7 0.055240 0.552539 0.679818
O O8 0.750000 0.555467 0.358744
O O9 0.827410 0.750000 0.389741
O O10 0.830830 0.509323 0.499411
O O11 0.011253 0.250000 0.402867
O O12 0.048304 0.478748 0.303349
O O13 0.000000 0.500000 0.500000
O O14 0.750000 0.459700 0.642762
O O15 0.814121 0.250000 0.569588
O O16 0.849718 0.450096 0.712423
O O17 0.573881 0.250000 0.730028
#
# Coordination Sequence:
#
# PCOD8243411 Si02
#       6
#     8   8   8   8   8   8
#     4  10  20  36  55  77 106 141 181 220 262 315
#     4  10  21  36  53  76 106 140 179 217 261 318
#     4  10  21  36  55  80 107 137 176 220 265 314
#     4  11  22  34  50  76 109 139 173 217 266 319
#     4   9  18  34  55  78 106 139 172 212 265 319
#     4  10  20  34  54  79 106 136 176 220 264 314
#
# _framework density 17.786822000000001
#
# number of rings (size 3 to 8) (size 9 to 14) (size 15 to 20)
#    0.000    2.000    1.667    2.000    0.000    7.667 
#    0.000    0.833    0.000    3.000    0.000    2.333 
#    0.000    0.000    0.000    0.000    0.000    0.000 
#
# Total GULP energy -595370.834466 kJ/mol
# GULP energy per Si atom -12403.559051 kJ/mol
# Density = 1.774634 g / cm^3
# Si number density = 17.786822 Si / 1000 Ang^3
#
#
#
# Elastic Constant Matrix: (Units=GPa)
#
#
# Indices 1 2 3 4 5 6 
#
# 1 88.8508 53.3994 63.7854 0.0000 0.0000 0.0000
# 2 53.3994 83.8942 66.2688 0.0000 0.0000 0.0000
# 3 63.7854 66.2688 152.6399 0.0000 0.0000 0.0000
# 4 0.0000 0.0000 0.0000 24.0067 0.0000 0.0000
# 5 0.0000 0.0000 0.0000 0.0000 25.0842 0.0000
# 6 0.0000 0.0000 0.0000 0.0000 0.0000 29.8242
#
#
#
# Elastic Compliance Matrix: (Units=1/GPa)
#
#
# Indices 1 2 3 4 5 6 
#
# 1 0.019917 -0.009288 -0.004290 0.000000 0.000000 0.000000
# 2 -0.009288 0.022473 -0.005875 0.000000 0.000000 0.000000
# 3 -0.004290 -0.005875 0.010895 0.000000 0.000000 0.000000
# 4 0.000000 0.000000 0.000000 0.041655 0.000000 0.000000
# 5 0.000000 0.000000 0.000000 0.000000 0.039866 0.000000
# 6 0.000000 0.000000 0.000000 0.000000 0.000000 0.033530
#
#
# Mechanical properties :
#
#
# Convention : Reuss Voigt Hill
#
# Bulk Modulus (GPa) = 69.55577 76.92134 73.23856
# Shear Modulus (GPa) = 23.58090 25.24509 24.41300
#
# Velocity S-wave (km/s) = 3.64504 3.77147 3.70879
# Velocity P-wave (km/s) = 7.54355 7.89338 7.72045
#
# Compressibility (1/GPa) = 0.01437695
#
# Stress axis : x y z
#
# Youngs Moduli (GPa) = 50.20760 44.49840 91.78551
#
# Poissons Ratio (x) = 0.41332 0.39381
# Poissons Ratio (y) = 0.46635 0.53925
# Poissons Ratio (z) = 0.21542 0.26143
#
# Static dielectric constant tensor:
#      x y z
#    x 3.322240 0.000000 0.000000 
#    y 0.000000 3.370970 0.000000 
#    z 0.000000 0.000000 3.502310 
# 
# 
# High freq. dielectric constant tensor:
#      x y z
#    x 1.685140 0.000000 0.000000 
#    y 0.000000 1.690980 0.000000 
#    z 0.000000 0.000000 1.691250 
# 
# From -- ./inp_files/14295.got.cif
#   From: 2010.03.12/outbox.cif.g09.slc.cpg/sg59_8_cif.got.tgz:14295.got - 2010.04.16 16:29:54.
