data_PCOD8243187
_publ_section_title
;
Structure prediction by ZEFSAII (Michael W. Deem and Ramdas Pophale) SiO2 
 PCOD8243187
Probable space group: P M M N
;
_chemical_formula_sum "Si O2"
_cell_formula_units_Z 64
_cell_length_a 22.561454
_cell_length_b 9.219017
_cell_length_c 16.601252
_cell_angle_alpha 90.000000
_cell_angle_beta 90.000000
_cell_angle_gamma 90.000000
_cell_volume 3452.967913
_symmetry_space_group_name_H-M "P M M N"
_symmetry_group_IT_number 59
_space_group.IT_coordinate_system_code '2'
_symmetry_cell_setting 'orthorhombic'
loop_
_space_group_symop_operation_xyz
x,y,z
1/2-x,1/2-y,z
1/2+x,-y,-z
-x,1/2+y,-z
-x,-y,-z
1/2+x,1/2+y,-z
1/2-x,y,z
x,1/2-y,z
loop_
_atom_site_type_symbol
_atom_site_label
_atom_site_fract_x
_atom_site_fract_y
_atom_site_fract_z
Si Si1 0.820059 0.078161 0.377260
Si Si2 0.183097 0.590628 0.285730
Si Si3 0.144884 0.585513 0.448522
Si Si4 0.962752 0.418953 0.122197
Si Si5 0.921393 0.923788 0.283151
Si Si6 0.921480 0.584456 0.971529
Si Si7 0.489409 0.587289 0.420880
Si Si8 0.316611 0.084214 0.139516
O O1 0.750000 0.044145 0.366726
O O2 0.832355 0.250000 0.368388
O O3 0.843124 0.013626 0.464146
O O4 0.858259 0.993066 0.309965
O O5 0.250000 0.606266 0.257628
O O6 0.152369 0.750000 0.289967
O O7 0.182632 0.516872 0.375041
O O8 0.152957 0.496712 0.215693
O O9 0.165411 0.750000 0.463200
O O10 0.080325 0.574969 0.408198
O O11 0.949006 0.250000 0.138449
O O12 0.941785 0.512684 0.197999
O O13 0.031896 0.445388 0.101030
O O14 0.926853 0.472518 0.044292
O O15 0.914988 0.750000 0.276800
O O16 0.972824 0.973058 0.345770
O O17 0.929679 0.750000 0.002387
O O18 0.855833 0.556128 0.938831
O O19 0.500000 0.500000 0.500000
O O20 0.510404 0.750000 0.437445
O O21 0.250000 0.032946 0.118317
O O22 0.317255 0.250000 0.165673
#
# Coordination Sequence:
#
# PCOD8243187 Si02
#       8
#     8   8   8   8   8   8   8   8
#     4  10  20  36  59  80 103 143 190 233 276 322
#     4   9  17  29  47  73 104 138 177 216 253 302
#     4   9  17  31  51  75 103 137 179 224 265 308
#     4  10  21  37  59  83 107 139 178 225 273 326
#     4  11  23  37  55  82 113 145 180 223 275 327
#     4   9  19  37  58  82 109 138 175 219 272 329
#     4  10  20  34  52  76 106 141 178 218 266 316
#     4   9  18  33  52  76 109 144 173 207 260 325
#
# _framework density 18.534780000000001
#
# number of rings (size 3 to 8) (size 9 to 14) (size 15 to 20)
#    0.000    2.375    1.250    1.125    1.750    3.250 
#    0.000    1.875    0.000    3.750    0.000    0.000 
#    0.000    0.000    0.000    0.000    0.000    0.000 
#
# Total GULP energy -792953.324877 kJ/mol
# GULP energy per Si atom -12389.895701 kJ/mol
# Density = 1.849259 g / cm^3
# Si number density = 18.534780 Si / 1000 Ang^3
#
#
#
# Elastic Constant Matrix: (Units=GPa)
#
#
# Indices 1 2 3 4 5 6 
#
# 1 91.2614 41.6258 56.8944 0.0000 0.0000 0.0000
# 2 41.6258 67.6087 50.7228 0.0000 0.0000 0.0000
# 3 56.8944 50.7228 111.1744 0.0000 0.0000 0.0000
# 4 0.0000 0.0000 0.0000 31.4143 0.0000 0.0000
# 5 0.0000 0.0000 0.0000 0.0000 24.1579 0.0000
# 6 0.0000 0.0000 0.0000 0.0000 0.0000 22.3192
#
#
#
# Elastic Compliance Matrix: (Units=1/GPa)
#
#
# Indices 1 2 3 4 5 6 
#
# 1 0.017660 -0.006223 -0.006199 0.000000 0.000000 0.000000
# 2 -0.006223 0.024681 -0.008076 0.000000 0.000000 0.000000
# 3 -0.006199 -0.008076 0.015852 0.000000 0.000000 0.000000
# 4 0.000000 0.000000 0.000000 0.031833 0.000000 0.000000
# 5 0.000000 0.000000 0.000000 0.000000 0.041394 0.000000
# 6 0.000000 0.000000 0.000000 0.000000 0.000000 0.044805
#
#
# Mechanical properties :
#
#
# Convention : Reuss Voigt Hill
#
# Bulk Modulus (GPa) = 58.14561 63.17006 60.65784
# Shear Modulus (GPa) = 22.42627 23.63171 23.02899
#
# Velocity S-wave (km/s) = 3.48222 3.57458 3.52870
# Velocity P-wave (km/s) = 6.89978 7.15491 7.02850
#
# Compressibility (1/GPa) = 0.01719820
#
# Stress axis : x y z
#
# Youngs Moduli (GPa) = 56.62458 40.51643 63.08411
#
# Poissons Ratio (x) = 0.25212 0.39104
# Poissons Ratio (y) = 0.35235 0.50948
# Poissons Ratio (z) = 0.35100 0.32722
#
# Static dielectric constant tensor:
#      x y z
#    x 3.027730 0.000000 0.000000 
#    y 0.000000 3.342630 0.000000 
#    z 0.000000 0.000000 3.336280 
# 
# 
# High freq. dielectric constant tensor:
#      x y z
#    x 1.716710 0.000000 0.000000 
#    y 0.000000 1.703470 0.000000 
#    z 0.000000 0.000000 1.717850 
# 
# From -- ./inp_files/24789.got.cif
#   From: 2010.03.12/outbox.cif.g09.slc.cpg/sg59_13_cif.got.tgz:24789.got - 2010.04.16 16:29:54.
