data_PCOD8243669
_publ_section_title
;
Structure prediction by ZEFSAII (Michael W. Deem and Ramdas Pophale) SiO2 
 PCOD8243669
Probable space group: P M M N
;
_chemical_formula_sum "Si O2"
_cell_formula_units_Z 56
_cell_length_a 8.627159
_cell_length_b 24.176589
_cell_length_c 14.716060
_cell_angle_alpha 90.000000
_cell_angle_beta 90.000000
_cell_angle_gamma 90.000000
_cell_volume 3069.406296
_symmetry_space_group_name_H-M "P M M N"
_symmetry_group_IT_number 59
_space_group.IT_coordinate_system_code '2'
_symmetry_cell_setting 'orthorhombic'
loop_
_space_group_symop_operation_xyz
x,y,z
1/2-x,1/2-y,z
1/2+x,-y,-z
-x,1/2+y,-z
-x,-y,-z
1/2+x,1/2+y,-z
1/2-x,y,z
x,1/2-y,z
loop_
_atom_site_type_symbol
_atom_site_label
_atom_site_fract_x
_atom_site_fract_y
_atom_site_fract_z
Si Si1 0.074581 0.355113 0.793839
Si Si2 0.570606 0.250000 0.711777
Si Si3 0.432626 0.870276 0.540865
Si Si4 0.566759 0.250000 0.511705
Si Si5 0.426493 0.921656 0.060353
Si Si6 0.570024 0.933010 0.372872
Si Si7 0.567349 0.547940 0.680422
Si Si8 0.070396 0.967085 0.871328
O O1 0.250000 0.334624 0.791268
O O2 0.046505 0.406457 0.726158
O O3 0.969811 0.303869 0.768319
O O4 0.031968 0.374133 0.895607
O O5 0.750000 0.250000 0.694037
O O6 0.488975 0.250000 0.612477
O O7 0.250000 0.877016 0.558640
O O8 0.484681 0.805756 0.540441
O O9 0.473021 0.897533 0.444409
O O10 0.529534 0.898437 0.620807
O O11 0.750000 0.250000 0.521860
O O12 0.250000 0.909194 0.086480
O O13 0.469248 0.980295 0.103255
O O14 0.449827 0.921799 0.951427
O O15 0.750000 0.934245 0.402018
O O16 0.505984 0.995087 0.369780
O O17 0.750000 0.539695 0.689927
O O18 0.491632 0.558846 0.778421
O O19 0.250000 0.984845 0.860864
#
# Coordination Sequence:
#
# PCOD8243669 Si02
#       8
#     8   4   8   4   8   8   8   8
#     4  11  22  35  55  83 117 151 187 228 281 335
#     4  11  21  37  59  82 111 146 193 235 280 334
#     4  11  22  39  59  80 110 146 188 235 283 336
#     4   9  20  37  59  82 103 140 187 231 276 326
#     4  10  20  34  56  83 112 145 182 225 276 332
#     4  11  22  36  54  81 115 151 186 227 278 335
#     4  12  24  37  55  82 114 151 190 231 282 336
#     4  10  20  35  55  82 112 145 183 226 275 329
#
# _framework density 18.24457
#
# number of rings (size 3 to 8) (size 9 to 14) (size 15 to 20)
#    0.000    1.286    2.857    4.071    0.000    2.857 
#    0.000    1.429    0.000    0.857    0.000    2.000 
#    0.000    0.000    0.000    0.000    0.000    0.000 
#
# Total GULP energy -694581.350253 kJ/mol
# GULP energy per Si atom -12403.238397 kJ/mol
# Density = 1.820304 g / cm^3
# Si number density = 18.244570 Si / 1000 Ang^3
#
#
#
# Elastic Constant Matrix: (Units=GPa)
#
#
# Indices 1 2 3 4 5 6 
#
# 1 59.0245 18.2919 22.8059 0.0000 0.0000 0.0000
# 2 18.2919 106.3851 38.8611 0.0000 0.0000 0.0000
# 3 22.8059 38.8611 87.9351 0.0000 0.0000 0.0000
# 4 0.0000 0.0000 0.0000 7.2738 0.0000 0.0000
# 5 0.0000 0.0000 0.0000 0.0000 30.0945 0.0000
# 6 0.0000 0.0000 0.0000 0.0000 0.0000 25.1389
#
#
#
# Elastic Compliance Matrix: (Units=1/GPa)
#
#
# Indices 1 2 3 4 5 6 
#
# 1 0.019101 -0.001759 -0.004177 0.000000 0.000000 0.000000
# 2 -0.001759 0.011371 -0.004569 0.000000 0.000000 0.000000
# 3 -0.004177 -0.004569 0.014474 0.000000 0.000000 0.000000
# 4 0.000000 0.000000 0.000000 0.137480 0.000000 0.000000
# 5 0.000000 0.000000 0.000000 0.000000 0.033229 0.000000
# 6 0.000000 0.000000 0.000000 0.000000 0.000000 0.039779
#
#
# Mechanical properties :
#
#
# Convention : Reuss Voigt Hill
#
# Bulk Modulus (GPa) = 41.77485 45.91802 43.84644
# Shear Modulus (GPa) = 17.57952 24.06050 20.82001
#
# Velocity S-wave (km/s) = 3.10747 3.63544 3.38177
# Velocity P-wave (km/s) = 5.98515 6.54557 6.27163
#
# Compressibility (1/GPa) = 0.02393785
#
# Stress axis : x y z
#
# Youngs Moduli (GPa) = 52.35363 87.94111 69.08702
#
# Poissons Ratio (x) = 0.15465 0.28855
# Poissons Ratio (y) = 0.09207 0.31567
# Poissons Ratio (z) = 0.21866 0.40182
#
# Static dielectric constant tensor:
#      x y z
#    x 3.427110 0.000000 0.000000 
#    y 0.000000 3.564120 0.000000 
#    z 0.000000 0.000000 3.470080 
# 
# 
# High freq. dielectric constant tensor:
#      x y z
#    x 1.718280 0.000000 0.000000 
#    y 0.000000 1.688650 0.000000 
#    z 0.000000 0.000000 1.705070 
# 
# From -- ./inp_files/21199.got.cif
#   From: 2010.03.12/outbox.cif.g09.slc.cpg/sg59_11_cif.got.tgz:21199.got - 2010.04.16 16:29:54.
