data_PCOD8243968
_publ_section_title
;
Structure prediction by ZEFSAII (Michael W. Deem and Ramdas Pophale) SiO2 
 PCOD8243968
Probable space group: P M M N
;
_chemical_formula_sum "Si O2"
_cell_formula_units_Z 64
_cell_length_a 23.125557
_cell_length_b 9.213764
_cell_length_c 14.844589
_cell_angle_alpha 90.000000
_cell_angle_beta 90.000000
_cell_angle_gamma 90.000000
_cell_volume 3162.987415
_symmetry_space_group_name_H-M "P M M N"
_symmetry_group_IT_number 59
_space_group.IT_coordinate_system_code '2'
_symmetry_cell_setting 'orthorhombic'
loop_
_space_group_symop_operation_xyz
x,y,z
1/2-x,1/2-y,z
1/2+x,-y,-z
-x,1/2+y,-z
-x,-y,-z
1/2+x,1/2+y,-z
1/2-x,y,z
x,1/2-y,z
loop_
_atom_site_type_symbol
_atom_site_label
_atom_site_fract_x
_atom_site_fract_y
_atom_site_fract_z
Si Si1 0.684044 0.580353 0.000443
Si Si2 0.182685 0.581095 0.364745
Si Si3 0.813394 0.087652 0.308368
Si Si4 0.389942 0.920220 0.853969
Si Si5 0.362571 0.083267 0.194920
Si Si6 0.648243 0.586739 0.466211
Si Si7 0.980671 0.586006 0.413035
Si Si8 0.007385 0.417229 0.233336
O O1 0.750000 0.527881 0.019560
O O2 0.678413 0.750000 0.020034
O O3 0.668287 0.543871 0.898034
O O4 0.636522 0.500742 0.060759
O O5 0.250000 0.552789 0.383981
O O6 0.167274 0.750000 0.368262
O O7 0.165877 0.520768 0.267832
O O8 0.144777 0.498511 0.439583
O O9 0.750000 0.089415 0.263542
O O10 0.832883 0.250000 0.336660
O O11 0.857326 0.023261 0.235315
O O12 0.808350 0.991635 0.398081
O O13 0.379616 0.750000 0.868349
O O14 0.457684 0.958554 0.839477
O O15 0.350721 0.250000 0.222272
O O16 0.431220 0.054895 0.185857
O O17 0.669310 0.750000 0.486281
O O18 0.588143 0.585486 0.413434
O O19 0.004962 0.750000 0.416772
O O20 0.000000 0.500000 0.500000
O O21 0.004316 0.512348 0.323014
O O22 0.999631 0.250000 0.262903
#
# Coordination Sequence:
#
# PCOD8243968 Si02
#       8
#     8   8   8   8   8   8   8   8
#     4  10  22  40  62  89 121 157 197 245 301 358
#     4  11  24  40  59  86 119 156 200 249 301 356
#     4  10  20  35  56  82 114 153 193 235 287 345
#     4  10  21  38  61  88 121 157 195 243 296 351
#     4  10  22  41  64  89 118 155 200 248 300 357
#     4  11  23  37  55  83 116 153 196 241 293 351
#     4  11  23  37  56  83 117 157 201 245 291 348
#     4  10  21  39  62  88 119 156 199 245 297 355
#
# _framework density 20.234034999999999
#
# number of rings (size 3 to 8) (size 9 to 14) (size 15 to 20)
#    0.000    1.625    1.250    3.000    0.000   11.000 
#    0.000    0.000    0.000    0.000    0.000    0.000 
#    0.000    0.000    0.000    0.000    0.000    0.000 
#
# Total GULP energy -793745.588047 kJ/mol
# GULP energy per Si atom -12402.274813 kJ/mol
# Density = 2.018798 g / cm^3
# Si number density = 20.234035 Si / 1000 Ang^3
#
#
#
# Elastic Constant Matrix: (Units=GPa)
#
#
# Indices 1 2 3 4 5 6 
#
# 1 66.5875 28.7732 19.0736 0.0000 0.0000 0.0000
# 2 28.7732 100.1773 47.9231 0.0000 0.0000 0.0000
# 3 19.0736 47.9231 86.5210 0.0000 0.0000 0.0000
# 4 0.0000 0.0000 0.0000 39.8653 0.0000 0.0000
# 5 0.0000 0.0000 0.0000 0.0000 37.2545 0.0000
# 6 0.0000 0.0000 0.0000 0.0000 0.0000 20.5468
#
#
#
# Elastic Compliance Matrix: (Units=1/GPa)
#
#
# Indices 1 2 3 4 5 6 
#
# 1 0.017277 -0.004272 -0.001442 0.000000 0.000000 0.000000
# 2 -0.004272 0.014637 -0.007166 0.000000 0.000000 0.000000
# 3 -0.001442 -0.007166 0.015845 0.000000 0.000000 0.000000
# 4 0.000000 0.000000 0.000000 0.025084 0.000000 0.000000
# 5 0.000000 0.000000 0.000000 0.000000 0.026842 0.000000
# 6 0.000000 0.000000 0.000000 0.000000 0.000000 0.048669
#
#
# Mechanical properties :
#
#
# Convention : Reuss Voigt Hill
#
# Bulk Modulus (GPa) = 45.45743 49.42508 47.44125
# Shear Modulus (GPa) = 27.55594 30.03438 28.79516
#
# Velocity S-wave (km/s) = 3.69434 3.85691 3.77650
# Velocity P-wave (km/s) = 6.38061 6.65688 6.52021
#
# Compressibility (1/GPa) = 0.02199860
#
# Stress axis : x y z
#
# Youngs Moduli (GPa) = 57.87996 68.31847 63.11219
#
# Poissons Ratio (x) = 0.29188 0.09103
# Poissons Ratio (y) = 0.24729 0.45224
# Poissons Ratio (z) = 0.08348 0.48954
#
# Static dielectric constant tensor:
#      x y z
#    x 3.886410 0.000000 0.000000 
#    y 0.000000 3.695960 0.000000 
#    z 0.000000 0.000000 3.508330 
# 
# 
# High freq. dielectric constant tensor:
#      x y z
#    x 1.803770 0.000000 0.000000 
#    y 0.000000 1.787680 0.000000 
#    z 0.000000 0.000000 1.783600 
# 
# From -- ./inp_files/24734.got.cif
#   From: 2010.03.12/outbox.cif.g09.slc.cpg/sg59_13_cif.got.tgz:24734.got - 2010.04.16 16:29:54.
