data_PCOD8243396
_publ_section_title
;
Structure prediction by ZEFSAII (Michael W. Deem and Ramdas Pophale) SiO2 
 PCOD8243396
Probable space group: P M M N
;
_chemical_formula_sum "Si O2"
_cell_formula_units_Z 64
_cell_length_a 19.970152
_cell_length_b 9.036241
_cell_length_c 19.547019
_cell_angle_alpha 90.000000
_cell_angle_beta 90.000000
_cell_angle_gamma 90.000000
_cell_volume 3527.359391
_symmetry_space_group_name_H-M "P M M N"
_symmetry_group_IT_number 59
_space_group.IT_coordinate_system_code '2'
_symmetry_cell_setting 'orthorhombic'
loop_
_space_group_symop_operation_xyz
x,y,z
1/2-x,1/2-y,z
1/2+x,-y,-z
-x,1/2+y,-z
-x,-y,-z
1/2+x,1/2+y,-z
1/2-x,y,z
x,1/2-y,z
loop_
_atom_site_type_symbol
_atom_site_label
_atom_site_fract_x
_atom_site_fract_y
_atom_site_fract_z
Si Si1 0.394931 0.423263 0.312261
Si Si2 0.672989 0.080387 0.571874
Si Si3 0.672892 0.419959 0.942630
Si Si4 0.939817 0.922140 0.181894
Si Si5 0.575989 0.576295 0.840483
Si Si6 0.826731 0.420275 0.100601
Si Si7 0.527679 0.582018 0.332853
Si Si8 0.431997 0.079257 0.520727
O O1 0.385054 0.250000 0.322773
O O2 0.336936 0.508365 0.353164
O O3 0.392240 0.468635 0.232616
O O4 0.465715 0.471721 0.344543
O O5 0.750000 0.066417 0.551133
O O6 0.649416 0.250000 0.574647
O O7 0.631310 0.995982 0.514252
O O8 0.750000 0.458647 0.927309
O O9 0.658174 0.250000 0.923421
O O10 0.626632 0.526772 0.898798
O O11 0.656054 0.449500 0.021578
O O12 0.947583 0.750000 0.167097
O O13 0.933959 0.957983 0.262775
O O14 0.872280 0.978038 0.147581
O O15 0.004225 0.000603 0.148807
O O16 0.564265 0.750000 0.845384
O O17 0.750000 0.462618 0.115451
O O18 0.840037 0.250000 0.119060
O O19 0.499660 0.750000 0.328837
O O20 0.577577 0.564624 0.397075
O O21 0.435354 0.250000 0.497895
O O22 0.500000 0.000000 0.500000
#
# Coordination Sequence:
#
# PCOD8243396 Si02
#       8
#     8   8   8   8   8   8   8   8
#     4  10  20  34  54  78 105 140 179 220 268 322
#     4  11  24  39  54  77 111 148 186 228 272 322
#     4   9  19  36  56  77 104 142 185 224 269 328
#     4  10  20  35  56  82 110 142 180 223 270 323
#     4  10  21  35  53  81 113 143 179 224 273 322
#     4   9  19  37  58  79 106 141 181 226 276 328
#     4   9  19  35  55  80 109 138 174 219 267 321
#     4  11  21  35  59  85 108 140 182 226 273 326
#
# _framework density 18.143885000000001
#
# number of rings (size 3 to 8) (size 9 to 14) (size 15 to 20)
#    0.000    2.125    1.250    2.625    0.000    5.500 
#    0.000    4.375    0.000    3.750    0.000    0.000 
#    0.000    0.000    0.000    0.000    0.000    0.000 
#
# Total GULP energy -793724.762382 kJ/mol
# GULP energy per Si atom -12401.949412 kJ/mol
# Density = 1.810259 g / cm^3
# Si number density = 18.143885 Si / 1000 Ang^3
#
#
#
# Elastic Constant Matrix: (Units=GPa)
#
#
# Indices 1 2 3 4 5 6 
#
# 1 94.5258 54.7608 56.4784 0.0000 0.0000 0.0000
# 2 54.7608 103.1667 45.7890 0.0000 0.0000 0.0000
# 3 56.4784 45.7890 86.9753 0.0000 0.0000 0.0000
# 4 0.0000 0.0000 0.0000 29.8351 0.0000 0.0000
# 5 0.0000 0.0000 0.0000 0.0000 31.9218 0.0000
# 6 0.0000 0.0000 0.0000 0.0000 0.0000 34.7616
#
#
#
# Elastic Compliance Matrix: (Units=1/GPa)
#
#
# Indices 1 2 3 4 5 6 
#
# 1 0.020029 -0.006340 -0.009668 0.000000 0.000000 0.000000
# 2 -0.006340 0.014656 -0.003598 0.000000 0.000000 0.000000
# 3 -0.009668 -0.003598 0.019670 0.000000 0.000000 0.000000
# 4 0.000000 0.000000 0.000000 0.033518 0.000000 0.000000
# 5 0.000000 0.000000 0.000000 0.000000 0.031327 0.000000
# 6 0.000000 0.000000 0.000000 0.000000 0.000000 0.028767
#
#
# Mechanical properties :
#
#
# Convention : Reuss Voigt Hill
#
# Bulk Modulus (GPa) = 66.04634 66.52491 66.28563
# Shear Modulus (GPa) = 26.01102 27.81298 26.91200
#
# Velocity S-wave (km/s) = 3.79039 3.91949 3.85548
# Velocity P-wave (km/s) = 7.45899 7.56492 7.51214
#
# Compressibility (1/GPa) = 0.01514088
#
# Stress axis : x y z
#
# Youngs Moduli (GPa) = 49.92831 68.23346 50.83889
#
# Poissons Ratio (x) = 0.43262 0.49151
# Poissons Ratio (y) = 0.31656 0.18294
# Poissons Ratio (z) = 0.48271 0.24553
#
# Static dielectric constant tensor:
#      x y z
#    x 3.151340 0.000000 0.000000 
#    y 0.000000 3.421800 0.000000 
#    z 0.000000 0.000000 3.519310 
# 
# 
# High freq. dielectric constant tensor:
#      x y z
#    x 1.685970 0.000000 0.000000 
#    y 0.000000 1.713830 0.000000 
#    z 0.000000 0.000000 1.709460 
# 
# From -- ./inp_files/30811.got.cif
#   From: 2010.03.12/outbox.cif.g09.slc.cpg/sg59_16_cif.got.tgz:30811.got - 2010.04.16 16:29:54.
