data_PCOD8243521
_publ_section_title
;
Structure prediction by ZEFSAII (Michael W. Deem and Ramdas Pophale) SiO2 
 PCOD8243521
Probable space group: P M M N
;
_chemical_formula_sum "Si O2"
_cell_formula_units_Z 64
_cell_length_a 9.059272
_cell_length_b 14.029071
_cell_length_c 26.265944
_cell_angle_alpha 90.000000
_cell_angle_beta 90.000000
_cell_angle_gamma 90.000000
_cell_volume 3338.222089
_symmetry_space_group_name_H-M "P M M N"
_symmetry_group_IT_number 59
_space_group.IT_coordinate_system_code '2'
_symmetry_cell_setting 'orthorhombic'
loop_
_space_group_symop_operation_xyz
x,y,z
1/2-x,1/2-y,z
1/2+x,-y,-z
-x,1/2+y,-z
-x,-y,-z
1/2+x,1/2+y,-z
1/2-x,y,z
x,1/2-y,z
loop_
_atom_site_type_symbol
_atom_site_label
_atom_site_fract_x
_atom_site_fract_y
_atom_site_fract_z
Si Si1 0.419986 0.357892 0.339910
Si Si2 0.923057 0.026328 0.424103
Si Si3 0.076611 0.859301 0.475695
Si Si4 0.926640 0.021168 0.053568
Si Si5 0.424022 0.352074 0.878675
Si Si6 0.075744 0.145518 0.764000
Si Si7 0.077331 0.360307 0.134766
Si Si8 0.080442 0.459488 0.238087
O O1 0.250000 0.372166 0.355797
O O2 0.471776 0.250000 0.350518
O O3 0.518797 0.430463 0.371771
O O4 0.442018 0.377577 0.280031
O O5 0.750000 0.010445 0.419923
O O6 0.965564 0.099885 0.468902
O O7 0.995603 0.922733 0.433147
O O8 0.250000 0.866258 0.465871
O O9 0.021657 0.750000 0.472084
O O10 0.750000 0.026644 0.048255
O O11 0.987685 0.113940 0.083096
O O12 0.990007 0.934437 0.087061
O O13 0.000000 0.000000 0.000000
O O14 0.250000 0.362518 0.876665
O O15 0.469443 0.250000 0.902683
O O16 0.484140 0.358348 0.821638
O O17 0.250000 0.132995 0.760119
O O18 0.031433 0.250000 0.740654
O O19 0.999459 0.053885 0.738839
O O20 0.250000 0.379236 0.125274
O O21 0.047547 0.250000 0.146621
O O22 0.018509 0.420583 0.183807
O O23 0.250000 0.486038 0.231212
#
# Coordination Sequence:
#
# PCOD8243521 Si02
#       8
#     8   8   8   8   8   8   8   8
#     4  10  21  37  56  79 110 150 191 229 275 331
#     4  10  20  34  54  83 116 147 186 238 287 331
#     4   9  18  34  56  81 112 151 192 233 282 338
#     4  11  22  36  55  79 108 139 174 215 262 318
#     4   8  15  30  52  74  96 127 164 201 248 307
#     4   9  17  32  55  80 104 132 168 211 262 319
#     4  10  21  38  58  79 107 143 179 218 268 321
#     4  10  20  35  57  83 110 140 181 228 270 318
#
# _framework density 19.171883000000001
#
# number of rings (size 3 to 8) (size 9 to 14) (size 15 to 20)
#    0.000    2.375    1.250    2.250    0.000    4.500 
#    0.000    1.875    0.000    4.125    0.000    0.000 
#    0.000    0.000    0.000    0.000    0.000    0.000 
#
# Total GULP energy -793290.763250 kJ/mol
# GULP energy per Si atom -12395.168176 kJ/mol
# Density = 1.912825 g / cm^3
# Si number density = 19.171883 Si / 1000 Ang^3
#
#
#
# Elastic Constant Matrix: (Units=GPa)
#
#
# Indices 1 2 3 4 5 6 
#
# 1 55.3284 41.5968 29.1203 0.0000 0.0000 0.0000
# 2 41.5968 131.9267 29.7677 0.0000 0.0000 0.0000
# 3 29.1203 29.7677 70.9609 0.0000 0.0000 0.0000
# 4 0.0000 0.0000 0.0000 28.0158 0.0000 0.0000
# 5 0.0000 0.0000 0.0000 0.0000 26.6024 0.0000
# 6 0.0000 0.0000 0.0000 0.0000 0.0000 30.3344
#
#
#
# Elastic Compliance Matrix: (Units=1/GPa)
#
#
# Indices 1 2 3 4 5 6 
#
# 1 0.027662 -0.006805 -0.008497 0.000000 0.000000 0.000000
# 2 -0.006805 0.010046 -0.001422 0.000000 0.000000 0.000000
# 3 -0.008497 -0.001422 0.018176 0.000000 0.000000 0.000000
# 4 0.000000 0.000000 0.000000 0.035694 0.000000 0.000000
# 5 0.000000 0.000000 0.000000 0.000000 0.037591 0.000000
# 6 0.000000 0.000000 0.000000 0.000000 0.000000 0.032966
#
#
# Mechanical properties :
#
#
# Convention : Reuss Voigt Hill
#
# Bulk Modulus (GPa) = 44.57011 51.02063 47.79537
# Shear Modulus (GPa) = 24.62313 27.50591 26.06452
#
# Velocity S-wave (km/s) = 3.58765 3.79185 3.69116
# Velocity P-wave (km/s) = 6.36080 6.77059 6.56889
#
# Compressibility (1/GPa) = 0.02243656
#
# Stress axis : x y z
#
# Youngs Moduli (GPa) = 36.15076 99.53900 55.01823
#
# Poissons Ratio (x) = 0.67732 0.46750
# Poissons Ratio (y) = 0.24599 0.07823
# Poissons Ratio (z) = 0.30718 0.14154
#
# Static dielectric constant tensor:
#      x y z
#    x 3.275870 0.000000 0.000000 
#    y 0.000000 3.812290 0.000000 
#    z 0.000000 0.000000 3.367270 
# 
# 
# High freq. dielectric constant tensor:
#      x y z
#    x 1.727770 0.000000 0.000000 
#    y 0.000000 1.759800 0.000000 
#    z 0.000000 0.000000 1.728300 
# 
# From -- ./inp_files/31659.got.cif
#   From: 2010.03.12/outbox.cif.g09.slc.cpg/sg59_16_cif.got.tgz:31659.got - 2010.04.16 16:29:54.
