data_PCOD8243594
_publ_section_title
;
Structure prediction by ZEFSAII (Michael W. Deem and Ramdas Pophale) SiO2 
 PCOD8243594
Probable space group: P M M N
;
_chemical_formula_sum "Si O2"
_cell_formula_units_Z 64
_cell_length_a 9.266298
_cell_length_b 14.428670
_cell_length_c 24.528593
_cell_angle_alpha 90.000000
_cell_angle_beta 90.000000
_cell_angle_gamma 90.000000
_cell_volume 3279.481615
_symmetry_space_group_name_H-M "P M M N"
_symmetry_group_IT_number 59
_space_group.IT_coordinate_system_code '2'
_symmetry_cell_setting 'orthorhombic'
loop_
_space_group_symop_operation_xyz
x,y,z
1/2-x,1/2-y,z
1/2+x,-y,-z
-x,1/2+y,-z
-x,-y,-z
1/2+x,1/2+y,-z
1/2-x,y,z
x,1/2-y,z
loop_
_atom_site_type_symbol
_atom_site_label
_atom_site_fract_x
_atom_site_fract_y
_atom_site_fract_z
Si Si1 0.082190 0.537121 0.634585
Si Si2 0.089300 0.850540 0.223408
Si Si3 0.578709 0.644600 0.850193
Si Si4 0.915894 0.142487 0.471787
Si Si5 0.420764 0.003236 0.057152
Si Si6 0.417712 0.146245 0.579343
Si Si7 0.414887 0.451114 0.260970
Si Si8 0.087758 0.353852 0.881978
O O1 0.250000 0.556880 0.643424
O O2 0.024488 0.587825 0.580550
O O3 0.050022 0.426818 0.627784
O O4 0.003051 0.582572 0.686593
O O5 0.250000 0.859564 0.196160
O O6 0.078855 0.750000 0.253884
O O7 0.960986 0.854459 0.180283
O O8 0.068273 0.937383 0.262918
O O9 0.750000 0.644501 0.848903
O O10 0.518542 0.750000 0.852541
O O11 0.527714 0.589029 0.904322
O O12 0.522199 0.592978 0.795279
O O13 0.750000 0.117281 0.482529
O O14 0.938680 0.250000 0.459562
O O15 0.002551 0.111668 0.525103
O O16 0.250000 0.006070 0.047792
O O17 0.467320 0.908843 0.085394
O O18 0.500000 0.000000 0.000000
O O19 0.250000 0.145780 0.564825
O O20 0.468392 0.250000 0.597080
O O21 0.250000 0.419597 0.267910
O O22 0.250000 0.396148 0.886597
O O23 0.088853 0.250000 0.905573
#
# Coordination Sequence:
#
# PCOD8243594 Si02
#       8
#     8   8   8   8   8   8   8   8
#     4  10  21  34  49  74 107 141 173 217 273 321
#     4   9  17  32  54  78 104 135 174 222 275 326
#     4   9  19  38  61  82 109 147 187 228 276 326
#     4   9  18  33  52  73 100 134 174 220 271 323
#     4  11  22  38  60  87 117 150 186 231 284 334
#     4   9  18  33  52  74 102 136 174 216 266 324
#     4  10  20  35  54  79 106 140 185 226 268 323
#     4  10  20  34  55  83 112 143 180 222 271 329
#
# _framework density 19.515281000000002
#
# number of rings (size 3 to 8) (size 9 to 14) (size 15 to 20)
#    0.000    2.375    1.250    1.125    0.000    3.750 
#    0.000    1.250    0.000    2.625    0.000    0.000 
#    0.000    0.000    0.000    0.000    0.000    0.000 
#
# Total GULP energy -793192.615576 kJ/mol
# GULP energy per Si atom -12393.634618 kJ/mol
# Density = 1.947086 g / cm^3
# Si number density = 19.515281 Si / 1000 Ang^3
#
#
#
# Elastic Constant Matrix: (Units=GPa)
#
#
# Indices 1 2 3 4 5 6 
#
# 1 55.7992 26.7404 39.6717 0.0000 0.0000 0.0000
# 2 26.7404 76.7445 35.4351 0.0000 0.0000 0.0000
# 3 39.6717 35.4351 108.7204 0.0000 0.0000 0.0000
# 4 0.0000 0.0000 0.0000 16.5219 0.0000 0.0000
# 5 0.0000 0.0000 0.0000 0.0000 34.0828 0.0000
# 6 0.0000 0.0000 0.0000 0.0000 0.0000 21.3302
#
#
#
# Elastic Compliance Matrix: (Units=1/GPa)
#
#
# Indices 1 2 3 4 5 6 
#
# 1 0.026043 -0.005517 -0.007705 0.000000 0.000000 0.000000
# 2 -0.005517 0.016507 -0.003367 0.000000 0.000000 0.000000
# 3 -0.007705 -0.003367 0.013107 0.000000 0.000000 0.000000
# 4 0.000000 0.000000 0.000000 0.060526 0.000000 0.000000
# 5 0.000000 0.000000 0.000000 0.000000 0.029340 0.000000
# 6 0.000000 0.000000 0.000000 0.000000 0.000000 0.046882
#
#
# Mechanical properties :
#
#
# Convention : Reuss Voigt Hill
#
# Bulk Modulus (GPa) = 44.48494 49.43983 46.96238
# Shear Modulus (GPa) = 21.45220 23.68142 22.56681
#
# Velocity S-wave (km/s) = 3.31909 3.48728 3.40423
# Velocity P-wave (km/s) = 6.12641 6.45010 6.29034
#
# Compressibility (1/GPa) = 0.02247952
#
# Stress axis : x y z
#
# Youngs Moduli (GPa) = 38.39773 60.57975 76.29586
#
# Poissons Ratio (x) = 0.33420 0.58786
# Poissons Ratio (y) = 0.21183 0.25690
# Poissons Ratio (z) = 0.29585 0.20398
#
# Static dielectric constant tensor:
#      x y z
#    x 3.432430 0.000000 0.000000 
#    y 0.000000 4.338090 0.000000 
#    z 0.000000 0.000000 4.252220 
# 
# 
# High freq. dielectric constant tensor:
#      x y z
#    x 1.743850 0.000000 0.000000 
#    y 0.000000 1.767240 0.000000 
#    z 0.000000 0.000000 1.744120 
# 
# From -- ./inp_files/31406.got.cif
#   From: 2010.03.12/outbox.cif.g09.slc.cpg/sg59_16_cif.got.tgz:31406.got - 2010.04.16 16:29:54.
