data_PCOD8243816
_publ_section_title
;
Structure prediction by ZEFSAII (Michael W. Deem and Ramdas Pophale) SiO2 
 PCOD8243816
Probable space group: P M M N
;
_chemical_formula_sum "Si O2"
_cell_formula_units_Z 56
_cell_length_a 18.621759
_cell_length_b 9.271760
_cell_length_c 17.660700
_cell_angle_alpha 90.000000
_cell_angle_beta 90.000000
_cell_angle_gamma 90.000000
_cell_volume 3049.234300
_symmetry_space_group_name_H-M "P M M N"
_symmetry_group_IT_number 59
_space_group.IT_coordinate_system_code '2'
_symmetry_cell_setting 'orthorhombic'
loop_
_space_group_symop_operation_xyz
x,y,z
1/2-x,1/2-y,z
1/2+x,-y,-z
-x,1/2+y,-z
-x,-y,-z
1/2+x,1/2+y,-z
1/2-x,y,z
x,1/2-y,z
loop_
_atom_site_type_symbol
_atom_site_label
_atom_site_fract_x
_atom_site_fract_y
_atom_site_fract_z
Si Si1 0.423592 0.582897 0.795092
Si Si2 0.166442 0.417487 0.382160
Si Si3 0.087984 0.083215 0.230972
Si Si4 0.334928 0.083961 0.674853
Si Si5 0.831110 0.082365 0.899274
Si Si6 0.335405 0.586956 0.528714
Si Si7 0.066829 0.916536 0.966801
O O1 0.401777 0.750000 0.785521
O O2 0.503493 0.554874 0.764637
O O3 0.368985 0.484351 0.749305
O O4 0.416594 0.532055 0.881889
O O5 0.250000 0.447909 0.366669
O O6 0.152742 0.250000 0.400090
O O7 0.122891 0.470787 0.309069
O O8 0.136886 0.508635 0.452983
O O9 0.105906 0.250000 0.217299
O O10 0.120887 0.997919 0.161514
O O11 0.250000 0.067933 0.682001
O O12 0.358013 0.250000 0.667208
O O13 0.364546 0.999173 0.601445
O O14 0.750000 0.022428 0.898105
O O15 0.832919 0.250000 0.878671
O O16 0.862817 0.054518 0.982770
O O17 0.250000 0.585585 0.529168
O O18 0.365404 0.750000 0.531109
O O19 0.044386 0.750000 0.966008
O O20 0.000000 0.000000 0.000000
#
# Coordination Sequence:
#
# PCOD8243816 Si02
#       7
#     8   8   8   8   8   8   8
#     4  10  21  36  56  81 108 142 182 222 269 327
#     4   9  17  30  50  76 107 142 178 219 266 315
#     4  10  20  35  54  79 110 145 184 222 267 322
#     4  10  21  37  57  81 108 138 177 225 274 324
#     4  10  21  35  53  80 111 143 181 226 275 324
#     4   9  17  31  53  79 106 138 177 221 269 320
#     4  10  20  36  57  79 106 143 183 224 270 323
#
# _framework density 18.365266999999999
#
# number of rings (size 3 to 8) (size 9 to 14) (size 15 to 20)
#    0.000    2.286    1.429    1.286    0.000    5.714 
#    0.000    3.571    0.000    0.000    0.000    0.000 
#    0.000    0.000    0.000    0.000    0.000    0.000 
#
# Total GULP energy -694559.707475 kJ/mol
# GULP energy per Si atom -12402.851919 kJ/mol
# Density = 1.832347 g / cm^3
# Si number density = 18.365267 Si / 1000 Ang^3
#
#
#
# Elastic Constant Matrix: (Units=GPa)
#
#
# Indices 1 2 3 4 5 6 
#
# 1 38.0659 29.8373 31.9882 0.0000 0.0000 0.0000
# 2 29.8373 88.8706 69.3003 0.0000 0.0000 0.0000
# 3 31.9882 69.3003 159.8414 0.0000 0.0000 0.0000
# 4 0.0000 0.0000 0.0000 35.8969 0.0000 0.0000
# 5 0.0000 0.0000 0.0000 0.0000 22.8089 0.0000
# 6 0.0000 0.0000 0.0000 0.0000 0.0000 22.7303
#
#
#
# Elastic Compliance Matrix: (Units=1/GPa)
#
#
# Indices 1 2 3 4 5 6 
#
# 1 0.036591 -0.009933 -0.003016 0.000000 0.000000 0.000000
# 2 -0.009933 0.019696 -0.006551 0.000000 0.000000 0.000000
# 3 -0.003016 -0.006551 0.009700 0.000000 0.000000 0.000000
# 4 0.000000 0.000000 0.000000 0.027858 0.000000 0.000000
# 5 0.000000 0.000000 0.000000 0.000000 0.043842 0.000000
# 6 0.000000 0.000000 0.000000 0.000000 0.000000 0.043994
#
#
# Mechanical properties :
#
#
# Convention : Reuss Voigt Hill
#
# Bulk Modulus (GPa) = 37.05679 61.00329 49.03004
# Shear Modulus (GPa) = 21.76969 26.66404 24.21686
#
# Velocity S-wave (km/s) = 3.44666 3.81448 3.63522
# Velocity P-wave (km/s) = 6.00506 7.25873 6.66145
#
# Compressibility (1/GPa) = 0.02698561
#
# Stress axis : x y z
#
# Youngs Moduli (GPa) = 27.32946 50.77188 103.09003
#
# Poissons Ratio (x) = 0.50431 0.31094
# Poissons Ratio (y) = 0.27146 0.67539
# Poissons Ratio (z) = 0.08243 0.33263
#
# Static dielectric constant tensor:
#      x y z
#    x 3.272820 0.000000 0.000000 
#    y 0.000000 3.421650 0.000000 
#    z 0.000000 0.000000 3.578640 
# 
# 
# High freq. dielectric constant tensor:
#      x y z
#    x 1.693850 0.000000 0.000000 
#    y 0.000000 1.711480 0.000000 
#    z 0.000000 0.000000 1.725860 
# 
# From -- ./inp_files/28037.got.cif
#   From: 2010.03.12/outbox.cif.g09.slc.cpg/sg59_15_cif.got.tgz:28037.got - 2010.04.16 16:29:54.
