data_PCOD8243493
_publ_section_title
;
Structure prediction by ZEFSAII (Michael W. Deem and Ramdas Pophale) SiO2 
 PCOD8243493
Probable space group: P M M N
;
_chemical_formula_sum "Si O2"
_cell_formula_units_Z 48
_cell_length_a 9.052915
_cell_length_b 17.838527
_cell_length_c 15.648238
_cell_angle_alpha 90.000000
_cell_angle_beta 90.000000
_cell_angle_gamma 90.000000
_cell_volume 2527.044418
_symmetry_space_group_name_H-M "P M M N"
_symmetry_group_IT_number 59
_space_group.IT_coordinate_system_code '2'
_symmetry_cell_setting 'orthorhombic'
loop_
_space_group_symop_operation_xyz
x,y,z
1/2-x,1/2-y,z
1/2+x,-y,-z
-x,1/2+y,-z
-x,-y,-z
1/2+x,1/2+y,-z
1/2-x,y,z
x,1/2-y,z
loop_
_atom_site_type_symbol
_atom_site_label
_atom_site_fract_x
_atom_site_fract_y
_atom_site_fract_z
Si Si1 0.923379 0.250000 0.726922
Si Si2 0.581863 0.108003 0.961320
Si Si3 0.576960 0.390076 0.612086
Si Si4 0.922478 0.953828 0.697613
Si Si5 0.577306 0.664499 0.554842
Si Si6 0.924074 0.750000 0.091697
Si Si7 0.918844 0.017676 0.132998
O O1 0.750000 0.250000 0.746310
O O2 0.972074 0.176151 0.675545
O O3 0.010400 0.250000 0.814275
O O4 0.750000 0.127691 0.936348
O O5 0.479370 0.179964 0.962485
O O6 0.520600 0.053206 0.888232
O O7 0.571084 0.075614 0.055789
O O8 0.750000 0.387369 0.594959
O O9 0.527814 0.469856 0.650353
O O10 0.499250 0.378761 0.522068
O O11 0.750000 0.957629 0.721272
O O12 0.959162 0.881412 0.640498
O O13 0.018086 0.942933 0.782795
O O14 0.750000 0.664219 0.535871
O O15 0.518639 0.750000 0.564485
O O16 0.750000 0.750000 0.097500
O O17 0.750000 0.991719 0.147303
#
# Coordination Sequence:
#
# PCOD8243493 Si02
#       7
#     4   8   8   8   8   4   8
#     4  10  20  34  54  81 114 147 184 235 298 351
#     4  10  21  39  61  83 118 156 186 233 294 346
#     4  10  20  35  56  81 108 145 189 232 286 345
#     4  10  21  36  56  82 113 150 190 233 287 346
#     4  10  21  37  55  78 112 151 190 235 287 337
#     4  12  24  36  56  89 118 149 196 239 280 339
#     4  10  21  38  61  88 113 146 194 239 283 342
#
# _framework density 18.994522
#
# number of rings (size 3 to 8) (size 9 to 14) (size 15 to 20)
#    0.000    1.833    0.833    3.250    0.000    5.333 
#    1.500    0.000    0.000    0.000    0.000    0.000 
#    0.000    0.000    0.000    0.000    0.000    0.000 
#
# Total GULP energy -595402.157979 kJ/mol
# GULP energy per Si atom -12404.211625 kJ/mol
# Density = 1.895129 g / cm^3
# Si number density = 18.994522 Si / 1000 Ang^3
#
#
#
# Elastic Constant Matrix: (Units=GPa)
#
#
# Indices 1 2 3 4 5 6 
#
# 1 75.8350 24.8099 50.4372 0.0000 0.0000 0.0000
# 2 24.8099 80.4155 36.4195 0.0000 0.0000 0.0000
# 3 50.4372 36.4195 95.1937 0.0000 0.0000 0.0000
# 4 0.0000 0.0000 0.0000 19.6042 0.0000 0.0000
# 5 0.0000 0.0000 0.0000 0.0000 31.6217 0.0000
# 6 0.0000 0.0000 0.0000 0.0000 0.0000 22.6976
#
#
#
# Elastic Compliance Matrix: (Units=1/GPa)
#
#
# Indices 1 2 3 4 5 6 
#
# 1 0.020553 -0.001705 -0.010238 0.000000 0.000000 0.000000
# 2 -0.001705 0.015183 -0.004906 0.000000 0.000000 0.000000
# 3 -0.010238 -0.004906 0.017806 0.000000 0.000000 0.000000
# 4 0.000000 0.000000 0.000000 0.051010 0.000000 0.000000
# 5 0.000000 0.000000 0.000000 0.000000 0.031624 0.000000
# 6 0.000000 0.000000 0.000000 0.000000 0.000000 0.044058
#
#
# Mechanical properties :
#
#
# Convention : Reuss Voigt Hill
#
# Bulk Modulus (GPa) = 50.38681 52.75305 51.56993
# Shear Modulus (GPa) = 22.67114 24.10319 23.38717
#
# Velocity S-wave (km/s) = 3.45855 3.56610 3.51274
# Velocity P-wave (km/s) = 6.52176 6.69247 6.60767
#
# Compressibility (1/GPa) = 0.01984646
#
# Stress axis : x y z
#
# Youngs Moduli (GPa) = 48.65415 65.86301 56.16064
#
# Poissons Ratio (x) = 0.11227 0.57496
# Poissons Ratio (y) = 0.08293 0.27550
# Poissons Ratio (z) = 0.49811 0.32310
#
# Static dielectric constant tensor:
#      x y z
#    x 3.521480 0.000000 0.000000 
#    y 0.000000 3.724320 0.000000 
#    z 0.000000 0.000000 3.376040 
# 
# 
# High freq. dielectric constant tensor:
#      x y z
#    x 1.739130 0.000000 0.000000 
#    y 0.000000 1.744230 0.000000 
#    z 0.000000 0.000000 1.741650 
# 
# From -- ./inp_files/20521.got.cif
#   From: 2010.03.12/outbox.cif.g09.slc.cpg/sg59_11_cif.got.tgz:20521.got - 2010.04.16 16:29:54.
