data_PCOD8243773
_publ_section_title
;
Structure prediction by ZEFSAII (Michael W. Deem and Ramdas Pophale) SiO2 
 PCOD8243773
Probable space group: P M M N
;
_chemical_formula_sum "Si O2"
_cell_formula_units_Z 64
_cell_length_a 9.513870
_cell_length_b 22.606971
_cell_length_c 16.732946
_cell_angle_alpha 90.000000
_cell_angle_beta 90.000000
_cell_angle_gamma 90.000000
_cell_volume 3598.918398
_symmetry_space_group_name_H-M "P M M N"
_symmetry_group_IT_number 59
_space_group.IT_coordinate_system_code '2'
_symmetry_cell_setting 'orthorhombic'
loop_
_space_group_symop_operation_xyz
x,y,z
1/2-x,1/2-y,z
1/2+x,-y,-z
-x,1/2+y,-z
-x,-y,-z
1/2+x,1/2+y,-z
1/2-x,y,z
x,1/2-y,z
loop_
_atom_site_type_symbol
_atom_site_label
_atom_site_fract_x
_atom_site_fract_y
_atom_site_fract_z
Si Si1 0.911877 0.509355 0.921225
Si Si2 0.083638 0.433368 0.796101
Si Si3 0.910732 0.317584 0.360420
Si Si4 0.587083 0.536425 0.384979
Si Si5 0.405022 0.182944 0.219889
Si Si6 0.091178 0.145293 0.056617
Si Si7 0.411100 0.919122 0.524532
Si Si8 0.416433 0.316816 0.886113
O O1 0.750000 0.486483 0.928234
O O2 0.914650 0.579109 0.910822
O O3 0.991456 0.477827 0.848695
O O4 0.000000 0.500000 0.000000
O O5 0.250000 0.444238 0.812301
O O6 0.041857 0.447696 0.705120
O O7 0.042006 0.365185 0.818403
O O8 0.750000 0.324064 0.334327
O O9 0.949687 0.250000 0.380390
O O10 0.943404 0.355111 0.439114
O O11 0.997186 0.346475 0.286994
O O12 0.750000 0.550399 0.396398
O O13 0.550706 0.468741 0.408713
O O14 0.503388 0.578424 0.445105
O O15 0.250000 0.152399 0.219295
O O16 0.389806 0.250000 0.246393
O O17 0.475610 0.180746 0.131394
O O18 0.250000 0.167095 0.044728
O O19 0.017882 0.159677 0.971186
O O20 0.250000 0.926395 0.498578
O O21 0.250000 0.314421 0.891343
O O22 0.473817 0.250000 0.866982
#
# Coordination Sequence:
#
# PCOD8243773 Si02
#       8
#     8   8   8   8   8   8   8   8
#     4  11  21  34  51  74 104 136 168 206 252 299
#     4  10  20  35  53  77 105 131 167 211 258 307
#     4   9  18  32  49  71 101 135 168 201 243 303
#     4   9  19  34  53  76 102 129 160 209 259 300
#     4   9  17  29  46  70  99 129 164 206 244 282
#     4   9  17  29  46  72  99 127 168 207 242 288
#     4   9  18  34  53  73  98 131 168 201 247 307
#     4   9  16  29  51  73  96 131 171 209 248 293
#
# _framework density 17.783121000000001
#
# number of rings (size 3 to 8) (size 9 to 14) (size 15 to 20)
#    0.000    2.625    1.250    0.750    1.750    2.500 
#    0.000    1.250    0.000    1.125    0.000    0.000 
#    0.000    0.000    0.000    0.000    0.000    0.000 
#
# Total GULP energy -792931.810976 kJ/mol
# GULP energy per Si atom -12389.559546 kJ/mol
# Density = 1.774265 g / cm^3
# Si number density = 17.783121 Si / 1000 Ang^3
#
#
#
# Elastic Constant Matrix: (Units=GPa)
#
#
# Indices 1 2 3 4 5 6 
#
# 1 56.6368 30.7909 59.5960 0.0000 0.0000 0.0000
# 2 30.7909 81.8901 60.3041 0.0000 0.0000 0.0000
# 3 59.5960 60.3041 155.8885 0.0000 0.0000 0.0000
# 4 0.0000 0.0000 0.0000 25.6918 0.0000 0.0000
# 5 0.0000 0.0000 0.0000 0.0000 27.0256 0.0000
# 6 0.0000 0.0000 0.0000 0.0000 0.0000 18.5257
#
#
#
# Elastic Compliance Matrix: (Units=1/GPa)
#
#
# Indices 1 2 3 4 5 6 
#
# 1 0.030459 -0.004024 -0.010088 0.000000 0.000000 0.000000
# 2 -0.004024 0.017608 -0.005273 0.000000 0.000000 0.000000
# 3 -0.010088 -0.005273 0.012311 0.000000 0.000000 0.000000
# 4 0.000000 0.000000 0.000000 0.038923 0.000000 0.000000
# 5 0.000000 0.000000 0.000000 0.000000 0.037002 0.000000
# 6 0.000000 0.000000 0.000000 0.000000 0.000000 0.053979
#
#
# Mechanical properties :
#
#
# Convention : Reuss Voigt Hill
#
# Bulk Modulus (GPa) = 46.27869 66.19972 56.23920
# Shear Modulus (GPa) = 21.16369 23.83023 22.49696
#
# Velocity S-wave (km/s) = 3.45352 3.66464 3.56065
# Velocity P-wave (km/s) = 6.47942 7.43055 6.97122
#
# Compressibility (1/GPa) = 0.02160822
#
# Stress axis : x y z
#
# Youngs Moduli (GPa) = 32.83115 56.79383 81.22691
#
# Poissons Ratio (x) = 0.22854 0.81940
# Poissons Ratio (y) = 0.13211 0.42831
# Poissons Ratio (z) = 0.33119 0.29947
#
# Static dielectric constant tensor:
#      x y z
#    x 3.185150 0.000000 0.000000 
#    y 0.000000 3.311190 0.000000 
#    z 0.000000 0.000000 3.236900 
# 
# 
# High freq. dielectric constant tensor:
#      x y z
#    x 1.660010 0.000000 0.000000 
#    y 0.000000 1.685370 0.000000 
#    z 0.000000 0.000000 1.686530 
# 
# From -- ./inp_files/21483.got.cif
#   From: 2010.03.12/outbox.cif.g09.slc.cpg/sg59_11_cif.got.tgz:21483.got - 2010.04.16 16:29:54.
