data_PCOD8243399
_publ_section_title
;
Structure prediction by ZEFSAII (Michael W. Deem and Ramdas Pophale) SiO2 
 PCOD8243399
Probable space group: P M M N
;
_chemical_formula_sum "Si O2"
_cell_formula_units_Z 64
_cell_length_a 15.737903
_cell_length_b 8.929469
_cell_length_c 23.595907
_cell_angle_alpha 90.000000
_cell_angle_beta 90.000000
_cell_angle_gamma 90.000000
_cell_volume 3315.959166
_symmetry_space_group_name_H-M "P M M N"
_symmetry_group_IT_number 59
_space_group.IT_coordinate_system_code '2'
_symmetry_cell_setting 'orthorhombic'
loop_
_space_group_symop_operation_xyz
x,y,z
1/2-x,1/2-y,z
1/2+x,-y,-z
-x,1/2+y,-z
-x,-y,-z
1/2+x,1/2+y,-z
1/2-x,y,z
x,1/2-y,z
loop_
_atom_site_type_symbol
_atom_site_label
_atom_site_fract_x
_atom_site_fract_y
_atom_site_fract_z
Si Si1 0.086998 0.923510 0.439281
Si Si2 0.844402 0.076787 0.079597
Si Si3 0.154017 0.075921 0.673853
Si Si4 0.924685 0.078883 0.969285
Si Si5 0.998320 0.574514 0.141145
Si Si6 0.408541 0.576618 0.566669
Si Si7 0.156184 0.077504 0.337390
Si Si8 0.000576 0.926830 0.739455
O O1 0.063195 0.750000 0.430847
O O2 0.123565 0.950509 0.502477
O O3 0.156534 0.977319 0.394262
O O4 0.004994 0.023887 0.427318
O O5 0.750000 0.039388 0.101215
O O6 0.868178 0.250000 0.092120
O O7 0.843977 0.050077 0.010374
O O8 0.908264 0.969813 0.113128
O O9 0.250000 0.048482 0.696479
O O10 0.131181 0.250000 0.673630
O O11 0.150056 0.015200 0.609638
O O12 0.087043 0.993811 0.714176
O O13 0.950593 0.250000 0.967403
O O14 0.924092 0.029960 0.902741
O O15 0.000000 0.000000 0.000000
O O16 0.996446 0.750000 0.156097
O O17 0.014535 0.481576 0.197243
O O18 0.404205 0.750000 0.583825
O O19 0.250000 0.057005 0.309539
O O20 0.140609 0.250000 0.353746
O O21 0.082437 0.020403 0.295366
O O22 0.010172 0.750000 0.739040
#
# Coordination Sequence:
#
# PCOD8243399 Si02
#       8
#     8   8   8   8   8   8   8   8
#     4  10  20  34  57  86 115 146 184 231 283 341
#     4   9  17  31  53  81 112 144 180 223 269 323
#     4  11  24  40  59  84 114 149 189 236 289 343
#     4   8  15  29  49  74 102 134 170 208 255 308
#     4  10  20  34  54  78 108 145 184 227 274 326
#     4  10  20  35  56  84 116 150 185 226 281 343
#     4  10  22  40  61  84 110 143 186 237 294 349
#     4  11  23  40  61  82 109 150 195 239 285 336
#
# _framework density 19.300599999999999
#
# number of rings (size 3 to 8) (size 9 to 14) (size 15 to 20)
#    0.000    2.125    1.250    1.875    0.000    5.000 
#    0.000    3.125    0.000    0.750    0.000    0.000 
#    0.000    0.000    0.000    0.000    0.000    0.000 
#
# Total GULP energy -793100.458340 kJ/mol
# GULP energy per Si atom -12392.194662 kJ/mol
# Density = 1.925667 g / cm^3
# Si number density = 19.300600 Si / 1000 Ang^3
#
#
#
# Elastic Constant Matrix: (Units=GPa)
#
#
# Indices 1 2 3 4 5 6 
#
# 1 73.8560 27.3721 37.1005 0.0000 0.0000 0.0000
# 2 27.3721 69.5466 42.3277 0.0000 0.0000 0.0000
# 3 37.1005 42.3277 122.6774 0.0000 0.0000 0.0000
# 4 0.0000 0.0000 0.0000 32.4007 0.0000 0.0000
# 5 0.0000 0.0000 0.0000 0.0000 15.9411 0.0000
# 6 0.0000 0.0000 0.0000 0.0000 0.0000 22.9295
#
#
#
# Elastic Compliance Matrix: (Units=1/GPa)
#
#
# Indices 1 2 3 4 5 6 
#
# 1 0.017015 -0.004513 -0.003589 0.000000 0.000000 0.000000
# 2 -0.004513 0.019398 -0.005328 0.000000 0.000000 0.000000
# 3 -0.003589 -0.005328 0.011075 0.000000 0.000000 0.000000
# 4 0.000000 0.000000 0.000000 0.030864 0.000000 0.000000
# 5 0.000000 0.000000 0.000000 0.000000 0.062731 0.000000
# 6 0.000000 0.000000 0.000000 0.000000 0.000000 0.043612
#
#
# Mechanical properties :
#
#
# Convention : Reuss Voigt Hill
#
# Bulk Modulus (GPa) = 48.47545 53.29785 50.88665
# Shear Modulus (GPa) = 22.89065 24.87289 23.88177
#
# Velocity S-wave (km/s) = 3.44758 3.59376 3.52143
# Velocity P-wave (km/s) = 6.40455 6.70035 6.55412
#
# Compressibility (1/GPa) = 0.02062900
#
# Stress axis : x y z
#
# Youngs Moduli (GPa) = 58.77152 51.55243 90.29204
#
# Poissons Ratio (x) = 0.23263 0.32404
# Poissons Ratio (y) = 0.26521 0.48109
# Poissons Ratio (z) = 0.21092 0.27468
#
# Static dielectric constant tensor:
#      x y z
#    x 3.685000 0.000000 0.000000 
#    y 0.000000 3.629180 0.000000 
#    z 0.000000 0.000000 3.829170 
# 
# 
# High freq. dielectric constant tensor:
#      x y z
#    x 1.732020 0.000000 0.000000 
#    y 0.000000 1.757670 0.000000 
#    z 0.000000 0.000000 1.752750 
# 
# From -- ./inp_files/32215.got.cif
#   From: 2010.03.12/outbox.cif.g09.slc.cpg/sg59_17_cif.got.tgz:32215.got - 2010.04.16 16:29:54.
