data_PCOD8243528
_publ_section_title
;
Structure prediction by ZEFSAII (Michael W. Deem and Ramdas Pophale) SiO2 
 PCOD8243528
Probable space group: P M M N
;
_chemical_formula_sum "Si O2"
_cell_formula_units_Z 64
_cell_length_a 14.758136
_cell_length_b 23.631589
_cell_length_c 9.417729
_cell_angle_alpha 90.000000
_cell_angle_beta 90.000000
_cell_angle_gamma 90.000000
_cell_volume 3284.510255
_symmetry_space_group_name_H-M "P M M N"
_symmetry_group_IT_number 59
_space_group.IT_coordinate_system_code '2'
_symmetry_cell_setting 'orthorhombic'
loop_
_space_group_symop_operation_xyz
x,y,z
1/2-x,1/2-y,z
1/2+x,-y,-z
-x,1/2+y,-z
-x,-y,-z
1/2+x,1/2+y,-z
1/2-x,y,z
x,1/2-y,z
loop_
_atom_site_type_symbol
_atom_site_label
_atom_site_fract_x
_atom_site_fract_y
_atom_site_fract_z
Si Si1 0.994719 0.814303 0.652617
Si Si2 0.645350 0.908397 0.612559
Si Si3 0.853847 0.370564 0.516638
Si Si4 0.143438 0.507809 0.599045
Si Si5 0.526835 0.138227 0.044599
Si Si6 0.347865 0.421286 0.064704
Si Si7 0.648023 0.314043 0.807289
Si Si8 0.413193 0.518445 0.910247
O O1 0.965624 0.750000 0.625776
O O2 0.088491 0.827031 0.575134
O O3 0.010358 0.823577 0.818787
O O4 0.914668 0.852777 0.587939
O O5 0.750000 0.892000 0.590464
O O6 0.614749 0.956014 0.501229
O O7 0.626960 0.932350 0.770603
O O8 0.750000 0.359215 0.475605
O O9 0.882236 0.434918 0.483893
O O10 0.870841 0.358604 0.682316
O O11 0.250000 0.506433 0.636255
O O12 0.084894 0.503476 0.743000
O O13 0.427666 0.115787 0.992588
O O14 0.596001 0.086202 0.076976
O O15 0.572691 0.176864 0.926829
O O16 0.250000 0.389934 0.053047
O O17 0.334757 0.481938 0.986178
O O18 0.750000 0.323026 0.867845
O O19 0.637517 0.250000 0.749791
O O20 0.500000 0.500000 0.000000
#
# Coordination Sequence:
#
# PCOD8243528 Si02
#       8
#     8   8   8   8   8   8   8   8
#     4  11  22  38  60  85 116 158 198 245 294 345
#     4   9  21  39  60  89 119 154 198 245 297 358
#     4  10  22  39  59  85 115 154 198 243 298 357
#     4  10  20  37  59  86 120 156 194 243 302 358
#     4  10  21  37  55  85 117 153 201 243 289 358
#     4   9  19  36  57  82 118 155 192 241 298 357
#     4  10  22  39  58  82 115 155 198 248 301 353
#     4  10  20  34  54  84 118 152 187 234 294 352
#
# _framework density 19.485403000000002
#
# number of rings (size 3 to 8) (size 9 to 14) (size 15 to 20)
#    0.000    2.125    1.250    1.125    1.750    5.000 
#    0.000    0.000    0.000    1.125    0.000    0.000 
#    0.000    4.000    0.000    0.000    0.000    0.000 
#
# Total GULP energy -793375.587617 kJ/mol
# GULP energy per Si atom -12396.493557 kJ/mol
# Density = 1.944105 g / cm^3
# Si number density = 19.485403 Si / 1000 Ang^3
#
#
#
# Elastic Constant Matrix: (Units=GPa)
#
#
# Indices 1 2 3 4 5 6 
#
# 1 92.0156 46.3836 53.0041 0.0000 0.0000 0.0000
# 2 46.3836 132.3669 58.7648 0.0000 0.0000 0.0000
# 3 53.0041 58.7648 100.1997 0.0000 0.0000 0.0000
# 4 0.0000 0.0000 0.0000 27.6753 0.0000 0.0000
# 5 0.0000 0.0000 0.0000 0.0000 30.7137 0.0000
# 6 0.0000 0.0000 0.0000 0.0000 0.0000 26.0172
#
#
#
# Elastic Compliance Matrix: (Units=1/GPa)
#
#
# Indices 1 2 3 4 5 6 
#
# 1 0.016237 -0.002537 -0.007101 0.000000 0.000000 0.000000
# 2 -0.002537 0.010611 -0.004881 0.000000 0.000000 0.000000
# 3 -0.007101 -0.004881 0.016599 0.000000 0.000000 0.000000
# 4 0.000000 0.000000 0.000000 0.036133 0.000000 0.000000
# 5 0.000000 0.000000 0.000000 0.000000 0.032559 0.000000
# 6 0.000000 0.000000 0.000000 0.000000 0.000000 0.038436
#
#
# Mechanical properties :
#
#
# Convention : Reuss Voigt Hill
#
# Bulk Modulus (GPa) = 69.40360 71.20966 70.30663
# Shear Modulus (GPa) = 27.11256 27.97655 27.54456
#
# Velocity S-wave (km/s) = 3.73423 3.79327 3.76387
# Velocity P-wave (km/s) = 7.36806 7.47058 7.41950
#
# Compressibility (1/GPa) = 0.01440848
#
# Stress axis : x y z
#
# Youngs Moduli (GPa) = 61.58682 94.24471 60.24461
#
# Poissons Ratio (x) = 0.23912 0.42781
# Poissons Ratio (y) = 0.15626 0.29404
# Poissons Ratio (z) = 0.43734 0.45999
#
# Static dielectric constant tensor:
#      x y z
#    x 3.700120 0.000000 0.000000 
#    y 0.000000 3.601730 0.000000 
#    z 0.000000 0.000000 3.499570 
# 
# 
# High freq. dielectric constant tensor:
#      x y z
#    x 1.763040 0.000000 0.000000 
#    y 0.000000 1.747990 0.000000 
#    z 0.000000 0.000000 1.754350 
# 
# From -- ./inp_files/9612.got.cif
#   From: 2010.03.12/outbox.cif.g09.slc.cpg/sg59_5_cif.got.tgz:9612.got - 2010.04.16 16:29:54.
