data_PCOD8243880
_publ_section_title
;
Structure prediction by ZEFSAII (Michael W. Deem and Ramdas Pophale) SiO2 
 PCOD8243880
Probable space group: P M M N
;
_chemical_formula_sum "Si O2"
_cell_formula_units_Z 48
_cell_length_a 14.663564
_cell_length_b 8.869037
_cell_length_c 19.713300
_cell_angle_alpha 90.000000
_cell_angle_beta 90.000000
_cell_angle_gamma 90.000000
_cell_volume 2563.748013
_symmetry_space_group_name_H-M "P M M N"
_symmetry_group_IT_number 59
_space_group.IT_coordinate_system_code '2'
_symmetry_cell_setting 'orthorhombic'
loop_
_space_group_symop_operation_xyz
x,y,z
1/2-x,1/2-y,z
1/2+x,-y,-z
-x,1/2+y,-z
-x,-y,-z
1/2+x,1/2+y,-z
1/2-x,y,z
x,1/2-y,z
loop_
_atom_site_type_symbol
_atom_site_label
_atom_site_fract_x
_atom_site_fract_y
_atom_site_fract_z
Si Si1 0.930276 0.074200 0.049839
Si Si2 0.563398 0.427837 0.207007
Si Si3 0.750000 0.928431 0.482863
Si Si4 0.750000 0.569917 0.638154
Si Si5 0.750000 0.580844 0.212350
Si Si6 0.944752 0.927507 0.439814
Si Si7 0.436240 0.571109 0.312093
Si Si8 0.750000 0.582449 0.051670
O O1 0.930612 0.250000 0.038471
O O2 0.949180 0.032765 0.127967
O O3 0.835185 0.009039 0.024529
O O4 0.000000 0.000000 0.000000
O O5 0.563208 0.250000 0.220402
O O6 0.658820 0.493981 0.236184
O O7 0.477564 0.506832 0.242647
O O8 0.750000 0.750000 0.485027
O O9 0.750000 0.987905 0.560367
O O10 0.839973 0.986701 0.443167
O O11 0.750000 0.750000 0.643370
O O12 0.839054 0.505439 0.675111
O O13 0.750000 0.750000 0.244000
O O14 0.750000 0.589693 0.132168
O O15 0.947966 0.750000 0.450242
O O16 0.991208 0.976154 0.369777
O O17 0.000000 0.000000 0.500000
O O18 0.423186 0.750000 0.307452
O O19 0.750000 0.750000 0.020499
#
# Coordination Sequence:
#
# PCOD8243880 Si02
#       8
#     8   8   4   4   4   8   8   4
#     4  10  20  35  57  84 114 149 189 235 281 333
#     4  10  21  37  57  83 116 152 190 229 278 340
#     4   9  18  34  56  80 107 143 182 223 275 332
#     4  11  21  37  61  79 105 151 191 228 281 345
#     4   9  17  32  56  82 111 146 182 225 279 329
#     4  10  20  35  55  80 108 140 182 228 275 328
#     4  11  23  37  57  84 114 146 187 238 285 333
#     4   9  17  31  53  81 111 146 185 224 273 336
#
# _framework density 18.722587999999998
#
# number of rings (size 3 to 8) (size 9 to 14) (size 15 to 20)
#    0.000    2.000    1.667    2.250    0.000    5.333 
#    0.000    2.917    0.000    5.000    0.000    0.000 
#    0.000    0.000    0.000    0.000    0.000    0.000 
#
# Total GULP energy -595187.298510 kJ/mol
# GULP energy per Si atom -12399.735386 kJ/mol
# Density = 1.867997 g / cm^3
# Si number density = 18.722588 Si / 1000 Ang^3
#
#
#
# Elastic Constant Matrix: (Units=GPa)
#
#
# Indices 1 2 3 4 5 6 
#
# 1 190.2010 64.4210 71.1528 0.0000 0.0000 0.0000
# 2 64.4210 92.5478 53.4491 0.0000 0.0000 0.0000
# 3 71.1528 53.4491 74.9025 0.0000 0.0000 0.0000
# 4 0.0000 0.0000 0.0000 27.0327 0.0000 0.0000
# 5 0.0000 0.0000 0.0000 0.0000 28.2121 0.0000
# 6 0.0000 0.0000 0.0000 0.0000 0.0000 37.1867
#
#
#
# Elastic Compliance Matrix: (Units=1/GPa)
#
#
# Indices 1 2 3 4 5 6 
#
# 1 0.008390 -0.002105 -0.006468 0.000000 0.000000 0.000000
# 2 -0.002105 0.018908 -0.011493 0.000000 0.000000 0.000000
# 3 -0.006468 -0.011493 0.027696 0.000000 0.000000 0.000000
# 4 0.000000 0.000000 0.000000 0.036992 0.000000 0.000000
# 5 0.000000 0.000000 0.000000 0.000000 0.035446 0.000000
# 6 0.000000 0.000000 0.000000 0.000000 0.000000 0.026891
#
#
# Mechanical properties :
#
#
# Convention : Reuss Voigt Hill
#
# Bulk Modulus (GPa) = 67.28361 81.74413 74.51387
# Shear Modulus (GPa) = 25.07397 29.72818 27.40107
#
# Velocity S-wave (km/s) = 3.66353 3.98907 3.82976
# Velocity P-wave (km/s) = 7.34237 8.06055 7.70983
#
# Compressibility (1/GPa) = 0.01486246
#
# Stress axis : x y z
#
# Youngs Moduli (GPa) = 119.18680 52.88833 36.10566
#
# Poissons Ratio (x) = 0.11131 0.23354
# Poissons Ratio (y) = 0.25084 0.41496
# Poissons Ratio (z) = 0.77094 0.60785
#
# Static dielectric constant tensor:
#      x y z
#    x 3.800220 0.000000 0.000000 
#    y 0.000000 3.525130 0.000000 
#    z 0.000000 0.000000 3.263590 
# 
# 
# High freq. dielectric constant tensor:
#      x y z
#    x 1.740520 0.000000 0.000000 
#    y 0.000000 1.732040 0.000000 
#    z 0.000000 0.000000 1.706960 
# 
# From -- ./inp_files/27519.got.cif
#   From: 2010.03.12/outbox.cif.g09.slc.cpg/sg59_14_cif.got.tgz:27519.got - 2010.04.16 16:29:54.
