data_PCOD8243299
_publ_section_title
;
Structure prediction by ZEFSAII (Michael W. Deem and Ramdas Pophale) SiO2 
 PCOD8243299
Probable space group: P M M N
;
_chemical_formula_sum "Si O2"
_cell_formula_units_Z 64
_cell_length_a 19.659367
_cell_length_b 13.919404
_cell_length_c 11.867353
_cell_angle_alpha 90.000000
_cell_angle_beta 90.000000
_cell_angle_gamma 90.000000
_cell_volume 3247.461650
_symmetry_space_group_name_H-M "P M M N"
_symmetry_group_IT_number 59
_space_group.IT_coordinate_system_code '2'
_symmetry_cell_setting 'orthorhombic'
loop_
_space_group_symop_operation_xyz
x,y,z
1/2-x,1/2-y,z
1/2+x,-y,-z
-x,1/2+y,-z
-x,-y,-z
1/2+x,1/2+y,-z
1/2-x,y,z
x,1/2-y,z
loop_
_atom_site_type_symbol
_atom_site_label
_atom_site_fract_x
_atom_site_fract_y
_atom_site_fract_z
Si Si1 0.586271 0.470974 0.194740
Si Si2 0.893756 0.139740 0.989822
Si Si3 0.045409 0.360033 0.950387
Si Si4 0.975200 0.140893 0.585144
Si Si5 0.143326 0.857368 0.254959
Si Si6 0.100672 0.006207 0.566822
Si Si7 0.443927 0.138357 0.201796
Si Si8 0.824364 0.950074 0.646662
O O1 0.580428 0.578547 0.146478
O O2 0.629521 0.474390 0.310993
O O3 0.513093 0.421359 0.222596
O O4 0.631731 0.413776 0.102420
O O5 0.896938 0.250000 0.022147
O O6 0.849302 0.121238 0.878594
O O7 0.969164 0.100300 0.966411
O O8 0.046316 0.250000 0.909340
O O9 0.081727 0.371969 0.072599
O O10 0.987519 0.250000 0.545271
O O11 0.935728 0.137796 0.705301
O O12 0.045789 0.087142 0.598248
O O13 0.930474 0.087804 0.491236
O O14 0.172023 0.750000 0.281156
O O15 0.185603 0.938313 0.318802
O O16 0.157076 0.053577 0.485951
O O17 0.458300 0.250000 0.230366
O O18 0.383531 0.100077 0.281619
O O19 0.750000 0.900531 0.662891
#
# Coordination Sequence:
#
# PCOD8243299 Si02
#       8
#     8   8   8   8   8   8   8   8
#     4  11  18  29  50  76 111 137 157 196 256 315
#     4   9  16  26  46  78 108 129 148 180 238 309
#     4   9  17  28  47  78 110 134 155 185 237 305
#     4   9  17  31  50  71  99 128 157 206 262 300
#     4   9  17  32  55  81 104 126 160 206 259 317
#     4  10  21  31  45  73  98 127 171 205 240 302
#     4  10  20  34  53  78 105 133 168 209 254 305
#     4  11  23  38  52  67  94 135 179 220 255 286
#
# _framework density 19.707699000000002
#
# number of rings (size 3 to 8) (size 9 to 14) (size 15 to 20)
#    0.000    2.250    0.000    7.125    0.000    4.500 
#    0.000    0.000    0.000    3.000    0.000    0.000 
#    0.000    0.000    0.000    0.000    0.000    0.000 
#
# Total GULP energy -793116.569931 kJ/mol
# GULP energy per Si atom -12392.446405 kJ/mol
# Density = 1.966284 g / cm^3
# Si number density = 19.707699 Si / 1000 Ang^3
#
#
#
# Elastic Constant Matrix: (Units=GPa)
#
#
# Indices 1 2 3 4 5 6 
#
# 1 46.8075 10.7617 16.1421 0.0000 0.0000 0.0000
# 2 10.7617 78.9901 24.6482 0.0000 0.0000 0.0000
# 3 16.1421 24.6482 125.1049 0.0000 0.0000 0.0000
# 4 0.0000 0.0000 0.0000 23.2224 0.0000 0.0000
# 5 0.0000 0.0000 0.0000 0.0000 7.1565 0.0000
# 6 0.0000 0.0000 0.0000 0.0000 0.0000 6.1613
#
#
#
# Elastic Compliance Matrix: (Units=1/GPa)
#
#
# Indices 1 2 3 4 5 6 
#
# 1 0.022753 -0.002327 -0.002477 0.000000 0.000000 0.000000
# 2 -0.002327 0.013727 -0.002404 0.000000 0.000000 0.000000
# 3 -0.002477 -0.002404 0.008787 0.000000 0.000000 0.000000
# 4 0.000000 0.000000 0.000000 0.043062 0.000000 0.000000
# 5 0.000000 0.000000 0.000000 0.000000 0.139732 0.000000
# 6 0.000000 0.000000 0.000000 0.000000 0.000000 0.162304
#
#
# Mechanical properties :
#
#
# Convention : Reuss Voigt Hill
#
# Bulk Modulus (GPa) = 32.41494 39.33407 35.87450
# Shear Modulus (GPa) = 12.04629 20.59808 16.32218
#
# Velocity S-wave (km/s) = 2.47502 3.23643 2.88099
# Velocity P-wave (km/s) = 4.96500 5.82821 5.41384
#
# Compressibility (1/GPa) = 0.03084998
#
# Stress axis : x y z
#
# Youngs Moduli (GPa) = 43.94942 72.84877 113.80920
#
# Poissons Ratio (x) = 0.16951 0.28195
# Poissons Ratio (y) = 0.10227 0.27363
# Poissons Ratio (z) = 0.10888 0.17515
#
# Static dielectric constant tensor:
#      x y z
#    x 2.975670 0.000000 0.000000 
#    y 0.000000 3.720620 0.000000 
#    z 0.000000 0.000000 3.863540 
# 
# 
# High freq. dielectric constant tensor:
#      x y z
#    x 1.692760 0.000000 0.000000 
#    y 0.000000 1.779920 0.000000 
#    z 0.000000 0.000000 1.781500 
# 
# From -- ./inp_files/17877.got.cif
#   From: 2010.03.12/outbox.cif.g09.slc.cpg/sg59_9_cif.got.tgz:17877.got - 2010.04.16 16:29:54.
