data_PCOD8243102
_publ_section_title
;
Structure prediction by ZEFSAII (Michael W. Deem and Ramdas Pophale) SiO2 
 PCOD8243102
Probable space group: P M M N
;
_chemical_formula_sum "Si O2"
_cell_formula_units_Z 64
_cell_length_a 13.981265
_cell_length_b 9.210026
_cell_length_c 26.810492
_cell_angle_alpha 90.000000
_cell_angle_beta 90.000000
_cell_angle_gamma 90.000000
_cell_volume 3452.328451
_symmetry_space_group_name_H-M "P M M N"
_symmetry_group_IT_number 59
_space_group.IT_coordinate_system_code '2'
_symmetry_cell_setting 'orthorhombic'
loop_
_space_group_symop_operation_xyz
x,y,z
1/2-x,1/2-y,z
1/2+x,-y,-z
-x,1/2+y,-z
-x,-y,-z
1/2+x,1/2+y,-z
1/2-x,y,z
x,1/2-y,z
loop_
_atom_site_type_symbol
_atom_site_label
_atom_site_fract_x
_atom_site_fract_y
_atom_site_fract_z
Si Si1 0.859888 0.083383 0.672530
Si Si2 0.457612 0.078405 0.241728
Si Si3 0.356676 0.590195 0.872019
Si Si4 0.014346 0.082639 0.050939
Si Si5 0.143224 0.077595 0.139873
Si Si6 0.642648 0.919344 0.482552
Si Si7 0.642207 0.579983 0.225964
Si Si8 0.953653 0.080417 0.570899
O O1 0.750000 0.063287 0.656470
O O2 0.881247 0.250000 0.687183
O O3 0.927463 0.033117 0.626884
O O4 0.880277 0.981454 0.719543
O O5 0.464181 0.250000 0.247326
O O6 0.423755 0.029614 0.186246
O O7 0.560892 0.008228 0.255777
O O8 0.250000 0.596666 0.892119
O O9 0.387102 0.750000 0.849651
O O10 0.416834 0.553968 0.920216
O O11 0.368706 0.465517 0.831389
O O12 0.032731 0.250000 0.038337
O O13 0.099061 0.022961 0.087169
O O14 0.000000 0.000000 0.000000
O O15 0.250000 0.012084 0.145748
O O16 0.147688 0.250000 0.139638
O O17 0.750000 0.963167 0.464758
O O18 0.637350 0.750000 0.494556
O O19 0.564987 0.960466 0.439810
O O20 0.617427 0.000445 0.533374
O O21 0.750000 0.541146 0.245081
O O22 0.622621 0.750000 0.231490
O O23 0.934889 0.250000 0.563461
#
# Coordination Sequence:
#
# PCOD8243102 Si02
#       8
#     8   8   8   8   8   8   8   8
#     4  10  21  36  53  77 111 147 183 226 276 327
#     4  11  21  36  58  81 106 140 182 224 266 318
#     4   9  17  32  53  74  98 129 166 207 252 305
#     4  10  20  34  50  73 102 134 169 208 258 314
#     4   9  18  34  54  75 101 134 171 210 256 311
#     4   9  17  30  51  79 108 140 184 234 278 323
#     4  10  20  34  55  82 107 131 165 211 261 314
#     4   9  18  33  52  75 108 149 187 225 274 328
#
# _framework density 18.538212000000001
#
# number of rings (size 3 to 8) (size 9 to 14) (size 15 to 20)
#    0.000    2.375    1.250    1.500    0.000    3.750 
#    0.000    0.625    0.000    3.750    0.000    0.000 
#    0.000    0.000    0.000    0.000    0.000    0.000 
#
# Total GULP energy -793310.971489 kJ/mol
# GULP energy per Si atom -12395.483930 kJ/mol
# Density = 1.849602 g / cm^3
# Si number density = 18.538212 Si / 1000 Ang^3
#
#
#
# Elastic Constant Matrix: (Units=GPa)
#
#
# Indices 1 2 3 4 5 6 
#
# 1 129.4985 38.3278 43.0173 0.0000 0.0000 0.0000
# 2 38.3278 54.1404 33.3844 0.0000 0.0000 0.0000
# 3 43.0173 33.3844 93.5652 0.0000 0.0000 0.0000
# 4 0.0000 0.0000 0.0000 29.6760 0.0000 0.0000
# 5 0.0000 0.0000 0.0000 0.0000 26.0904 0.0000
# 6 0.0000 0.0000 0.0000 0.0000 0.0000 25.4714
#
#
#
# Elastic Compliance Matrix: (Units=1/GPa)
#
#
# Indices 1 2 3 4 5 6 
#
# 1 0.010286 -0.005597 -0.002732 0.000000 0.000000 0.000000
# 2 -0.005597 0.026726 -0.006963 0.000000 0.000000 0.000000
# 3 -0.002732 -0.006963 0.014428 0.000000 0.000000 0.000000
# 4 0.000000 0.000000 0.000000 0.033697 0.000000 0.000000
# 5 0.000000 0.000000 0.000000 0.000000 0.038328 0.000000
# 6 0.000000 0.000000 0.000000 0.000000 0.000000 0.039260
#
#
# Mechanical properties :
#
#
# Convention : Reuss Voigt Hill
#
# Bulk Modulus (GPa) = 47.94624 56.29591 52.12108
# Shear Modulus (GPa) = 24.96724 27.07919 26.02322
#
# Velocity S-wave (km/s) = 3.67386 3.82609 3.75074
# Velocity P-wave (km/s) = 6.62691 7.06767 6.85084
#
# Compressibility (1/GPa) = 0.02085669
#
# Stress axis : x y z
#
# Youngs Moduli (GPa) = 97.21666 37.41620 69.30910
#
# Poissons Ratio (x) = 0.20943 0.18936
# Poissons Ratio (y) = 0.54416 0.48257
# Poissons Ratio (z) = 0.26560 0.26052
#
# Static dielectric constant tensor:
#      x y z
#    x 3.923250 0.000000 0.000000 
#    y 0.000000 3.299380 0.000000 
#    z 0.000000 0.000000 3.197270 
# 
# 
# High freq. dielectric constant tensor:
#      x y z
#    x 1.738830 0.000000 0.000000 
#    y 0.000000 1.702700 0.000000 
#    z 0.000000 0.000000 1.696830 
# 
# From -- ./inp_files/32102.got.cif
#   From: 2010.03.12/outbox.cif.g09.slc.cpg/sg59_17_cif.got.tgz:32102.got - 2010.04.16 16:29:54.
