data_PCOD8243221
_publ_section_title
;
Structure prediction by ZEFSAII (Michael W. Deem and Ramdas Pophale) SiO2 
 PCOD8243221
Probable space group: P M M N
;
_chemical_formula_sum "Si O2"
_cell_formula_units_Z 64
_cell_length_a 20.745344
_cell_length_b 9.960647
_cell_length_c 16.773716
_cell_angle_alpha 90.000000
_cell_angle_beta 90.000000
_cell_angle_gamma 90.000000
_cell_volume 3466.071166
_symmetry_space_group_name_H-M "P M M N"
_symmetry_group_IT_number 59
_space_group.IT_coordinate_system_code '2'
_symmetry_cell_setting 'orthorhombic'
loop_
_space_group_symop_operation_xyz
x,y,z
1/2-x,1/2-y,z
1/2+x,-y,-z
-x,1/2+y,-z
-x,-y,-z
1/2+x,1/2+y,-z
1/2-x,y,z
x,1/2-y,z
loop_
_atom_site_type_symbol
_atom_site_label
_atom_site_fract_x
_atom_site_fract_y
_atom_site_fract_z
Si Si1 0.569606 0.900968 0.184330
Si Si2 0.882736 0.095281 0.413553
Si Si3 0.823071 0.908778 0.886157
Si Si4 0.642244 0.902972 0.707864
Si Si5 0.178592 0.398428 0.697327
Si Si6 0.006032 0.901361 0.704622
Si Si7 0.937297 0.905866 0.002728
Si Si8 0.178277 0.900011 0.425755
O O1 0.545022 0.750000 0.202375
O O2 0.635489 0.937155 0.227903
O O3 0.586852 0.918628 0.092608
O O4 0.516776 0.003765 0.218671
O O5 0.865861 0.250000 0.397725
O O6 0.952383 0.057952 0.374381
O O7 0.876522 0.064171 0.507990
O O8 0.828726 0.004481 0.372983
O O9 0.750000 0.963281 0.905300
O O10 0.821998 0.750000 0.892791
O O11 0.843854 0.953815 0.797454
O O12 0.878707 0.961364 0.947036
O O13 0.666908 0.750000 0.698598
O O14 0.568069 0.913999 0.682663
O O15 0.679562 0.997342 0.647186
O O16 0.250000 0.403378 0.731200
O O17 0.161239 0.250000 0.664063
O O18 0.023339 0.750000 0.731172
O O19 0.954640 0.750000 0.981283
O O20 0.000000 0.000000 0.000000
O O21 0.250000 0.905272 0.464453
O O22 0.164131 0.750000 0.392993
#
# Coordination Sequence:
#
# PCOD8243221 Si02
#       8
#     8   8   8   8   8   8   8   8
#     4   9  18  31  48  73 101 128 160 199 245 295
#     4   9  18  33  51  71  98 132 167 201 241 296
#     4   9  18  33  53  76 102 135 175 215 255 304
#     4  10  20  34  53  75  98 127 167 213 256 298
#     4   9  17  29  46  70 100 130 160 198 243 290
#     4   9  18  33  53  76 102 132 165 202 246 297
#     4  10  20  34  54  78 103 133 170 211 255 304
#     4  10  21  35  50  70  97 129 166 207 250 298
#
# _framework density 18.464711000000001
#
# number of rings (size 3 to 8) (size 9 to 14) (size 15 to 20)
#    0.000    2.625    0.000    1.500    0.000    5.000 
#    0.000    3.125    0.000    1.125    0.000    1.750 
#    0.000    0.000    0.000    0.000    0.000    0.000 
#
# Total GULP energy -793108.283420 kJ/mol
# GULP energy per Si atom -12392.316928 kJ/mol
# Density = 1.842268 g / cm^3
# Si number density = 18.464711 Si / 1000 Ang^3
#
#
#
# Elastic Constant Matrix: (Units=GPa)
#
#
# Indices 1 2 3 4 5 6 
#
# 1 96.7622 33.8727 40.6660 0.0000 0.0000 0.0000
# 2 33.8727 65.9801 48.7104 0.0000 0.0000 0.0000
# 3 40.6660 48.7104 109.8454 0.0000 0.0000 0.0000
# 4 0.0000 0.0000 0.0000 28.2819 0.0000 0.0000
# 5 0.0000 0.0000 0.0000 0.0000 23.6753 0.0000
# 6 0.0000 0.0000 0.0000 0.0000 0.0000 24.5923
#
#
#
# Elastic Compliance Matrix: (Units=1/GPa)
#
#
# Indices 1 2 3 4 5 6 
#
# 1 0.013149 -0.004693 -0.002787 0.000000 0.000000 0.000000
# 2 -0.004693 0.024208 -0.008997 0.000000 0.000000 0.000000
# 3 -0.002787 -0.008997 0.014125 0.000000 0.000000 0.000000
# 4 0.000000 0.000000 0.000000 0.035358 0.000000 0.000000
# 5 0.000000 0.000000 0.000000 0.000000 0.042238 0.000000
# 6 0.000000 0.000000 0.000000 0.000000 0.000000 0.040663
#
#
# Mechanical properties :
#
#
# Convention : Reuss Voigt Hill
#
# Bulk Modulus (GPa) = 53.97381 57.67621 55.82501
# Shear Modulus (GPa) = 23.93822 25.26581 24.60202
#
# Velocity S-wave (km/s) = 3.60450 3.70311 3.65414
# Velocity P-wave (km/s) = 6.82770 7.04186 6.93561
#
# Compressibility (1/GPa) = 0.01852750
#
# Stress axis : x y z
#
# Youngs Moduli (GPa) = 76.05393 41.30910 70.79516
#
# Poissons Ratio (x) = 0.19386 0.19729
# Poissons Ratio (y) = 0.35691 0.63698
# Poissons Ratio (z) = 0.21194 0.37168
#
# Static dielectric constant tensor:
#      x y z
#    x 3.484670 0.000000 0.000000 
#    y 0.000000 3.434470 0.000000 
#    z 0.000000 0.000000 3.396310 
# 
# 
# High freq. dielectric constant tensor:
#      x y z
#    x 1.717380 0.000000 0.000000 
#    y 0.000000 1.704660 0.000000 
#    z 0.000000 0.000000 1.709140 
# 
# From -- ./inp_files/28190.got.cif
#   From: 2010.03.12/outbox.cif.g09.slc.cpg/sg59_15_cif.got.tgz:28190.got - 2010.04.16 16:29:54.
