data_PCOD8243425
_publ_section_title
;
Structure prediction by ZEFSAII (Michael W. Deem and Ramdas Pophale) SiO2 
 PCOD8243425
Probable space group: P M M N
;
_chemical_formula_sum "Si O2"
_cell_formula_units_Z 48
_cell_length_a 17.853155
_cell_length_b 9.221655
_cell_length_c 15.397527
_cell_angle_alpha 90.000000
_cell_angle_beta 90.000000
_cell_angle_gamma 90.000000
_cell_volume 2534.981652
_symmetry_space_group_name_H-M "P M M N"
_symmetry_group_IT_number 59
_space_group.IT_coordinate_system_code '2'
_symmetry_cell_setting 'orthorhombic'
loop_
_space_group_symop_operation_xyz
x,y,z
1/2-x,1/2-y,z
1/2+x,-y,-z
-x,1/2+y,-z
-x,-y,-z
1/2+x,1/2+y,-z
1/2-x,y,z
x,1/2-y,z
loop_
_atom_site_type_symbol
_atom_site_label
_atom_site_fract_x
_atom_site_fract_y
_atom_site_fract_z
Si Si1 0.162865 0.581679 0.850574
Si Si2 0.908726 0.080486 0.328387
Si Si3 0.418766 0.420125 0.342489
Si Si4 0.835921 0.582933 0.483825
Si Si5 0.839094 0.586127 0.980901
Si Si6 0.661694 0.418056 0.811952
O O1 0.250000 0.550246 0.833173
O O2 0.149218 0.750000 0.871498
O O3 0.116791 0.529218 0.766859
O O4 0.131445 0.490479 0.931775
O O5 0.895414 0.250000 0.338951
O O6 0.994498 0.037045 0.342305
O O7 0.857006 0.005514 0.399026
O O8 0.405698 0.250000 0.324062
O O9 0.386219 0.467349 0.435325
O O10 0.377047 0.512227 0.270569
O O11 0.750000 0.552971 0.508361
O O12 0.850481 0.750000 0.462500
O O13 0.750000 0.583788 0.981006
O O14 0.870111 0.750000 0.976889
O O15 0.869127 0.498229 0.897811
O O16 0.750000 0.440107 0.801924
O O17 0.640092 0.250000 0.818921
#
# Coordination Sequence:
#
# PCOD8243425 Si02
#       6
#     8   8   8   8   8   8
#     4   9  17  31  51  75 104 136 172 217 264 308
#     4  10  21  36  55  79 107 141 178 217 264 316
#     4  10  21  37  55  77 108 143 177 215 263 317
#     4  10  21  36  55  79 106 138 176 219 266 314
#     4   9  17  30  51  78 105 135 173 217 263 310
#     4  10  20  34  54  80 107 137 176 220 264 311
#
# _framework density 18.935047999999998
#
# number of rings (size 3 to 8) (size 9 to 14) (size 15 to 20)
#    0.000    2.333    0.000    2.500    0.000    6.667 
#    0.000    2.500    0.000    0.000    0.000    0.000 
#    0.000    0.000    0.000    0.000    0.000    0.000 
#
# Total GULP energy -595373.411750 kJ/mol
# GULP energy per Si atom -12403.612745 kJ/mol
# Density = 1.889195 g / cm^3
# Si number density = 18.935048 Si / 1000 Ang^3
#
#
#
# Elastic Constant Matrix: (Units=GPa)
#
#
# Indices 1 2 3 4 5 6 
#
# 1 35.8076 27.1571 21.7262 0.0000 0.0000 0.0000
# 2 27.1571 82.2244 62.4675 0.0000 0.0000 0.0000
# 3 21.7262 62.4675 128.5650 0.0000 0.0000 0.0000
# 4 0.0000 0.0000 0.0000 42.2773 0.0000 0.0000
# 5 0.0000 0.0000 0.0000 0.0000 22.9532 0.0000
# 6 0.0000 0.0000 0.0000 0.0000 0.0000 23.2320
#
#
#
# Elastic Compliance Matrix: (Units=1/GPa)
#
#
# Indices 1 2 3 4 5 6 
#
# 1 0.037281 -0.011931 -0.000503 0.000000 0.000000 0.000000
# 2 -0.011931 0.023096 -0.009206 0.000000 0.000000 0.000000
# 3 -0.000503 -0.009206 0.012336 0.000000 0.000000 0.000000
# 4 0.000000 0.000000 0.000000 0.023653 0.000000 0.000000
# 5 0.000000 0.000000 0.000000 0.000000 0.043567 0.000000
# 6 0.000000 0.000000 0.000000 0.000000 0.000000 0.043044
#
#
# Mechanical properties :
#
#
# Convention : Reuss Voigt Hill
#
# Bulk Modulus (GPa) = 33.97483 52.14431 43.05957
# Shear Modulus (GPa) = 21.18027 26.70890 23.94459
#
# Velocity S-wave (km/s) = 3.34814 3.75981 3.55993
# Velocity P-wave (km/s) = 5.73834 6.81517 6.29980
#
# Compressibility (1/GPa) = 0.02943355
#
# Stress axis : x y z
#
# Youngs Moduli (GPa) = 26.82339 43.29700 81.06254
#
# Poissons Ratio (x) = 0.51657 0.04078
# Poissons Ratio (y) = 0.32003 0.74625
# Poissons Ratio (z) = 0.01349 0.39859
#
# Static dielectric constant tensor:
#      x y z
#    x 3.456630 0.000000 0.000000 
#    y 0.000000 3.489270 0.000000 
#    z 0.000000 0.000000 3.590950 
# 
# 
# High freq. dielectric constant tensor:
#      x y z
#    x 1.718290 0.000000 0.000000 
#    y 0.000000 1.734730 0.000000 
#    z 0.000000 0.000000 1.750700 
# 
# From -- ./inp_files/20321.got.cif
#   From: 2010.03.12/outbox.cif.g09.slc.cpg/sg59_11_cif.got.tgz:20321.got - 2010.04.16 16:29:54.
