data_PCOD8243879
_publ_section_title
;
Structure prediction by ZEFSAII (Michael W. Deem and Ramdas Pophale) SiO2 
 PCOD8243879
Probable space group: P M M N
;
_chemical_formula_sum "Si O2"
_cell_formula_units_Z 48
_cell_length_a 25.645758
_cell_length_b 8.859944
_cell_length_c 11.763743
_cell_angle_alpha 90.000000
_cell_angle_beta 90.000000
_cell_angle_gamma 90.000000
_cell_volume 2672.957446
_symmetry_space_group_name_H-M "P M M N"
_symmetry_group_IT_number 59
_space_group.IT_coordinate_system_code '2'
_symmetry_cell_setting 'orthorhombic'
loop_
_space_group_symop_operation_xyz
x,y,z
1/2-x,1/2-y,z
1/2+x,-y,-z
-x,1/2+y,-z
-x,-y,-z
1/2+x,1/2+y,-z
1/2-x,y,z
x,1/2-y,z
loop_
_atom_site_type_symbol
_atom_site_label
_atom_site_fract_x
_atom_site_fract_y
_atom_site_fract_z
Si Si1 0.445001 0.927635 0.033569
Si Si2 0.878098 0.924639 0.508954
Si Si3 0.386501 0.420238 0.840931
Si Si4 0.969782 0.580764 0.349447
Si Si5 0.189600 0.926087 0.667607
Si Si6 0.432284 0.423396 0.269149
O O1 0.451263 0.750000 0.022771
O O2 0.427642 0.968843 0.161128
O O3 0.500000 0.000000 0.000000
O O4 0.397952 0.983743 0.953811
O O5 0.867951 0.750000 0.478185
O O6 0.932088 0.975665 0.449783
O O7 0.883310 0.949354 0.644925
O O8 0.830921 0.020518 0.456188
O O9 0.371068 0.250000 0.875328
O O10 0.439304 0.420968 0.769209
O O11 0.338961 0.490566 0.770761
O O12 0.991107 0.750000 0.372593
O O13 0.016167 0.461412 0.341240
O O14 0.250000 0.967063 0.675168
O O15 0.178965 0.750000 0.679988
O O16 0.434913 0.250000 0.229164
#
# Coordination Sequence:
#
# PCOD8243879 Si02
#       6
#     8   8   8   8   8   8
#     4  12  23  35  52  75 108 150 188 223 264 317
#     4   9  20  35  51  75 106 140 180 220 265 320
#     4  10  20  35  55  80 108 140 182 226 268 318
#     4   9  17  30  48  72 104 140 178 218 258 311
#     4  10  21  37  59  85 109 136 174 222 276 327
#     4  11  21  32  49  74 107 146 183 220 262 313
#
# _framework density 17.957636999999998
#
# number of rings (size 3 to 8) (size 9 to 14) (size 15 to 20)
#    0.000    1.833    1.667    4.500    0.000    5.333 
#    0.000    0.000    0.000    1.000    0.000    4.667 
#    0.000    0.000    0.000    0.000    0.000    0.000 
#
# Total GULP energy -595226.174132 kJ/mol
# GULP energy per Si atom -12400.545294 kJ/mol
# Density = 1.791676 g / cm^3
# Si number density = 17.957637 Si / 1000 Ang^3
#
#
#
# Elastic Constant Matrix: (Units=GPa)
#
#
# Indices 1 2 3 4 5 6 
#
# 1 79.9658 54.2383 39.6655 0.0000 0.0000 0.0000
# 2 54.2383 121.0443 51.6221 0.0000 0.0000 0.0000
# 3 39.6655 51.6221 102.0627 0.0000 0.0000 0.0000
# 4 0.0000 0.0000 0.0000 31.4808 0.0000 0.0000
# 5 0.0000 0.0000 0.0000 0.0000 11.9971 0.0000
# 6 0.0000 0.0000 0.0000 0.0000 0.0000 26.0273
#
#
#
# Elastic Compliance Matrix: (Units=1/GPa)
#
#
# Indices 1 2 3 4 5 6 
#
# 1 0.019140 -0.006890 -0.003953 0.000000 0.000000 0.000000
# 2 -0.006890 0.013014 -0.003905 0.000000 0.000000 0.000000
# 3 -0.003953 -0.003905 0.013309 0.000000 0.000000 0.000000
# 4 0.000000 0.000000 0.000000 0.031765 0.000000 0.000000
# 5 0.000000 0.000000 0.000000 0.000000 0.083353 0.000000
# 6 0.000000 0.000000 0.000000 0.000000 0.000000 0.038421
#
#
# Mechanical properties :
#
#
# Convention : Reuss Voigt Hill
#
# Bulk Modulus (GPa) = 62.63071 66.01383 64.32227
# Shear Modulus (GPa) = 21.38380 24.40416 22.89398
#
# Velocity S-wave (km/s) = 3.45453 3.69044 3.57443
# Velocity P-wave (km/s) = 7.13192 7.41619 7.27544
#
# Compressibility (1/GPa) = 0.01596661
#
# Stress axis : x y z
#
# Youngs Moduli (GPa) = 52.24701 76.84005 75.13577
#
# Poissons Ratio (x) = 0.52945 0.29705
# Poissons Ratio (y) = 0.36000 0.29337
# Poissons Ratio (z) = 0.20656 0.30002
#
# Static dielectric constant tensor:
#      x y z
#    x 3.009020 0.000000 0.000000 
#    y 0.000000 3.394900 0.000000 
#    z 0.000000 0.000000 3.443920 
# 
# 
# High freq. dielectric constant tensor:
#      x y z
#    x 1.654160 0.000000 0.000000 
#    y 0.000000 1.706760 0.000000 
#    z 0.000000 0.000000 1.699900 
# 
# From -- ./inp_files/18586.got.cif
#   From: 2010.03.12/outbox.cif.g09.slc.cpg/sg59_10_cif.got.tgz:18586.got - 2010.04.16 16:29:54.
