data_PCOD8243917
_publ_section_title
;
Structure prediction by ZEFSAII (Michael W. Deem and Ramdas Pophale) SiO2 
 PCOD8243917
Probable space group: P M M N
;
_chemical_formula_sum "Si O2"
_cell_formula_units_Z 64
_cell_length_a 14.945034
_cell_length_b 9.224426
_cell_length_c 23.739744
_cell_angle_alpha 90.000000
_cell_angle_beta 90.000000
_cell_angle_gamma 90.000000
_cell_volume 3272.745919
_symmetry_space_group_name_H-M "P M M N"
_symmetry_group_IT_number 59
_space_group.IT_coordinate_system_code '2'
_symmetry_cell_setting 'orthorhombic'
loop_
_space_group_symop_operation_xyz
x,y,z
1/2-x,1/2-y,z
1/2+x,-y,-z
-x,1/2+y,-z
-x,-y,-z
1/2+x,1/2+y,-z
1/2-x,y,z
x,1/2-y,z
loop_
_atom_site_type_symbol
_atom_site_label
_atom_site_fract_x
_atom_site_fract_y
_atom_site_fract_z
Si Si1 0.144428 0.418310 0.489372
Si Si2 0.149485 0.416170 0.774690
Si Si3 0.511240 0.422284 0.300210
Si Si4 0.613259 0.412115 0.880969
Si Si5 0.147826 0.586241 0.996243
Si Si6 0.502009 0.080446 0.583054
Si Si7 0.347957 0.086557 0.226340
Si Si8 0.909734 0.910142 0.106843
O O1 0.250000 0.464391 0.496121
O O2 0.139431 0.250000 0.471616
O O3 0.093450 0.512621 0.442212
O O4 0.087941 0.445011 0.546373
O O5 0.250000 0.425657 0.751763
O O6 0.113372 0.250000 0.769463
O O7 0.149405 0.465062 0.840539
O O8 0.092822 0.528486 0.738610
O O9 0.514502 0.250000 0.309569
O O10 0.519611 0.502785 0.358958
O O11 0.419419 0.475243 0.270625
O O12 0.653929 0.250000 0.880293
O O13 0.659267 0.501120 0.831857
O O14 0.508849 0.409820 0.868598
O O15 0.634438 0.484184 0.941971
O O16 0.250000 0.577971 0.977211
O O17 0.111430 0.750000 0.999007
O O18 0.091409 0.507514 0.948480
O O19 0.519858 0.250000 0.592124
O O20 0.250000 0.079343 0.255202
O O21 0.375606 0.250000 0.210862
O O22 0.878360 0.750000 0.088332
#
# Coordination Sequence:
#
# PCOD8243917 Si02
#       8
#     8   8   8   8   8   8   8   8
#     4   9  19  38  63  90 123 163 201 240 290 340
#     4  10  21  38  59  82 111 148 192 243 296 347
#     4  11  23  39  59  85 119 157 198 242 288 342
#     4  10  20  36  57  79 105 138 180 231 287 346
#     4  10  21  34  49  75 108 139 175 224 284 348
#     4  10  21  37  60  91 125 160 201 245 289 339
#     4  10  22  39  58  81 110 147 190 236 288 345
#     4  10  20  35  56  79 104 139 184 231 285 347
#
# _framework density 19.555443
#
# number of rings (size 3 to 8) (size 9 to 14) (size 15 to 20)
#    0.000    2.000    1.250    1.875    0.000    5.500 
#    0.000    2.500    0.000    0.000    0.000    0.000 
#    0.000    0.000    0.000    0.000    0.000    0.000 
#
# Total GULP energy -793450.940219 kJ/mol
# GULP energy per Si atom -12397.670941 kJ/mol
# Density = 1.951093 g / cm^3
# Si number density = 19.555443 Si / 1000 Ang^3
#
#
#
# Elastic Constant Matrix: (Units=GPa)
#
#
# Indices 1 2 3 4 5 6 
#
# 1 107.6630 30.9745 27.4667 0.0000 0.0000 0.0000
# 2 30.9745 72.8889 46.2304 0.0000 0.0000 0.0000
# 3 27.4667 46.2304 96.1084 0.0000 0.0000 0.0000
# 4 0.0000 0.0000 0.0000 36.1610 0.0000 0.0000
# 5 0.0000 0.0000 0.0000 0.0000 4.2498 0.0000
# 6 0.0000 0.0000 0.0000 0.0000 0.0000 25.4494
#
#
#
# Elastic Compliance Matrix: (Units=1/GPa)
#
#
# Indices 1 2 3 4 5 6 
#
# 1 0.010686 -0.003747 -0.001251 0.000000 0.000000 0.000000
# 2 -0.003747 0.021057 -0.009058 0.000000 0.000000 0.000000
# 3 -0.001251 -0.009058 0.015120 0.000000 0.000000 0.000000
# 4 0.000000 0.000000 0.000000 0.027654 0.000000 0.000000
# 5 0.000000 0.000000 0.000000 0.000000 0.235305 0.000000
# 6 0.000000 0.000000 0.000000 0.000000 0.000000 0.039294
#
#
# Mechanical properties :
#
#
# Convention : Reuss Voigt Hill
#
# Bulk Modulus (GPa) = 53.33578 54.00037 53.66807
# Shear Modulus (GPa) = 13.03856 24.63795 18.83826
#
# Velocity S-wave (km/s) = 2.58495 3.55336 3.10712
# Velocity P-wave (km/s) = 6.02018 6.67151 6.35420
#
# Compressibility (1/GPa) = 0.01874914
#
# Stress axis : x y z
#
# Youngs Moduli (GPa) = 93.58440 47.49009 66.13909
#
# Poissons Ratio (x) = 0.17796 0.08276
# Poissons Ratio (y) = 0.35068 0.59909
# Poissons Ratio (z) = 0.11710 0.43017
#
# Static dielectric constant tensor:
#      x y z
#    x 3.647300 0.000000 0.000000 
#    y 0.000000 3.549030 0.000000 
#    z 0.000000 0.000000 3.436490 
# 
# 
# High freq. dielectric constant tensor:
#      x y z
#    x 1.771700 0.000000 0.000000 
#    y 0.000000 1.752520 0.000000 
#    z 0.000000 0.000000 1.756810 
# 
# From -- ./inp_files/32099.got.cif
#   From: 2010.03.12/outbox.cif.g09.slc.cpg/sg59_17_cif.got.tgz:32099.got - 2010.04.16 16:29:54.
