data_PCOD8243632
_publ_section_title
;
Structure prediction by ZEFSAII (Michael W. Deem and Ramdas Pophale) SiO2 
 PCOD8243632
Probable space group: P M M N
;
_chemical_formula_sum "Si O2"
_cell_formula_units_Z 40
_cell_length_a 9.688509
_cell_length_b 25.231775
_cell_length_c 8.266216
_cell_angle_alpha 90.000000
_cell_angle_beta 90.000000
_cell_angle_gamma 90.000000
_cell_volume 2020.744939
_symmetry_space_group_name_H-M "P M M N"
_symmetry_group_IT_number 59
_space_group.IT_coordinate_system_code '2'
_symmetry_cell_setting 'orthorhombic'
loop_
_space_group_symop_operation_xyz
x,y,z
1/2-x,1/2-y,z
1/2+x,-y,-z
-x,1/2+y,-z
-x,-y,-z
1/2+x,1/2+y,-z
1/2-x,y,z
x,1/2-y,z
loop_
_atom_site_type_symbol
_atom_site_label
_atom_site_fract_x
_atom_site_fract_y
_atom_site_fract_z
Si Si1 0.750000 0.925591 0.810709
Si Si2 0.750000 0.102104 0.493594
Si Si3 0.250000 0.504010 0.906412
Si Si4 0.527524 0.033652 0.342657
Si Si5 0.750000 0.809464 0.907958
Si Si6 0.447682 0.690317 0.008681
Si Si7 0.750000 0.191434 0.277624
Si Si8 0.250000 0.607285 0.138522
O O1 0.616814 0.947271 0.723192
O O2 0.750000 0.861404 0.794577
O O3 0.750000 0.949417 0.992345
O O4 0.615709 0.082988 0.399680
O O5 0.750000 0.163947 0.452977
O O6 0.750000 0.084930 0.679869
O O7 0.387837 0.502256 0.796405
O O8 0.250000 0.557159 0.018249
O O9 0.500000 0.000000 0.500000
O O10 0.750000 0.750000 0.822738
O O11 0.612876 0.814109 0.016714
O O12 0.402424 0.750000 0.062124
O O13 0.385040 0.644587 0.122430
O O14 0.386471 0.678783 0.829732
O O15 0.750000 0.250000 0.339318
#
# Coordination Sequence:
#
# PCOD8243632 Si02
#       8
#     4   4   4   8   4   8   4   4
#     4  12  22  37  64  88 113 158 200 239 294 361
#     4  11  23  37  55  81 116 150 185 240 294 339
#     4  11  23  39  60  85 115 147 194 239 286 351
#     4  11  23  40  58  85 119 151 189 239 294 351
#     4  10  20  34  55  85 114 142 184 238 289 343
#     4   9  18  34  57  82 111 148 193 243 294 349
#     4   9  17  33  56  80 106 142 186 233 286 339
#     4  11  20  36  58  83 112 151 197 243 287 345
#
# _framework density 19.794681000000001
#
# number of rings (size 3 to 8) (size 9 to 14) (size 15 to 20)
#    0.000    1.600    0.000    8.700    0.000    2.400 
#    0.000    1.000    0.000    0.000    0.000    7.000 
#    0.000    0.000    0.000    0.000    0.000    0.000 
#
# Total GULP energy -495610.164646 kJ/mol
# GULP energy per Si atom -12390.254116 kJ/mol
# Density = 1.974963 g / cm^3
# Si number density = 19.794681 Si / 1000 Ang^3
#
#
#
# Elastic Constant Matrix: (Units=GPa)
#
#
# Indices 1 2 3 4 5 6 
#
# 1 165.5326 40.4088 42.5868 0.0000 0.0000 0.0000
# 2 40.4088 108.3838 46.4324 0.0000 0.0000 0.0000
# 3 42.5868 46.4324 110.6722 0.0000 0.0000 0.0000
# 4 0.0000 0.0000 0.0000 30.5121 0.0000 0.0000
# 5 0.0000 0.0000 0.0000 0.0000 -1.3837 0.0000
# 6 0.0000 0.0000 0.0000 0.0000 0.0000 48.9100
#
#
#
# Elastic Compliance Matrix: (Units=1/GPa)
#
#
# Indices 1 2 3 4 5 6 
#
# 1 0.006972 -0.001768 -0.001941 0.000000 0.000000 0.000000
# 2 -0.001768 0.011696 -0.004227 0.000000 0.000000 0.000000
# 3 -0.001941 -0.004227 0.011556 0.000000 0.000000 0.000000
# 4 0.000000 0.000000 0.000000 0.032774 0.000000 0.000000
# 5 0.000000 0.000000 0.000000 0.000000 -0.722704 0.000000
# 6 0.000000 0.000000 0.000000 0.000000 0.000000 0.020446
#
#
# Mechanical properties :
#
#
# Convention : Reuss Voigt Hill
#
# Bulk Modulus (GPa) = 69.67339 71.49384 70.58362
# Shear Modulus (GPa) = -8.08272 32.61838 12.26783
#
# Velocity S-wave (km/s) = -2.02291 4.06376 2.49219
# Velocity P-wave (km/s) = 5.46061 7.62987 6.63450
#
# Compressibility (1/GPa) = 0.01435268
#
# Stress axis : x y z
#
# Youngs Moduli (GPa) = 143.42964 85.49619 86.53439
#
# Poissons Ratio (x) = 0.15114 0.16798
# Poissons Ratio (y) = 0.25355 0.36578
# Poissons Ratio (z) = 0.27842 0.36139
#
# Static dielectric constant tensor:
#      x y z
#    x 4.566800 0.000000 0.000000 
#    y 0.000000 3.834360 0.000000 
#    z 0.000000 0.000000 3.401500 
# 
# 
# High freq. dielectric constant tensor:
#      x y z
#    x 1.790070 0.000000 0.000000 
#    y 0.000000 1.785900 0.000000 
#    z 0.000000 0.000000 1.738330 
# 
# From -- ./inp_files/5991.got.cif
#   From: 2010.03.12/outbox.cif.g09.slc.cpg/sg59_3_cif.got.tgz:5991.got - 2010.04.16 16:29:54.
