data_PCOD8243337
_publ_section_title
;
Structure prediction by ZEFSAII (Michael W. Deem and Ramdas Pophale) SiO2 
 PCOD8243337
Probable space group: P M M N
;
_chemical_formula_sum "Si O2"
_cell_formula_units_Z 56
_cell_length_a 8.762633
_cell_length_b 20.965585
_cell_length_c 16.549179
_cell_angle_alpha 90.000000
_cell_angle_beta 90.000000
_cell_angle_gamma 90.000000
_cell_volume 3040.311353
_symmetry_space_group_name_H-M "P M M N"
_symmetry_group_IT_number 59
_space_group.IT_coordinate_system_code '2'
_symmetry_cell_setting 'orthorhombic'
loop_
_space_group_symop_operation_xyz
x,y,z
1/2-x,1/2-y,z
1/2+x,-y,-z
-x,1/2+y,-z
-x,-y,-z
1/2+x,1/2+y,-z
1/2-x,y,z
x,1/2-y,z
loop_
_atom_site_type_symbol
_atom_site_label
_atom_site_fract_x
_atom_site_fract_y
_atom_site_fract_z
Si Si1 0.427808 0.177646 0.361157
Si Si2 0.925060 0.477308 0.629302
Si Si3 0.072014 0.177236 0.048537
Si Si4 0.574636 0.088503 0.469924
Si Si5 0.929631 0.438971 0.955595
Si Si6 0.576186 0.520456 0.201310
Si Si7 0.925248 0.127128 0.204763
O O1 0.250000 0.166880 0.374872
O O2 0.467842 0.250000 0.340226
O O3 0.517560 0.158439 0.443199
O O4 0.485738 0.133861 0.288340
O O5 0.750000 0.483814 0.656364
O O6 0.949331 0.419087 0.566087
O O7 0.971858 0.540720 0.582209
O O8 0.025838 0.464108 0.707707
O O9 0.250000 0.160520 0.052103
O O10 0.045185 0.250000 0.018669
O O11 0.003559 0.171199 0.138038
O O12 0.990108 0.128149 0.988945
O O13 0.750000 0.076804 0.446143
O O14 0.750000 0.441266 0.968597
O O15 0.971398 0.440580 0.860935
O O16 0.000000 0.500000 0.000000
O O17 0.750000 0.543229 0.191551
O O18 0.561029 0.446227 0.178698
O O19 0.750000 0.147909 0.215811
#
# Coordination Sequence:
#
# PCOD8243337 Si02
#       7
#     8   8   8   8   8   8   8
#     4  11  23  36  52  77 111 151 190 228 275 331
#     4  10  20  34  55  81 109 141 178 226 278 327
#     4  11  24  41  61  85 116 154 194 237 287 345
#     4  10  20  34  53  79 108 142 183 223 271 326
#     4  12  24  39  61  87 116 152 193 239 290 342
#     4  11  22  36  57  86 117 149 187 234 286 337
#     4  11  22  35  55  83 115 152 191 231 280 338
#
# _framework density 18.419167000000002
#
# number of rings (size 3 to 8) (size 9 to 14) (size 15 to 20)
#    0.000    1.143    2.857    4.286    0.000    6.857 
#    0.000    0.000    0.000    0.857    0.000    4.000 
#    0.000    0.000    0.000    0.000    0.000    0.000 
#
# Total GULP energy -694591.495101 kJ/mol
# GULP energy per Si atom -12403.419555 kJ/mol
# Density = 1.837724 g / cm^3
# Si number density = 18.419167 Si / 1000 Ang^3
#
#
#
# Elastic Constant Matrix: (Units=GPa)
#
#
# Indices 1 2 3 4 5 6 
#
# 1 84.7659 46.3044 32.5970 0.0000 0.0000 0.0000
# 2 46.3044 72.2242 35.9149 0.0000 0.0000 0.0000
# 3 32.5970 35.9149 89.0917 0.0000 0.0000 0.0000
# 4 0.0000 0.0000 0.0000 28.4018 0.0000 0.0000
# 5 0.0000 0.0000 0.0000 0.0000 35.5771 0.0000
# 6 0.0000 0.0000 0.0000 0.0000 0.0000 28.8291
#
#
#
# Elastic Compliance Matrix: (Units=1/GPa)
#
#
# Indices 1 2 3 4 5 6 
#
# 1 0.018590 -0.010676 -0.002498 0.000000 0.000000 0.000000
# 2 -0.010676 0.023449 -0.005546 0.000000 0.000000 0.000000
# 3 -0.002498 -0.005546 0.014374 0.000000 0.000000 0.000000
# 4 0.000000 0.000000 0.000000 0.035209 0.000000 0.000000
# 5 0.000000 0.000000 0.000000 0.000000 0.028108 0.000000
# 6 0.000000 0.000000 0.000000 0.000000 0.000000 0.034687
#
#
# Mechanical properties :
#
#
# Convention : Reuss Voigt Hill
#
# Bulk Modulus (GPa) = 52.71032 52.85716 52.78374
# Shear Modulus (GPa) = 25.22940 27.31262 26.27101
#
# Velocity S-wave (km/s) = 3.70501 3.85494 3.78072
# Velocity P-wave (km/s) = 6.85434 6.96945 6.91214
#
# Compressibility (1/GPa) = 0.01897162
#
# Stress axis : x y z
#
# Youngs Moduli (GPa) = 53.79311 42.64652 69.56913
#
# Poissons Ratio (x) = 0.45530 0.17377
# Poissons Ratio (y) = 0.57430 0.38586
# Poissons Ratio (z) = 0.13437 0.23654
#
# Static dielectric constant tensor:
#      x y z
#    x 3.583160 0.000000 0.000000 
#    y 0.000000 3.226240 0.000000 
#    z 0.000000 0.000000 3.506510 
# 
# 
# High freq. dielectric constant tensor:
#      x y z
#    x 1.735100 0.000000 0.000000 
#    y 0.000000 1.690710 0.000000 
#    z 0.000000 0.000000 1.713490 
# 
# From -- ./inp_files/20987.got.cif
#   From: 2010.03.12/outbox.cif.g09.slc.cpg/sg59_11_cif.got.tgz:20987.got - 2010.04.16 16:29:54.
