data_PCOD8243386
_publ_section_title
;
Structure prediction by ZEFSAII (Michael W. Deem and Ramdas Pophale) SiO2 
 PCOD8243386
Probable space group: P M M N
;
_chemical_formula_sum "Si O2"
_cell_formula_units_Z 56
_cell_length_a 14.108909
_cell_length_b 9.239276
_cell_length_c 24.046276
_cell_angle_alpha 90.000000
_cell_angle_beta 90.000000
_cell_angle_gamma 90.000000
_cell_volume 3134.578863
_symmetry_space_group_name_H-M "P M M N"
_symmetry_group_IT_number 59
_space_group.IT_coordinate_system_code '2'
_symmetry_cell_setting 'orthorhombic'
loop_
_space_group_symop_operation_xyz
x,y,z
1/2-x,1/2-y,z
1/2+x,-y,-z
-x,1/2+y,-z
-x,-y,-z
1/2+x,1/2+y,-z
1/2-x,y,z
x,1/2-y,z
loop_
_atom_site_type_symbol
_atom_site_label
_atom_site_fract_x
_atom_site_fract_y
_atom_site_fract_z
Si Si1 0.950819 0.420184 0.659643
Si Si2 0.515793 0.581062 0.770888
Si Si3 0.141747 0.584427 0.147167
Si Si4 0.750000 0.080566 0.612371
Si Si5 0.514125 0.918389 0.057183
Si Si6 0.448944 0.083114 0.548380
Si Si7 0.250000 0.085040 0.502981
Si Si8 0.359209 0.582638 0.859762
O O1 0.959399 0.250000 0.671376
O O2 0.992332 0.505609 0.711625
O O3 0.842112 0.465528 0.647593
O O4 0.015156 0.470992 0.608031
O O5 0.532782 0.750000 0.762492
O O6 0.605812 0.517332 0.803476
O O7 0.418834 0.548183 0.804187
O O8 0.250000 0.545166 0.133419
O O9 0.131174 0.750000 0.167310
O O10 0.081986 0.556952 0.091616
O O11 0.750000 0.250000 0.600680
O O12 0.750000 0.010354 0.551939
O O13 0.534495 0.750000 0.046320
O O14 0.603684 0.985113 0.089584
O O15 0.500000 0.000000 0.000000
O O16 0.475643 0.250000 0.541137
O O17 0.337859 0.052099 0.543144
O O18 0.500000 0.000000 0.500000
O O19 0.250000 0.250000 0.481992
O O20 0.250000 0.543990 0.847730
O O21 0.371613 0.750000 0.876970
#
# Coordination Sequence:
#
# PCOD8243386 Si02
#       8
#     8   8   8   4   8   8   4   8
#     4  10  21  36  53  76 106 140 175 212 260 321
#     4  10  21  36  55  80 106 133 174 224 268 311
#     4   9  19  36  56  76 104 143 179 211 256 314
#     4  10  20  34  54  78 102 136 178 211 252 321
#     4  10  20  34  54  83 115 145 181 222 263 311
#     4  10  20  35  55  77 105 137 172 215 265 316
#     4  10  20  34  54  80 106 132 168 219 270 311
#     4   9  19  38  60  78 104 144 184 225 274 321
#
# _framework density 17.865238000000002
#
# number of rings (size 3 to 8) (size 9 to 14) (size 15 to 20)
#    0.000    2.286    1.429    0.857    1.000    3.429 
#    1.286    1.429    0.000    0.000    0.000    0.000 
#    0.000    0.000    0.000    0.000    0.000    0.000 
#
# Total GULP energy -694537.575580 kJ/mol
# GULP energy per Si atom -12402.456707 kJ/mol
# Density = 1.782458 g / cm^3
# Si number density = 17.865238 Si / 1000 Ang^3
#
#
#
# Elastic Constant Matrix: (Units=GPa)
#
#
# Indices 1 2 3 4 5 6 
#
# 1 137.0141 52.4447 66.0155 0.0000 0.0000 0.0000
# 2 52.4447 81.8531 73.6566 0.0000 0.0000 0.0000
# 3 66.0155 73.6566 150.2551 0.0000 0.0000 0.0000
# 4 0.0000 0.0000 0.0000 38.8723 0.0000 0.0000
# 5 0.0000 0.0000 0.0000 0.0000 18.3229 0.0000
# 6 0.0000 0.0000 0.0000 0.0000 0.0000 22.5194
#
#
#
# Elastic Compliance Matrix: (Units=1/GPa)
#
#
# Indices 1 2 3 4 5 6 
#
# 1 0.010081 -0.004426 -0.002260 0.000000 0.000000 0.000000
# 2 -0.004426 0.023803 -0.009724 0.000000 0.000000 0.000000
# 3 -0.002260 -0.009724 0.012415 0.000000 0.000000 0.000000
# 4 0.000000 0.000000 0.000000 0.025725 0.000000 0.000000
# 5 0.000000 0.000000 0.000000 0.000000 0.054577 0.000000
# 6 0.000000 0.000000 0.000000 0.000000 0.000000 0.044406
#
#
# Mechanical properties :
#
#
# Convention : Reuss Voigt Hill
#
# Bulk Modulus (GPa) = 74.18259 83.70622 78.94440
# Shear Modulus (GPa) = 24.00159 27.74329 25.87244
#
# Velocity S-wave (km/s) = 3.66933 3.94499 3.80965
# Velocity P-wave (km/s) = 7.71787 8.22840 7.97722
#
# Compressibility (1/GPa) = 0.01348025
#
# Stress axis : x y z
#
# Youngs Moduli (GPa) = 99.19297 42.01158 80.54820
#
# Poissons Ratio (x) = 0.18594 0.18201
# Poissons Ratio (y) = 0.43902 0.78324
# Poissons Ratio (z) = 0.22415 0.40852
#
# Static dielectric constant tensor:
#      x y z
#    x 3.467400 0.000000 0.000000 
#    y 0.000000 3.363060 0.000000 
#    z 0.000000 0.000000 3.250100 
# 
# 
# High freq. dielectric constant tensor:
#      x y z
#    x 1.696910 0.000000 0.000000 
#    y 0.000000 1.693150 0.000000 
#    z 0.000000 0.000000 1.689730 
# 
# From -- ./inp_files/30488.got.cif
#   From: 2010.03.12/outbox.cif.g09.slc.cpg/sg59_16_cif.got.tgz:30488.got - 2010.04.16 16:29:54.
