data_PCOD8243473
_publ_section_title
;
Structure prediction by ZEFSAII (Michael W. Deem and Ramdas Pophale) SiO2 
 PCOD8243473
Probable space group: P M M N
;
_chemical_formula_sum "Si O2"
_cell_formula_units_Z 48
_cell_length_a 8.925619
_cell_length_b 9.024768
_cell_length_c 31.028790
_cell_angle_alpha 90.000000
_cell_angle_beta 90.000000
_cell_angle_gamma 90.000000
_cell_volume 2499.419944
_symmetry_space_group_name_H-M "P M M N"
_symmetry_group_IT_number 59
_space_group.IT_coordinate_system_code '2'
_symmetry_cell_setting 'orthorhombic'
loop_
_space_group_symop_operation_xyz
x,y,z
1/2-x,1/2-y,z
1/2+x,-y,-z
-x,1/2+y,-z
-x,-y,-z
1/2+x,1/2+y,-z
1/2-x,y,z
x,1/2-y,z
loop_
_atom_site_type_symbol
_atom_site_label
_atom_site_fract_x
_atom_site_fract_y
_atom_site_fract_z
Si Si1 0.918716 0.426000 0.207872
Si Si2 0.074477 0.078898 0.627618
Si Si3 0.923543 0.575498 0.040467
Si Si4 0.073751 0.422039 0.120449
Si Si5 0.421865 0.575763 0.460065
Si Si6 0.580171 0.573937 0.706769
O O1 0.750000 0.489923 0.207170
O O2 0.916079 0.250000 0.209627
O O3 0.005822 0.479152 0.165424
O O4 0.004563 0.488628 0.249663
O O5 0.250000 0.052545 0.623427
O O6 0.034354 0.250000 0.635869
O O7 0.999032 0.020840 0.583822
O O8 0.012695 0.983476 0.666585
O O9 0.750000 0.530526 0.041593
O O10 0.945243 0.750000 0.036333
O O11 0.001709 0.520049 0.083526
O O12 0.000000 0.500000 0.000000
O O13 0.250000 0.448545 0.121451
O O14 0.035074 0.250000 0.112174
O O15 0.500000 0.500000 0.500000
O O16 0.250000 0.526490 0.458494
O O17 0.441012 0.750000 0.465514
O O18 0.750000 0.514737 0.704537
O O19 0.576243 0.750000 0.706343
#
# Coordination Sequence:
#
# PCOD8243473 Si02
#       6
#     8   8   8   8   8   8
#     4   9  17  31  53  80 110 144 180 220 267 316
#     4  10  21  37  56  78 106 141 179 220 268 320
#     4  11  24  40  58  82 111 143 181 224 269 319
#     4  10  20  35  57  84 112 143 180 221 267 320
#     4  10  21  37  57  80 106 138 176 218 266 320
#     4  10  20  34  54  81 111 143 181 224 267 314
#
# _framework density 19.204456
#
# number of rings (size 3 to 8) (size 9 to 14) (size 15 to 20)
#    0.000    2.000    0.000    3.500    0.000   10.000 
#    0.000    0.833    0.000    5.000    0.000    0.000 
#    0.000    0.000    0.000    0.000    0.000    0.000 
#
# Total GULP energy -595386.036830 kJ/mol
# GULP energy per Si atom -12403.875767 kJ/mol
# Density = 1.916075 g / cm^3
# Si number density = 19.204456 Si / 1000 Ang^3
#
#
#
# Elastic Constant Matrix: (Units=GPa)
#
#
# Indices 1 2 3 4 5 6 
#
# 1 135.5530 33.9833 74.3460 0.0000 0.0000 0.0000
# 2 33.9833 28.9314 33.8376 0.0000 0.0000 0.0000
# 3 74.3460 33.8376 175.7157 0.0000 0.0000 0.0000
# 4 0.0000 0.0000 0.0000 31.0233 0.0000 0.0000
# 5 0.0000 0.0000 0.0000 0.0000 47.3427 0.0000
# 6 0.0000 0.0000 0.0000 0.0000 0.0000 27.5818
#
#
#
# Elastic Compliance Matrix: (Units=1/GPa)
#
#
# Indices 1 2 3 4 5 6 
#
# 1 0.011515 -0.010103 -0.002927 0.000000 0.000000 0.000000
# 2 -0.010103 0.053477 -0.006023 0.000000 0.000000 0.000000
# 3 -0.002927 -0.006023 0.008089 0.000000 0.000000 0.000000
# 4 0.000000 0.000000 0.000000 0.032234 0.000000 0.000000
# 5 0.000000 0.000000 0.000000 0.000000 0.021123 0.000000
# 6 0.000000 0.000000 0.000000 0.000000 0.000000 0.036256
#
#
# Mechanical properties :
#
#
# Convention : Reuss Voigt Hill
#
# Bulk Modulus (GPa) = 28.59189 69.39267 48.99228
# Shear Modulus (GPa) = 23.53414 34.39177 28.96295
#
# Velocity S-wave (km/s) = 3.50444 4.23640 3.88769
# Velocity P-wave (km/s) = 5.59422 7.75510 6.76154
#
# Compressibility (1/GPa) = 0.03497495
#
# Stress axis : x y z
#
# Youngs Moduli (GPa) = 86.84206 18.69979 123.62219
#
# Poissons Ratio (x) = 0.18893 0.36179
# Poissons Ratio (y) = 0.87737 0.74462
# Poissons Ratio (z) = 0.25415 0.11263
#
# Static dielectric constant tensor:
#      x y z
#    x 3.780250 0.000000 0.000000 
#    y 0.000000 3.259680 0.000000 
#    z 0.000000 0.000000 3.754180 
# 
# 
# High freq. dielectric constant tensor:
#      x y z
#    x 1.769160 0.000000 0.000000 
#    y 0.000000 1.718770 0.000000 
#    z 0.000000 0.000000 1.766590 
# 
# From -- ./inp_files/32896.got.cif
#   From: 2010.03.12/outbox.cif.g09.slc.cpg/sg59_17_cif.got.tgz:32896.got - 2010.04.16 16:29:54.
