data_PCOD8243636
_publ_section_title
;
Structure prediction by ZEFSAII (Michael W. Deem and Ramdas Pophale) SiO2 
 PCOD8243636
Probable space group: P M M N
;
_chemical_formula_sum "Si O2"
_cell_formula_units_Z 64
_cell_length_a 8.928905
_cell_length_b 13.967839
_cell_length_c 26.113618
_cell_angle_alpha 90.000000
_cell_angle_beta 90.000000
_cell_angle_gamma 90.000000
_cell_volume 3256.825348
_symmetry_space_group_name_H-M "P M M N"
_symmetry_group_IT_number 59
_space_group.IT_coordinate_system_code '2'
_symmetry_cell_setting 'orthorhombic'
loop_
_space_group_symop_operation_xyz
x,y,z
1/2-x,1/2-y,z
1/2+x,-y,-z
-x,1/2+y,-z
-x,-y,-z
1/2+x,1/2+y,-z
1/2-x,y,z
x,1/2-y,z
loop_
_atom_site_type_symbol
_atom_site_label
_atom_site_fract_x
_atom_site_fract_y
_atom_site_fract_z
Si Si1 0.574846 0.016575 0.945694
Si Si2 0.073233 0.358774 0.476174
Si Si3 0.425736 0.027250 0.576266
Si Si4 0.422516 0.641182 0.336778
Si Si5 0.579976 0.355280 0.231338
Si Si6 0.916449 0.356258 0.110366
Si Si7 0.922242 0.456149 0.768377
Si Si8 0.073682 0.359665 0.864009
O O1 0.750000 0.034122 0.952531
O O2 0.503515 0.107751 0.916848
O O3 0.545643 0.922494 0.912048
O O4 0.500000 0.000000 0.000000
O O5 0.250000 0.362992 0.469321
O O6 0.014037 0.250000 0.471642
O O7 0.024274 0.399986 0.531397
O O8 0.999604 0.423140 0.431865
O O9 0.250000 0.012361 0.577285
O O10 0.477409 0.070309 0.629924
O O11 0.250000 0.626348 0.352187
O O12 0.474091 0.750000 0.346454
O O13 0.447292 0.618933 0.277120
O O14 0.750000 0.375770 0.248925
O O15 0.529405 0.250000 0.252098
O O16 0.567816 0.354110 0.170692
O O17 0.473332 0.439328 0.252277
O O18 0.750000 0.394383 0.095241
O O19 0.938921 0.250000 0.087817
O O20 0.750000 0.460313 0.785500
O O21 0.019583 0.424373 0.816853
O O22 0.250000 0.373699 0.869743
O O23 0.029466 0.250000 0.853599
#
# Coordination Sequence:
#
# PCOD8243636 Si02
#       8
#     8   8   8   8   8   8   8   8
#     4  12  25  40  60  85 115 149 184 228 278 334
#     4   9  18  34  56  82 115 155 196 240 293 352
#     4  10  20  34  55  85 117 149 194 248 295 343
#     4  10  22  39  57  80 115 157 197 238 288 345
#     4   9  18  34  58  85 113 145 180 222 273 329
#     4   9  18  35  59  84 111 142 176 219 270 324
#     4  11  22  37  60  89 118 150 191 238 284 337
#     4  11  24  42  63  86 115 151 190 232 280 337
#
# _framework density 19.651036999999999
#
# number of rings (size 3 to 8) (size 9 to 14) (size 15 to 20)
#    0.000    1.875    1.250    3.750    0.000    5.000 
#    0.000    1.875    0.000    0.750    0.000    0.000 
#    0.000    0.000    0.000    0.000    0.000    0.000 
#
# Total GULP energy -793689.200231 kJ/mol
# GULP energy per Si atom -12401.393754 kJ/mol
# Density = 1.960631 g / cm^3
# Si number density = 19.651037 Si / 1000 Ang^3
#
#
#
# Elastic Constant Matrix: (Units=GPa)
#
#
# Indices 1 2 3 4 5 6 
#
# 1 84.1728 42.2277 28.6460 0.0000 0.0000 0.0000
# 2 42.2277 134.9073 25.3784 0.0000 0.0000 0.0000
# 3 28.6460 25.3784 58.2386 0.0000 0.0000 0.0000
# 4 0.0000 0.0000 0.0000 25.4769 0.0000 0.0000
# 5 0.0000 0.0000 0.0000 0.0000 29.9724 0.0000
# 6 0.0000 0.0000 0.0000 0.0000 0.0000 30.4606
#
#
#
# Elastic Compliance Matrix: (Units=1/GPa)
#
#
# Indices 1 2 3 4 5 6 
#
# 1 0.015888 -0.003816 -0.006152 0.000000 0.000000 0.000000
# 2 -0.003816 0.008991 -0.002041 0.000000 0.000000 0.000000
# 3 -0.006152 -0.002041 0.021086 0.000000 0.000000 0.000000
# 4 0.000000 0.000000 0.000000 0.039251 0.000000 0.000000
# 5 0.000000 0.000000 0.000000 0.000000 0.033364 0.000000
# 6 0.000000 0.000000 0.000000 0.000000 0.000000 0.032829
#
#
# Mechanical properties :
#
#
# Convention : Reuss Voigt Hill
#
# Bulk Modulus (GPa) = 45.56374 52.20255 48.88315
# Shear Modulus (GPa) = 27.36065 29.25309 28.30687
#
# Velocity S-wave (km/s) = 3.73544 3.86246 3.79948
# Velocity P-wave (km/s) = 6.46849 6.82011 6.64663
#
# Compressibility (1/GPa) = 0.02194728
#
# Stress axis : x y z
#
# Youngs Moduli (GPa) = 62.93879 111.22392 47.42428
#
# Poissons Ratio (x) = 0.42442 0.29177
# Poissons Ratio (y) = 0.24017 0.09679
# Poissons Ratio (z) = 0.38722 0.22700
#
# Static dielectric constant tensor:
#      x y z
#    x 3.691290 0.000000 0.000000 
#    y 0.000000 0.386090 0.000000 
#    z 0.000000 0.000000 3.419050 
# 
# 
# High freq. dielectric constant tensor:
#      x y z
#    x 1.763840 0.000000 0.000000 
#    y 0.000000 1.780100 0.000000 
#    z 0.000000 0.000000 1.745460 
# 
# From -- ./inp_files/31619.got.cif
#   From: 2010.03.12/outbox.cif.g09.slc.cpg/sg59_16_cif.got.tgz:31619.got - 2010.04.16 16:29:54.
