data_PCOD8243246
_publ_section_title
;
Structure prediction by ZEFSAII (Michael W. Deem and Ramdas Pophale) SiO2 
 PCOD8243246
Probable space group: P M M N
;
_chemical_formula_sum "Si O2"
_cell_formula_units_Z 48
_cell_length_a 13.558887
_cell_length_b 16.182225
_cell_length_c 10.822217
_cell_angle_alpha 90.000000
_cell_angle_beta 90.000000
_cell_angle_gamma 90.000000
_cell_volume 2374.534668
_symmetry_space_group_name_H-M "P M M N"
_symmetry_group_IT_number 59
_space_group.IT_coordinate_system_code '2'
_symmetry_cell_setting 'orthorhombic'
loop_
_space_group_symop_operation_xyz
x,y,z
1/2-x,1/2-y,z
1/2+x,-y,-z
-x,1/2+y,-z
-x,-y,-z
1/2+x,1/2+y,-z
1/2-x,y,z
x,1/2-y,z
loop_
_atom_site_type_symbol
_atom_site_label
_atom_site_fract_x
_atom_site_fract_y
_atom_site_fract_z
Si Si1 0.043998 0.913550 0.634709
Si Si2 0.635387 0.159502 0.141705
Si Si3 0.362839 0.076925 0.730689
Si Si4 0.549053 0.155060 0.637909
Si Si5 0.364361 0.002736 0.258462
Si Si6 0.363663 0.999623 0.987318
O O1 0.073284 0.842929 0.731706
O O2 0.059737 0.875148 0.501744
O O3 0.115059 0.992235 0.657365
O O4 0.929966 0.942879 0.647891
O O5 0.750000 0.141125 0.173048
O O6 0.621819 0.250000 0.081729
O O7 0.592933 0.090331 0.048988
O O8 0.250000 0.103320 0.706931
O O9 0.435249 0.148326 0.682406
O O10 0.382790 0.064865 0.877891
O O11 0.583581 0.250000 0.651259
O O12 0.618818 0.095404 0.719605
O O13 0.250000 0.025935 0.277925
O O14 0.407278 0.025288 0.120765
O O15 0.250000 0.987366 0.014628
#
# Coordination Sequence:
#
# PCOD8243246 Si02
#       6
#     8   8   8   8   8   8
#     4  10  20  34  53  76 104 136 179 219 243 293
#     4   9  17  30  51  78 107 139 171 210 263 310
#     4   9  18  35  58  79 100 132 173 216 259 303
#     4  11  24  36  49  77 109 136 171 212 256 307
#     4  10  21  37  56  77 103 137 172 210 257 305
#     4   8  16  32  54  79 103 129 170 216 254 302
#
# _framework density 20.214486999999998
#
# number of rings (size 3 to 8) (size 9 to 14) (size 15 to 20)
#    0.000    2.500    0.000    4.000    0.000   10.667 
#    0.000    1.667    0.000    2.500    0.000    4.667 
#    0.000    0.000    0.000    0.000    0.000    0.000 
#
# Total GULP energy -594867.133599 kJ/mol
# GULP energy per Si atom -12393.065283 kJ/mol
# Density = 2.016848 g / cm^3
# Si number density = 20.214487 Si / 1000 Ang^3
#
#
#
# Elastic Constant Matrix: (Units=GPa)
#
#
# Indices 1 2 3 4 5 6 
#
# 1 74.7917 -10.7543 -9.5049 0.0000 0.0000 0.0000
# 2 -10.7543 40.3797 -6.8349 0.0000 0.0000 0.0000
# 3 -9.5049 -6.8349 59.2145 0.0000 0.0000 0.0000
# 4 0.0000 0.0000 0.0000 13.8737 0.0000 0.0000
# 5 0.0000 0.0000 0.0000 0.0000 22.2280 0.0000
# 6 0.0000 0.0000 0.0000 0.0000 0.0000 17.0079
#
#
#
# Elastic Compliance Matrix: (Units=1/GPa)
#
#
# Indices 1 2 3 4 5 6 
#
# 1 0.014343 0.004294 0.002798 0.000000 0.000000 0.000000
# 2 0.004294 0.026544 0.003753 0.000000 0.000000 0.000000
# 3 0.002798 0.003753 0.017770 0.000000 0.000000 0.000000
# 4 0.000000 0.000000 0.000000 0.072079 0.000000 0.000000
# 5 0.000000 0.000000 0.000000 0.000000 0.044988 0.000000
# 6 0.000000 0.000000 0.000000 0.000000 0.000000 0.058796
#
#
# Mechanical properties :
#
#
# Convention : Reuss Voigt Hill
#
# Bulk Modulus (GPa) = 12.44606 13.35528 12.90067
# Shear Modulus (GPa) = 20.86692 24.05390 22.46041
#
# Velocity S-wave (km/s) = 3.21639 3.45328 3.33694
# Velocity P-wave (km/s) = 4.46810 4.74567 4.60897
#
# Compressibility (1/GPa) = 0.08034669
#
# Stress axis : x y z
#
# Youngs Moduli (GPa) = 69.71828 37.67369 56.27436
#
# Poissons Ratio (x) = -0.16176 -0.15745
# Poissons Ratio (y) = -0.29935 -0.21120
# Poissons Ratio (z) = -0.19507 -0.14139
#
# Static dielectric constant tensor:
#      x y z
#    x 3.652370 0.000000 0.000000 
#    y 0.000000 3.433450 0.000000 
#    z 0.000000 0.000000 3.858750 
# 
# 
# High freq. dielectric constant tensor:
#      x y z
#    x 1.790270 0.000000 0.000000 
#    y 0.000000 1.755140 0.000000 
#    z 0.000000 0.000000 1.795050 
# 
# From -- ./inp_files/17049.got.cif
#   From: 2010.03.12/outbox.cif.g09.slc.cpg/sg59_9_cif.got.tgz:17049.got - 2010.04.16 16:29:54.
