data_PCOD8243604
_publ_section_title
;
Structure prediction by ZEFSAII (Michael W. Deem and Ramdas Pophale) SiO2 
 PCOD8243604
Probable space group: P M M N
;
_chemical_formula_sum "Si O2"
_cell_formula_units_Z 40
_cell_length_a 15.601206
_cell_length_b 9.005819
_cell_length_c 14.388559
_cell_angle_alpha 90.000000
_cell_angle_beta 90.000000
_cell_angle_gamma 90.000000
_cell_volume 2021.616100
_symmetry_space_group_name_H-M "P M M N"
_symmetry_group_IT_number 59
_space_group.IT_coordinate_system_code '2'
_symmetry_cell_setting 'orthorhombic'
loop_
_space_group_symop_operation_xyz
x,y,z
1/2-x,1/2-y,z
1/2+x,-y,-z
-x,1/2+y,-z
-x,-y,-z
1/2+x,1/2+y,-z
1/2-x,y,z
x,1/2-y,z
loop_
_atom_site_type_symbol
_atom_site_label
_atom_site_fract_x
_atom_site_fract_y
_atom_site_fract_z
Si Si1 0.151086 0.080372 0.086873
Si Si2 0.350311 0.577973 0.901931
Si Si3 0.250000 0.073632 0.605965
Si Si4 0.915686 0.924147 0.713266
Si Si5 0.250000 0.426861 0.396308
Si Si6 0.412475 0.426141 0.721996
O O1 0.250000 0.051994 0.111751
O O2 0.136735 0.250000 0.055917
O O3 0.096891 0.041383 0.177904
O O4 0.119573 0.975136 0.003589
O O5 0.250000 0.545440 0.889098
O O6 0.373124 0.750000 0.890704
O O7 0.402082 0.486418 0.825945
O O8 0.250000 0.250000 0.604976
O O9 0.250000 0.011411 0.501260
O O10 0.165671 0.014696 0.658690
O O11 0.928093 0.750000 0.695335
O O12 0.834845 0.986240 0.655396
O O13 0.999857 0.010561 0.678458
O O14 0.250000 0.250000 0.392610
O O15 0.415732 0.250000 0.724186
#
# Coordination Sequence:
#
# PCOD8243604 Si02
#       6
#     8   8   4   8   4   8
#     4   9  17  32  55  82 112 148 187 225 275 338
#     4  10  20  34  55  83 113 148 190 234 278 326
#     4   9  20  38  60  83 110 148 191 231 282 343
#     4  10  20  36  60  88 114 146 188 233 280 335
#     4   9  18  38  64  85 110 146 187 233 286 341
#     4  11  22  37  57  83 116 154 190 230 279 334
#
# _framework density 19.786151
#
# number of rings (size 3 to 8) (size 9 to 14) (size 15 to 20)
#    0.000    2.200    2.000    1.200    0.000    3.200 
#    0.000    0.500    0.000    3.600    0.000    0.000 
#    0.000    0.000    0.000    0.000    0.000    0.000 
#
# Total GULP energy -496113.874813 kJ/mol
# GULP energy per Si atom -12402.846870 kJ/mol
# Density = 1.974112 g / cm^3
# Si number density = 19.786151 Si / 1000 Ang^3
#
#
#
# Elastic Constant Matrix: (Units=GPa)
#
#
# Indices 1 2 3 4 5 6 
#
# 1 153.3630 47.1421 68.0327 0.0000 0.0000 0.0000
# 2 47.1421 61.6639 38.1899 0.0000 0.0000 0.0000
# 3 68.0327 38.1899 111.9710 0.0000 0.0000 0.0000
# 4 0.0000 0.0000 0.0000 14.3071 0.0000 0.0000
# 5 0.0000 0.0000 0.0000 0.0000 12.7780 0.0000
# 6 0.0000 0.0000 0.0000 0.0000 0.0000 31.0410
#
#
#
# Elastic Compliance Matrix: (Units=1/GPa)
#
#
# Indices 1 2 3 4 5 6 
#
# 1 0.009976 -0.004910 -0.004387 0.000000 0.000000 0.000000
# 2 -0.004910 0.022976 -0.004853 0.000000 0.000000 0.000000
# 3 -0.004387 -0.004853 0.013251 0.000000 0.000000 0.000000
# 4 0.000000 0.000000 0.000000 0.069895 0.000000 0.000000
# 5 0.000000 0.000000 0.000000 0.000000 0.078259 0.000000
# 6 0.000000 0.000000 0.000000 0.000000 0.000000 0.032215
#
#
# Mechanical properties :
#
#
# Convention : Reuss Voigt Hill
#
# Bulk Modulus (GPa) = 55.85338 70.41413 63.13376
# Shear Modulus (GPa) = 19.16879 23.20076 21.18478
#
# Velocity S-wave (km/s) = 3.11593 3.42800 3.27569
# Velocity P-wave (km/s) = 6.42146 7.16471 6.80325
#
# Compressibility (1/GPa) = 0.01790402
#
# Stress axis : x y z
#
# Youngs Moduli (GPa) = 100.24525 43.52333 75.46339
#
# Poissons Ratio (x) = 0.21368 0.33102
# Poissons Ratio (y) = 0.49217 0.36626
# Poissons Ratio (z) = 0.43973 0.21124
#
# Static dielectric constant tensor:
#      x y z
#    x 3.699200 0.000000 0.000000 
#    y 0.000000 3.310570 0.000000 
#    z 0.000000 0.000000 3.628080 
# 
# 
# High freq. dielectric constant tensor:
#      x y z
#    x 1.778980 0.000000 0.000000 
#    y 0.000000 1.744680 0.000000 
#    z 0.000000 0.000000 1.767730 
# 
# From -- ./inp_files/19903.got.cif
#   From: 2010.03.12/outbox.cif.g09.slc.cpg/sg59_10_cif.got.tgz:19903.got - 2010.04.16 16:29:54.
