data_PCOD8243738
_publ_section_title
;
Structure prediction by ZEFSAII (Michael W. Deem and Ramdas Pophale) SiO2 
 PCOD8243738
Probable space group: P M M N
;
_chemical_formula_sum "Si O2"
_cell_formula_units_Z 64
_cell_length_a 18.427861
_cell_length_b 14.680236
_cell_length_c 11.885316
_cell_angle_alpha 90.000000
_cell_angle_beta 90.000000
_cell_angle_gamma 90.000000
_cell_volume 3215.279252
_symmetry_space_group_name_H-M "P M M N"
_symmetry_group_IT_number 59
_space_group.IT_coordinate_system_code '2'
_symmetry_cell_setting 'orthorhombic'
loop_
_space_group_symop_operation_xyz
x,y,z
1/2-x,1/2-y,z
1/2+x,-y,-z
-x,1/2+y,-z
-x,-y,-z
1/2+x,1/2+y,-z
1/2-x,y,z
x,1/2-y,z
loop_
_atom_site_type_symbol
_atom_site_label
_atom_site_fract_x
_atom_site_fract_y
_atom_site_fract_z
Si Si1 0.667102 0.115576 0.876937
Si Si2 0.667708 0.538002 0.175305
Si Si3 0.390912 0.851748 0.881961
Si Si4 0.330762 0.089193 0.076758
Si Si5 0.071897 0.469200 0.439020
Si Si6 0.043603 0.149303 0.221996
Si Si7 0.408712 0.651667 0.350718
Si Si8 0.080630 0.146101 0.642190
O O1 0.750000 0.150939 0.889319
O O2 0.629342 0.159306 0.769398
O O3 0.666695 0.007648 0.861602
O O4 0.620563 0.146446 0.984286
O O5 0.750000 0.560201 0.208046
O O6 0.658482 0.428165 0.177916
O O7 0.615242 0.587464 0.260078
O O8 0.647921 0.576935 0.053066
O O9 0.371074 0.750000 0.837195
O O10 0.474134 0.876320 0.853358
O O11 0.250000 0.131496 0.087472
O O12 0.387613 0.153607 0.138810
O O13 0.053634 0.423386 0.320341
O O14 0.119763 0.562097 0.419023
O O15 0.108910 0.396690 0.523247
O O16 0.000000 0.500000 0.500000
O O17 0.034735 0.250000 0.275449
O O18 0.393195 0.750000 0.411795
O O19 0.494867 0.639584 0.338266
O O20 0.108042 0.250000 0.646190
#
# Coordination Sequence:
#
# PCOD8243738 Si02
#       8
#     8   8   8   8   8   8   8   8
#     4  10  20  35  56  84 121 160 193 234 291 354
#     4  10  22  39  60  85 117 159 199 241 297 356
#     4  10  21  34  55  89 122 156 194 235 288 354
#     4   9  20  37  57  85 122 160 194 238 296 354
#     4  10  20  39  60  83 118 155 194 252 304 342
#     4  11  22  36  60  90 118 156 200 243 297 355
#     4  10  20  34  58  87 113 152 197 242 299 354
#     4  10  22  39  61  85 113 154 206 253 295 347
#
# _framework density 19.904958000000001
#
# number of rings (size 3 to 8) (size 9 to 14) (size 15 to 20)
#    0.000    2.000    1.250    3.375    1.750    4.250 
#    0.000    3.125    0.000    1.500    0.000    0.000 
#    0.000    0.000    0.000    0.000    0.000    0.000 
#
# Total GULP energy -793199.939009 kJ/mol
# GULP energy per Si atom -12393.749047 kJ/mol
# Density = 1.985965 g / cm^3
# Si number density = 19.904958 Si / 1000 Ang^3
#
#
#
# Elastic Constant Matrix: (Units=GPa)
#
#
# Indices 1 2 3 4 5 6 
#
# 1 61.6987 16.6736 41.7335 0.0000 0.0000 0.0000
# 2 16.6736 115.0207 48.1765 0.0000 0.0000 0.0000
# 3 41.7335 48.1765 95.6261 0.0000 0.0000 0.0000
# 4 0.0000 0.0000 0.0000 20.3629 0.0000 0.0000
# 5 0.0000 0.0000 0.0000 0.0000 10.2890 0.0000
# 6 0.0000 0.0000 0.0000 0.0000 0.0000 14.6517
#
#
#
# Elastic Compliance Matrix: (Units=1/GPa)
#
#
# Indices 1 2 3 4 5 6 
#
# 1 0.023107 0.001108 -0.010643 0.000000 0.000000 0.000000
# 2 0.001108 0.011073 -0.006062 0.000000 0.000000 0.000000
# 3 -0.010643 -0.006062 0.018156 0.000000 0.000000 0.000000
# 4 0.000000 0.000000 0.000000 0.049109 0.000000 0.000000
# 5 0.000000 0.000000 0.000000 0.000000 0.097191 0.000000
# 6 0.000000 0.000000 0.000000 0.000000 0.000000 0.068252
#
#
# Mechanical properties :
#
#
# Convention : Reuss Voigt Hill
#
# Bulk Modulus (GPa) = 47.29784 53.94584 50.62184
# Shear Modulus (GPa) = 16.38656 20.11152 18.24904
#
# Velocity S-wave (km/s) = 2.87233 3.18209 3.03117
# Velocity P-wave (km/s) = 5.90032 6.37664 6.14310
#
# Compressibility (1/GPa) = 0.02114262
#
# Stress axis : x y z
#
# Youngs Moduli (GPa) = 43.27651 90.31383 55.07772
#
# Poissons Ratio (x) = -0.10008 0.58618
# Poissons Ratio (y) = -0.04795 0.33388
# Poissons Ratio (z) = 0.46058 0.54748
#
# Static dielectric constant tensor:
#      x y z
#    x 3.485010 0.000000 0.000000 
#    y 0.000000 5.120890 0.000000 
#    z 0.000000 0.000000 3.847900 
# 
# 
# High freq. dielectric constant tensor:
#      x y z
#    x 1.754690 0.000000 0.000000 
#    y 0.000000 1.798580 0.000000 
#    z 0.000000 0.000000 1.762100 
# 
# From -- ./inp_files/17857.got.cif
#   From: 2010.03.12/outbox.cif.g09.slc.cpg/sg59_9_cif.got.tgz:17857.got - 2010.04.16 16:29:54.
