data_PCOD8243751
_publ_section_title
;
Structure prediction by ZEFSAII (Michael W. Deem and Ramdas Pophale) SiO2 
 PCOD8243751
Probable space group: P M M N
;
_chemical_formula_sum "Si O2"
_cell_formula_units_Z 64
_cell_length_a 8.756694
_cell_length_b 28.057593
_cell_length_c 14.303012
_cell_angle_alpha 90.000000
_cell_angle_beta 90.000000
_cell_angle_gamma 90.000000
_cell_volume 3514.132138
_symmetry_space_group_name_H-M "P M M N"
_symmetry_group_IT_number 59
_space_group.IT_coordinate_system_code '2'
_symmetry_cell_setting 'orthorhombic'
loop_
_space_group_symop_operation_xyz
x,y,z
1/2-x,1/2-y,z
1/2+x,-y,-z
-x,1/2+y,-z
-x,-y,-z
1/2+x,1/2+y,-z
1/2-x,y,z
x,1/2-y,z
loop_
_atom_site_type_symbol
_atom_site_label
_atom_site_fract_x
_atom_site_fract_y
_atom_site_fract_z
Si Si1 0.417797 0.044021 0.456466
Si Si2 0.069504 0.304100 0.458987
Si Si3 0.429576 0.550736 0.029942
Si Si4 0.572450 0.564370 0.227238
Si Si5 0.570465 0.892196 0.871681
Si Si6 0.568149 0.696320 0.750088
Si Si7 0.917723 0.625186 0.394532
Si Si8 0.924148 0.456919 0.274306
O O1 0.250000 0.029466 0.418429
O O2 0.398629 0.082010 0.535917
O O3 0.518972 0.064878 0.371990
O O4 0.500000 0.000000 0.500000
O O5 0.250000 0.314320 0.459296
O O6 0.030093 0.250000 0.481537
O O7 0.007581 0.316996 0.354628
O O8 0.992922 0.334217 0.544922
O O9 0.250000 0.545723 0.017085
O O10 0.470564 0.564574 0.135226
O O11 0.500000 0.500000 0.000000
O O12 0.488977 0.595684 0.969287
O O13 0.750000 0.573685 0.201986
O O14 0.506502 0.605370 0.298274
O O15 0.557490 0.513741 0.278643
O O16 0.750000 0.888951 0.888877
O O17 0.508228 0.842610 0.825460
O O18 0.532664 0.936624 0.805704
O O19 0.750000 0.695436 0.747502
O O20 0.512720 0.750000 0.777616
O O21 0.750000 0.644380 0.366087
O O22 0.750000 0.441546 0.254747
#
# Coordination Sequence:
#
# PCOD8243751 Si02
#       8
#     8   8   8   8   8   8   8   8
#     4  11  20  31  46  68 101 139 175 211 257 311
#     4   8  13  24  46  76 107 136 167 207 254 305
#     4  12  24  38  55  76 103 136 178 223 268 323
#     4  10  20  35  51  69 100 141 178 217 259 306
#     4  11  21  34  56  81 104 137 174 217 273 324
#     4   8  15  29  51  82 114 138 168 212 262 318
#     4   9  17  30  47  69 101 138 172 210 257 303
#     4  11  21  33  48  71 104 141 177 215 256 309
#
# _framework density 18.212177000000001
#
# number of rings (size 3 to 8) (size 9 to 14) (size 15 to 20)
#    0.000    2.000    2.500    3.750    0.000    2.500 
#    0.000    0.000    0.000    2.250    0.000    3.500 
#    0.000    3.500    0.000    0.000    0.000    0.000 
#
# Total GULP energy -792975.061923 kJ/mol
# GULP energy per Si atom -12390.235343 kJ/mol
# Density = 1.817073 g / cm^3
# Si number density = 18.212177 Si / 1000 Ang^3
#
#
#
# Elastic Constant Matrix: (Units=GPa)
#
#
# Indices 1 2 3 4 5 6 
#
# 1 60.5848 29.3071 34.5060 0.0000 0.0000 0.0000
# 2 29.3071 100.4182 52.4752 0.0000 0.0000 0.0000
# 3 34.5060 52.4752 123.1111 0.0000 0.0000 0.0000
# 4 0.0000 0.0000 0.0000 34.6905 0.0000 0.0000
# 5 0.0000 0.0000 0.0000 0.0000 23.0272 0.0000
# 6 0.0000 0.0000 0.0000 0.0000 0.0000 13.0077
#
#
#
# Elastic Compliance Matrix: (Units=1/GPa)
#
#
# Indices 1 2 3 4 5 6 
#
# 1 0.020754 -0.003882 -0.004162 0.000000 0.000000 0.000000
# 2 -0.003882 0.013538 -0.004683 0.000000 0.000000 0.000000
# 3 -0.004162 -0.004683 0.011285 0.000000 0.000000 0.000000
# 4 0.000000 0.000000 0.000000 0.028826 0.000000 0.000000
# 5 0.000000 0.000000 0.000000 0.000000 0.043427 0.000000
# 6 0.000000 0.000000 0.000000 0.000000 0.000000 0.076877
#
#
# Mechanical properties :
#
#
# Convention : Reuss Voigt Hill
#
# Bulk Modulus (GPa) = 49.69195 57.41008 53.55102
# Shear Modulus (GPa) = 22.03902 25.33348 23.68625
#
# Velocity S-wave (km/s) = 3.48246 3.73368 3.61026
# Velocity P-wave (km/s) = 6.59654 7.08368 6.84444
#
# Compressibility (1/GPa) = 0.02012398
#
# Stress axis : x y z
#
# Youngs Moduli (GPa) = 48.18263 73.86485 88.61099
#
# Poissons Ratio (x) = 0.28675 0.36884
# Poissons Ratio (y) = 0.18705 0.41492
# Poissons Ratio (z) = 0.20056 0.34587
#
# Static dielectric constant tensor:
#      x y z
#    x 2.914750 0.000000 0.000000 
#    y 0.000000 3.305670 0.000000 
#    z 0.000000 0.000000 3.598750 
# 
# 
# High freq. dielectric constant tensor:
#      x y z
#    x 1.672650 0.000000 0.000000 
#    y 0.000000 1.690060 0.000000 
#    z 0.000000 0.000000 1.707270 
# 
# From -- ./inp_files/21975.got.cif
#   From: 2010.03.12/outbox.cif.g09.slc.cpg/sg59_11_cif.got.tgz:21975.got - 2010.04.16 16:29:54.
