data_PCOD8243742
_publ_section_title
;
Structure prediction by ZEFSAII (Michael W. Deem and Ramdas Pophale) SiO2 
 PCOD8243742
Probable space group: P M M N
;
_chemical_formula_sum "Si O2"
_cell_formula_units_Z 56
_cell_length_a 15.001287
_cell_length_b 9.219456
_cell_length_c 21.966798
_cell_angle_alpha 90.000000
_cell_angle_beta 90.000000
_cell_angle_gamma 90.000000
_cell_volume 3038.089560
_symmetry_space_group_name_H-M "P M M N"
_symmetry_group_IT_number 59
_space_group.IT_coordinate_system_code '2'
_symmetry_cell_setting 'orthorhombic'
loop_
_space_group_symop_operation_xyz
x,y,z
1/2-x,1/2-y,z
1/2+x,-y,-z
-x,1/2+y,-z
-x,-y,-z
1/2+x,1/2+y,-z
1/2-x,y,z
x,1/2-y,z
loop_
_atom_site_type_symbol
_atom_site_label
_atom_site_fract_x
_atom_site_fract_y
_atom_site_fract_z
Si Si1 0.054643 0.080874 0.948487
Si Si2 0.750000 0.580689 0.013432
Si Si3 0.750000 0.079163 0.885852
Si Si4 0.654403 0.579247 0.618304
Si Si5 0.510072 0.920555 0.710668
Si Si6 0.149728 0.585641 0.628445
Si Si7 0.091358 0.078929 0.511445
Si Si8 0.560067 0.419817 0.832674
O O1 0.041796 0.250000 0.961000
O O2 0.160172 0.039114 0.948915
O O3 0.010709 0.036566 0.884571
O O4 0.000000 0.000000 0.000000
O O5 0.750000 0.750000 0.997770
O O6 0.750000 0.495530 0.950790
O O7 0.750000 0.250000 0.897712
O O8 0.839093 0.031246 0.849630
O O9 0.750000 0.523943 0.642792
O O10 0.645645 0.750000 0.624348
O O11 0.577578 0.511824 0.660354
O O12 0.649550 0.537784 0.547396
O O13 0.523407 0.750000 0.720752
O O14 0.412109 0.958619 0.685307
O O15 0.526846 0.997781 0.773734
O O16 0.250000 0.573926 0.652864
O O17 0.126022 0.750000 0.607464
O O18 0.138857 0.479860 0.571460
O O19 0.076786 0.250000 0.518542
O O20 0.000000 0.000000 0.500000
O O21 0.558032 0.250000 0.819352
#
# Coordination Sequence:
#
# PCOD8243742 Si02
#       8
#     8   4   4   8   8   8   8   8
#     4  10  20  36  58  83 114 146 181 228 279 326
#     4  10  20  34  58  90 114 140 185 232 275 328
#     4  10  20  36  58  84 116 148 179 220 279 336
#     4   9  18  33  53  78 107 137 173 221 274 327
#     4  10  21  38  57  78 107 146 187 226 273 330
#     4  10  21  39  60  81 109 145 189 240 290 337
#     4  11  20  34  57  83 113 145 183 231 287 340
#     4  10  22  38  55  80 114 149 182 225 276 329
#
# _framework density 18.432635000000001
#
# number of rings (size 3 to 8) (size 9 to 14) (size 15 to 20)
#    0.000    2.000    2.857    0.857    1.000    2.571 
#    1.286    0.000    0.000    1.714    0.000    0.000 
#    0.000    0.000    0.000    0.000    0.000    0.000 
#
# Total GULP energy -694241.256736 kJ/mol
# GULP energy per Si atom -12397.165299 kJ/mol
# Density = 1.839068 g / cm^3
# Si number density = 18.432635 Si / 1000 Ang^3
#
#
#
# Elastic Constant Matrix: (Units=GPa)
#
#
# Indices 1 2 3 4 5 6 
#
# 1 172.7868 40.9929 87.1791 0.0000 0.0000 0.0000
# 2 40.9929 47.6630 54.4497 0.0000 0.0000 0.0000
# 3 87.1791 54.4497 152.5307 0.0000 0.0000 0.0000
# 4 0.0000 0.0000 0.0000 35.7475 0.0000 0.0000
# 5 0.0000 0.0000 0.0000 0.0000 21.4125 0.0000
# 6 0.0000 0.0000 0.0000 0.0000 0.0000 17.9655
#
#
#
# Elastic Compliance Matrix: (Units=1/GPa)
#
#
# Indices 1 2 3 4 5 6 
#
# 1 0.008368 -0.002927 -0.003738 0.000000 0.000000 0.000000
# 2 -0.002927 0.036452 -0.011340 0.000000 0.000000 0.000000
# 3 -0.003738 -0.011340 0.012740 0.000000 0.000000 0.000000
# 4 0.000000 0.000000 0.000000 0.027974 0.000000 0.000000
# 5 0.000000 0.000000 0.000000 0.000000 0.046702 0.000000
# 6 0.000000 0.000000 0.000000 0.000000 0.000000 0.055662
#
#
# Mechanical properties :
#
#
# Convention : Reuss Voigt Hill
#
# Bulk Modulus (GPa) = 46.39991 82.02489 64.21240
# Shear Modulus (GPa) = 21.63650 27.71567 24.67609
#
# Velocity S-wave (km/s) = 3.42982 3.88186 3.66282
# Velocity P-wave (km/s) = 6.39626 8.04290 7.26637
#
# Compressibility (1/GPa) = 0.02155176
#
# Stress axis : x y z
#
# Youngs Moduli (GPa) = 119.50666 27.43322 78.49014
#
# Poissons Ratio (x) = 0.08029 0.29338
# Poissons Ratio (y) = 0.34975 0.89006
# Poissons Ratio (z) = 0.44670 0.31109
#
# Static dielectric constant tensor:
#      x y z
#    x 3.912330 0.000000 0.000000 
#    y 0.000000 3.161790 0.000000 
#    z 0.000000 0.000000 3.434210 
# 
# 
# High freq. dielectric constant tensor:
#      x y z
#    x 1.735490 0.000000 0.000000 
#    y 0.000000 1.697220 0.000000 
#    z 0.000000 0.000000 1.706900 
# 
# From -- ./inp_files/30472.got.cif
#   From: 2010.03.12/outbox.cif.g09.slc.cpg/sg59_16_cif.got.tgz:30472.got - 2010.04.16 16:29:54.
