data_PCOD8243522
_publ_section_title
;
Structure prediction by ZEFSAII (Michael W. Deem and Ramdas Pophale) SiO2 
 PCOD8243522
Probable space group: P M M N
;
_chemical_formula_sum "Si O2"
_cell_formula_units_Z 56
_cell_length_a 8.903978
_cell_length_b 14.196335
_cell_length_c 24.167379
_cell_angle_alpha 90.000000
_cell_angle_beta 90.000000
_cell_angle_gamma 90.000000
_cell_volume 3054.849859
_symmetry_space_group_name_H-M "P M M N"
_symmetry_group_IT_number 59
_space_group.IT_coordinate_system_code '2'
_symmetry_cell_setting 'orthorhombic'
loop_
_space_group_symop_operation_xyz
x,y,z
1/2-x,1/2-y,z
1/2+x,-y,-z
-x,1/2+y,-z
-x,-y,-z
1/2+x,1/2+y,-z
1/2-x,y,z
x,1/2-y,z
loop_
_atom_site_type_symbol
_atom_site_label
_atom_site_fract_x
_atom_site_fract_y
_atom_site_fract_z
Si Si1 0.574504 0.486846 0.731806
Si Si2 0.572305 0.560450 0.156271
Si Si3 0.425407 0.357758 0.356195
Si Si4 0.923133 0.642095 0.352289
Si Si5 0.570907 0.250000 0.883587
Si Si6 0.926680 0.053512 0.049874
Si Si7 0.072642 0.750000 0.990466
Si Si8 0.424237 0.988061 0.558603
O O1 0.750000 0.481012 0.745395
O O2 0.480206 0.489792 0.787878
O O3 0.532650 0.581511 0.698051
O O4 0.527421 0.394863 0.697113
O O5 0.750000 0.576921 0.156984
O O6 0.490371 0.659666 0.148709
O O7 0.520849 0.489935 0.107710
O O8 0.250000 0.365872 0.369025
O O9 0.474597 0.250000 0.345616
O O10 0.510699 0.397550 0.409599
O O11 0.750000 0.630491 0.334051
O O12 0.964276 0.750000 0.364646
O O13 0.956739 0.583472 0.407580
O O14 0.750000 0.250000 0.881219
O O15 0.508086 0.250000 0.946719
O O16 0.750000 0.045903 0.042812
O O17 0.983160 0.160959 0.044960
O O18 0.000000 0.000000 0.000000
O O19 0.250000 0.750000 0.996584
O O20 0.250000 0.970114 0.549564
O O21 0.500000 0.000000 0.500000
#
# Coordination Sequence:
#
# PCOD8243522 Si02
#       8
#     8   8   8   8   4   8   4   8
#     4  10  21  37  57  80 108 141 182 227 273 329
#     4  11  23  37  55  82 114 144 177 224 277 331
#     4   9  19  38  61  81 106 146 191 236 282 326
#     4   9  19  36  56  77 106 143 180 221 270 320
#     4  11  21  35  59  83 107 143 183 222 267 326
#     4  10  20  36  57  79 107 141 179 222 273 326
#     4   9  18  35  57  79 105 139 177 220 269 324
#     4  10  20  34  54  83 116 148 184 226 272 324
#
# _framework density 18.331506999999998
#
# number of rings (size 3 to 8) (size 9 to 14) (size 15 to 20)
#    0.000    2.143    1.429    1.500    1.000    2.857 
#    1.286    1.786    0.000    0.000    0.000    0.000 
#    0.000    0.000    0.000    0.000    0.000    0.000 
#
# Total GULP energy -694519.678104 kJ/mol
# GULP energy per Si atom -12402.137109 kJ/mol
# Density = 1.828978 g / cm^3
# Si number density = 18.331507 Si / 1000 Ang^3
#
#
#
# Elastic Constant Matrix: (Units=GPa)
#
#
# Indices 1 2 3 4 5 6 
#
# 1 63.7428 43.6379 54.2022 0.0000 0.0000 0.0000
# 2 43.6379 155.7843 70.9940 0.0000 0.0000 0.0000
# 3 54.2022 70.9940 146.8068 0.0000 0.0000 0.0000
# 4 0.0000 0.0000 0.0000 19.8026 0.0000 0.0000
# 5 0.0000 0.0000 0.0000 0.0000 33.6420 0.0000
# 6 0.0000 0.0000 0.0000 0.0000 0.0000 23.4768
#
#
#
# Elastic Compliance Matrix: (Units=1/GPa)
#
#
# Indices 1 2 3 4 5 6 
#
# 1 0.024254 -0.003480 -0.007272 0.000000 0.000000 0.000000
# 2 -0.003480 0.008733 -0.002938 0.000000 0.000000 0.000000
# 3 -0.007272 -0.002938 0.010917 0.000000 0.000000 0.000000
# 4 0.000000 0.000000 0.000000 0.050498 0.000000 0.000000
# 5 0.000000 0.000000 0.000000 0.000000 0.029725 0.000000
# 6 0.000000 0.000000 0.000000 0.000000 0.000000 0.042595
#
#
# Mechanical properties :
#
#
# Convention : Reuss Voigt Hill
#
# Bulk Modulus (GPa) = 60.51815 78.22245 69.37030
# Shear Modulus (GPa) = 25.04874 28.55095 26.79985
#
# Velocity S-wave (km/s) = 3.70054 3.95077 3.82770
# Velocity P-wave (km/s) = 7.16544 7.97340 7.58019
#
# Compressibility (1/GPa) = 0.01652397
#
# Stress axis : x y z
#
# Youngs Moduli (GPa) = 41.23053 114.50826 91.59667
#
# Poissons Ratio (x) = 0.39849 0.66608
# Poissons Ratio (y) = 0.14348 0.26914
# Poissons Ratio (z) = 0.29982 0.33646
#
# Static dielectric constant tensor:
#      x y z
#    x 3.359460 0.000000 0.000000 
#    y 0.000000 3.482660 0.000000 
#    z 0.000000 0.000000 3.391350 
# 
# 
# High freq. dielectric constant tensor:
#      x y z
#    x 1.709660 0.000000 0.000000 
#    y 0.000000 1.716100 0.000000 
#    z 0.000000 0.000000 1.711730 
# 
# From -- ./inp_files/29227.got.cif
#   From: 2010.03.12/outbox.cif.g09.slc.cpg/sg59_15_cif.got.tgz:29227.got - 2010.04.16 16:29:54.
