data_PCOD8243939
_publ_section_title
;
Structure prediction by ZEFSAII (Michael W. Deem and Ramdas Pophale) SiO2 
 PCOD8243939
Probable space group: P M M N
;
_chemical_formula_sum "Si O2"
_cell_formula_units_Z 48
_cell_length_a 8.847602
_cell_length_b 13.661069
_cell_length_c 20.973194
_cell_angle_alpha 90.000000
_cell_angle_beta 90.000000
_cell_angle_gamma 90.000000
_cell_volume 2534.981750
_symmetry_space_group_name_H-M "P M M N"
_symmetry_group_IT_number 59
_space_group.IT_coordinate_system_code '2'
_symmetry_cell_setting 'orthorhombic'
loop_
_space_group_symop_operation_xyz
x,y,z
1/2-x,1/2-y,z
1/2+x,-y,-z
-x,1/2+y,-z
-x,-y,-z
1/2+x,1/2+y,-z
1/2-x,y,z
x,1/2-y,z
loop_
_atom_site_type_symbol
_atom_site_label
_atom_site_fract_x
_atom_site_fract_y
_atom_site_fract_z
Si Si1 0.428361 0.961284 0.653097
Si Si2 0.578617 0.634042 0.532063
Si Si3 0.071215 0.638596 0.401182
Si Si4 0.426866 0.641641 0.025791
Si Si5 0.572039 0.550875 0.906716
Si Si6 0.074436 0.135281 0.226675
O O1 0.250000 0.970657 0.649128
O O2 0.489094 0.901866 0.593085
O O3 0.473621 0.903801 0.716164
O O4 0.501792 0.070051 0.653989
O O5 0.750000 0.592880 0.532607
O O6 0.579222 0.750000 0.533893
O O7 0.494009 0.598238 0.468191
O O8 0.250000 0.629445 0.402374
O O9 0.020049 0.750000 0.387939
O O10 0.250000 0.631829 0.014173
O O11 0.470138 0.750000 0.051272
O O12 0.480298 0.560571 0.077375
O O13 0.503871 0.625335 0.957768
O O14 0.750000 0.563085 0.910582
O O15 0.516254 0.579476 0.836446
O O16 0.250000 0.113138 0.241024
O O17 0.046582 0.250000 0.217483
#
# Coordination Sequence:
#
# PCOD8243939 Si02
#       6
#     8   8   8   8   8   8
#     4  12  24  36  53  77 107 140 175 218 265 316
#     4  10  20  35  56  81 109 139 173 217 266 314
#     4  10  21  38  59  80 103 134 174 218 264 316
#     4   9  17  30  51  80 111 139 170 213 262 311
#     4   9  18  33  53  77 106 141 179 217 259 307
#     4  10  21  37  55  75 103 139 178 219 262 312
#
# _framework density 18.935048999999999
#
# number of rings (size 3 to 8) (size 9 to 14) (size 15 to 20)
#    0.000    2.000    0.000    4.000    0.000    6.000 
#    0.000    0.833    0.000    3.000    0.000    0.000 
#    0.000    0.000    0.000    0.000    0.000    0.000 
#
# Total GULP energy -595273.538708 kJ/mol
# GULP energy per Si atom -12401.532056 kJ/mol
# Density = 1.889195 g / cm^3
# Si number density = 18.935049 Si / 1000 Ang^3
#
#
#
# Elastic Constant Matrix: (Units=GPa)
#
#
# Indices 1 2 3 4 5 6 
#
# 1 75.4857 31.3822 34.1688 0.0000 0.0000 0.0000
# 2 31.3822 86.5244 53.8293 0.0000 0.0000 0.0000
# 3 34.1688 53.8293 87.9706 0.0000 0.0000 0.0000
# 4 0.0000 0.0000 0.0000 27.2994 0.0000 0.0000
# 5 0.0000 0.0000 0.0000 0.0000 28.6215 0.0000
# 6 0.0000 0.0000 0.0000 0.0000 0.0000 27.1484
#
#
#
# Elastic Compliance Matrix: (Units=1/GPa)
#
#
# Indices 1 2 3 4 5 6 
#
# 1 0.016620 -0.003249 -0.004468 0.000000 0.000000 0.000000
# 2 -0.003249 0.019297 -0.010546 0.000000 0.000000 0.000000
# 3 -0.004468 -0.010546 0.019556 0.000000 0.000000 0.000000
# 4 0.000000 0.000000 0.000000 0.036631 0.000000 0.000000
# 5 0.000000 0.000000 0.000000 0.000000 0.034939 0.000000
# 6 0.000000 0.000000 0.000000 0.000000 0.000000 0.036835
#
#
# Mechanical properties :
#
#
# Convention : Reuss Voigt Hill
#
# Bulk Modulus (GPa) = 52.77490 54.30459 53.53975
# Shear Modulus (GPa) = 24.18763 25.32055 24.75409
#
# Velocity S-wave (km/s) = 3.57795 3.66078 3.61960
# Velocity P-wave (km/s) = 6.70828 6.82716 6.76798
#
# Compressibility (1/GPa) = 0.01894840
#
# Stress axis : x y z
#
# Youngs Moduli (GPa) = 60.16672 51.82285 51.13613
#
# Poissons Ratio (x) = 0.16836 0.22846
# Poissons Ratio (y) = 0.19547 0.53927
# Poissons Ratio (z) = 0.26881 0.54651
#
# Static dielectric constant tensor:
#      x y z
#    x 3.529840 0.000000 0.000000 
#    y 0.000000 3.903720 0.000000 
#    z 0.000000 0.000000 3.420950 
# 
# 
# High freq. dielectric constant tensor:
#      x y z
#    x 1.736630 0.000000 0.000000 
#    y 0.000000 1.753630 0.000000 
#    z 0.000000 0.000000 1.717450 
# 
# From -- ./inp_files/25501.got.cif
#   From: 2010.03.12/outbox.cif.g09.slc.cpg/sg59_13_cif.got.tgz:25501.got - 2010.04.16 16:29:54.
