data_PCOD8243886
_publ_section_title
;
Structure prediction by ZEFSAII (Michael W. Deem and Ramdas Pophale) SiO2 
 PCOD8243886
Probable space group: P M M N
;
_chemical_formula_sum "Si O2"
_cell_formula_units_Z 64
_cell_length_a 28.486148
_cell_length_b 9.175027
_cell_length_c 12.482728
_cell_angle_alpha 90.000000
_cell_angle_beta 90.000000
_cell_angle_gamma 90.000000
_cell_volume 3262.500483
_symmetry_space_group_name_H-M "P M M N"
_symmetry_group_IT_number 59
_space_group.IT_coordinate_system_code '2'
_symmetry_cell_setting 'orthorhombic'
loop_
_space_group_symop_operation_xyz
x,y,z
1/2-x,1/2-y,z
1/2+x,-y,-z
-x,1/2+y,-z
-x,-y,-z
1/2+x,1/2+y,-z
1/2-x,y,z
x,1/2-y,z
loop_
_atom_site_type_symbol
_atom_site_label
_atom_site_fract_x
_atom_site_fract_y
_atom_site_fract_z
Si Si1 0.363141 0.419779 0.106179
Si Si2 0.877733 0.921841 0.649155
Si Si3 0.975220 0.421886 0.598487
Si Si4 0.650782 0.082002 0.285345
Si Si5 0.438148 0.416936 0.739215
Si Si6 0.803846 0.077833 0.066290
Si Si7 0.547227 0.581266 0.021020
Si Si8 0.196145 0.582540 0.494318
O O1 0.354619 0.250000 0.083771
O O2 0.360512 0.458199 0.231095
O O3 0.414485 0.467602 0.065588
O O4 0.324054 0.507760 0.041639
O O5 0.886782 0.750000 0.633890
O O6 0.925264 0.007007 0.622535
O O7 0.836407 0.973971 0.572047
O O8 0.968682 0.250000 0.575436
O O9 0.000000 0.500000 0.500000
O O10 0.009371 0.451311 0.699155
O O11 0.639423 0.250000 0.269344
O O12 0.670891 0.017257 0.173786
O O13 0.688432 0.056682 0.379198
O O14 0.602017 0.007265 0.321813
O O15 0.425895 0.250000 0.717983
O O16 0.433749 0.461307 0.862662
O O17 0.750000 0.031747 0.074559
O O18 0.809851 0.250000 0.057509
O O19 0.535454 0.750000 0.013661
O O20 0.500000 0.500000 0.000000
O O21 0.250000 0.545819 0.467606
O O22 0.184225 0.750000 0.464290
#
# Coordination Sequence:
#
# PCOD8243886 Si02
#       8
#     8   8   8   8   8   8   8   8
#     4  10  22  40  59  82 117 157 196 241 294 354
#     4  11  24  41  61  87 121 159 202 251 298 356
#     4  11  23  39  60  88 121 160 203 249 300 356
#     4  10  20  36  60  89 119 152 193 245 301 359
#     4  10  21  36  56  83 117 153 193 241 291 350
#     4  10  21  37  59  88 119 152 195 247 299 355
#     4  10  20  35  55  80 111 147 189 235 283 339
#     4  10  22  41  64  88 116 154 199 249 308 368
#
# _framework density 19.616855000000001
#
# number of rings (size 3 to 8) (size 9 to 14) (size 15 to 20)
#    0.000    1.750    1.250    2.625    0.000    8.000 
#    0.000    2.500    0.000    2.250    0.000    0.000 
#    0.000    0.000    0.000    0.000    0.000    0.000 
#
# Total GULP energy -793753.840729 kJ/mol
# GULP energy per Si atom -12402.403761 kJ/mol
# Density = 1.957221 g / cm^3
# Si number density = 19.616855 Si / 1000 Ang^3
#
#
#
# Elastic Constant Matrix: (Units=GPa)
#
#
# Indices 1 2 3 4 5 6 
#
# 1 137.6698 58.4293 57.6189 0.0000 0.0000 0.0000
# 2 58.4293 71.7091 54.2382 0.0000 0.0000 0.0000
# 3 57.6189 54.2382 95.3890 0.0000 0.0000 0.0000
# 4 0.0000 0.0000 0.0000 30.4656 0.0000 0.0000
# 5 0.0000 0.0000 0.0000 0.0000 28.1405 0.0000
# 6 0.0000 0.0000 0.0000 0.0000 0.0000 35.4538
#
#
#
# Elastic Compliance Matrix: (Units=1/GPa)
#
#
# Indices 1 2 3 4 5 6 
#
# 1 0.011528 -0.007240 -0.002847 0.000000 0.000000 0.000000
# 2 -0.007240 0.029015 -0.012125 0.000000 0.000000 0.000000
# 3 -0.002847 -0.012125 0.019097 0.000000 0.000000 0.000000
# 4 0.000000 0.000000 0.000000 0.032824 0.000000 0.000000
# 5 0.000000 0.000000 0.000000 0.000000 0.035536 0.000000
# 6 0.000000 0.000000 0.000000 0.000000 0.000000 0.028206
#
#
# Mechanical properties :
#
#
# Convention : Reuss Voigt Hill
#
# Bulk Modulus (GPa) = 65.71478 71.70451 68.70965
# Shear Modulus (GPa) = 24.30711 27.77743 26.04227
#
# Velocity S-wave (km/s) = 3.52389 3.76706 3.64750
# Velocity P-wave (km/s) = 7.08018 7.45338 7.26917
#
# Compressibility (1/GPa) = 0.01521728
#
# Stress axis : x y z
#
# Youngs Moduli (GPa) = 86.74582 34.46471 52.36391
#
# Poissons Ratio (x) = 0.24952 0.14907
# Poissons Ratio (y) = 0.62803 0.63490
# Poissons Ratio (z) = 0.24694 0.41788
#
# Static dielectric constant tensor:
#      x y z
#    x 3.606600 0.000000 0.000000 
#    y 0.000000 3.596060 0.000000 
#    z 0.000000 0.000000 3.864740 
# 
# 
# High freq. dielectric constant tensor:
#      x y z
#    x 1.773020 0.000000 0.000000 
#    y 0.000000 1.759280 0.000000 
#    z 0.000000 0.000000 1.772640 
# 
# From -- ./inp_files/19386.got.cif
#   From: 2010.03.12/outbox.cif.g09.slc.cpg/sg59_10_cif.got.tgz:19386.got - 2010.04.16 16:29:54.
