data_PCOD8243514
_publ_section_title
;
Structure prediction by ZEFSAII (Michael W. Deem and Ramdas Pophale) SiO2 
 PCOD8243514
Probable space group: P M M N
;
_chemical_formula_sum "Si O2"
_cell_formula_units_Z 48
_cell_length_a 8.771580
_cell_length_b 9.409182
_cell_length_c 28.875692
_cell_angle_alpha 90.000000
_cell_angle_beta 90.000000
_cell_angle_gamma 90.000000
_cell_volume 2383.208826
_symmetry_space_group_name_H-M "P M M N"
_symmetry_group_IT_number 59
_space_group.IT_coordinate_system_code '2'
_symmetry_cell_setting 'orthorhombic'
loop_
_space_group_symop_operation_xyz
x,y,z
1/2-x,1/2-y,z
1/2+x,-y,-z
-x,1/2+y,-z
-x,-y,-z
1/2+x,1/2+y,-z
1/2-x,y,z
x,1/2-y,z
loop_
_atom_site_type_symbol
_atom_site_label
_atom_site_fract_x
_atom_site_fract_y
_atom_site_fract_z
Si Si1 0.068672 0.411887 0.131596
Si Si2 0.567974 0.250000 0.464910
Si Si3 0.927512 0.250000 0.568345
Si Si4 0.569070 0.414114 0.957673
Si Si5 0.929810 0.543519 0.605703
Si Si6 0.424950 0.907749 0.702694
Si Si7 0.930868 0.411636 0.780912
O O1 0.250000 0.407453 0.132533
O O2 0.004410 0.250000 0.129051
O O3 0.011250 0.504666 0.088179
O O4 0.005420 0.491326 0.177219
O O5 0.750000 0.250000 0.462494
O O6 0.499479 0.250000 0.517056
O O7 0.501665 0.386804 0.439519
O O8 0.750000 0.250000 0.558093
O O9 0.974883 0.380203 0.600470
O O10 0.750000 0.418228 0.961216
O O11 0.511773 0.250000 0.957136
O O12 0.500000 0.500000 0.000000
O O13 0.750000 0.572634 0.607335
O O14 0.003961 0.602186 0.652017
O O15 0.250000 0.954345 0.699179
O O16 0.440594 0.750000 0.724917
O O17 0.512986 0.023513 0.732845
O O18 0.750000 0.412379 0.780898
O O19 0.991084 0.250000 0.786390
#
# Coordination Sequence:
#
# PCOD8243514 Si02
#       7
#     8   4   4   8   8   8   8
#     4   9  17  32  56  84 114 150 193 239 288 344
#     4  11  21  39  61  87 121 153 185 233 288 339
#     4   9  22  39  59  87 119 149 189 239 284 331
#     4  10  20  34  54  82 117 156 199 247 297 348
#     4  11  22  39  62  87 114 151 195 236 279 338
#     4  11  24  41  59  82 114 149 187 235 289 341
#     4  10  21  37  60  88 115 145 185 234 285 343
#
# _framework density 20.140912
#
# number of rings (size 3 to 8) (size 9 to 14) (size 15 to 20)
#    0.000    1.833    0.833    3.250    1.167    5.000 
#    0.000    4.583    0.000    5.000    0.000    0.000 
#    0.000    0.000    0.000    0.000    0.000    0.000 
#
# Total GULP energy -595162.137217 kJ/mol
# GULP energy per Si atom -12399.211192 kJ/mol
# Density = 2.009507 g / cm^3
# Si number density = 20.140912 Si / 1000 Ang^3
#
#
#
# Elastic Constant Matrix: (Units=GPa)
#
#
# Indices 1 2 3 4 5 6 
#
# 1 18.3121 22.8083 6.9262 0.0000 0.0000 0.0000
# 2 22.8083 172.5129 51.9437 0.0000 0.0000 0.0000
# 3 6.9262 51.9437 107.4007 0.0000 0.0000 0.0000
# 4 0.0000 0.0000 0.0000 43.7176 0.0000 0.0000
# 5 0.0000 0.0000 0.0000 0.0000 28.8251 0.0000
# 6 0.0000 0.0000 0.0000 0.0000 0.0000 25.5357
#
#
#
# Elastic Compliance Matrix: (Units=1/GPa)
#
#
# Indices 1 2 3 4 5 6 
#
# 1 0.065374 -0.008631 -0.000042 0.000000 0.000000 0.000000
# 2 -0.008631 0.007924 -0.003276 0.000000 0.000000 0.000000
# 3 -0.000042 -0.003276 0.010898 0.000000 0.000000 0.000000
# 4 0.000000 0.000000 0.000000 0.022874 0.000000 0.000000
# 5 0.000000 0.000000 0.000000 0.000000 0.034692 0.000000
# 6 0.000000 0.000000 0.000000 0.000000 0.000000 0.039161
#
#
# Mechanical properties :
#
#
# Convention : Reuss Voigt Hill
#
# Bulk Modulus (GPa) = 16.58383 51.28690 33.93536
# Shear Modulus (GPa) = 22.23014 34.05218 28.14116
#
# Velocity S-wave (km/s) = 3.32585 4.11627 3.74199
# Velocity P-wave (km/s) = 4.79585 6.93620 5.96284
#
# Compressibility (1/GPa) = 0.06029970
#
# Stress axis : x y z
#
# Youngs Moduli (GPa) = 15.29654 126.19711 91.76016
#
# Poissons Ratio (x) = 1.08917 0.00384
# Poissons Ratio (y) = 0.13202 0.30059
# Poissons Ratio (z) = 0.00064 0.41340
#
# Static dielectric constant tensor:
#      x y z
#    x 3.637900 0.000000 0.000000 
#    y 0.000000 4.110710 0.000000 
#    z 0.000000 0.000000 3.705280 
# 
# 
# High freq. dielectric constant tensor:
#      x y z
#    x 1.756100 0.000000 0.000000 
#    y 0.000000 1.808360 0.000000 
#    z 0.000000 0.000000 1.794990 
# 
# From -- ./inp_files/32982.got.cif
#   From: 2010.03.12/outbox.cif.g09.slc.cpg/sg59_17_cif.got.tgz:32982.got - 2010.04.16 16:29:54.
