data_PCOD8243356
_publ_section_title
;
Structure prediction by ZEFSAII (Michael W. Deem and Ramdas Pophale) SiO2 
 PCOD8243356
Probable space group: P M M N
;
_chemical_formula_sum "Si O2"
_cell_formula_units_Z 64
_cell_length_a 14.005541
_cell_length_b 24.140519
_cell_length_c 9.748769
_cell_angle_alpha 90.000000
_cell_angle_beta 90.000000
_cell_angle_gamma 90.000000
_cell_volume 3296.068827
_symmetry_space_group_name_H-M "P M M N"
_symmetry_group_IT_number 59
_space_group.IT_coordinate_system_code '2'
_symmetry_cell_setting 'orthorhombic'
loop_
_space_group_symop_operation_xyz
x,y,z
1/2-x,1/2-y,z
1/2+x,-y,-z
-x,1/2+y,-z
-x,-y,-z
1/2+x,1/2+y,-z
1/2-x,y,z
x,1/2-y,z
loop_
_atom_site_type_symbol
_atom_site_label
_atom_site_fract_x
_atom_site_fract_y
_atom_site_fract_z
Si Si1 0.139304 0.985153 0.780384
Si Si2 0.355152 0.687980 0.916292
Si Si3 0.639722 0.586848 0.414669
Si Si4 0.005989 0.187115 0.623091
Si Si5 0.544209 0.571926 0.695588
Si Si6 0.360850 0.991980 0.094292
Si Si7 0.003640 0.190450 0.311880
Si Si8 0.137838 0.628736 0.179348
O O1 0.250000 0.964636 0.771533
O O2 0.128282 0.045556 0.713207
O O3 0.069720 0.941869 0.700914
O O4 0.101539 0.989532 0.937489
O O5 0.250000 0.665188 0.885271
O O6 0.353515 0.750000 0.975279
O O7 0.408499 0.684142 0.774363
O O8 0.401942 0.649855 0.032954
O O9 0.750000 0.595687 0.454169
O O10 0.597908 0.646639 0.368779
O O11 0.585795 0.558528 0.544573
O O12 0.030822 0.250000 0.675122
O O13 0.918313 0.160306 0.703145
O O14 0.969726 0.189726 0.468083
O O15 0.593897 0.541100 0.819953
O O16 0.568441 0.637176 0.720600
O O17 0.250000 0.003890 0.084521
O O18 0.382876 0.936594 0.181147
O O19 0.055220 0.250000 0.278848
O O20 0.250000 0.642269 0.196244
#
# Coordination Sequence:
#
# PCOD8243356 Si02
#       8
#     8   8   8   8   8   8   8   8
#     4  10  21  36  56  83 114 145 179 222 274 333
#     4   9  17  31  51  74 104 143 181 215 256 314
#     4  10  22  39  57  79 107 140 183 233 278 321
#     4  10  21  37  56  79 108 143 184 226 271 321
#     4  11  20  35  58  80 107 143 181 226 275 327
#     4  10  21  36  55  81 111 145 183 222 270 328
#     4   9  20  35  50  73 103 136 176 221 267 316
#     4  10  20  34  53  80 114 146 177 214 261 322
#
# _framework density 19.417069999999999
#
# number of rings (size 3 to 8) (size 9 to 14) (size 15 to 20)
#    0.000    2.125    0.000    3.000    0.000    5.000 
#    0.000    5.625    0.000    1.125    0.000    1.750 
#    0.000    3.000    0.000    0.000    0.000    0.000 
#
# Total GULP energy -793193.017545 kJ/mol
# GULP energy per Si atom -12393.640899 kJ/mol
# Density = 1.937288 g / cm^3
# Si number density = 19.417070 Si / 1000 Ang^3
#
#
#
# Elastic Constant Matrix: (Units=GPa)
#
#
# Indices 1 2 3 4 5 6 
#
# 1 63.2048 51.5379 45.1031 0.0000 0.0000 0.0000
# 2 51.5379 133.2433 49.3122 0.0000 0.0000 0.0000
# 3 45.1031 49.3122 70.1875 0.0000 0.0000 0.0000
# 4 0.0000 0.0000 0.0000 32.1998 0.0000 0.0000
# 5 0.0000 0.0000 0.0000 0.0000 29.9990 0.0000
# 6 0.0000 0.0000 0.0000 0.0000 0.0000 25.2009
#
#
#
# Elastic Compliance Matrix: (Units=1/GPa)
#
#
# Indices 1 2 3 4 5 6 
#
# 1 0.033085 -0.006661 -0.016581 0.000000 0.000000 0.000000
# 2 -0.006661 0.011483 -0.003788 0.000000 0.000000 0.000000
# 3 -0.016581 -0.003788 0.027564 0.000000 0.000000 0.000000
# 4 0.000000 0.000000 0.000000 0.031056 0.000000 0.000000
# 5 0.000000 0.000000 0.000000 0.000000 0.033334 0.000000
# 6 0.000000 0.000000 0.000000 0.000000 0.000000 0.039681
#
#
# Mechanical properties :
#
#
# Convention : Reuss Voigt Hill
#
# Bulk Modulus (GPa) = 55.33035 62.06022 58.69528
# Shear Modulus (GPa) = 21.16071 25.52542 23.34307
#
# Velocity S-wave (km/s) = 3.30479 3.62966 3.47103
# Velocity P-wave (km/s) = 6.56657 7.04251 6.80870
#
# Compressibility (1/GPa) = 0.01807327
#
# Stress axis : x y z
#
# Youngs Moduli (GPa) = 30.22508 87.08419 36.27944
#
# Poissons Ratio (x) = 0.58004 0.60155
# Poissons Ratio (y) = 0.20132 0.13741
# Poissons Ratio (z) = 0.50117 0.32984
#
# Static dielectric constant tensor:
#      x y z
#    x 3.440190 0.000000 0.000000 
#    y 0.000000 3.943030 0.000000 
#    z 0.000000 0.000000 3.593530 
# 
# 
# High freq. dielectric constant tensor:
#      x y z
#    x 1.736260 0.000000 0.000000 
#    y 0.000000 1.770440 0.000000 
#    z 0.000000 0.000000 1.758620 
# 
# From -- ./inp_files/9565.got.cif
#   From: 2010.03.12/outbox.cif.g09.slc.cpg/sg59_5_cif.got.tgz:9565.got - 2010.04.16 16:29:54.
