data_PCOD8243189
_publ_section_title
;
Structure prediction by ZEFSAII (Michael W. Deem and Ramdas Pophale) SiO2 
 PCOD8243189
Probable space group: P M M N
;
_chemical_formula_sum "Si O2"
_cell_formula_units_Z 64
_cell_length_a 8.983206
_cell_length_b 28.709957
_cell_length_c 12.520737
_cell_angle_alpha 90.000000
_cell_angle_beta 90.000000
_cell_angle_gamma 90.000000
_cell_volume 3229.191452
_symmetry_space_group_name_H-M "P M M N"
_symmetry_group_IT_number 59
_space_group.IT_coordinate_system_code '2'
_symmetry_cell_setting 'orthorhombic'
loop_
_space_group_symop_operation_xyz
x,y,z
1/2-x,1/2-y,z
1/2+x,-y,-z
-x,1/2+y,-z
-x,-y,-z
1/2+x,1/2+y,-z
1/2-x,y,z
x,1/2-y,z
loop_
_atom_site_type_symbol
_atom_site_label
_atom_site_fract_x
_atom_site_fract_y
_atom_site_fract_z
Si Si1 0.920484 0.668412 0.500861
Si Si2 0.579886 0.937474 0.493765
Si Si3 0.921579 0.198429 0.297514
Si Si4 0.574138 0.007857 0.677069
Si Si5 0.426095 0.802666 0.064923
Si Si6 0.428652 0.976999 0.894711
Si Si7 0.573029 0.369698 0.118612
Si Si8 0.415788 0.304890 0.725229
O O1 0.750000 0.684566 0.497870
O O2 0.940254 0.614935 0.531360
O O3 0.990334 0.677096 0.384131
O O4 0.000846 0.699444 0.588269
O O5 0.750000 0.949743 0.464379
O O6 0.480808 0.946491 0.387620
O O7 0.527474 0.965945 0.597950
O O8 0.750000 0.187839 0.317003
O O9 0.942877 0.250000 0.245206
O O10 0.989030 0.157563 0.222822
O O11 0.750000 0.010352 0.699526
O O12 0.489075 0.003292 0.789649
O O13 0.250000 0.802268 0.064314
O O14 0.485402 0.750000 0.041580
O O15 0.481490 0.821875 0.178272
O O16 0.489674 0.839603 0.980106
O O17 0.250000 0.981077 0.900206
O O18 0.482235 0.923011 0.887432
O O19 0.500000 0.000000 0.000000
O O20 0.750000 0.368350 0.118383
O O21 0.250000 0.326113 0.739996
O O22 0.408072 0.250000 0.721833
#
# Coordination Sequence:
#
# PCOD8243189 Si02
#       8
#     8   8   8   8   8   8   8   8
#     4  10  20  34  52  76 108 143 178 216 261 312
#     4   9  19  35  56  81 107 139 179 223 269 319
#     4  10  20  34  55  83 113 144 179 219 264 320
#     4  10  20  36  57  80 107 138 176 221 271 327
#     4   9  17  32  55  78 100 130 172 219 263 313
#     4  11  23  39  58  79 108 144 183 229 281 336
#     4   9  19  36  57  80 106 138 175 218 271 325
#     4   9  18  32  48  68  99 136 168 202 249 301
#
# _framework density 19.819202000000001
#
# number of rings (size 3 to 8) (size 9 to 14) (size 15 to 20)
#    0.000    2.375    0.000    2.250    0.000    4.750 
#    0.000    6.250    0.000    1.500    0.000    0.000 
#    0.000    0.000    0.000    0.000    0.000    0.000 
#
# Total GULP energy -793390.713220 kJ/mol
# GULP energy per Si atom -12396.729894 kJ/mol
# Density = 1.977409 g / cm^3
# Si number density = 19.819202 Si / 1000 Ang^3
#
#
#
# Elastic Constant Matrix: (Units=GPa)
#
#
# Indices 1 2 3 4 5 6 
#
# 1 49.3891 25.7376 35.8259 0.0000 0.0000 0.0000
# 2 25.7376 67.2673 40.3857 0.0000 0.0000 0.0000
# 3 35.8259 40.3857 139.1978 0.0000 0.0000 0.0000
# 4 0.0000 0.0000 0.0000 28.7620 0.0000 0.0000
# 5 0.0000 0.0000 0.0000 0.0000 24.5618 0.0000
# 6 0.0000 0.0000 0.0000 0.0000 0.0000 19.5103
#
#
#
# Elastic Compliance Matrix: (Units=1/GPa)
#
#
# Indices 1 2 3 4 5 6 
#
# 1 0.027832 -0.007687 -0.004933 0.000000 0.000000 0.000000
# 2 -0.007687 0.020125 -0.003860 0.000000 0.000000 0.000000
# 3 -0.004933 -0.003860 0.009574 0.000000 0.000000 0.000000
# 4 0.000000 0.000000 0.000000 0.034768 0.000000 0.000000
# 5 0.000000 0.000000 0.000000 0.000000 0.040714 0.000000
# 6 0.000000 0.000000 0.000000 0.000000 0.000000 0.051255
#
#
# Mechanical properties :
#
#
# Convention : Reuss Voigt Hill
#
# Bulk Modulus (GPa) = 40.70129 51.08362 45.89246
# Shear Modulus (GPa) = 22.18106 24.82715 23.50411
#
# Velocity S-wave (km/s) = 3.34903 3.54316 3.44746
# Velocity P-wave (km/s) = 5.96117 6.52453 6.24920
#
# Compressibility (1/GPa) = 0.02456925
#
# Stress axis : x y z
#
# Youngs Moduli (GPa) = 35.93048 49.68933 104.45365
#
# Poissons Ratio (x) = 0.38198 0.51525
# Poissons Ratio (y) = 0.27621 0.40323
# Poissons Ratio (z) = 0.17724 0.19182
#
# Static dielectric constant tensor:
#      x y z
#    x 3.657700 0.000000 0.000000 
#    y 0.000000 3.691310 0.000000 
#    z 0.000000 0.000000 3.758670 
# 
# 
# High freq. dielectric constant tensor:
#      x y z
#    x 1.749450 0.000000 0.000000 
#    y 0.000000 1.771770 0.000000 
#    z 0.000000 0.000000 1.782180 
# 
# From -- ./inp_files/14991.got.cif
#   From: 2010.03.12/outbox.cif.g09.slc.cpg/sg59_8_cif.got.tgz:14991.got - 2010.04.16 16:29:54.
