data_PCOD8243018
_publ_section_title
;
Structure prediction by ZEFSAII (Michael W. Deem and Ramdas Pophale) SiO2 
 PCOD8243018
Probable space group: P M M N
;
_chemical_formula_sum "Si O2"
_cell_formula_units_Z 48
_cell_length_a 9.722697
_cell_length_b 8.519373
_cell_length_c 28.695286
_cell_angle_alpha 90.000000
_cell_angle_beta 90.000000
_cell_angle_gamma 90.000000
_cell_volume 2376.867336
_symmetry_space_group_name_H-M "P M M N"
_symmetry_group_IT_number 59
_space_group.IT_coordinate_system_code '2'
_symmetry_cell_setting 'orthorhombic'
loop_
_space_group_symop_operation_xyz
x,y,z
1/2-x,1/2-y,z
1/2+x,-y,-z
-x,1/2+y,-z
-x,-y,-z
1/2+x,1/2+y,-z
1/2-x,y,z
x,1/2-y,z
loop_
_atom_site_type_symbol
_atom_site_label
_atom_site_fract_x
_atom_site_fract_y
_atom_site_fract_z
Si Si1 0.750000 0.566473 0.961774
Si Si2 0.407600 0.936524 0.458428
Si Si3 0.402645 0.436539 0.624265
Si Si4 0.404153 0.428113 0.194312
Si Si5 0.514054 0.068202 0.900584
Si Si6 0.750000 0.070235 0.061475
Si Si7 0.089668 0.429286 0.728624
O O1 0.750000 0.750000 0.949340
O O2 0.882704 0.483643 0.940805
O O3 0.750000 0.543686 0.017034
O O4 0.250000 0.000184 0.460873
O O5 0.407216 0.750000 0.460245
O O6 0.480327 0.998321 0.411044
O O7 0.500000 0.000000 0.500000
O O8 0.250000 0.499729 0.609852
O O9 0.397065 0.250000 0.624033
O O10 0.439578 0.492931 0.676404
O O11 0.250000 0.453595 0.213262
O O12 0.426846 0.250000 0.177427
O O13 0.425274 0.541936 0.150594
O O14 0.507568 0.463110 0.235966
O O15 0.478594 0.250000 0.907156
O O16 0.378993 0.964070 0.905812
O O17 0.750000 0.250000 0.044767
O O18 0.250000 0.442528 0.740488
O O19 0.039714 0.250000 0.733772
#
# Coordination Sequence:
#
# PCOD8243018 Si02
#       7
#     4   8   8   8   8   4   8
#     4  12  24  44  68  94 128 162 200 246 299 358
#     4  10  20  33  52  80 112 149 195 243 294 351
#     4   8  15  31  54  79 109 146 187 236 291 348
#     4  11  24  41  60  84 118 157 196 239 294 353
#     4  12  25  43  66  93 122 159 205 250 297 354
#     4  12  26  44  66  94 126 162 200 246 301 356
#     4   9  19  36  60  88 115 145 188 239 292 352
#
# _framework density 20.194648999999998
#
# number of rings (size 3 to 8) (size 9 to 14) (size 15 to 20)
#    0.000    1.667    0.833    5.500    1.167    3.000 
#    0.000    2.500    0.000    1.000    0.000    0.000 
#    0.000    0.000    0.000    0.000    0.000    0.000 
#
# Total GULP energy -595301.715786 kJ/mol
# GULP energy per Si atom -12402.119079 kJ/mol
# Density = 2.014869 g / cm^3
# Si number density = 20.194649 Si / 1000 Ang^3
#
#
#
# Elastic Constant Matrix: (Units=GPa)
#
#
# Indices 1 2 3 4 5 6 
#
# 1 126.9929 29.6721 51.4373 0.0000 0.0000 0.0000
# 2 29.6721 63.8462 22.5420 0.0000 0.0000 0.0000
# 3 51.4373 22.5420 108.9304 0.0000 0.0000 0.0000
# 4 0.0000 0.0000 0.0000 30.1723 0.0000 0.0000
# 5 0.0000 0.0000 0.0000 0.0000 41.6451 0.0000
# 6 0.0000 0.0000 0.0000 0.0000 0.0000 27.6362
#
#
#
# Elastic Compliance Matrix: (Units=1/GPa)
#
#
# Indices 1 2 3 4 5 6 
#
# 1 0.010353 -0.003329 -0.004200 0.000000 0.000000 0.000000
# 2 -0.003329 0.017967 -0.002146 0.000000 0.000000 0.000000
# 3 -0.004200 -0.002146 0.011608 0.000000 0.000000 0.000000
# 4 0.000000 0.000000 0.000000 0.033143 0.000000 0.000000
# 5 0.000000 0.000000 0.000000 0.000000 0.024012 0.000000
# 6 0.000000 0.000000 0.000000 0.000000 0.000000 0.036184
#
#
# Mechanical properties :
#
#
# Convention : Reuss Voigt Hill
#
# Bulk Modulus (GPa) = 48.59517 56.34138 52.46827
# Shear Modulus (GPa) = 31.35225 32.96524 32.15875
#
# Velocity S-wave (km/s) = 3.94446 4.04465 3.99487
# Velocity P-wave (km/s) = 6.69781 7.05493 6.87868
#
# Compressibility (1/GPa) = 0.02057818
#
# Stress axis : x y z
#
# Youngs Moduli (GPa) = 96.58630 55.65610 86.15026
#
# Poissons Ratio (x) = 0.18527 0.36184
# Poissons Ratio (y) = 0.32152 0.18491
# Poissons Ratio (z) = 0.40567 0.11946
#
# Static dielectric constant tensor:
#      x y z
#    x 3.968680 0.000000 0.000000 
#    y 0.000000 3.455430 0.000000 
#    z 0.000000 0.000000 3.719780 
# 
# 
# High freq. dielectric constant tensor:
#      x y z
#    x 1.798990 0.000000 0.000000 
#    y 0.000000 1.771900 0.000000 
#    z 0.000000 0.000000 1.793020 
# 
# From -- ./inp_files/33092.got.cif
#   From: 2010.03.12/outbox.cif.g09.slc.cpg/sg59_17_cif.got.tgz:33092.got - 2010.04.16 16:29:54.
