data_PCOD8243197
_publ_section_title
;
Structure prediction by ZEFSAII (Michael W. Deem and Ramdas Pophale) SiO2 
 PCOD8243197
Probable space group: P M M N
;
_chemical_formula_sum "Si O2"
_cell_formula_units_Z 64
_cell_length_a 9.607888
_cell_length_b 28.749955
_cell_length_c 12.707943
_cell_angle_alpha 90.000000
_cell_angle_beta 90.000000
_cell_angle_gamma 90.000000
_cell_volume 3510.268681
_symmetry_space_group_name_H-M "P M M N"
_symmetry_group_IT_number 59
_space_group.IT_coordinate_system_code '2'
_symmetry_cell_setting 'orthorhombic'
loop_
_space_group_symop_operation_xyz
x,y,z
1/2-x,1/2-y,z
1/2+x,-y,-z
-x,1/2+y,-z
-x,-y,-z
1/2+x,1/2+y,-z
1/2-x,y,z
x,1/2-y,z
loop_
_atom_site_type_symbol
_atom_site_label
_atom_site_fract_x
_atom_site_fract_y
_atom_site_fract_z
Si Si1 0.414394 0.055057 0.326270
Si Si2 0.086593 0.197600 0.632660
Si Si3 0.086612 0.394056 0.532162
Si Si4 0.910852 0.958310 0.046117
Si Si5 0.598256 0.304776 0.824417
Si Si6 0.410249 0.115960 0.125023
Si Si7 0.587050 0.196956 0.059854
Si Si8 0.087079 0.463745 0.712359
O O1 0.250000 0.044598 0.334980
O O2 0.475236 0.083761 0.426020
O O3 0.450644 0.083581 0.222314
O O4 0.496737 0.007300 0.322932
O O5 0.250000 0.195874 0.654690
O O6 0.040026 0.250000 0.599476
O O7 0.042101 0.160436 0.543021
O O8 0.015793 0.179857 0.739993
O O9 0.250000 0.396745 0.520624
O O10 0.040111 0.421726 0.636590
O O11 0.750000 0.972217 0.031234
O O12 0.947817 0.949217 0.167981
O O13 0.945245 0.911490 0.982282
O O14 0.000000 0.000000 0.000000
O O15 0.750000 0.326959 0.797862
O O16 0.615633 0.250000 0.823022
O O17 0.549962 0.318902 0.941090
O O18 0.250000 0.130975 0.130016
O O19 0.501060 0.162693 0.134983
O O20 0.750000 0.191231 0.082283
O O21 0.540349 0.250000 0.081719
O O22 0.250000 0.475787 0.699418
#
# Coordination Sequence:
#
# PCOD8243197 Si02
#       8
#     8   8   8   8   8   8   8   8
#     4  10  20  37  55  73 102 138 174 217 262 306
#     4   9  17  30  50  75 101 132 170 208 250 304
#     4   9  19  34  53  76 103 134 171 215 260 302
#     4  10  20  34  52  77 108 138 170 210 258 313
#     4   8  15  29  47  68  98 132 162 199 250 298
#     4  10  21  34  52  78 107 138 172 215 262 308
#     4   9  19  35  53  75 105 141 178 214 255 309
#     4  10  20  34  54  77 104 137 171 214 261 306
#
# _framework density 18.232223000000001
#
# number of rings (size 3 to 8) (size 9 to 14) (size 15 to 20)
#    0.000    2.625    1.250    1.125    1.750    1.750 
#    0.000    3.125    0.000    2.250    0.000    1.750 
#    0.000    0.000    0.000    0.000    0.000    0.000 
#
# Total GULP energy -793347.431983 kJ/mol
# GULP energy per Si atom -12396.053625 kJ/mol
# Density = 1.819073 g / cm^3
# Si number density = 18.232223 Si / 1000 Ang^3
#
#
#
# Elastic Constant Matrix: (Units=GPa)
#
#
# Indices 1 2 3 4 5 6 
#
# 1 38.6452 40.8964 20.4277 0.0000 0.0000 0.0000
# 2 40.8964 117.3275 48.8474 0.0000 0.0000 0.0000
# 3 20.4277 48.8474 95.6290 0.0000 0.0000 0.0000
# 4 0.0000 0.0000 0.0000 20.4339 0.0000 0.0000
# 5 0.0000 0.0000 0.0000 0.0000 18.7750 0.0000
# 6 0.0000 0.0000 0.0000 0.0000 0.0000 29.7846
#
#
#
# Elastic Compliance Matrix: (Units=1/GPa)
#
#
# Indices 1 2 3 4 5 6 
#
# 1 0.041260 -0.013606 -0.001864 0.000000 0.000000 0.000000
# 2 -0.013606 0.015312 -0.004915 0.000000 0.000000 0.000000
# 3 -0.001864 -0.004915 0.013366 0.000000 0.000000 0.000000
# 4 0.000000 0.000000 0.000000 0.048938 0.000000 0.000000
# 5 0.000000 0.000000 0.000000 0.000000 0.053262 0.000000
# 6 0.000000 0.000000 0.000000 0.000000 0.000000 0.033574
#
#
# Mechanical properties :
#
#
# Convention : Reuss Voigt Hill
#
# Bulk Modulus (GPa) = 34.28353 52.43831 43.36092
# Shear Modulus (GPa) = 19.51560 23.22738 21.37149
#
# Velocity S-wave (km/s) = 3.27523 3.57315 3.42743
# Velocity P-wave (km/s) = 5.75739 6.77104 6.28468
#
# Compressibility (1/GPa) = 0.02916852
#
# Stress axis : x y z
#
# Youngs Moduli (GPa) = 24.23641 65.30827 74.81793
#
# Poissons Ratio (x) = 0.88858 0.13945
# Poissons Ratio (y) = 0.32976 0.36773
# Poissons Ratio (z) = 0.04517 0.32099
#
# Static dielectric constant tensor:
#      x y z
#    x 3.365190 0.000000 0.000000 
#    y 0.000000 3.357880 0.000000 
#    z 0.000000 0.000000 3.553790 
# 
# 
# High freq. dielectric constant tensor:
#      x y z
#    x 1.690660 0.000000 0.000000 
#    y 0.000000 1.705770 0.000000 
#    z 0.000000 0.000000 1.699570 
# 
# From -- ./inp_files/15069.got.cif
#   From: 2010.03.12/outbox.cif.g09.slc.cpg/sg59_8_cif.got.tgz:15069.got - 2010.04.16 16:29:54.
