data_PCOD8243761
_publ_section_title
;
Structure prediction by ZEFSAII (Michael W. Deem and Ramdas Pophale) SiO2 
 PCOD8243761
Probable space group: P M M N
;
_chemical_formula_sum "Si O2"
_cell_formula_units_Z 64
_cell_length_a 30.182734
_cell_length_b 9.788168
_cell_length_c 11.899432
_cell_angle_alpha 90.000000
_cell_angle_beta 90.000000
_cell_angle_gamma 90.000000
_cell_volume 3515.492880
_symmetry_space_group_name_H-M "P M M N"
_symmetry_group_IT_number 59
_space_group.IT_coordinate_system_code '2'
_symmetry_cell_setting 'orthorhombic'
loop_
_space_group_symop_operation_xyz
x,y,z
1/2-x,1/2-y,z
1/2+x,-y,-z
-x,1/2+y,-z
-x,-y,-z
1/2+x,1/2+y,-z
1/2-x,y,z
x,1/2-y,z
loop_
_atom_site_type_symbol
_atom_site_label
_atom_site_fract_x
_atom_site_fract_y
_atom_site_fract_z
Si Si1 0.059589 0.596445 0.526251
Si Si2 0.198371 0.086613 0.007161
Si Si3 0.872705 0.092131 0.866635
Si Si4 0.972748 0.409977 0.913028
Si Si5 0.508223 0.592949 0.330897
Si Si6 0.355538 0.597502 0.387121
Si Si7 0.197961 0.097096 0.521903
Si Si8 0.302272 0.400236 0.763278
O O1 0.049656 0.750000 0.566612
O O2 0.050495 0.497378 0.631980
O O3 0.109649 0.578349 0.487357
O O4 0.030549 0.559038 0.417862
O O5 0.250000 0.051978 0.033521
O O6 0.190969 0.250000 0.017236
O O7 0.166410 0.006142 0.091265
O O8 0.183949 0.030911 0.882058
O O9 0.860694 0.250000 0.892946
O O10 0.920366 0.054535 0.920318
O O11 0.877251 0.067802 0.733302
O O12 0.980186 0.250000 0.938130
O O13 0.991412 0.449478 0.791255
O O14 0.000000 0.500000 0.000000
O O15 0.522753 0.750000 0.334257
O O16 0.335726 0.750000 0.388375
O O17 0.316853 0.492221 0.415917
O O18 0.250000 0.106311 0.514941
O O19 0.178025 0.250000 0.511141
O O20 0.184094 0.029204 0.644206
O O21 0.250000 0.384834 0.768616
O O22 0.323675 0.250000 0.760440
#
# Coordination Sequence:
#
# PCOD8243761 Si02
#       8
#     8   8   8   8   8   8   8   8
#     4   9  17  32  54  77 101 131 168 211 257 308
#     4   9  18  34  57  83 109 140 182 228 267 309
#     4  10  21  38  56  75 107 147 182 218 266 324
#     4  10  21  39  59  78 106 144 182 222 269 321
#     4   9  17  33  56  78 100 130 170 213 258 307
#     4  10  20  35  53  73 104 143 176 211 261 318
#     4   9  18  33  53  77 105 138 175 215 260 310
#     4   7  12  28  52  72  95 130 167 207 259 309
#
# _framework density 18.20513
#
# number of rings (size 3 to 8) (size 9 to 14) (size 15 to 20)
#    0.000    2.875    1.250    1.500    0.000    3.000 
#    2.250    3.125    0.000    2.250    0.000    0.000 
#    0.000    0.000    0.000    0.000    0.000    0.000 
#
# Total GULP energy -792880.940029 kJ/mol
# GULP energy per Si atom -12388.764688 kJ/mol
# Density = 1.816369 g / cm^3
# Si number density = 18.205130 Si / 1000 Ang^3
#
#
#
# Elastic Constant Matrix: (Units=GPa)
#
#
# Indices 1 2 3 4 5 6 
#
# 1 64.5427 47.0796 47.7017 0.0000 0.0000 0.0000
# 2 47.0796 77.1667 56.0362 0.0000 0.0000 0.0000
# 3 47.7017 56.0362 84.5236 0.0000 0.0000 0.0000
# 4 0.0000 0.0000 0.0000 31.1890 0.0000 0.0000
# 5 0.0000 0.0000 0.0000 0.0000 29.1273 0.0000
# 6 0.0000 0.0000 0.0000 0.0000 0.0000 29.8385
#
#
#
# Elastic Compliance Matrix: (Units=1/GPa)
#
#
# Indices 1 2 3 4 5 6 
#
# 1 0.031593 -0.012202 -0.009740 0.000000 0.000000 0.000000
# 2 -0.012202 0.029702 -0.012805 0.000000 0.000000 0.000000
# 3 -0.009740 -0.012805 0.025818 0.000000 0.000000 0.000000
# 4 0.000000 0.000000 0.000000 0.032063 0.000000 0.000000
# 5 0.000000 0.000000 0.000000 0.000000 0.034332 0.000000
# 6 0.000000 0.000000 0.000000 0.000000 0.000000 0.033514
#
#
# Mechanical properties :
#
#
# Convention : Reuss Voigt Hill
#
# Bulk Modulus (GPa) = 56.76119 58.65202 57.70660
# Shear Modulus (GPa) = 19.05576 23.05867 21.05721
#
# Velocity S-wave (km/s) = 3.23882 3.56280 3.40467
# Velocity P-wave (km/s) = 6.72555 7.01512 6.87186
#
# Compressibility (1/GPa) = 0.01761767
#
# Stress axis : x y z
#
# Youngs Moduli (GPa) = 31.65289 33.66778 38.73321
#
# Poissons Ratio (x) = 0.41080 0.37728
# Poissons Ratio (y) = 0.38621 0.49599
# Poissons Ratio (z) = 0.30831 0.43113
#
# Static dielectric constant tensor:
#      x y z
#    x 3.176690 0.000000 0.000000 
#    y 0.000000 3.267180 0.000000 
#    z 0.000000 0.000000 3.629990 
# 
# 
# High freq. dielectric constant tensor:
#      x y z
#    x 1.688710 0.000000 0.000000 
#    y 0.000000 1.686700 0.000000 
#    z 0.000000 0.000000 1.710270 
# 
# From -- ./inp_files/19303.got.cif
#   From: 2010.03.12/outbox.cif.g09.slc.cpg/sg59_10_cif.got.tgz:19303.got - 2010.04.16 16:29:54.
