data_PCOD8243065
_publ_section_title
;
Structure prediction by ZEFSAII (Michael W. Deem and Ramdas Pophale) SiO2 
 PCOD8243065
Probable space group: P M M N
;
_chemical_formula_sum "Si O2"
_cell_formula_units_Z 64
_cell_length_a 8.914965
_cell_length_b 27.844817
_cell_length_c 13.881007
_cell_angle_alpha 90.000000
_cell_angle_beta 90.000000
_cell_angle_gamma 90.000000
_cell_volume 3445.759671
_symmetry_space_group_name_H-M "P M M N"
_symmetry_group_IT_number 59
_space_group.IT_coordinate_system_code '2'
_symmetry_cell_setting 'orthorhombic'
loop_
_space_group_symop_operation_xyz
x,y,z
1/2-x,1/2-y,z
1/2+x,-y,-z
-x,1/2+y,-z
-x,-y,-z
1/2+x,1/2+y,-z
1/2-x,y,z
x,1/2-y,z
loop_
_atom_site_type_symbol
_atom_site_label
_atom_site_fract_x
_atom_site_fract_y
_atom_site_fract_z
Si Si1 0.424099 0.888293 0.323081
Si Si2 0.582586 0.193068 0.378895
Si Si3 0.424965 0.195910 0.186924
Si Si4 0.924632 0.605215 0.925526
Si Si5 0.927466 0.976037 0.784103
Si Si6 0.574469 0.694200 0.428806
Si Si7 0.420128 0.573605 0.117181
Si Si8 0.570966 0.983073 0.400341
O O1 0.250000 0.893623 0.351802
O O2 0.486570 0.835878 0.348747
O O3 0.445332 0.892137 0.208639
O O4 0.516773 0.929067 0.378804
O O5 0.750000 0.171765 0.389812
O O6 0.586532 0.250000 0.377471
O O7 0.510626 0.175119 0.279657
O O8 0.480706 0.175434 0.467176
O O9 0.250000 0.194855 0.212444
O O10 0.476167 0.250000 0.159190
O O11 0.463803 0.160654 0.098480
O O12 0.750000 0.595859 0.930028
O O13 0.986035 0.571262 0.839594
O O14 0.984115 0.593106 0.029825
O O15 0.750000 0.976080 0.760813
O O16 0.969508 0.020042 0.854359
O O17 0.015547 0.980841 0.683593
O O18 0.750000 0.684657 0.420382
O O19 0.534690 0.750000 0.412888
O O20 0.250000 0.574128 0.082006
O O21 0.750000 0.984215 0.406889
O O22 0.500000 0.000000 0.500000
#
# Coordination Sequence:
#
# PCOD8243065 Si02
#       8
#     8   8   8   8   8   8   8   8
#     4  10  21  38  57  78 107 143 180 221 270 318
#     4   9  17  30  49  72  99 134 173 214 260 306
#     4   9  18  33  50  71 103 139 173 212 259 310
#     4  10  20  33  54  79 102 133 173 217 263 314
#     4   9  19  36  54  77 107 136 172 218 265 314
#     4  10  20  34  54  81 110 142 182 224 265 315
#     4   9  19  35  54  75 102 133 167 216 272 320
#     4  11  22  37  57  81 111 146 179 215 264 322
#
# _framework density 18.573553
#
# number of rings (size 3 to 8) (size 9 to 14) (size 15 to 20)
#    0.000    2.375    0.000    3.375    0.000    6.750 
#    0.000    4.375    0.000    2.250    0.000    0.000 
#    0.000    0.000    0.000    0.000    0.000    0.000 
#
# Total GULP energy -793582.868916 kJ/mol
# GULP energy per Si atom -12399.732327 kJ/mol
# Density = 1.853128 g / cm^3
# Si number density = 18.573553 Si / 1000 Ang^3
#
#
#
# Elastic Constant Matrix: (Units=GPa)
#
#
# Indices 1 2 3 4 5 6 
#
# 1 87.4519 44.6754 55.1098 0.0000 0.0000 0.0000
# 2 44.6754 90.7833 66.1197 0.0000 0.0000 0.0000
# 3 55.1098 66.1197 121.7150 0.0000 0.0000 0.0000
# 4 0.0000 0.0000 0.0000 25.5453 0.0000 0.0000
# 5 0.0000 0.0000 0.0000 0.0000 38.4992 0.0000
# 6 0.0000 0.0000 0.0000 0.0000 0.0000 25.9040
#
#
#
# Elastic Compliance Matrix: (Units=1/GPa)
#
#
# Indices 1 2 3 4 5 6 
#
# 1 0.017082 -0.004589 -0.005242 0.000000 0.000000 0.000000
# 2 -0.004589 0.019459 -0.008493 0.000000 0.000000 0.000000
# 3 -0.005242 -0.008493 0.015203 0.000000 0.000000 0.000000
# 4 0.000000 0.000000 0.000000 0.039146 0.000000 0.000000
# 5 0.000000 0.000000 0.000000 0.000000 0.025975 0.000000
# 6 0.000000 0.000000 0.000000 0.000000 0.000000 0.038604
#
#
# Mechanical properties :
#
#
# Convention : Reuss Voigt Hill
#
# Bulk Modulus (GPa) = 66.23739 70.19555 68.21647
# Shear Modulus (GPa) = 25.36153 26.92605 26.14379
#
# Velocity S-wave (km/s) = 3.69923 3.81162 3.75584
# Velocity P-wave (km/s) = 7.34747 7.56615 7.45761
#
# Compressibility (1/GPa) = 0.01509721
#
# Stress axis : x y z
#
# Youngs Moduli (GPa) = 58.54052 51.38949 65.77610
#
# Poissons Ratio (x) = 0.23581 0.34478
# Poissons Ratio (y) = 0.26862 0.55866
# Poissons Ratio (z) = 0.30685 0.43647
#
# Static dielectric constant tensor:
#      x y z
#    x 3.473720 0.000000 0.000000 
#    y 0.000000 3.464230 0.000000 
#    z 0.000000 0.000000 3.387280 
# 
# 
# High freq. dielectric constant tensor:
#      x y z
#    x 1.723240 0.000000 0.000000 
#    y 0.000000 1.712920 0.000000 
#    z 0.000000 0.000000 1.717220 
# 
# From -- ./inp_files/15085.got.cif
#   From: 2010.03.12/outbox.cif.g09.slc.cpg/sg59_8_cif.got.tgz:15085.got - 2010.04.16 16:29:54.
