data_PCOD8243272
_publ_section_title
;
Structure prediction by ZEFSAII (Michael W. Deem and Ramdas Pophale) SiO2 
 PCOD8243272
Probable space group: P M M N
;
_chemical_formula_sum "Si O2"
_cell_formula_units_Z 48
_cell_length_a 8.792060
_cell_length_b 14.155130
_cell_length_c 21.153784
_cell_angle_alpha 90.000000
_cell_angle_beta 90.000000
_cell_angle_gamma 90.000000
_cell_volume 2632.646640
_symmetry_space_group_name_H-M "P M M N"
_symmetry_group_IT_number 59
_space_group.IT_coordinate_system_code '2'
_symmetry_cell_setting 'orthorhombic'
loop_
_space_group_symop_operation_xyz
x,y,z
1/2-x,1/2-y,z
1/2+x,-y,-z
-x,1/2+y,-z
-x,-y,-z
1/2+x,1/2+y,-z
1/2-x,y,z
x,1/2-y,z
loop_
_atom_site_type_symbol
_atom_site_label
_atom_site_fract_x
_atom_site_fract_y
_atom_site_fract_z
Si Si1 0.074082 0.009318 0.899725
Si Si2 0.070974 0.990730 0.234869
Si Si3 0.427730 0.140114 0.666286
Si Si4 0.070434 0.354229 0.331187
Si Si5 0.070110 0.504672 0.431378
Si Si6 0.925879 0.141605 0.995972
O O1 0.250000 0.017142 0.881033
O O2 0.039004 0.915406 0.940030
O O3 0.973005 0.002896 0.837736
O O4 0.027723 0.102052 0.939058
O O5 0.250000 0.974912 0.242144
O O6 0.988154 0.902997 0.268099
O O7 0.019108 0.087811 0.269088
O O8 0.250000 0.119722 0.660186
O O9 0.465746 0.250000 0.667347
O O10 0.510891 0.096261 0.605592
O O11 0.250000 0.343714 0.331575
O O12 0.994254 0.250000 0.330429
O O13 0.018027 0.410675 0.393653
O O14 0.250000 0.511563 0.436392
O O15 0.000000 0.500000 0.500000
O O16 0.750000 0.129950 0.976740
O O17 0.970133 0.250000 0.008075
#
# Coordination Sequence:
#
# PCOD8243272 Si02
#       6
#     8   8   8   8   8   8
#     4  10  20  34  53  77 105 135 169 211 257 307
#     4  10  20  34  54  78 104 136 171 211 260 312
#     4  10  21  37  56  77 103 137 177 221 266 310
#     4   8  16  32  52  74 100 131 169 210 251 299
#     4  10  20  34  54  79 108 141 175 214 260 310
#     4   9  19  36  55  75 102 136 173 213 256 302
#
# _framework density 18.232603999999998
#
# number of rings (size 3 to 8) (size 9 to 14) (size 15 to 20)
#    0.000    2.500    0.000    3.000    0.000    4.333 
#    0.000    1.667    0.000   17.000    0.000    0.000 
#    0.000    0.000    0.000    0.000    0.000    0.000 
#
# Total GULP energy -595251.969988 kJ/mol
# GULP energy per Si atom -12401.082708 kJ/mol
# Density = 1.819111 g / cm^3
# Si number density = 18.232604 Si / 1000 Ang^3
#
#
#
# Elastic Constant Matrix: (Units=GPa)
#
#
# Indices 1 2 3 4 5 6 
#
# 1 58.5752 48.3181 34.3638 0.0000 0.0000 0.0000
# 2 48.3181 151.2761 64.4786 0.0000 0.0000 0.0000
# 3 34.3638 64.4786 130.3423 0.0000 0.0000 0.0000
# 4 0.0000 0.0000 0.0000 13.0086 0.0000 0.0000
# 5 0.0000 0.0000 0.0000 0.0000 34.7167 0.0000
# 6 0.0000 0.0000 0.0000 0.0000 0.0000 24.9253
#
#
#
# Elastic Compliance Matrix: (Units=1/GPa)
#
#
# Indices 1 2 3 4 5 6 
#
# 1 0.024214 -0.006352 -0.003241 0.000000 0.000000 0.000000
# 2 -0.006352 0.010043 -0.003293 0.000000 0.000000 0.000000
# 3 -0.003241 -0.003293 0.010156 0.000000 0.000000 0.000000
# 4 0.000000 0.000000 0.000000 0.076872 0.000000 0.000000
# 5 0.000000 0.000000 0.000000 0.000000 0.028805 0.000000
# 6 0.000000 0.000000 0.000000 0.000000 0.000000 0.040120
#
#
# Mechanical properties :
#
#
# Convention : Reuss Voigt Hill
#
# Bulk Modulus (GPa) = 53.65265 70.50160 62.07712
# Shear Modulus (GPa) = 22.50262 27.39900 24.95081
#
# Velocity S-wave (km/s) = 3.51693 3.88073 3.70330
# Velocity P-wave (km/s) = 6.78103 7.67020 7.23928
#
# Compressibility (1/GPa) = 0.01863841
#
# Stress axis : x y z
#
# Youngs Moduli (GPa) = 41.29904 99.57009 98.46498
#
# Poissons Ratio (x) = 0.63251 0.31916
# Poissons Ratio (y) = 0.26235 0.32429
# Poissons Ratio (z) = 0.13386 0.32793
#
# Static dielectric constant tensor:
#      x y z
#    x 3.317490 0.000000 0.000000 
#    y 0.000000 3.594480 0.000000 
#    z 0.000000 0.000000 3.331110 
# 
# 
# High freq. dielectric constant tensor:
#      x y z
#    x 1.703730 0.000000 0.000000 
#    y 0.000000 1.710170 0.000000 
#    z 0.000000 0.000000 1.708750 
# 
# From -- ./inp_files/28835.got.cif
#   From: 2010.03.12/outbox.cif.g09.slc.cpg/sg59_15_cif.got.tgz:28835.got - 2010.04.16 16:29:54.
