data_PCOD8243518
_publ_section_title
;
Structure prediction by ZEFSAII (Michael W. Deem and Ramdas Pophale) SiO2 
 PCOD8243518
Probable space group: P M M N
;
_chemical_formula_sum "Si O2"
_cell_formula_units_Z 56
_cell_length_a 9.051964
_cell_length_b 14.273660
_cell_length_c 23.565414
_cell_angle_alpha 90.000000
_cell_angle_beta 90.000000
_cell_angle_gamma 90.000000
_cell_volume 3044.761220
_symmetry_space_group_name_H-M "P M M N"
_symmetry_group_IT_number 59
_space_group.IT_coordinate_system_code '2'
_symmetry_cell_setting 'orthorhombic'
loop_
_space_group_symop_operation_xyz
x,y,z
1/2-x,1/2-y,z
1/2+x,-y,-z
-x,1/2+y,-z
-x,-y,-z
1/2+x,1/2+y,-z
1/2-x,y,z
x,1/2-y,z
loop_
_atom_site_type_symbol
_atom_site_label
_atom_site_fract_x
_atom_site_fract_y
_atom_site_fract_z
Si Si1 0.578294 0.993087 0.764265
Si Si2 0.922255 0.358044 0.153422
Si Si3 0.422791 0.492129 0.940143
Si Si4 0.420299 0.857443 0.141006
Si Si5 0.925710 0.646501 0.445022
Si Si6 0.575293 0.497008 0.354539
Si Si7 0.584198 0.639682 0.570494
O O1 0.750000 0.974723 0.753350
O O2 0.549508 0.085364 0.801636
O O3 0.512731 0.900600 0.794098
O O4 0.497185 0.013124 0.705886
O O5 0.750000 0.367658 0.168100
O O6 0.968205 0.250000 0.144314
O O7 0.961294 0.415094 0.096308
O O8 0.250000 0.481269 0.949767
O O9 0.480966 0.399010 0.909284
O O10 0.500000 0.500000 0.000000
O O11 0.250000 0.866227 0.122514
O O12 0.465903 0.750000 0.151658
O O13 0.750000 0.649873 0.445033
O O14 0.989224 0.750000 0.431875
O O15 0.985340 0.577344 0.396790
O O16 0.976612 0.612726 0.507701
O O17 0.750000 0.499008 0.347399
O O18 0.525144 0.399090 0.381568
O O19 0.750000 0.599871 0.579679
O O20 0.586088 0.750000 0.577264
#
# Coordination Sequence:
#
# PCOD8243518 Si02
#       7
#     8   8   8   8   8   8   8
#     4  10  21  36  53  75 103 134 171 214 257 306
#     4   9  19  37  58  77 101 136 175 215 258 299
#     4  10  20  34  54  83 115 143 174 212 254 303
#     4   9  19  37  58  77 102 139 178 217 262 305
#     4   8  16  32  52  74 100 130 165 205 252 306
#     4  11  21  32  51  77 103 132 166 208 256 304
#     4   9  18  34  54  73  97 131 168 207 253 305
#
# _framework density 18.392247000000001
#
# number of rings (size 3 to 8) (size 9 to 14) (size 15 to 20)
#    0.000    2.571    0.000    2.571    0.000    3.714 
#    0.000    2.143    0.000    3.000    0.000    0.000 
#    0.000    0.000    0.000    0.000    0.000    0.000 
#
# Total GULP energy -694431.694490 kJ/mol
# GULP energy per Si atom -12400.565973 kJ/mol
# Density = 1.835039 g / cm^3
# Si number density = 18.392247 Si / 1000 Ang^3
#
#
#
# Elastic Constant Matrix: (Units=GPa)
#
#
# Indices 1 2 3 4 5 6 
#
# 1 76.3982 44.3793 61.6086 0.0000 0.0000 0.0000
# 2 44.3793 114.1709 55.9387 0.0000 0.0000 0.0000
# 3 61.6086 55.9387 137.0326 0.0000 0.0000 0.0000
# 4 0.0000 0.0000 0.0000 14.4749 0.0000 0.0000
# 5 0.0000 0.0000 0.0000 0.0000 30.7072 0.0000
# 6 0.0000 0.0000 0.0000 0.0000 0.0000 25.7578
#
#
#
# Elastic Compliance Matrix: (Units=1/GPa)
#
#
# Indices 1 2 3 4 5 6 
#
# 1 0.022396 -0.004715 -0.008144 0.000000 0.000000 0.000000
# 2 -0.004715 0.011941 -0.002755 0.000000 0.000000 0.000000
# 3 -0.008144 -0.002755 0.012084 0.000000 0.000000 0.000000
# 4 0.000000 0.000000 0.000000 0.069085 0.000000 0.000000
# 5 0.000000 0.000000 0.000000 0.000000 0.032566 0.000000
# 6 0.000000 0.000000 0.000000 0.000000 0.000000 0.038823
#
#
# Mechanical properties :
#
#
# Convention : Reuss Voigt Hill
#
# Bulk Modulus (GPa) = 65.82131 72.38387 69.10259
# Shear Modulus (GPa) = 22.40270 25.23298 23.81784
#
# Velocity S-wave (km/s) = 3.49385 3.70798 3.60251
# Velocity P-wave (km/s) = 7.22088 7.60087 7.41331
#
# Compressibility (1/GPa) = 0.01519265
#
# Stress axis : x y z
#
# Youngs Moduli (GPa) = 44.65091 83.74274 82.75683
#
# Poissons Ratio (x) = 0.39487 0.67399
# Poissons Ratio (y) = 0.21054 0.22797
# Poissons Ratio (z) = 0.36365 0.23069
#
# Static dielectric constant tensor:
#      x y z
#    x 3.337930 0.000000 0.000000 
#    y 0.000000 3.509250 0.000000 
#    z 0.000000 0.000000 3.433850 
# 
# 
# High freq. dielectric constant tensor:
#      x y z
#    x 1.705360 0.000000 0.000000 
#    y 0.000000 1.715340 0.000000 
#    z 0.000000 0.000000 1.715210 
# 
# From -- ./inp_files/29007.got.cif
#   From: 2010.03.12/outbox.cif.g09.slc.cpg/sg59_15_cif.got.tgz:29007.got - 2010.04.16 16:29:54.
