data_PCOD8243213
_publ_section_title
;
Structure prediction by ZEFSAII (Michael W. Deem and Ramdas Pophale) SiO2 
 PCOD8243213
Probable space group: P M M N
;
_chemical_formula_sum "Si O2"
_cell_formula_units_Z 56
_cell_length_a 16.531964
_cell_length_b 8.959482
_cell_length_c 20.463047
_cell_angle_alpha 90.000000
_cell_angle_beta 90.000000
_cell_angle_gamma 90.000000
_cell_volume 3030.942196
_symmetry_space_group_name_H-M "P M M N"
_symmetry_group_IT_number 59
_space_group.IT_coordinate_system_code '2'
_symmetry_cell_setting 'orthorhombic'
loop_
_space_group_symop_operation_xyz
x,y,z
1/2-x,1/2-y,z
1/2+x,-y,-z
-x,1/2+y,-z
-x,-y,-z
1/2+x,1/2+y,-z
1/2-x,y,z
x,1/2-y,z
loop_
_atom_site_type_symbol
_atom_site_label
_atom_site_fract_x
_atom_site_fract_y
_atom_site_fract_z
Si Si1 0.840994 0.423541 0.843843
Si Si2 0.934626 0.919775 0.586607
Si Si3 0.750000 0.572576 0.232976
Si Si4 0.435279 0.425657 0.266525
Si Si5 0.384514 0.581467 0.535717
Si Si6 0.250000 0.425222 0.616868
Si Si7 0.491310 0.926850 0.069957
Si Si8 0.588001 0.072788 0.182567
O O1 0.750000 0.470052 0.864603
O O2 0.846938 0.250000 0.828231
O O3 0.864281 0.505890 0.777027
O O4 0.902016 0.466424 0.902303
O O5 0.903358 0.750000 0.583847
O O6 0.926949 0.986261 0.659605
O O7 0.026779 0.928830 0.564826
O O8 0.880065 0.017176 0.537811
O O9 0.750000 0.750000 0.223832
O O10 0.750000 0.524053 0.308256
O O11 0.827681 0.502303 0.199170
O O12 0.424767 0.250000 0.265282
O O13 0.523421 0.469826 0.238767
O O14 0.352427 0.750000 0.533455
O O15 0.329781 0.486421 0.583395
O O16 0.250000 0.250000 0.609775
O O17 0.505624 0.750000 0.066447
O O18 0.559159 0.002474 0.114634
O O19 0.500000 0.000000 0.000000
O O20 0.598105 0.250000 0.174991
#
# Coordination Sequence:
#
# PCOD8243213 Si02
#       8
#     8   8   4   8   8   4   8   8
#     4   9  19  36  56  80 109 142 181 226 270 319
#     4   9  18  34  53  75 103 137 176 222 274 327
#     4  11  23  37  55  83 115 146 185 230 277 331
#     4   9  18  33  55  80 106 140 181 223 274 330
#     4  10  20  34  53  75 101 135 181 227 268 327
#     4  11  23  37  53  75 107 144 177 222 283 335
#     4  10  20  37  60  84 115 151 188 228 274 327
#     4  10  20  36  58  84 114 148 186 228 275 328
#
# _framework density 18.476102999999998
#
# number of rings (size 3 to 8) (size 9 to 14) (size 15 to 20)
#    0.000    2.286    0.000    2.571    0.000    4.857 
#    2.571    0.000    0.000    0.000    0.000    0.000 
#    0.000    0.000    0.000    0.000    0.000    0.000 
#
# Total GULP energy -694484.142401 kJ/mol
# GULP energy per Si atom -12401.502543 kJ/mol
# Density = 1.843405 g / cm^3
# Si number density = 18.476103 Si / 1000 Ang^3
#
#
#
# Elastic Constant Matrix: (Units=GPa)
#
#
# Indices 1 2 3 4 5 6 
#
# 1 108.1298 42.8022 63.9544 0.0000 0.0000 0.0000
# 2 42.8022 65.6167 60.7983 0.0000 0.0000 0.0000
# 3 63.9544 60.7983 172.0534 0.0000 0.0000 0.0000
# 4 0.0000 0.0000 0.0000 31.7162 0.0000 0.0000
# 5 0.0000 0.0000 0.0000 0.0000 13.7506 0.0000
# 6 0.0000 0.0000 0.0000 0.0000 0.0000 31.4711
#
#
#
# Elastic Compliance Matrix: (Units=1/GPa)
#
#
# Indices 1 2 3 4 5 6 
#
# 1 0.013314 -0.006095 -0.002795 0.000000 0.000000 0.000000
# 2 -0.006095 0.025449 -0.006727 0.000000 0.000000 0.000000
# 3 -0.002795 -0.006727 0.009228 0.000000 0.000000 0.000000
# 4 0.000000 0.000000 0.000000 0.031530 0.000000 0.000000
# 5 0.000000 0.000000 0.000000 0.000000 0.072724 0.000000
# 6 0.000000 0.000000 0.000000 0.000000 0.000000 0.031775
#
#
# Mechanical properties :
#
#
# Convention : Reuss Voigt Hill
#
# Bulk Modulus (GPa) = 59.67804 75.65662 67.66733
# Shear Modulus (GPa) = 22.64072 27.27058 24.95565
#
# Velocity S-wave (km/s) = 3.50438 3.84603 3.67917
# Velocity P-wave (km/s) = 6.98172 7.79486 7.39947
#
# Compressibility (1/GPa) = 0.01675658
#
# Stress axis : x y z
#
# Youngs Moduli (GPa) = 75.10887 39.29417 108.36078
#
# Poissons Ratio (x) = 0.23949 0.30290
# Poissons Ratio (y) = 0.45777 0.72898
# Poissons Ratio (z) = 0.20995 0.26435
#
# Static dielectric constant tensor:
#      x y z
#    x 3.366290 0.000000 0.000000 
#    y 0.000000 3.507960 0.000000 
#    z 0.000000 0.000000 3.615030 
# 
# 
# High freq. dielectric constant tensor:
#      x y z
#    x 1.711960 0.000000 0.000000 
#    y 0.000000 1.723240 0.000000 
#    z 0.000000 0.000000 1.721230 
# 
# From -- ./inp_files/30421.got.cif
#   From: 2010.03.12/outbox.cif.g09.slc.cpg/sg59_16_cif.got.tgz:30421.got - 2010.04.16 16:29:54.
