data_PCOD8243262
_publ_section_title
;
Structure prediction by ZEFSAII (Michael W. Deem and Ramdas Pophale) SiO2 
 PCOD8243262
Probable space group: P M M N
;
_chemical_formula_sum "Si O2"
_cell_formula_units_Z 48
_cell_length_a 9.119031
_cell_length_b 9.444619
_cell_length_c 31.052503
_cell_angle_alpha 90.000000
_cell_angle_beta 90.000000
_cell_angle_gamma 90.000000
_cell_volume 2674.420838
_symmetry_space_group_name_H-M "P M M N"
_symmetry_group_IT_number 59
_space_group.IT_coordinate_system_code '2'
_symmetry_cell_setting 'orthorhombic'
loop_
_space_group_symop_operation_xyz
x,y,z
1/2-x,1/2-y,z
1/2+x,-y,-z
-x,1/2+y,-z
-x,-y,-z
1/2+x,1/2+y,-z
1/2-x,y,z
x,1/2-y,z
loop_
_atom_site_type_symbol
_atom_site_label
_atom_site_fract_x
_atom_site_fract_y
_atom_site_fract_z
Si Si1 0.584806 0.418049 0.877056
Si Si2 0.075365 0.909457 0.710184
Si Si3 0.421174 0.083522 0.962349
Si Si4 0.417970 0.415004 0.536196
Si Si5 0.575046 0.908059 0.368471
Si Si6 0.421326 0.085491 0.792209
O O1 0.750000 0.478795 0.879979
O O2 0.586508 0.250000 0.876449
O O3 0.491406 0.471067 0.917772
O O4 0.508137 0.472988 0.833593
O O5 0.250000 0.909850 0.708835
O O6 0.013652 0.750000 0.712505
O O7 0.012502 0.983509 0.667058
O O8 0.020862 0.996576 0.751574
O O9 0.250000 0.046229 0.961862
O O10 0.447931 0.250000 0.969040
O O11 0.500000 0.000000 0.000000
O O12 0.500000 0.500000 0.500000
O O13 0.250000 0.460000 0.533533
O O14 0.439173 0.250000 0.527261
O O15 0.479853 0.453354 0.583881
O O16 0.750000 0.906876 0.368315
O O17 0.518545 0.750000 0.357299
O O18 0.250000 0.061012 0.800892
O O19 0.454321 0.250000 0.783048
#
# Coordination Sequence:
#
# PCOD8243262 Si02
#       6
#     8   8   8   8   8   8
#     4   9  17  30  49  71  94 123 161 201 236 275
#     4   9  16  25  40  65  93 117 145 185 232 279
#     4  10  20  34  53  77 104 133 166 204 246 292
#     4   9  18  31  47  69  96 125 159 199 242 289
#     4   8  14  26  43  63  89 120 153 190 231 276
#     4   9  16  27  45  67  89 115 148 186 229 276
#
# _framework density 17.947811999999999
#
# number of rings (size 3 to 8) (size 9 to 14) (size 15 to 20)
#    0.000    3.000    0.000    2.500    0.000    6.000 
#    0.000    2.500    0.000    4.500    0.000    2.333 
#    0.000    0.000    0.000    0.000    0.000    0.000 
#
# Total GULP energy -595060.602668 kJ/mol
# GULP energy per Si atom -12397.095889 kJ/mol
# Density = 1.790696 g / cm^3
# Si number density = 17.947812 Si / 1000 Ang^3
#
#
#
# Elastic Constant Matrix: (Units=GPa)
#
#
# Indices 1 2 3 4 5 6 
#
# 1 71.1172 36.1075 62.3037 0.0000 0.0000 0.0000
# 2 36.1075 79.0797 80.6367 0.0000 0.0000 0.0000
# 3 62.3037 80.6367 193.8988 0.0000 0.0000 0.0000
# 4 0.0000 0.0000 0.0000 33.1621 0.0000 0.0000
# 5 0.0000 0.0000 0.0000 0.0000 27.1436 0.0000
# 6 0.0000 0.0000 0.0000 0.0000 0.0000 17.3568
#
#
#
# Elastic Compliance Matrix: (Units=1/GPa)
#
#
# Indices 1 2 3 4 5 6 
#
# 1 0.020486 -0.004587 -0.004675 0.000000 0.000000 0.000000
# 2 -0.004587 0.022983 -0.008084 0.000000 0.000000 0.000000
# 3 -0.004675 -0.008084 0.010021 0.000000 0.000000 0.000000
# 4 0.000000 0.000000 0.000000 0.030155 0.000000 0.000000
# 5 0.000000 0.000000 0.000000 0.000000 0.036841 0.000000
# 6 0.000000 0.000000 0.000000 0.000000 0.000000 0.057614
#
#
# Mechanical properties :
#
#
# Convention : Reuss Voigt Hill
#
# Bulk Modulus (GPa) = 53.19559 78.02128 65.60844
# Shear Modulus (GPa) = 22.82497 26.53569 24.68033
#
# Velocity S-wave (km/s) = 3.57002 3.84929 3.71228
# Velocity P-wave (km/s) = 6.83350 7.95749 7.41682
#
# Compressibility (1/GPa) = 0.01879855
#
# Stress axis : x y z
#
# Youngs Moduli (GPa) = 48.81462 43.51027 99.78551
#
# Poissons Ratio (x) = 0.19956 0.46650
# Poissons Ratio (y) = 0.22389 0.80669
# Poissons Ratio (z) = 0.22821 0.35175
#
# Static dielectric constant tensor:
#      x y z
#    x 3.065030 0.000000 0.000000 
#    y 0.000000 3.231610 0.000000 
#    z 0.000000 0.000000 3.586090 
# 
# 
# High freq. dielectric constant tensor:
#      x y z
#    x 1.659050 0.000000 0.000000 
#    y 0.000000 1.672820 0.000000 
#    z 0.000000 0.000000 1.713440 
# 
# From -- ./inp_files/32900.got.cif
#   From: 2010.03.12/outbox.cif.g09.slc.cpg/sg59_17_cif.got.tgz:32900.got - 2010.04.16 16:29:54.
