data_PCOD8243242
_publ_section_title
;
Structure prediction by ZEFSAII (Michael W. Deem and Ramdas Pophale) SiO2 
 PCOD8243242
Probable space group: P M M N
;
_chemical_formula_sum "Si O2"
_cell_formula_units_Z 64
_cell_length_a 18.614556
_cell_length_b 8.948717
_cell_length_c 20.638991
_cell_angle_alpha 90.000000
_cell_angle_beta 90.000000
_cell_angle_gamma 90.000000
_cell_volume 3437.968691
_symmetry_space_group_name_H-M "P M M N"
_symmetry_group_IT_number 59
_space_group.IT_coordinate_system_code '2'
_symmetry_cell_setting 'orthorhombic'
loop_
_space_group_symop_operation_xyz
x,y,z
1/2-x,1/2-y,z
1/2+x,-y,-z
-x,1/2+y,-z
-x,-y,-z
1/2+x,1/2+y,-z
1/2-x,y,z
x,1/2-y,z
loop_
_atom_site_type_symbol
_atom_site_label
_atom_site_fract_x
_atom_site_fract_y
_atom_site_fract_z
Si Si1 0.169659 0.927482 0.074465
Si Si2 0.330286 0.927453 0.930857
Si Si3 0.165074 0.078765 0.698529
Si Si4 0.664542 0.083668 0.430037
Si Si5 0.424901 0.927025 0.192249
Si Si6 0.335304 0.084618 0.445997
Si Si7 0.166437 0.424494 0.301234
Si Si8 0.078997 0.927362 0.810802
O O1 0.250000 0.988285 0.089157
O O2 0.171057 0.750000 0.077471
O O3 0.114676 0.990141 0.127879
O O4 0.145083 0.980829 0.002647
O O5 0.250000 0.988698 0.916168
O O6 0.328399 0.750000 0.928180
O O7 0.385529 0.988946 0.877382
O O8 0.250000 0.060791 0.705806
O O9 0.140803 0.250000 0.706929
O O10 0.138763 0.022471 0.628245
O O11 0.129051 0.975438 0.751935
O O12 0.750000 0.086207 0.432970
O O13 0.634031 0.250000 0.418838
O O14 0.633269 0.023183 0.498327
O O15 0.433494 0.750000 0.190183
O O16 0.379039 0.971645 0.254394
O O17 0.501822 0.001127 0.196837
O O18 0.250000 0.092063 0.450497
O O19 0.366803 0.250000 0.458033
O O20 0.356723 0.029073 0.374202
O O21 0.250000 0.458374 0.289353
O O22 0.150018 0.250000 0.289037
O O23 0.071952 0.750000 0.810932
#
# Coordination Sequence:
#
# PCOD8243242 Si02
#       8
#     8   8   8   8   8   8   8   8
#     4   8  15  30  52  77 103 131 166 209 256 305
#     4   8  15  30  53  78 101 128 166 211 257 305
#     4  10  20  34  53  76 103 135 170 211 259 309
#     4   9  16  26  44  73 105 133 165 207 251 298
#     4  11  22  34  50  74 105 140 176 213 255 305
#     4   8  14  26  45  70 100 132 165 205 255 304
#     4   9  18  33  53  76 103 136 174 216 260 306
#     4  11  22  35  52  74 102 137 176 216 257 303
#
# _framework density 18.615642999999999
#
# number of rings (size 3 to 8) (size 9 to 14) (size 15 to 20)
#    0.000    2.750    0.000    3.750    0.000    4.500 
#    0.000    1.250    0.000    3.000    0.000    8.750 
#    0.000    0.000    0.000    0.000    0.000    0.000 
#
# Total GULP energy -793376.462575 kJ/mol
# GULP energy per Si atom -12396.507228 kJ/mol
# Density = 1.857327 g / cm^3
# Si number density = 18.615643 Si / 1000 Ang^3
#
#
#
# Elastic Constant Matrix: (Units=GPa)
#
#
# Indices 1 2 3 4 5 6 
#
# 1 53.6849 31.2761 47.6525 0.0000 0.0000 0.0000
# 2 31.2761 68.0066 45.2774 0.0000 0.0000 0.0000
# 3 47.6525 45.2774 148.8356 0.0000 0.0000 0.0000
# 4 0.0000 0.0000 0.0000 20.7068 0.0000 0.0000
# 5 0.0000 0.0000 0.0000 0.0000 0.7197 0.0000
# 6 0.0000 0.0000 0.0000 0.0000 0.0000 14.4633
#
#
#
# Elastic Compliance Matrix: (Units=1/GPa)
#
#
# Indices 1 2 3 4 5 6 
#
# 1 0.030088 -0.009309 -0.006801 0.000000 0.000000 0.000000
# 2 -0.009309 0.021319 -0.003505 0.000000 0.000000 0.000000
# 3 -0.006801 -0.003505 0.009963 0.000000 0.000000 0.000000
# 4 0.000000 0.000000 0.000000 0.048293 0.000000 0.000000
# 5 0.000000 0.000000 0.000000 0.000000 1.389549 0.000000
# 6 0.000000 0.000000 0.000000 0.000000 0.000000 0.069140
#
#
# Mechanical properties :
#
#
# Convention : Reuss Voigt Hill
#
# Bulk Modulus (GPa) = 45.16967 57.65991 51.41479
# Shear Modulus (GPa) = 3.09605 16.93269 10.01437
#
# Velocity S-wave (km/s) = 1.29103 3.01922 2.32190
# Velocity P-wave (km/s) = 5.15164 6.57232 5.90486
#
# Compressibility (1/GPa) = 0.02213875
#
# Stress axis : x y z
#
# Youngs Moduli (GPa) = 33.23634 46.90583 100.37515
#
# Poissons Ratio (x) = 0.43665 0.68267
# Poissons Ratio (y) = 0.30940 0.35182
# Poissons Ratio (z) = 0.22605 0.16441
#
# Static dielectric constant tensor:
#      x y z
#    x 3.162000 0.000000 0.000000 
#    y 0.000000 3.281160 0.000000 
#    z 0.000000 0.000000 3.793010 
# 
# 
# High freq. dielectric constant tensor:
#      x y z
#    x 1.688110 0.000000 0.000000 
#    y 0.000000 1.703350 0.000000 
#    z 0.000000 0.000000 1.741760 
# 
# From -- ./inp_files/30690.got.cif
#   From: 2010.03.12/outbox.cif.g09.slc.cpg/sg59_16_cif.got.tgz:30690.got - 2010.04.16 16:29:54.
