data_PCOD8243656
_publ_section_title
;
Structure prediction by ZEFSAII (Michael W. Deem and Ramdas Pophale) SiO2 
 PCOD8243656
Probable space group: P M M N
;
_chemical_formula_sum "Si O2"
_cell_formula_units_Z 40
_cell_length_a 9.383551
_cell_length_b 7.685586
_cell_length_c 29.308309
_cell_angle_alpha 90.000000
_cell_angle_beta 90.000000
_cell_angle_gamma 90.000000
_cell_volume 2113.659213
_symmetry_space_group_name_H-M "P M M N"
_symmetry_group_IT_number 59
_space_group.IT_coordinate_system_code '2'
_symmetry_cell_setting 'orthorhombic'
loop_
_space_group_symop_operation_xyz
x,y,z
1/2-x,1/2-y,z
1/2+x,-y,-z
-x,1/2+y,-z
-x,-y,-z
1/2+x,1/2+y,-z
1/2-x,y,z
x,1/2-y,z
loop_
_atom_site_type_symbol
_atom_site_label
_atom_site_fract_x
_atom_site_fract_y
_atom_site_fract_z
Si Si1 0.904904 0.546548 0.957530
Si Si2 0.580038 0.944327 0.858411
Si Si3 0.085869 0.250000 0.700928
Si Si4 0.419657 0.750000 0.206140
Si Si5 0.914448 0.049094 0.369499
Si Si6 0.591126 0.546166 0.543838
O O1 0.750000 0.457754 0.964669
O O2 0.884198 0.750000 0.954526
O O3 0.972415 0.489393 0.908637
O O4 0.000000 0.500000 0.000000
O O5 0.750000 0.941043 0.859736
O O6 0.521715 0.750000 0.846921
O O7 0.524749 0.078642 0.820407
O O8 0.250000 0.250000 0.716362
O O9 0.050595 0.425268 0.672986
O O10 0.985066 0.250000 0.744157
O O11 0.250000 0.750000 0.210361
O O12 0.750000 0.029731 0.384337
O O13 0.949142 0.250000 0.356469
O O14 0.009542 0.978830 0.411324
O O15 0.500000 0.500000 0.500000
O O16 0.750000 0.462243 0.541072
O O17 0.605916 0.750000 0.547422
#
# Coordination Sequence:
#
# PCOD8243656 Si02
#       6
#     8   8   4   4   8   8
#     4   9  18  31  48  73 103 136 174 215 261 313
#     4   8  16  32  51  73 103 135 172 217 260 310
#     4  10  22  38  56  80 108 138 174 222 277 324
#     4  10  20  34  56  80  98 132 180 218 265 318
#     4   9  19  37  57  76 105 143 179 217 265 320
#     4  10  21  35  53  80 112 145 181 221 267 316
#
# _framework density 18.924527999999999
#
# number of rings (size 3 to 8) (size 9 to 14) (size 15 to 20)
#    0.000    2.800    0.000    1.800    2.800    3.200 
#    0.000    1.000    0.000    1.200    0.000    0.000 
#    0.000    0.000    0.000    0.000    0.000    0.000 
#
# Total GULP energy -495759.558235 kJ/mol
# GULP energy per Si atom -12393.988956 kJ/mol
# Density = 1.888145 g / cm^3
# Si number density = 18.924528 Si / 1000 Ang^3
#
#
#
# Elastic Constant Matrix: (Units=GPa)
#
#
# Indices 1 2 3 4 5 6 
#
# 1 82.6876 32.4354 71.2798 0.0000 0.0000 0.0000
# 2 32.4354 86.0527 65.4928 0.0000 0.0000 0.0000
# 3 71.2798 65.4928 167.7386 0.0000 0.0000 0.0000
# 4 0.0000 0.0000 0.0000 33.0837 0.0000 0.0000
# 5 0.0000 0.0000 0.0000 0.0000 37.3605 0.0000
# 6 0.0000 0.0000 0.0000 0.0000 0.0000 16.9147
#
#
#
# Elastic Compliance Matrix: (Units=1/GPa)
#
#
# Indices 1 2 3 4 5 6 
#
# 1 0.019213 -0.001463 -0.007594 0.000000 0.000000 0.000000
# 2 -0.001463 0.016645 -0.005878 0.000000 0.000000 0.000000
# 3 -0.007594 -0.005878 0.011483 0.000000 0.000000 0.000000
# 4 0.000000 0.000000 0.000000 0.030226 0.000000 0.000000
# 5 0.000000 0.000000 0.000000 0.000000 0.026766 0.000000
# 6 0.000000 0.000000 0.000000 0.000000 0.000000 0.059120
#
#
# Mechanical properties :
#
#
# Convention : Reuss Voigt Hill
#
# Bulk Modulus (GPa) = 57.22613 74.98835 66.10724
# Shear Modulus (GPa) = 25.10703 28.62318 26.86510
#
# Velocity S-wave (km/s) = 3.64633 3.89329 3.77183
# Velocity P-wave (km/s) = 6.93054 7.74088 7.34689
#
# Compressibility (1/GPa) = 0.01747453
#
# Stress axis : x y z
#
# Youngs Moduli (GPa) = 52.04698 60.07663 87.08250
#
# Poissons Ratio (x) = 0.08788 0.66126
# Poissons Ratio (y) = 0.07613 0.51183
# Poissons Ratio (z) = 0.39522 0.35310
#
# Static dielectric constant tensor:
#      x y z
#    x 3.367780 0.000000 0.000000 
#    y 0.000000 2.116510 0.000000 
#    z 0.000000 0.000000 2.812900 
# 
# 
# High freq. dielectric constant tensor:
#      x y z
#    x 1.709640 0.000000 0.000000 
#    y 0.000000 1.740510 0.000000 
#    z 0.000000 0.000000 1.734830 
# 
# From -- ./inp_files/32448.got.cif
#   From: 2010.03.12/outbox.cif.g09.slc.cpg/sg59_17_cif.got.tgz:32448.got - 2010.04.16 16:29:54.
