data_PCOD8243765
_publ_section_title
;
Structure prediction by ZEFSAII (Michael W. Deem and Ramdas Pophale) SiO2 
 PCOD8243765
Probable space group: P M M N
;
_chemical_formula_sum "Si O2"
_cell_formula_units_Z 64
_cell_length_a 18.949758
_cell_length_b 9.512463
_cell_length_c 20.168838
_cell_angle_alpha 90.000000
_cell_angle_beta 90.000000
_cell_angle_gamma 90.000000
_cell_volume 3635.611984
_symmetry_space_group_name_H-M "P M M N"
_symmetry_group_IT_number 59
_space_group.IT_coordinate_system_code '2'
_symmetry_cell_setting 'orthorhombic'
loop_
_space_group_symop_operation_xyz
x,y,z
1/2-x,1/2-y,z
1/2+x,-y,-z
-x,1/2+y,-z
-x,-y,-z
1/2+x,1/2+y,-z
1/2-x,y,z
x,1/2-y,z
loop_
_atom_site_type_symbol
_atom_site_label
_atom_site_fract_x
_atom_site_fract_y
_atom_site_fract_z
Si Si1 0.092188 0.586288 0.300348
Si Si2 0.666104 0.093776 0.078650
Si Si3 0.169361 0.412396 0.412607
Si Si4 0.935626 0.911873 0.472631
Si Si5 0.334041 0.408366 0.040870
Si Si6 0.168139 0.912366 0.165756
Si Si7 0.831027 0.414836 0.226954
Si Si8 0.931072 0.913474 0.321802
O O1 0.104398 0.750000 0.315013
O O2 0.131631 0.502173 0.356940
O O3 0.123667 0.542684 0.229628
O O4 0.010191 0.546822 0.300619
O O5 0.750000 0.099700 0.074456
O O6 0.636326 0.250000 0.063324
O O7 0.643914 0.045548 0.152427
O O8 0.635412 0.984532 0.024819
O O9 0.250000 0.460826 0.419004
O O10 0.163193 0.250000 0.391976
O O11 0.133594 0.439918 0.483644
O O12 0.959466 0.750000 0.474559
O O13 0.918091 0.957124 0.397852
O O14 0.000000 0.000000 0.500000
O O15 0.250000 0.407547 0.038414
O O16 0.364049 0.250000 0.043543
O O17 0.359843 0.493023 0.105331
O O18 0.250000 0.941689 0.181262
O O19 0.156014 0.750000 0.146662
O O20 0.750000 0.459099 0.237504
O O21 0.840846 0.250000 0.239191
O O22 0.877565 0.498791 0.278341
O O23 0.915694 0.750000 0.309986
#
# Coordination Sequence:
#
# PCOD8243765 Si02
#       8
#     8   8   8   8   8   8   8   8
#     4  10  20  35  53  75 103 137 178 216 254 307
#     4   8  14  27  47  69  96 130 166 206 253 305
#     4  10  21  35  53  79 107 136 172 215 264 313
#     4  10  20  36  56  77 103 137 174 213 258 311
#     4   9  16  25  41  69 101 130 164 208 255 303
#     4   9  17  29  46  68  97 134 171 209 254 301
#     4   9  19  35  54  78 106 135 171 214 258 309
#     4  10  21  35  54  79 105 136 172 212 259 311
#
# _framework density 17.603638
#
# number of rings (size 3 to 8) (size 9 to 14) (size 15 to 20)
#    0.000    2.625    1.250    1.500    0.000    5.000 
#    0.000    3.750    0.000    0.750    0.000    0.000 
#    0.000    0.000    0.000    0.000    0.000    0.000 
#
# Total GULP energy -793611.253850 kJ/mol
# GULP energy per Si atom -12400.175841 kJ/mol
# Density = 1.756357 g / cm^3
# Si number density = 17.603638 Si / 1000 Ang^3
#
#
#
# Elastic Constant Matrix: (Units=GPa)
#
#
# Indices 1 2 3 4 5 6 
#
# 1 77.4664 45.5355 69.8959 0.0000 0.0000 0.0000
# 2 45.5355 85.3782 86.7445 0.0000 0.0000 0.0000
# 3 69.8959 86.7445 178.1287 0.0000 0.0000 0.0000
# 4 0.0000 0.0000 0.0000 33.8065 0.0000 0.0000
# 5 0.0000 0.0000 0.0000 0.0000 36.8820 0.0000
# 6 0.0000 0.0000 0.0000 0.0000 0.0000 21.8458
#
#
#
# Elastic Compliance Matrix: (Units=1/GPa)
#
#
# Indices 1 2 3 4 5 6 
#
# 1 0.021288 -0.005674 -0.005590 0.000000 0.000000 0.000000
# 2 -0.005674 0.024695 -0.009799 0.000000 0.000000 0.000000
# 3 -0.005590 -0.009799 0.012579 0.000000 0.000000 0.000000
# 4 0.000000 0.000000 0.000000 0.029580 0.000000 0.000000
# 5 0.000000 0.000000 0.000000 0.000000 0.027113 0.000000
# 6 0.000000 0.000000 0.000000 0.000000 0.000000 0.045775
#
#
# Mechanical properties :
#
#
# Convention : Reuss Voigt Hill
#
# Bulk Modulus (GPa) = 60.84497 82.81389 71.82943
# Shear Modulus (GPa) = 23.96507 27.76003 25.86255
#
# Velocity S-wave (km/s) = 3.69368 3.97539 3.83712
# Velocity P-wave (km/s) = 7.26842 8.25938 7.77969
#
# Compressibility (1/GPa) = 0.01643521
#
# Stress axis : x y z
#
# Youngs Moduli (GPa) = 46.97516 40.49373 79.49491
#
# Poissons Ratio (x) = 0.22977 0.44437
# Poissons Ratio (y) = 0.26655 0.77901
# Poissons Ratio (z) = 0.26259 0.39682
#
# Static dielectric constant tensor:
#      x y z
#    x 3.263440 0.000000 0.000000 
#    y 0.000000 3.384410 0.000000 
#    z 0.000000 0.000000 3.462940 
# 
# 
# High freq. dielectric constant tensor:
#      x y z
#    x 1.651580 0.000000 0.000000 
#    y 0.000000 1.680500 0.000000 
#    z 0.000000 0.000000 1.693820 
# 
# From -- ./inp_files/29505.got.cif
#   From: 2010.03.12/outbox.cif.g09.slc.cpg/sg59_15_cif.got.tgz:29505.got - 2010.04.16 16:29:54.
