data_PCOD8243067
_publ_section_title
;
Structure prediction by ZEFSAII (Michael W. Deem and Ramdas Pophale) SiO2 
 PCOD8243067
Probable space group: P M M N
;
_chemical_formula_sum "Si O2"
_cell_formula_units_Z 64
_cell_length_a 9.410888
_cell_length_b 14.835040
_cell_length_c 23.738934
_cell_angle_alpha 90.000000
_cell_angle_beta 90.000000
_cell_angle_gamma 90.000000
_cell_volume 3314.213939
_symmetry_space_group_name_H-M "P M M N"
_symmetry_group_IT_number 59
_space_group.IT_coordinate_system_code '2'
_symmetry_cell_setting 'orthorhombic'
loop_
_space_group_symop_operation_xyz
x,y,z
1/2-x,1/2-y,z
1/2+x,-y,-z
-x,1/2+y,-z
-x,-y,-z
1/2+x,1/2+y,-z
1/2-x,y,z
x,1/2-y,z
loop_
_atom_site_type_symbol
_atom_site_label
_atom_site_fract_x
_atom_site_fract_y
_atom_site_fract_z
Si Si1 0.914735 0.494918 0.263391
Si Si2 0.412996 0.856733 0.320328
Si Si3 0.418780 0.348997 0.929370
Si Si4 0.409892 0.144413 0.055026
Si Si5 0.915314 0.145480 0.360157
Si Si6 0.916500 0.478557 0.135501
Si Si7 0.085191 0.077459 0.467646
Si Si8 0.901120 0.850021 0.418829
O O1 0.750000 0.521026 0.268479
O O2 0.954192 0.412648 0.304974
O O3 0.953778 0.463409 0.200727
O O4 0.002566 0.586395 0.274070
O O5 0.250000 0.884800 0.318800
O O6 0.432184 0.750000 0.309434
O O7 0.472084 0.891992 0.381519
O O8 0.250000 0.342646 0.930119
O O9 0.480227 0.250000 0.912588
O O10 0.472984 0.423352 0.884969
O O11 0.469283 0.376353 0.992272
O O12 0.250000 0.106746 0.061705
O O13 0.412522 0.250000 0.066524
O O14 0.509456 0.099497 0.100899
O O15 0.750000 0.135505 0.376144
O O16 0.953588 0.250000 0.348240
O O17 0.009093 0.107902 0.411095
O O18 0.750000 0.470905 0.124142
O O19 0.250000 0.052115 0.455089
O O20 0.072539 0.156208 0.514278
O O21 0.000000 0.000000 0.500000
O O22 0.750000 0.901835 0.407106
O O23 0.885190 0.750000 0.395553
#
# Coordination Sequence:
#
# PCOD8243067 Si02
#       8
#     8   8   8   8   8   8   8   8
#     4  10  22  38  55  78 107 143 187 229 272 322
#     4  10  21  36  55  80 109 141 178 222 272 326
#     4   8  15  30  52  79 111 143 175 215 267 327
#     4   9  18  33  53  77 108 145 178 212 265 329
#     4  10  22  40  58  76 106 149 191 232 280 329
#     4  10  20  33  54  82 107 137 182 232 272 310
#     4  11  22  35  54  81 109 135 170 218 271 328
#     4   9  18  33  52  73  98 127 159 201 256 316
#
# _framework density 19.310763000000001
#
# number of rings (size 3 to 8) (size 9 to 14) (size 15 to 20)
#    0.000    2.375    0.000    3.000    0.000    7.750 
#    0.000    3.750    0.000    1.125    0.000    0.000 
#    0.000    0.000    0.000    0.000    0.000    0.000 
#
# Total GULP energy -793120.078007 kJ/mol
# GULP energy per Si atom -12392.501219 kJ/mol
# Density = 1.926681 g / cm^3
# Si number density = 19.310763 Si / 1000 Ang^3
#
#
#
# Elastic Constant Matrix: (Units=GPa)
#
#
# Indices 1 2 3 4 5 6 
#
# 1 82.2360 49.6502 54.9981 0.0000 0.0000 0.0000
# 2 49.6502 89.3953 59.7682 0.0000 0.0000 0.0000
# 3 54.9981 59.7682 128.5146 0.0000 0.0000 0.0000
# 4 0.0000 0.0000 0.0000 25.8925 0.0000 0.0000
# 5 0.0000 0.0000 0.0000 0.0000 28.1972 0.0000
# 6 0.0000 0.0000 0.0000 0.0000 0.0000 27.8617
#
#
#
# Elastic Compliance Matrix: (Units=1/GPa)
#
#
# Indices 1 2 3 4 5 6 
#
# 1 0.020287 -0.007928 -0.004995 0.000000 0.000000 0.000000
# 2 -0.007928 0.019332 -0.005598 0.000000 0.000000 0.000000
# 3 -0.004995 -0.005598 0.012522 0.000000 0.000000 0.000000
# 4 0.000000 0.000000 0.000000 0.038621 0.000000 0.000000
# 5 0.000000 0.000000 0.000000 0.000000 0.035465 0.000000
# 6 0.000000 0.000000 0.000000 0.000000 0.000000 0.035892
#
#
# Mechanical properties :
#
#
# Convention : Reuss Voigt Hill
#
# Bulk Modulus (GPa) = 66.22582 69.88656 68.05619
# Shear Modulus (GPa) = 24.48651 25.43890 24.96271
#
# Velocity S-wave (km/s) = 3.56480 3.63346 3.59929
# Velocity P-wave (km/s) = 7.16330 7.33974 7.25206
#
# Compressibility (1/GPa) = 0.01509985
#
# Stress axis : x y z
#
# Youngs Moduli (GPa) = 49.29218 51.72704 79.85781
#
# Poissons Ratio (x) = 0.41009 0.39888
# Poissons Ratio (y) = 0.39079 0.44705
# Poissons Ratio (z) = 0.24621 0.28957
#
# Static dielectric constant tensor:
#      x y z
#    x 3.501510 0.000000 0.000000 
#    y 0.000000 3.536470 0.000000 
#    z 0.000000 0.000000 3.872690 
# 
# 
# High freq. dielectric constant tensor:
#      x y z
#    x 1.737580 0.000000 0.000000 
#    y 0.000000 1.753820 0.000000 
#    z 0.000000 0.000000 1.748630 
# 
# From -- ./inp_files/31480.got.cif
#   From: 2010.03.12/outbox.cif.g09.slc.cpg/sg59_16_cif.got.tgz:31480.got - 2010.04.16 16:29:54.
