data_PCOD8243659
_publ_section_title
;
Structure prediction by ZEFSAII (Michael W. Deem and Ramdas Pophale) SiO2 
 PCOD8243659
Probable space group: P M M N
;
_chemical_formula_sum "Si O2"
_cell_formula_units_Z 48
_cell_length_a 8.957679
_cell_length_b 16.122190
_cell_length_c 17.800919
_cell_angle_alpha 90.000000
_cell_angle_beta 90.000000
_cell_angle_gamma 90.000000
_cell_volume 2570.762489
_symmetry_space_group_name_H-M "P M M N"
_symmetry_group_IT_number 59
_space_group.IT_coordinate_system_code '2'
_symmetry_cell_setting 'orthorhombic'
loop_
_space_group_symop_operation_xyz
x,y,z
1/2-x,1/2-y,z
1/2+x,-y,-z
-x,1/2+y,-z
-x,-y,-z
1/2+x,1/2+y,-z
1/2-x,y,z
x,1/2-y,z
loop_
_atom_site_type_symbol
_atom_site_label
_atom_site_fract_x
_atom_site_fract_y
_atom_site_fract_z
Si Si1 0.079775 0.155104 0.662989
Si Si2 0.076328 0.982876 0.421840
Si Si3 0.423082 0.425076 0.274328
Si Si4 0.922403 0.563208 0.185672
Si Si5 0.427507 0.583729 0.031814
Si Si6 0.079237 0.250000 0.210661
Si Si7 0.926161 0.250000 0.052454
O O1 0.250000 0.136498 0.639478
O O2 0.037476 0.250000 0.654143
O O3 0.053811 0.130011 0.749041
O O4 0.970984 0.107150 0.607239
O O5 0.250000 0.984519 0.436601
O O6 0.028472 0.050784 0.359070
O O7 0.000000 0.000000 0.500000
O O8 0.250000 0.448198 0.261206
O O9 0.520896 0.473609 0.213096
O O10 0.455302 0.328362 0.263306
O O11 0.750000 0.554578 0.161407
O O12 0.020650 0.595683 0.117037
O O13 0.250000 0.574943 0.027397
O O14 0.500000 0.500000 0.000000
O O15 0.484859 0.665566 0.987258
O O16 0.250000 0.250000 0.182802
O O17 0.976632 0.250000 0.138100
O O18 0.750000 0.250000 0.049314
#
# Coordination Sequence:
#
# PCOD8243659 Si02
#       7
#     8   8   8   8   8   4   4
#     4   9  19  36  57  82 110 144 184 225 273 328
#     4  10  20  36  57  82 115 148 182 224 273 329
#     4   9  19  36  57  81 108 145 187 226 271 326
#     4  10  20  34  56  82 110 143 182 227 276 331
#     4  11  23  39  56  79 111 148 188 232 283 337
#     4  10  20  36  58  80 103 136 187 232 267 320
#     4  10  24  40  54  78 113 148 183 228 285 332
#
# _framework density 18.671503000000001
#
# number of rings (size 3 to 8) (size 9 to 14) (size 15 to 20)
#    0.000    2.167    0.000    2.500    1.167    6.333 
#    1.500    0.000    0.000    0.000    0.000    0.000 
#    0.000    0.000    0.000    0.000    0.000    0.000 
#
# Total GULP energy -595300.815477 kJ/mol
# GULP energy per Si atom -12402.100322 kJ/mol
# Density = 1.862901 g / cm^3
# Si number density = 18.671503 Si / 1000 Ang^3
#
#
#
# Elastic Constant Matrix: (Units=GPa)
#
#
# Indices 1 2 3 4 5 6 
#
# 1 54.6344 40.9035 39.0220 0.0000 0.0000 0.0000
# 2 40.9035 141.6100 67.2861 0.0000 0.0000 0.0000
# 3 39.0220 67.2861 120.5603 0.0000 0.0000 0.0000
# 4 0.0000 0.0000 0.0000 17.1565 0.0000 0.0000
# 5 0.0000 0.0000 0.0000 0.0000 37.5815 0.0000
# 6 0.0000 0.0000 0.0000 0.0000 0.0000 29.3924
#
#
#
# Elastic Compliance Matrix: (Units=1/GPa)
#
#
# Indices 1 2 3 4 5 6 
#
# 1 0.025981 -0.004775 -0.005744 0.000000 0.000000 0.000000
# 2 -0.004775 0.010488 -0.004308 0.000000 0.000000 0.000000
# 3 -0.005744 -0.004308 0.012558 0.000000 0.000000 0.000000
# 4 0.000000 0.000000 0.000000 0.058287 0.000000 0.000000
# 5 0.000000 0.000000 0.000000 0.000000 0.026609 0.000000
# 6 0.000000 0.000000 0.000000 0.000000 0.000000 0.034022
#
#
# Mechanical properties :
#
#
# Convention : Reuss Voigt Hill
#
# Bulk Modulus (GPa) = 51.61915 67.91424 59.76669
# Shear Modulus (GPa) = 24.50289 28.13229 26.31759
#
# Velocity S-wave (km/s) = 3.62652 3.88583 3.75841
# Velocity P-wave (km/s) = 6.72618 7.52230 7.13535
#
# Compressibility (1/GPa) = 0.01937266
#
# Stress axis : x y z
#
# Youngs Moduli (GPa) = 38.48906 95.34905 79.62979
#
# Poissons Ratio (x) = 0.45531 0.45742
# Poissons Ratio (y) = 0.18379 0.34303
# Poissons Ratio (z) = 0.22110 0.41074
#
# Static dielectric constant tensor:
#      x y z
#    x 3.496120 0.000000 0.000000 
#    y 0.000000 3.643470 0.000000 
#    z 0.000000 0.000000 3.604740 
# 
# 
# High freq. dielectric constant tensor:
#      x y z
#    x 1.727970 0.000000 0.000000 
#    y 0.000000 1.729660 0.000000 
#    z 0.000000 0.000000 1.725760 
# 
# From -- ./inp_files/25595.got.cif
#   From: 2010.03.12/outbox.cif.g09.slc.cpg/sg59_13_cif.got.tgz:25595.got - 2010.04.16 16:29:54.
