data_PCOD8243016
_publ_section_title
;
Structure prediction by ZEFSAII (Michael W. Deem and Ramdas Pophale) SiO2 
 PCOD8243016
Probable space group: P M M N
;
_chemical_formula_sum "Si O2"
_cell_formula_units_Z 48
_cell_length_a 9.742143
_cell_length_b 8.863951
_cell_length_c 28.868455
_cell_angle_alpha 90.000000
_cell_angle_beta 90.000000
_cell_angle_gamma 90.000000
_cell_volume 2492.903047
_symmetry_space_group_name_H-M "P M M N"
_symmetry_group_IT_number 59
_space_group.IT_coordinate_system_code '2'
_symmetry_cell_setting 'orthorhombic'
loop_
_space_group_symop_operation_xyz
x,y,z
1/2-x,1/2-y,z
1/2+x,-y,-z
-x,1/2+y,-z
-x,-y,-z
1/2+x,1/2+y,-z
1/2-x,y,z
x,1/2-y,z
loop_
_atom_site_type_symbol
_atom_site_label
_atom_site_fract_x
_atom_site_fract_y
_atom_site_fract_z
Si Si1 0.750000 0.570784 0.962007
Si Si2 0.408628 0.929300 0.459887
Si Si3 0.401973 0.428928 0.622654
Si Si4 0.404542 0.421763 0.199253
Si Si5 0.535072 0.072422 0.896348
Si Si6 0.750000 0.927209 0.065824
Si Si7 0.090001 0.422589 0.726580
O O1 0.750000 0.750000 0.960705
O O2 0.883399 0.511222 0.936335
O O3 0.750000 0.503595 0.014106
O O4 0.250000 0.985880 0.461679
O O5 0.414004 0.750000 0.464373
O O6 0.479208 0.985396 0.412081
O O7 0.500000 0.000000 0.500000
O O8 0.250000 0.490960 0.608045
O O9 0.394294 0.250000 0.622604
O O10 0.438379 0.482634 0.674517
O O11 0.250000 0.437480 0.218373
O O12 0.437872 0.250000 0.185404
O O13 0.418574 0.525070 0.154369
O O14 0.506962 0.472079 0.239155
O O15 0.558042 0.250000 0.901658
O O16 0.379058 0.021179 0.903941
O O17 0.750000 0.750000 0.058927
O O18 0.250000 0.435362 0.738683
O O19 0.040495 0.250000 0.732216
#
# Coordination Sequence:
#
# PCOD8243016 Si02
#       7
#     4   8   8   8   8   4   8
#     4  11  21  39  61  85 119 149 177 225 282 331
#     4  10  20  33  52  80 112 148 191 236 281 332
#     4   8  15  31  54  79 108 142 181 228 280 330
#     4  11  24  40  56  79 113 148 183 228 280 329
#     4  11  22  39  61  85 111 147 190 229 271 328
#     4   9  22  39  59  87 115 143 183 233 276 321
#     4   9  19  36  60  87 111 139 180 229 278 335
#
# _framework density 19.254659
#
# number of rings (size 3 to 8) (size 9 to 14) (size 15 to 20)
#    0.000    2.167    0.833    3.250    1.167    3.000 
#    0.000    6.250    0.000    1.000    0.000    0.000 
#    0.000    0.000    0.000    0.000    0.000    0.000 
#
# Total GULP energy -595135.620903 kJ/mol
# GULP energy per Si atom -12398.658769 kJ/mol
# Density = 1.921083 g / cm^3
# Si number density = 19.254659 Si / 1000 Ang^3
#
#
#
# Elastic Constant Matrix: (Units=GPa)
#
#
# Indices 1 2 3 4 5 6 
#
# 1 125.0418 34.9757 51.4608 0.0000 0.0000 0.0000
# 2 34.9757 56.5269 26.2999 0.0000 0.0000 0.0000
# 3 51.4608 26.2999 104.7676 0.0000 0.0000 0.0000
# 4 0.0000 0.0000 0.0000 28.6243 0.0000 0.0000
# 5 0.0000 0.0000 0.0000 0.0000 37.1522 0.0000
# 6 0.0000 0.0000 0.0000 0.0000 0.0000 28.6918
#
#
#
# Elastic Compliance Matrix: (Units=1/GPa)
#
#
# Indices 1 2 3 4 5 6 
#
# 1 0.011109 -0.004908 -0.004224 0.000000 0.000000 0.000000
# 2 -0.004908 0.022199 -0.003162 0.000000 0.000000 0.000000
# 3 -0.004224 -0.003162 0.012414 0.000000 0.000000 0.000000
# 4 0.000000 0.000000 0.000000 0.034935 0.000000 0.000000
# 5 0.000000 0.000000 0.000000 0.000000 0.026916 0.000000
# 6 0.000000 0.000000 0.000000 0.000000 0.000000 0.034853
#
#
# Mechanical properties :
#
#
# Convention : Reuss Voigt Hill
#
# Bulk Modulus (GPa) = 47.32044 56.86768 52.09406
# Shear Modulus (GPa) = 28.72603 30.46699 29.59651
#
# Velocity S-wave (km/s) = 3.86670 3.98215 3.92485
# Velocity P-wave (km/s) = 6.67568 7.12334 6.90314
#
# Compressibility (1/GPa) = 0.02113252
#
# Stress axis : x y z
#
# Youngs Moduli (GPa) = 90.01952 45.04806 80.55665
#
# Poissons Ratio (x) = 0.22109 0.34031
# Poissons Ratio (y) = 0.44181 0.25470
# Poissons Ratio (z) = 0.38028 0.14243
#
# Static dielectric constant tensor:
#      x y z
#    x 3.631320 0.000000 0.000000 
#    y 0.000000 3.286250 0.000000 
#    z 0.000000 0.000000 3.673360 
# 
# 
# High freq. dielectric constant tensor:
#      x y z
#    x 1.761320 0.000000 0.000000 
#    y 0.000000 1.725100 0.000000 
#    z 0.000000 0.000000 1.756760 
# 
# From -- ./inp_files/32929.got.cif
#   From: 2010.03.12/outbox.cif.g09.slc.cpg/sg59_17_cif.got.tgz:32929.got - 2010.04.16 16:29:54.
