data_PCOD8243958
_publ_section_title
;
Structure prediction by ZEFSAII (Michael W. Deem and Ramdas Pophale) SiO2 
 PCOD8243958
Probable space group: P M M N
;
_chemical_formula_sum "Si O2"
_cell_formula_units_Z 48
_cell_length_a 8.834099
_cell_length_b 23.636189
_cell_length_c 11.416470
_cell_angle_alpha 90.000000
_cell_angle_beta 90.000000
_cell_angle_gamma 90.000000
_cell_volume 2383.809552
_symmetry_space_group_name_H-M "P M M N"
_symmetry_group_IT_number 59
_space_group.IT_coordinate_system_code '2'
_symmetry_cell_setting 'orthorhombic'
loop_
_space_group_symop_operation_xyz
x,y,z
1/2-x,1/2-y,z
1/2+x,-y,-z
-x,1/2+y,-z
-x,-y,-z
1/2+x,1/2+y,-z
1/2-x,y,z
x,1/2-y,z
loop_
_atom_site_type_symbol
_atom_site_label
_atom_site_fract_x
_atom_site_fract_y
_atom_site_fract_z
Si Si1 0.074047 0.184919 0.876465
Si Si2 0.427277 0.414785 0.711779
Si Si3 0.422193 0.313478 0.299203
Si Si4 0.073118 0.624879 0.904934
Si Si5 0.570187 0.975861 0.777660
Si Si6 0.924281 0.914753 0.547193
O O1 0.250000 0.183879 0.911169
O O2 0.019618 0.250000 0.858637
O O3 0.043915 0.148940 0.758087
O O4 0.981053 0.153587 0.976368
O O5 0.250000 0.428377 0.713101
O O6 0.510419 0.460395 0.795594
O O7 0.499345 0.421454 0.580974
O O8 0.250000 0.321900 0.252393
O O9 0.455850 0.250000 0.336921
O O10 0.536696 0.331175 0.197940
O O11 0.448098 0.349800 0.415716
O O12 0.250000 0.613378 0.912380
O O13 0.992279 0.564676 0.880200
O O14 0.750000 0.973557 0.783850
O O15 0.507623 0.954484 0.650063
O O16 0.750000 0.930193 0.533671
#
# Coordination Sequence:
#
# PCOD8243958 Si02
#       6
#     8   8   8   8   8   8
#     4  10  22  39  57  78 108 146 182 217 262 316
#     4  10  20  35  56  82 111 143 181 221 260 312
#     4   9  17  31  53  80 110 143 179 222 272 323
#     4  11  22  36  56  80 106 138 180 229 275 319
#     4  10  20  36  58  83 111 141 175 219 273 326
#     4   8  16  31  52  80 111 143 178 216 262 316
#
# _framework density 20.135838
#
# number of rings (size 3 to 8) (size 9 to 14) (size 15 to 20)
#    0.000    2.333    0.000    4.000    0.000    4.667 
#    0.000    6.667    0.000    0.000    0.000    4.667 
#    0.000    0.000    0.000    0.000    0.000    0.000 
#
# Total GULP energy -595012.942076 kJ/mol
# GULP energy per Si atom -12396.102960 kJ/mol
# Density = 2.009001 g / cm^3
# Si number density = 20.135838 Si / 1000 Ang^3
#
#
#
# Elastic Constant Matrix: (Units=GPa)
#
#
# Indices 1 2 3 4 5 6 
#
# 1 71.4007 35.7157 28.6027 0.0000 0.0000 0.0000
# 2 35.7157 133.6932 31.8279 0.0000 0.0000 0.0000
# 3 28.6027 31.8279 58.5342 0.0000 0.0000 0.0000
# 4 0.0000 0.0000 0.0000 20.6944 0.0000 0.0000
# 5 0.0000 0.0000 0.0000 0.0000 14.4942 0.0000
# 6 0.0000 0.0000 0.0000 0.0000 0.0000 28.1644
#
#
#
# Elastic Compliance Matrix: (Units=1/GPa)
#
#
# Indices 1 2 3 4 5 6 
#
# 1 0.018542 -0.003212 -0.007314 0.000000 0.000000 0.000000
# 2 -0.003212 0.009149 -0.003405 0.000000 0.000000 0.000000
# 3 -0.007314 -0.003405 0.022509 0.000000 0.000000 0.000000
# 4 0.000000 0.000000 0.000000 0.048322 0.000000 0.000000
# 5 0.000000 0.000000 0.000000 0.000000 0.068993 0.000000
# 6 0.000000 0.000000 0.000000 0.000000 0.000000 0.035506
#
#
# Mechanical properties :
#
#
# Convention : Reuss Voigt Hill
#
# Bulk Modulus (GPa) = 44.76682 50.65785 47.71233
# Shear Modulus (GPa) = 20.97936 23.83605 22.40771
#
# Velocity S-wave (km/s) = 3.23134 3.44432 3.33953
# Velocity P-wave (km/s) = 6.01687 6.40550 6.21422
#
# Compressibility (1/GPa) = 0.02233797
#
# Stress axis : x y z
#
# Youngs Moduli (GPa) = 53.93088 109.30717 44.42591
#
# Poissons Ratio (x) = 0.35112 0.32493
# Poissons Ratio (y) = 0.17324 0.15126
# Poissons Ratio (z) = 0.39445 0.37217
#
# Static dielectric constant tensor:
#      x y z
#    x 3.358390 0.000000 0.000000 
#    y 0.000000 3.905340 0.000000 
#    z 0.000000 0.000000 3.723040 
# 
# 
# High freq. dielectric constant tensor:
#      x y z
#    x 1.758350 0.000000 0.000000 
#    y 0.000000 1.798140 0.000000 
#    z 0.000000 0.000000 1.777170 
# 
# From -- ./inp_files/14303.got.cif
#   From: 2010.03.12/outbox.cif.g09.slc.cpg/sg59_8_cif.got.tgz:14303.got - 2010.04.16 16:29:54.
