data_PCOD8243470
_publ_section_title
;
Structure prediction by ZEFSAII (Michael W. Deem and Ramdas Pophale) SiO2 
 PCOD8243470
Probable space group: P M M N
;
_chemical_formula_sum "Si O2"
_cell_formula_units_Z 64
_cell_length_a 8.931927
_cell_length_b 27.007324
_cell_length_c 13.926455
_cell_angle_alpha 90.000000
_cell_angle_beta 90.000000
_cell_angle_gamma 90.000000
_cell_volume 3359.443178
_symmetry_space_group_name_H-M "P M M N"
_symmetry_group_IT_number 59
_space_group.IT_coordinate_system_code '2'
_symmetry_cell_setting 'orthorhombic'
loop_
_space_group_symop_operation_xyz
x,y,z
1/2-x,1/2-y,z
1/2+x,-y,-z
-x,1/2+y,-z
-x,-y,-z
1/2+x,1/2+y,-z
1/2-x,y,z
x,1/2-y,z
loop_
_atom_site_type_symbol
_atom_site_label
_atom_site_fract_x
_atom_site_fract_y
_atom_site_fract_z
Si Si1 0.073450 0.616231 0.194144
Si Si2 0.074702 0.307492 0.327060
Si Si3 0.076403 0.308349 0.940721
Si Si4 0.417971 0.691303 0.867109
Si Si5 0.922052 0.473441 0.278647
Si Si6 0.425845 0.608593 0.569220
Si Si7 0.075045 0.076261 0.624449
Si Si8 0.425240 0.512749 0.100082
O O1 0.250000 0.621423 0.206292
O O2 0.029907 0.568425 0.130566
O O3 0.008162 0.665318 0.146028
O O4 0.999548 0.613000 0.298779
O O5 0.250000 0.318147 0.324363
O O6 0.039765 0.250000 0.345047
O O7 0.004596 0.326476 0.227207
O O8 0.997683 0.337480 0.413420
O O9 0.250000 0.322736 0.940200
O O10 0.052245 0.250000 0.928279
O O11 0.005881 0.328242 0.039994
O O12 0.250000 0.668931 0.866438
O O13 0.411768 0.750000 0.869836
O O14 0.750000 0.474015 0.246546
O O15 0.962980 0.424581 0.337897
O O16 0.958177 0.519978 0.346361
O O17 0.019748 0.474672 0.181912
O O18 0.250000 0.613678 0.551495
O O19 0.499992 0.583739 0.477755
O O20 0.250000 0.088162 0.618078
O O21 0.250000 0.506450 0.088236
O O22 0.500000 0.500000 0.000000
#
# Coordination Sequence:
#
# PCOD8243470 Si02
#       8
#     8   8   8   8   8   8   8   8
#     4  10  21  37  56  79 108 143 181 222 271 321
#     4  10  21  37  55  77 108 144 181 222 268 318
#     4  10  20  34  54  81 110 142 183 226 267 317
#     4   9  17  31  52  76 103 137 175 217 266 315
#     4   9  20  37  57  82 111 142 177 219 265 316
#     4  11  22  36  57  84 111 140 178 223 269 320
#     4  10  20  37  59  81 108 141 177 220 271 322
#     4  10  21  36  56  81 111 146 181 218 262 318
#
# _framework density 19.050777
#
# number of rings (size 3 to 8) (size 9 to 14) (size 15 to 20)
#    0.000    2.125    0.000    3.000    0.000    7.000 
#    0.000    1.875    0.000    3.750    0.000    0.000 
#    0.000    0.000    0.000    0.000    0.000    0.000 
#
# Total GULP energy -793859.035641 kJ/mol
# GULP energy per Si atom -12404.047432 kJ/mol
# Density = 1.900742 g / cm^3
# Si number density = 19.050777 Si / 1000 Ang^3
#
#
#
# Elastic Constant Matrix: (Units=GPa)
#
#
# Indices 1 2 3 4 5 6 
#
# 1 123.8035 44.4520 64.6298 0.0000 0.0000 0.0000
# 2 44.4520 57.1898 39.5819 0.0000 0.0000 0.0000
# 3 64.6298 39.5819 102.7514 0.0000 0.0000 0.0000
# 4 0.0000 0.0000 0.0000 19.4095 0.0000 0.0000
# 5 0.0000 0.0000 0.0000 0.0000 43.3146 0.0000
# 6 0.0000 0.0000 0.0000 0.0000 0.0000 28.8818
#
#
#
# Elastic Compliance Matrix: (Units=1/GPa)
#
#
# Indices 1 2 3 4 5 6 
#
# 1 0.013507 -0.006298 -0.006070 0.000000 0.000000 0.000000
# 2 -0.006298 0.026779 -0.006355 0.000000 0.000000 0.000000
# 3 -0.006070 -0.006355 0.015998 0.000000 0.000000 0.000000
# 4 0.000000 0.000000 0.000000 0.051521 0.000000 0.000000
# 5 0.000000 0.000000 0.000000 0.000000 0.023087 0.000000
# 6 0.000000 0.000000 0.000000 0.000000 0.000000 0.034624
#
#
# Mechanical properties :
#
#
# Convention : Reuss Voigt Hill
#
# Bulk Modulus (GPa) = 53.07932 64.56356 58.82144
# Shear Modulus (GPa) = 23.89600 27.32659 25.61129
#
# Velocity S-wave (km/s) = 3.54550 3.79147 3.67054
# Velocity P-wave (km/s) = 6.68455 7.28909 6.99335
#
# Compressibility (1/GPa) = 0.01883973
#
# Stress axis : x y z
#
# Youngs Moduli (GPa) = 74.03441 37.34309 62.50765
#
# Poissons Ratio (x) = 0.23518 0.37942
# Poissons Ratio (y) = 0.46625 0.39721
# Poissons Ratio (z) = 0.44938 0.23730
#
# Static dielectric constant tensor:
#      x y z
#    x 3.671930 0.000000 0.000000 
#    y 0.000000 3.372980 0.000000 
#    z 0.000000 0.000000 3.512670 
# 
# 
# High freq. dielectric constant tensor:
#      x y z
#    x 1.756580 0.000000 0.000000 
#    y 0.000000 1.727290 0.000000 
#    z 0.000000 0.000000 1.741200 
# 
# From -- ./inp_files/15016.got.cif
#   From: 2010.03.12/outbox.cif.g09.slc.cpg/sg59_8_cif.got.tgz:15016.got - 2010.04.16 16:29:54.
