data_PCOD8243892
_publ_section_title
;
Structure prediction by ZEFSAII (Michael W. Deem and Ramdas Pophale) SiO2 
 PCOD8243892
Probable space group: P M M N
;
_chemical_formula_sum "Si O2"
_cell_formula_units_Z 64
_cell_length_a 25.637671
_cell_length_b 9.367331
_cell_length_c 14.296196
_cell_angle_alpha 90.000000
_cell_angle_beta 90.000000
_cell_angle_gamma 90.000000
_cell_volume 3433.325114
_symmetry_space_group_name_H-M "P M M N"
_symmetry_group_IT_number 59
_space_group.IT_coordinate_system_code '2'
_symmetry_cell_setting 'orthorhombic'
loop_
_space_group_symop_operation_xyz
x,y,z
1/2-x,1/2-y,z
1/2+x,-y,-z
-x,1/2+y,-z
-x,-y,-z
1/2+x,1/2+y,-z
1/2-x,y,z
x,1/2-y,z
loop_
_atom_site_type_symbol
_atom_site_label
_atom_site_fract_x
_atom_site_fract_y
_atom_site_fract_z
Si Si1 0.596769 0.080176 0.406462
Si Si2 0.310540 0.912500 0.921949
Si Si3 0.997202 0.916819 0.708655
Si Si4 0.903995 0.416655 0.618235
Si Si5 0.642803 0.917343 0.914081
Si Si6 0.309214 0.913353 0.252751
Si Si7 0.476931 0.413279 0.085271
Si Si8 0.307260 0.580238 0.710364
O O1 0.599052 0.250000 0.403099
O O2 0.546262 0.025053 0.350227
O O3 0.594468 0.024269 0.512423
O O4 0.648759 0.016204 0.358150
O O5 0.250000 0.922226 0.948918
O O6 0.330363 0.750000 0.935360
O O7 0.320062 0.965276 0.816263
O O8 0.343528 0.017953 0.985678
O O9 0.987080 0.750000 0.690090
O O10 0.008336 0.944385 0.818682
O O11 0.945931 0.000459 0.678972
O O12 0.917923 0.250000 0.621119
O O13 0.846652 0.447260 0.659656
O O14 0.654324 0.750000 0.915076
O O15 0.582791 0.953313 0.893933
O O16 0.678231 0.987066 0.834624
O O17 0.250000 0.941837 0.285987
O O18 0.316587 0.750000 0.219719
O O19 0.482017 0.250000 0.055192
O O20 0.500000 0.500000 0.000000
O O21 0.250000 0.521585 0.680642
O O22 0.306363 0.750000 0.705402
#
# Coordination Sequence:
#
# PCOD8243892 Si02
#       8
#     8   8   8   8   8   8   8   8
#     4   9  18  31  53  81 105 136 178 218 263 319
#     4   9  18  32  52  78 105 137 177 215 258 316
#     4  10  20  37  57  78 108 142 177 217 263 322
#     4  10  20  35  55  81 108 137 176 223 270 312
#     4  11  22  36  53  77 107 139 179 222 266 319
#     4  10  21  36  54  78 109 145 182 221 269 323
#     4  10  23  38  54  79 108 141 178 217 267 320
#     4   8  15  29  50  78 109 137 169 214 264 313
#
# _framework density 18.640822
#
# number of rings (size 3 to 8) (size 9 to 14) (size 15 to 20)
#    0.000    2.375    1.250    1.875    1.750    4.000 
#    0.000    2.500    0.000    0.750    0.000    0.000 
#    0.000    0.000    0.000    0.000    0.000    0.000 
#
# Total GULP energy -793629.058564 kJ/mol
# GULP energy per Si atom -12400.454040 kJ/mol
# Density = 1.859839 g / cm^3
# Si number density = 18.640822 Si / 1000 Ang^3
#
#
#
# Elastic Constant Matrix: (Units=GPa)
#
#
# Indices 1 2 3 4 5 6 
#
# 1 117.4807 43.2705 64.6994 0.0000 0.0000 0.0000
# 2 43.2705 49.5068 40.9895 0.0000 0.0000 0.0000
# 3 64.6994 40.9895 123.3075 0.0000 0.0000 0.0000
# 4 0.0000 0.0000 0.0000 18.8997 0.0000 0.0000
# 5 0.0000 0.0000 0.0000 0.0000 35.3469 0.0000
# 6 0.0000 0.0000 0.0000 0.0000 0.0000 23.2409
#
#
#
# Elastic Compliance Matrix: (Units=1/GPa)
#
#
# Indices 1 2 3 4 5 6 
#
# 1 0.014218 -0.008624 -0.004594 0.000000 0.000000 0.000000
# 2 -0.008624 0.033100 -0.006478 0.000000 0.000000 0.000000
# 3 -0.004594 -0.006478 0.012673 0.000000 0.000000 0.000000
# 4 0.000000 0.000000 0.000000 0.052911 0.000000 0.000000
# 5 0.000000 0.000000 0.000000 0.000000 0.028291 0.000000
# 6 0.000000 0.000000 0.000000 0.000000 0.000000 0.043028
#
#
# Mechanical properties :
#
#
# Convention : Reuss Voigt Hill
#
# Bulk Modulus (GPa) = 48.54163 65.35709 56.94936
# Shear Modulus (GPa) = 21.69388 24.91987 23.30688
#
# Velocity S-wave (km/s) = 3.41513 3.66025 3.53981
# Velocity P-wave (km/s) = 6.45351 7.28016 6.87926
#
# Compressibility (1/GPa) = 0.02060087
#
# Stress axis : x y z
#
# Youngs Moduli (GPa) = 70.33269 30.21108 78.90485
#
# Poissons Ratio (x) = 0.26054 0.36245
# Poissons Ratio (y) = 0.60654 0.51116
# Poissons Ratio (z) = 0.32308 0.19571
#
# Static dielectric constant tensor:
#      x y z
#    x 3.618320 0.000000 0.000000 
#    y 0.000000 3.116470 0.000000 
#    z 0.000000 0.000000 3.605540 
# 
# 
# High freq. dielectric constant tensor:
#      x y z
#    x 1.731730 0.000000 0.000000 
#    y 0.000000 1.688680 0.000000 
#    z 0.000000 0.000000 1.731400 
# 
# From -- ./inp_files/24730.got.cif
#   From: 2010.03.12/outbox.cif.g09.slc.cpg/sg59_13_cif.got.tgz:24730.got - 2010.04.16 16:29:54.
