data_PCOD8243148
_publ_section_title
;
Structure prediction by ZEFSAII (Michael W. Deem and Ramdas Pophale) SiO2 
 PCOD8243148
Probable space group: P M M N
;
_chemical_formula_sum "Si O2"
_cell_formula_units_Z 64
_cell_length_a 9.573535
_cell_length_b 16.414628
_cell_length_c 22.986776
_cell_angle_alpha 90.000000
_cell_angle_beta 90.000000
_cell_angle_gamma 90.000000
_cell_volume 3612.280261
_symmetry_space_group_name_H-M "P M M N"
_symmetry_group_IT_number 59
_space_group.IT_coordinate_system_code '2'
_symmetry_cell_setting 'orthorhombic'
loop_
_space_group_symop_operation_xyz
x,y,z
1/2-x,1/2-y,z
1/2+x,-y,-z
-x,1/2+y,-z
-x,-y,-z
1/2+x,1/2+y,-z
1/2-x,y,z
x,1/2-y,z
loop_
_atom_site_type_symbol
_atom_site_label
_atom_site_fract_x
_atom_site_fract_y
_atom_site_fract_z
Si Si1 0.090126 0.587551 0.577885
Si Si2 0.413155 0.495895 0.866318
Si Si3 0.913174 0.979727 0.754186
Si Si4 0.088757 0.157951 0.947070
Si Si5 0.406318 0.955396 0.366300
Si Si6 0.407841 0.841811 0.698332
Si Si7 0.411910 0.663277 0.462291
Si Si8 0.588474 0.342152 0.062208
O O1 0.250000 0.562969 0.569770
O O2 0.070653 0.655273 0.628492
O O3 0.021779 0.612982 0.516038
O O4 0.013217 0.508249 0.598378
O O5 0.250000 0.494717 0.849968
O O6 0.506854 0.485531 0.809483
O O7 0.452117 0.415988 0.904142
O O8 0.452600 0.583772 0.894645
O O9 0.750000 0.966030 0.768594
O O10 0.979868 0.895009 0.733010
O O11 0.935390 0.046461 0.702787
O O12 0.250000 0.149626 0.964689
O O13 0.060698 0.250000 0.921206
O O14 0.999575 0.144948 0.004508
O O15 0.250000 0.989266 0.376765
O O16 0.427624 0.868390 0.396346
O O17 0.250000 0.871157 0.714047
O O18 0.430839 0.750000 0.719447
O O19 0.250000 0.672335 0.478645
O O20 0.487792 0.750000 0.462129
O O21 0.750000 0.350735 0.045103
O O22 0.560332 0.250000 0.088169
#
# Coordination Sequence:
#
# PCOD8243148 Si02
#       8
#     8   8   8   8   8   8   8   8
#     4   9  16  27  47  72  92 114 149 190 232 286
#     4  10  20  34  52  73  99 133 169 204 243 285
#     4  10  21  34  47  67  95 127 167 207 240 281
#     4   9  18  33  53  77 103 130 162 200 243 291
#     4   9  18  32  47  64  90 123 154 189 237 285
#     4   9  17  30  48  69  94 124 157 195 241 293
#     4   9  16  27  46  70  92 115 148 191 236 284
#     4   9  18  32  51  77 106 131 156 190 235 289
#
# _framework density 17.717341000000001
#
# number of rings (size 3 to 8) (size 9 to 14) (size 15 to 20)
#    0.000    2.750    0.000    1.500    0.000    3.750 
#    0.000    1.875    0.000    3.000    0.000    0.000 
#    0.000    0.000    0.000    0.000    0.000    0.000 
#
# Total GULP energy -792904.623664 kJ/mol
# GULP energy per Si atom -12389.134745 kJ/mol
# Density = 1.767702 g / cm^3
# Si number density = 17.717341 Si / 1000 Ang^3
#
#
#
# Elastic Constant Matrix: (Units=GPa)
#
#
# Indices 1 2 3 4 5 6 
#
# 1 60.0974 35.9341 52.1897 0.0000 0.0000 0.0000
# 2 35.9341 96.0786 59.9536 0.0000 0.0000 0.0000
# 3 52.1897 59.9536 115.6588 0.0000 0.0000 0.0000
# 4 0.0000 0.0000 0.0000 13.7657 0.0000 0.0000
# 5 0.0000 0.0000 0.0000 0.0000 20.5992 0.0000
# 6 0.0000 0.0000 0.0000 0.0000 0.0000 14.9949
#
#
#
# Elastic Compliance Matrix: (Units=1/GPa)
#
#
# Indices 1 2 3 4 5 6 
#
# 1 0.028301 -0.003867 -0.010766 0.000000 0.000000 0.000000
# 2 -0.003867 0.015913 -0.006504 0.000000 0.000000 0.000000
# 3 -0.010766 -0.006504 0.016876 0.000000 0.000000 0.000000
# 4 0.000000 0.000000 0.000000 0.072644 0.000000 0.000000
# 5 0.000000 0.000000 0.000000 0.000000 0.048546 0.000000
# 6 0.000000 0.000000 0.000000 0.000000 0.000000 0.066689
#
#
# Mechanical properties :
#
#
# Convention : Reuss Voigt Hill
#
# Bulk Modulus (GPa) = 53.14594 63.10995 58.12794
# Shear Modulus (GPa) = 16.80591 18.12246 17.46418
#
# Velocity S-wave (km/s) = 3.08321 3.20170 3.14301
# Velocity P-wave (km/s) = 6.53732 7.02606 6.78609
#
# Compressibility (1/GPa) = 0.01881611
#
# Stress axis : x y z
#
# Youngs Moduli (GPa) = 35.33411 62.84276 59.25701
#
# Poissons Ratio (x) = 0.24299 0.63798
# Poissons Ratio (y) = 0.13662 0.38540
# Poissons Ratio (z) = 0.38042 0.40872
#
# Static dielectric constant tensor:
#      x y z
#    x 3.235440 0.000000 0.000000 
#    y 0.000000 3.459200 0.000000 
#    z 0.000000 0.000000 3.270540 
# 
# 
# High freq. dielectric constant tensor:
#      x y z
#    x 1.674960 0.000000 0.000000 
#    y 0.000000 1.680560 0.000000 
#    z 0.000000 0.000000 1.679020 
# 
# From -- ./inp_files/29431.got.cif
#   From: 2010.03.12/outbox.cif.g09.slc.cpg/sg59_15_cif.got.tgz:29431.got - 2010.04.16 16:29:54.
