data_PCOD8243309
_publ_section_title
;
Structure prediction by ZEFSAII (Michael W. Deem and Ramdas Pophale) SiO2 
 PCOD8243309
Probable space group: P M M N
;
_chemical_formula_sum "Si O2"
_cell_formula_units_Z 56
_cell_length_a 9.143144
_cell_length_b 19.451234
_cell_length_c 17.278006
_cell_angle_alpha 90.000000
_cell_angle_beta 90.000000
_cell_angle_gamma 90.000000
_cell_volume 3072.814466
_symmetry_space_group_name_H-M "P M M N"
_symmetry_group_IT_number 59
_space_group.IT_coordinate_system_code '2'
_symmetry_cell_setting 'orthorhombic'
loop_
_space_group_symop_operation_xyz
x,y,z
1/2-x,1/2-y,z
1/2+x,-y,-z
-x,1/2+y,-z
-x,-y,-z
1/2+x,1/2+y,-z
1/2-x,y,z
x,1/2-y,z
loop_
_atom_site_type_symbol
_atom_site_label
_atom_site_fract_x
_atom_site_fract_y
_atom_site_fract_z
Si Si1 0.919766 0.959293 0.111252
Si Si2 0.919344 0.434266 0.736235
Si Si3 0.921196 0.328415 0.606605
Si Si4 0.080333 0.827868 0.829654
Si Si5 0.580975 0.589819 0.698979
Si Si6 0.079330 0.171456 0.451273
Si Si7 0.419207 0.093191 0.053443
O O1 0.750000 0.977856 0.123197
O O2 0.984155 0.923302 0.187165
O O3 0.940311 0.907509 0.038977
O O4 0.008942 0.027984 0.094962
O O5 0.750000 0.423725 0.758422
O O6 0.974228 0.376671 0.676366
O O7 0.944621 0.508305 0.696908
O O8 0.750000 0.336562 0.592908
O O9 0.964612 0.250000 0.626783
O O10 0.997972 0.353283 0.528238
O O11 0.250000 0.843920 0.841097
O O12 0.052957 0.750000 0.802917
O O13 0.016343 0.878961 0.766406
O O14 0.998758 0.839868 0.911748
O O15 0.750000 0.608712 0.714595
O O16 0.528015 0.621994 0.618018
O O17 0.250000 0.164027 0.467178
O O18 0.037303 0.250000 0.430049
O O19 0.250000 0.093337 0.076910
#
# Coordination Sequence:
#
# PCOD8243309 Si02
#       7
#     8   8   8   8   8   8   8
#     4  10  20  34  55  81 107 135 174 222 268 314
#     4  10  20  34  54  80 108 140 180 223 270 325
#     4   9  19  36  55  75 103 140 180 223 273 326
#     4  11  23  36  52  79 113 146 183 227 270 316
#     4  10  20  34  53  78 107 141 182 223 269 324
#     4   9  18  33  52  74 102 138 179 221 268 324
#     4  10  20  35  55  78 105 142 181 217 263 320
#
# _framework density 18.224335
#
# number of rings (size 3 to 8) (size 9 to 14) (size 15 to 20)
#    0.000    2.143    1.429    1.714    0.000    5.143 
#    0.000    2.143    0.000    2.571    0.000    0.000 
#    0.000    0.000    0.000    0.000    0.000    0.000 
#
# Total GULP energy -694540.159543 kJ/mol
# GULP energy per Si atom -12402.502849 kJ/mol
# Density = 1.818286 g / cm^3
# Si number density = 18.224335 Si / 1000 Ang^3
#
#
#
# Elastic Constant Matrix: (Units=GPa)
#
#
# Indices 1 2 3 4 5 6 
#
# 1 88.1183 42.3514 60.3163 0.0000 0.0000 0.0000
# 2 42.3514 81.6202 60.6056 0.0000 0.0000 0.0000
# 3 60.3163 60.6056 141.7020 0.0000 0.0000 0.0000
# 4 0.0000 0.0000 0.0000 28.9939 0.0000 0.0000
# 5 0.0000 0.0000 0.0000 0.0000 36.3561 0.0000
# 6 0.0000 0.0000 0.0000 0.0000 0.0000 22.2038
#
#
#
# Elastic Compliance Matrix: (Units=1/GPa)
#
#
# Indices 1 2 3 4 5 6 
#
# 1 0.017384 -0.005167 -0.005190 0.000000 0.000000 0.000000
# 2 -0.005167 0.019489 -0.006136 0.000000 0.000000 0.000000
# 3 -0.005190 -0.006136 0.011891 0.000000 0.000000 0.000000
# 4 0.000000 0.000000 0.000000 0.034490 0.000000 0.000000
# 5 0.000000 0.000000 0.000000 0.000000 0.027506 0.000000
# 6 0.000000 0.000000 0.000000 0.000000 0.000000 0.045037
#
#
# Mechanical properties :
#
#
# Convention : Reuss Voigt Hill
#
# Bulk Modulus (GPa) = 63.37836 70.88748 67.13292
# Shear Modulus (GPa) = 25.76768 27.38858 26.57813
#
# Velocity S-wave (km/s) = 3.76429 3.88088 3.82303
# Velocity P-wave (km/s) = 7.33113 7.68526 7.51028
#
# Compressibility (1/GPa) = 0.01577826
#
# Stress axis : x y z
#
# Youngs Moduli (GPa) = 57.52419 51.31074 84.10010
#
# Poissons Ratio (x) = 0.26510 0.43647
# Poissons Ratio (y) = 0.29721 0.51606
# Poissons Ratio (z) = 0.29854 0.31485
#
# Static dielectric constant tensor:
#      x y z
#    x 3.384910 0.000000 0.000000 
#    y 0.000000 3.346430 0.000000 
#    z 0.000000 0.000000 3.518390 
# 
# 
# High freq. dielectric constant tensor:
#      x y z
#    x 1.709800 0.000000 0.000000 
#    y 0.000000 1.692280 0.000000 
#    z 0.000000 0.000000 1.710980 
# 
# From -- ./inp_files/26071.got.cif
#   From: 2010.03.12/outbox.cif.g09.slc.cpg/sg59_14_cif.got.tgz:26071.got - 2010.04.16 16:29:54.
