data_PCOD8243334
_publ_section_title
;
Structure prediction by ZEFSAII (Michael W. Deem and Ramdas Pophale) SiO2 
 PCOD8243334
Probable space group: P M M N
;
_chemical_formula_sum "Si O2"
_cell_formula_units_Z 64
_cell_length_a 8.873300
_cell_length_b 18.806285
_cell_length_c 20.250818
_cell_angle_alpha 90.000000
_cell_angle_beta 90.000000
_cell_angle_gamma 90.000000
_cell_volume 3379.331129
_symmetry_space_group_name_H-M "P M M N"
_symmetry_group_IT_number 59
_space_group.IT_coordinate_system_code '2'
_symmetry_cell_setting 'orthorhombic'
loop_
_space_group_symop_operation_xyz
x,y,z
1/2-x,1/2-y,z
1/2+x,-y,-z
-x,1/2+y,-z
-x,-y,-z
1/2+x,1/2+y,-z
1/2-x,y,z
x,1/2-y,z
loop_
_atom_site_type_symbol
_atom_site_label
_atom_site_fract_x
_atom_site_fract_y
_atom_site_fract_z
Si Si1 0.424512 0.444330 0.819917
Si Si2 0.577748 0.334214 0.316943
Si Si3 0.080807 0.334602 0.449531
Si Si4 0.427428 0.831922 0.927008
Si Si5 0.426940 0.091061 0.196207
Si Si6 0.574181 0.830533 0.288114
Si Si7 0.425820 0.070621 0.971906
Si Si8 0.919678 0.165285 0.579620
O O1 0.250000 0.466109 0.811053
O O2 0.529002 0.508937 0.797298
O O3 0.468507 0.377158 0.775193
O O4 0.459185 0.422149 0.894663
O O5 0.750000 0.359190 0.307588
O O6 0.564052 0.250000 0.309910
O O7 0.520227 0.360492 0.388214
O O8 0.471855 0.368726 0.262456
O O9 0.250000 0.364265 0.441469
O O10 0.081922 0.250000 0.452241
O O11 0.010639 0.365652 0.517028
O O12 0.250000 0.843081 0.932521
O O13 0.471608 0.750000 0.917624
O O14 0.485063 0.875930 0.865011
O O15 0.503574 0.860302 0.993673
O O16 0.250000 0.099067 0.184198
O O17 0.750000 0.832831 0.303747
O O18 0.520993 0.750000 0.273208
O O19 0.491909 0.862552 0.352406
O O20 0.250000 0.067327 0.987799
O O21 0.500000 0.000000 0.000000
O O22 0.750000 0.136743 0.575027
O O23 0.925518 0.250000 0.578291
#
# Coordination Sequence:
#
# PCOD8243334 Si02
#       8
#     8   8   8   8   8   8   8   8
#     4  10  22  39  60  83 112 149 186 227 278 339
#     4  10  20  34  53  78 111 148 185 231 284 334
#     4   9  16  27  46  74 107 143 185 230 274 326
#     4  11  24  41  61  86 117 151 189 236 287 337
#     4  12  24  37  57  82 111 149 191 234 278 336
#     4   9  18  34  56  82 110 142 183 230 278 329
#     4  11  22  38  62  87 114 149 189 234 282 340
#     4   9  16  27  46  74 108 144 181 225 278 331
#
# _framework density 18.938659999999999
#
# number of rings (size 3 to 8) (size 9 to 14) (size 15 to 20)
#    0.000    1.875    1.250    3.375    0.000    7.750 
#    0.000    1.250    0.000    2.250    0.000    0.000 
#    0.000    0.000    0.000    0.000    0.000    0.000 
#
# Total GULP energy -793815.493104 kJ/mol
# GULP energy per Si atom -12403.367080 kJ/mol
# Density = 1.889556 g / cm^3
# Si number density = 18.938660 Si / 1000 Ang^3
#
#
#
# Elastic Constant Matrix: (Units=GPa)
#
#
# Indices 1 2 3 4 5 6 
#
# 1 89.2420 30.6222 41.0723 0.0000 0.0000 0.0000
# 2 30.6222 54.3015 32.4449 0.0000 0.0000 0.0000
# 3 41.0723 32.4449 131.2182 0.0000 0.0000 0.0000
# 4 0.0000 0.0000 0.0000 631.1499 0.0000 0.0000
# 5 0.0000 0.0000 0.0000 0.0000 35.6132 0.0000
# 6 0.0000 0.0000 0.0000 0.0000 0.0000 24.4658
#
#
#
# Elastic Compliance Matrix: (Units=1/GPa)
#
#
# Indices 1 2 3 4 5 6 
#
# 1 0.014851 -0.006568 -0.003025 0.000000 0.000000 0.000000
# 2 -0.006568 0.024513 -0.004005 0.000000 0.000000 0.000000
# 3 -0.003025 -0.004005 0.009558 0.000000 0.000000 0.000000
# 4 0.000000 0.000000 0.000000 0.001584 0.000000 0.000000
# 5 0.000000 0.000000 0.000000 0.000000 0.028079 0.000000
# 6 0.000000 0.000000 0.000000 0.000000 0.000000 0.040873
#
#
# Mechanical properties :
#
#
# Convention : Reuss Voigt Hill
#
# Bulk Modulus (GPa) = 46.02675 53.67116 49.84896
# Shear Modulus (GPa) = 32.48944 149.62062 91.05503
#
# Velocity S-wave (km/s) = 4.14636 8.89799 6.94142
# Velocity P-wave (km/s) = 6.87597 11.57440 9.51960
#
# Compressibility (1/GPa) = 0.02172649
#
# Stress axis : x y z
#
# Youngs Moduli (GPa) = 67.33480 40.79540 104.62529
#
# Poissons Ratio (x) = 0.26794 0.31645
# Poissons Ratio (y) = 0.44224 0.41904
# Poissons Ratio (z) = 0.20366 0.16339
#
# Static dielectric constant tensor:
#      x y z
#    x 3.624220 0.000000 0.000000 
#    y 0.000000 3.192890 0.000000 
#    z 0.000000 0.000000 2.288930 
# 
# 
# High freq. dielectric constant tensor:
#      x y z
#    x 1.746900 0.000000 0.000000 
#    y 0.000000 1.702790 0.000000 
#    z 0.000000 0.000000 1.751380 
# 
# From -- ./inp_files/29567.got.cif
#   From: 2010.03.12/outbox.cif.g09.slc.cpg/sg59_15_cif.got.tgz:29567.got - 2010.04.16 16:29:54.
