data_PCOD8243818
_publ_section_title
;
Structure prediction by ZEFSAII (Michael W. Deem and Ramdas Pophale) SiO2 
 PCOD8243818
Probable space group: P M M N
;
_chemical_formula_sum "Si O2"
_cell_formula_units_Z 56
_cell_length_a 8.800502
_cell_length_b 22.735232
_cell_length_c 14.517129
_cell_angle_alpha 90.000000
_cell_angle_beta 90.000000
_cell_angle_gamma 90.000000
_cell_volume 2904.608288
_symmetry_space_group_name_H-M "P M M N"
_symmetry_group_IT_number 59
_space_group.IT_coordinate_system_code '2'
_symmetry_cell_setting 'orthorhombic'
loop_
_space_group_symop_operation_xyz
x,y,z
1/2-x,1/2-y,z
1/2+x,-y,-z
-x,1/2+y,-z
-x,-y,-z
1/2+x,1/2+y,-z
1/2-x,y,z
x,1/2-y,z
loop_
_atom_site_type_symbol
_atom_site_label
_atom_site_fract_x
_atom_site_fract_y
_atom_site_fract_z
Si Si1 0.431171 0.750000 0.823640
Si Si2 0.927769 0.250000 0.966069
Si Si3 0.568935 0.849755 0.698171
Si Si4 0.921609 0.982091 0.720201
Si Si5 0.569645 0.815156 0.495313
Si Si6 0.929555 0.599266 0.338827
Si Si7 0.573521 0.646357 0.143766
Si Si8 0.576136 0.466716 0.918178
O O1 0.250000 0.750000 0.818485
O O2 0.492719 0.750000 0.929373
O O3 0.493007 0.809079 0.775568
O O4 0.750000 0.250000 0.975122
O O5 0.977451 0.304836 0.906277
O O6 0.750000 0.845967 0.710850
O O7 0.514578 0.827008 0.598777
O O8 0.509485 0.917017 0.705206
O O9 0.750000 0.983373 0.683241
O O10 0.929861 0.992967 0.828499
O O11 0.007854 0.032731 0.662975
O O12 0.750000 0.817642 0.490628
O O13 0.512806 0.750000 0.465533
O O14 0.504134 0.865017 0.426478
O O15 0.750000 0.593359 0.342534
O O16 0.978980 0.637257 0.249613
O O17 0.750000 0.662449 0.137279
O O18 0.536757 0.587408 0.090320
O O19 0.750000 0.447606 0.939362
O O20 0.500000 0.500000 0.000000
#
# Coordination Sequence:
#
# PCOD8243818 Si02
#       8
#     4   4   8   8   8   8   8   8
#     4  11  25  41  56  81 114 146 183 235 286 333
#     4  11  25  41  56  81 114 150 185 231 290 337
#     4  10  20  38  62  84 109 150 192 228 273 334
#     4   9  20  36  55  81 113 146 186 233 280 331
#     4   9  17  32  58  86 112 147 190 230 273 328
#     4   9  19  35  58  86 115 147 186 230 280 333
#     4  10  21  37  57  83 111 146 190 233 276 336
#     4  10  20  35  54  79 112 148 188 236 284 334
#
# _framework density 19.279709
#
# number of rings (size 3 to 8) (size 9 to 14) (size 15 to 20)
#    0.000    2.286    0.714    1.286    3.000    3.429 
#    0.000    0.714    0.000    0.000    0.000    0.000 
#    0.000    0.000    0.000    0.000    0.000    0.000 
#
# Total GULP energy -694214.392400 kJ/mol
# GULP energy per Si atom -12396.685579 kJ/mol
# Density = 1.923583 g / cm^3
# Si number density = 19.279709 Si / 1000 Ang^3
#
#
#
# Elastic Constant Matrix: (Units=GPa)
#
#
# Indices 1 2 3 4 5 6 
#
# 1 34.5837 24.4441 27.0405 0.0000 0.0000 0.0000
# 2 24.4441 151.2391 65.8309 0.0000 0.0000 0.0000
# 3 27.0405 65.8309 77.4965 0.0000 0.0000 0.0000
# 4 0.0000 0.0000 0.0000 33.3840 0.0000 0.0000
# 5 0.0000 0.0000 0.0000 0.0000 19.7233 0.0000
# 6 0.0000 0.0000 0.0000 0.0000 0.0000 34.1514
#
#
#
# Elastic Compliance Matrix: (Units=1/GPa)
#
#
# Indices 1 2 3 4 5 6 
#
# 1 0.039800 -0.000615 -0.013364 0.000000 0.000000 0.000000
# 2 -0.000615 0.010501 -0.008705 0.000000 0.000000 0.000000
# 3 -0.013364 -0.008705 0.024962 0.000000 0.000000 0.000000
# 4 0.000000 0.000000 0.000000 0.029954 0.000000 0.000000
# 5 0.000000 0.000000 0.000000 0.000000 0.050701 0.000000
# 6 0.000000 0.000000 0.000000 0.000000 0.000000 0.029281
#
#
# Mechanical properties :
#
#
# Convention : Reuss Voigt Hill
#
# Bulk Modulus (GPa) = 33.45359 55.32781 44.39070
# Shear Modulus (GPa) = 20.78710 27.18532 23.98621
#
# Velocity S-wave (km/s) = 3.28714 3.75913 3.53103
# Velocity P-wave (km/s) = 5.63883 6.89936 6.30070
#
# Compressibility (1/GPa) = 0.02989216
#
# Stress axis : x y z
#
# Youngs Moduli (GPa) = 25.12579 95.23143 40.06118
#
# Poissons Ratio (x) = 0.05861 0.53539
# Poissons Ratio (y) = 0.01546 0.34874
# Poissons Ratio (z) = 0.33579 0.82902
#
# Static dielectric constant tensor:
#      x y z
#    x 3.522720 0.000000 0.000000 
#    y 0.000000 3.349340 0.000000 
#    z 0.000000 0.000000 3.694810 
# 
# 
# High freq. dielectric constant tensor:
#      x y z
#    x 1.729590 0.000000 0.000000 
#    y 0.000000 1.763530 0.000000 
#    z 0.000000 0.000000 1.754960 
# 
# From -- ./inp_files/21223.got.cif
#   From: 2010.03.12/outbox.cif.g09.slc.cpg/sg59_11_cif.got.tgz:21223.got - 2010.04.16 16:29:54.
