data_PCOD8243329
_publ_section_title
;
Structure prediction by ZEFSAII (Michael W. Deem and Ramdas Pophale) SiO2 
 PCOD8243329
Probable space group: P M M N
;
_chemical_formula_sum "Si O2"
_cell_formula_units_Z 64
_cell_length_a 8.705988
_cell_length_b 22.702774
_cell_length_c 16.097689
_cell_angle_alpha 90.000000
_cell_angle_beta 90.000000
_cell_angle_gamma 90.000000
_cell_volume 3181.709487
_symmetry_space_group_name_H-M "P M M N"
_symmetry_group_IT_number 59
_space_group.IT_coordinate_system_code '2'
_symmetry_cell_setting 'orthorhombic'
loop_
_space_group_symop_operation_xyz
x,y,z
1/2-x,1/2-y,z
1/2+x,-y,-z
-x,1/2+y,-z
-x,-y,-z
1/2+x,1/2+y,-z
1/2-x,y,z
x,1/2-y,z
loop_
_atom_site_type_symbol
_atom_site_label
_atom_site_fract_x
_atom_site_fract_y
_atom_site_fract_z
Si Si1 0.930114 0.494854 0.591278
Si Si2 0.572292 0.409656 0.960875
Si Si3 0.930146 0.817593 0.653872
Si Si4 0.568177 0.818628 0.162984
Si Si5 0.930689 0.878339 0.334874
Si Si6 0.420042 0.818681 0.484352
Si Si7 0.428377 0.922788 0.719819
Si Si8 0.426323 0.035760 0.116710
O O1 0.750000 0.490202 0.580956
O O2 0.000000 0.500000 0.500000
O O3 0.988730 0.439730 0.645056
O O4 0.974845 0.551944 0.643150
O O5 0.750000 0.400315 0.983498
O O6 0.510976 0.351911 0.913885
O O7 0.548430 0.467837 0.906097
O O8 0.476951 0.418936 0.045115
O O9 0.750000 0.828282 0.658616
O O10 0.973204 0.750000 0.669017
O O11 0.991553 0.841344 0.565444
O O12 0.017927 0.854578 0.725256
O O13 0.750000 0.823162 0.152725
O O14 0.516249 0.750000 0.164269
O O15 0.513697 0.851077 0.247309
O O16 0.750000 0.888594 0.334582
O O17 0.976448 0.831983 0.405025
O O18 0.250000 0.848565 0.478645
O O19 0.398515 0.750000 0.490352
O O20 0.250000 0.929173 0.700825
O O21 0.465641 0.955381 0.804764
O O22 0.250000 0.048886 0.139076
#
# Coordination Sequence:
#
# PCOD8243329 Si02
#       8
#     8   8   8   8   8   8   8   8
#     4  12  25  41  59  83 118 158 201 247 300 356
#     4  10  21  38  62  91 119 149 188 237 290 343
#     4  10  21  38  59  81 108 145 187 230 279 334
#     4  10  22  39  59  85 120 162 202 242 294 358
#     4  11  22  37  57  82 114 153 199 247 296 350
#     4  10  20  34  53  78 109 147 192 239 285 334
#     4  12  24  39  60  87 118 149 187 234 284 339
#     4  10  21  39  64  91 119 152 190 234 287 348
#
# _framework density 20.114972999999999
#
# number of rings (size 3 to 8) (size 9 to 14) (size 15 to 20)
#    0.000    1.375    0.000    6.000    0.000    6.750 
#    0.000    0.625    0.000    3.750    0.000    0.000 
#    0.000    0.000    0.000    0.000    0.000    0.000 
#
# Total GULP energy -793755.413471 kJ/mol
# GULP energy per Si atom -12402.428335 kJ/mol
# Density = 2.006919 g / cm^3
# Si number density = 20.114973 Si / 1000 Ang^3
#
#
#
# Elastic Constant Matrix: (Units=GPa)
#
#
# Indices 1 2 3 4 5 6 
#
# 1 99.4228 44.1658 30.5978 0.0000 0.0000 0.0000
# 2 44.1658 97.0962 48.2024 0.0000 0.0000 0.0000
# 3 30.5978 48.2024 80.8067 0.0000 0.0000 0.0000
# 4 0.0000 0.0000 0.0000 33.3631 0.0000 0.0000
# 5 0.0000 0.0000 0.0000 0.0000 36.0634 0.0000
# 6 0.0000 0.0000 0.0000 0.0000 0.0000 32.7667
#
#
#
# Elastic Compliance Matrix: (Units=1/GPa)
#
#
# Indices 1 2 3 4 5 6 
#
# 1 0.012819 -0.004861 -0.001954 0.000000 0.000000 0.000000
# 2 -0.004861 0.016475 -0.007987 0.000000 0.000000 0.000000
# 3 -0.001954 -0.007987 0.017880 0.000000 0.000000 0.000000
# 4 0.000000 0.000000 0.000000 0.029973 0.000000 0.000000
# 5 0.000000 0.000000 0.000000 0.000000 0.027729 0.000000
# 6 0.000000 0.000000 0.000000 0.000000 0.000000 0.030519
#
#
# Mechanical properties :
#
#
# Convention : Reuss Voigt Hill
#
# Bulk Modulus (GPa) = 56.91782 58.13974 57.52878
# Shear Modulus (GPa) = 29.26453 30.72929 29.99691
#
# Velocity S-wave (km/s) = 3.81840 3.91280 3.86589
# Velocity P-wave (km/s) = 6.91361 7.02707 6.97057
#
# Compressibility (1/GPa) = 0.01756919
#
# Stress axis : x y z
#
# Youngs Moduli (GPa) = 78.01094 60.69769 55.92922
#
# Poissons Ratio (x) = 0.29502 0.10931
# Poissons Ratio (y) = 0.37917 0.44672
# Poissons Ratio (z) = 0.15247 0.48480
#
# Static dielectric constant tensor:
#      x y z
#    x 3.790290 0.000000 0.000000 
#    y 0.000000 3.779580 0.000000 
#    z 0.000000 0.000000 3.663670 
# 
# 
# High freq. dielectric constant tensor:
#      x y z
#    x 1.797940 0.000000 0.000000 
#    y 0.000000 1.791630 0.000000 
#    z 0.000000 0.000000 1.778810 
# 
# From -- ./inp_files/21477.got.cif
#   From: 2010.03.12/outbox.cif.g09.slc.cpg/sg59_11_cif.got.tgz:21477.got - 2010.04.16 16:29:54.
