data_PCOD8243006
_publ_section_title
;
Structure prediction by ZEFSAII (Michael W. Deem and Ramdas Pophale) SiO2 
 PCOD8243006
Probable space group: P M M N
;
_chemical_formula_sum "Si O2"
_cell_formula_units_Z 48
_cell_length_a 9.148045
_cell_length_b 9.057207
_cell_length_c 30.796230
_cell_angle_alpha 90.000000
_cell_angle_beta 90.000000
_cell_angle_gamma 90.000000
_cell_volume 2551.644340
_symmetry_space_group_name_H-M "P M M N"
_symmetry_group_IT_number 59
_space_group.IT_coordinate_system_code '2'
_symmetry_cell_setting 'orthorhombic'
loop_
_space_group_symop_operation_xyz
x,y,z
1/2-x,1/2-y,z
1/2+x,-y,-z
-x,1/2+y,-z
-x,-y,-z
1/2+x,1/2+y,-z
1/2-x,y,z
x,1/2-y,z
loop_
_atom_site_type_symbol
_atom_site_label
_atom_site_fract_x
_atom_site_fract_y
_atom_site_fract_z
Si Si1 0.076656 0.913076 0.213127
Si Si2 0.081419 0.576611 0.116155
Si Si3 0.580633 0.577966 0.373197
Si Si4 0.578264 0.420095 0.460802
Si Si5 0.420378 0.922590 0.960453
Si Si6 0.076381 0.083101 0.296347
O O1 0.250000 0.903237 0.214144
O O2 0.012203 0.750000 0.223159
O O3 0.029635 0.964628 0.164999
O O4 0.019425 0.026872 0.249423
O O5 0.250000 0.532225 0.108482
O O6 0.060576 0.750000 0.107383
O O7 0.979562 0.483547 0.084797
O O8 0.750000 0.544695 0.364090
O O9 0.550380 0.750000 0.380140
O O10 0.526073 0.493736 0.416048
O O11 0.488409 0.521533 0.332873
O O12 0.500000 0.500000 0.500000
O O13 0.750000 0.439999 0.467219
O O14 0.531009 0.250000 0.459854
O O15 0.250000 0.958281 0.963775
O O16 0.452555 0.750000 0.963033
O O17 0.500000 0.000000 0.000000
O O18 0.250000 0.073956 0.299104
O O19 0.020484 0.250000 0.302815
#
# Coordination Sequence:
#
# PCOD8243006 Si02
#       6
#     8   8   8   8   8   8
#     4   8  15  30  52  77 106 139 174 214 258 304
#     4   9  18  34  57  83 108 136 173 215 260 311
#     4  10  21  37  56  77 103 138 178 218 263 314
#     4  10  21  37  57  80 106 137 173 214 262 314
#     4  11  24  39  55  78 107 138 175 217 260 310
#     4  10  20  33  52  80 110 140 177 219 261 308
#
# _framework density 18.811398000000001
#
# number of rings (size 3 to 8) (size 9 to 14) (size 15 to 20)
#    0.000    2.333    0.000    3.500    0.000    8.000 
#    0.000    2.500    0.000    1.000    0.000    0.000 
#    0.000    0.000    0.000    0.000    0.000    0.000 
#
# Total GULP energy -595260.500044 kJ/mol
# GULP energy per Si atom -12401.260418 kJ/mol
# Density = 1.876858 g / cm^3
# Si number density = 18.811398 Si / 1000 Ang^3
#
#
#
# Elastic Constant Matrix: (Units=GPa)
#
#
# Indices 1 2 3 4 5 6 
#
# 1 51.2805 51.5619 53.6663 0.0000 0.0000 0.0000
# 2 51.5619 119.8716 79.9633 0.0000 0.0000 0.0000
# 3 53.6663 79.9633 163.0182 0.0000 0.0000 0.0000
# 4 0.0000 0.0000 0.0000 40.9246 0.0000 0.0000
# 5 0.0000 0.0000 0.0000 0.0000 31.5831 0.0000
# 6 0.0000 0.0000 0.0000 0.0000 0.0000 28.7205
#
#
#
# Elastic Compliance Matrix: (Units=1/GPa)
#
#
# Indices 1 2 3 4 5 6 
#
# 1 0.038887 -0.012169 -0.006833 0.000000 0.000000 0.000000
# 2 -0.012169 0.016208 -0.003944 0.000000 0.000000 0.000000
# 3 -0.006833 -0.003944 0.010318 0.000000 0.000000 0.000000
# 4 0.000000 0.000000 0.000000 0.024435 0.000000 0.000000
# 5 0.000000 0.000000 0.000000 0.000000 0.031663 0.000000
# 6 0.000000 0.000000 0.000000 0.000000 0.000000 0.034818
#
#
# Mechanical properties :
#
#
# Convention : Reuss Voigt Hill
#
# Bulk Modulus (GPa) = 51.22586 78.28371 64.75478
# Shear Modulus (GPa) = 23.95469 30.17756 27.06613
#
# Velocity S-wave (km/s) = 3.57236 4.00961 3.79729
# Velocity P-wave (km/s) = 6.65628 7.94615 7.32965
#
# Compressibility (1/GPa) = 0.01952139
#
# Stress axis : x y z
#
# Youngs Moduli (GPa) = 25.71559 61.69923 96.91601
#
# Poissons Ratio (x) = 0.75082 0.66219
# Poissons Ratio (y) = 0.31294 0.38224
# Poissons Ratio (z) = 0.17570 0.24334
#
# Static dielectric constant tensor:
#      x y z
#    x 3.214520 0.000000 0.000000 
#    y 0.000000 3.028430 0.000000 
#    z 0.000000 0.000000 3.740120 
# 
# 
# High freq. dielectric constant tensor:
#      x y z
#    x 1.705290 0.000000 0.000000 
#    y 0.000000 1.739940 0.000000 
#    z 0.000000 0.000000 1.748000 
# 
# From -- ./inp_files/32858.got.cif
#   From: 2010.03.12/outbox.cif.g09.slc.cpg/sg59_17_cif.got.tgz:32858.got - 2010.04.16 16:29:54.
