data_PCOD8243686
_publ_section_title
;
Structure prediction by ZEFSAII (Michael W. Deem and Ramdas Pophale) SiO2 
 PCOD8243686
Probable space group: P M M N
;
_chemical_formula_sum "Si O2"
_cell_formula_units_Z 48
_cell_length_a 8.900776
_cell_length_b 14.929003
_cell_length_c 17.264902
_cell_angle_alpha 90.000000
_cell_angle_beta 90.000000
_cell_angle_gamma 90.000000
_cell_volume 2294.155199
_symmetry_space_group_name_H-M "P M M N"
_symmetry_group_IT_number 59
_space_group.IT_coordinate_system_code '2'
_symmetry_cell_setting 'orthorhombic'
loop_
_space_group_symop_operation_xyz
x,y,z
1/2-x,1/2-y,z
1/2+x,-y,-z
-x,1/2+y,-z
-x,-y,-z
1/2+x,1/2+y,-z
1/2-x,y,z
x,1/2-y,z
loop_
_atom_site_type_symbol
_atom_site_label
_atom_site_fract_x
_atom_site_fract_y
_atom_site_fract_z
Si Si1 0.930457 0.250000 0.884098
Si Si2 0.572678 0.250000 0.703592
Si Si3 0.412847 0.648263 0.861285
Si Si4 0.425435 0.592103 0.406485
Si Si5 0.928788 0.598455 0.010008
Si Si6 0.577323 0.095479 0.418557
Si Si7 0.588482 0.849990 0.722024
O O1 0.750000 0.250000 0.895203
O O2 0.978013 0.250000 0.793285
O O3 0.997704 0.158720 0.921498
O O4 0.750000 0.250000 0.697551
O O5 0.514078 0.162664 0.657123
O O6 0.250000 0.602785 0.881477
O O7 0.379513 0.750000 0.839767
O O8 0.484492 0.599210 0.785686
O O9 0.532155 0.646911 0.930309
O O10 0.250000 0.569499 0.394506
O O11 0.451980 0.628096 0.493833
O O12 0.523525 0.504059 0.398138
O O13 0.750000 0.593363 0.022775
O O14 0.000000 0.500000 0.000000
O O15 0.750000 0.102398 0.397035
O O16 0.486263 0.159408 0.361847
O O17 0.750000 0.899981 0.716729
O O18 0.615646 0.750000 0.752758
#
# Coordination Sequence:
#
# PCOD8243686 Si02
#       7
#     4   4   8   8   8   8   8
#     4  11  23  43  67  94 129 164 215 277 334 393
#     4   9  20  39  65  90 115 160 211 259 312 373
#     4  10  20  37  61  87 119 153 193 246 305 364
#     4   9  19  37  59  82 113 155 204 251 306 367
#     4  12  25  42  66  94 127 168 213 259 320 387
#     4  10  20  34  56  84 119 157 199 252 306 359
#     4  10  21  35  54  83 118 154 194 236 291 356
#
# _framework density 20.922733999999998
#
# number of rings (size 3 to 8) (size 9 to 14) (size 15 to 20)
#    0.000    1.833    0.833    3.250    1.167    3.667 
#    0.000    7.083    0.000    0.000    0.000    0.000 
#    0.000    0.000    0.000    0.000    0.000    0.000 
#
# Total GULP energy -594738.947848 kJ/mol
# GULP energy per Si atom -12390.394747 kJ/mol
# Density = 2.087511 g / cm^3
# Si number density = 20.922734 Si / 1000 Ang^3
#
#
#
# Elastic Constant Matrix: (Units=GPa)
#
#
# Indices 1 2 3 4 5 6 
#
# 1 138.1538 35.7203 63.5101 0.0000 0.0000 0.0000
# 2 35.7203 78.5989 45.1570 0.0000 0.0000 0.0000
# 3 63.5101 45.1570 158.7342 0.0000 0.0000 0.0000
# 4 0.0000 0.0000 0.0000 12.3669 0.0000 0.0000
# 5 0.0000 0.0000 0.0000 0.0000 31.6170 0.0000
# 6 0.0000 0.0000 0.0000 0.0000 0.0000 26.6798
#
#
#
# Elastic Compliance Matrix: (Units=1/GPa)
#
#
# Indices 1 2 3 4 5 6 
#
# 1 0.009259 -0.002486 -0.002997 0.000000 0.000000 0.000000
# 2 -0.002486 0.015876 -0.003522 0.000000 0.000000 0.000000
# 3 -0.002997 -0.003522 0.008501 0.000000 0.000000 0.000000
# 4 0.000000 0.000000 0.000000 0.080861 0.000000 0.000000
# 5 0.000000 0.000000 0.000000 0.000000 0.031629 0.000000
# 6 0.000000 0.000000 0.000000 0.000000 0.000000 0.037482
#
#
# Mechanical properties :
#
#
# Convention : Reuss Voigt Hill
#
# Bulk Modulus (GPa) = 63.99651 73.80686 68.90168
# Shear Modulus (GPa) = 24.17500 29.53938 26.85719
#
# Velocity S-wave (km/s) = 3.40287 3.76151 3.58667
# Velocity P-wave (km/s) = 6.78917 7.36327 7.08204
#
# Compressibility (1/GPa) = 0.01562585
#
# Stress axis : x y z
#
# Youngs Moduli (GPa) = 108.00389 62.98854 117.63325
#
# Poissons Ratio (x) = 0.15658 0.35259
# Poissons Ratio (y) = 0.26847 0.41429
# Poissons Ratio (z) = 0.32373 0.22184
#
# Static dielectric constant tensor:
#      x y z
#    x 4.138380 0.000000 0.000000 
#    y 0.000000 3.696230 0.000000 
#    z 0.000000 0.000000 3.995740 
# 
# 
# High freq. dielectric constant tensor:
#      x y z
#    x 1.824920 0.000000 0.000000 
#    y 0.000000 1.797010 0.000000 
#    z 0.000000 0.000000 1.828690 
# 
# From -- ./inp_files/25622.got.cif
#   From: 2010.03.12/outbox.cif.g09.slc.cpg/sg59_13_cif.got.tgz:25622.got - 2010.04.16 16:29:54.
