data_PCOD8243574
_publ_section_title
;
Structure prediction by ZEFSAII (Michael W. Deem and Ramdas Pophale) SiO2 
 PCOD8243574
Probable space group: P M M N
;
_chemical_formula_sum "Si O2"
_cell_formula_units_Z 48
_cell_length_a 9.193188
_cell_length_b 13.757031
_cell_length_c 20.217728
_cell_angle_alpha 90.000000
_cell_angle_beta 90.000000
_cell_angle_gamma 90.000000
_cell_volume 2556.955718
_symmetry_space_group_name_H-M "P M M N"
_symmetry_group_IT_number 59
_space_group.IT_coordinate_system_code '2'
_symmetry_cell_setting 'orthorhombic'
loop_
_space_group_symop_operation_xyz
x,y,z
1/2-x,1/2-y,z
1/2+x,-y,-z
-x,1/2+y,-z
-x,-y,-z
1/2+x,1/2+y,-z
1/2-x,y,z
x,1/2-y,z
loop_
_atom_site_type_symbol
_atom_site_label
_atom_site_fract_x
_atom_site_fract_y
_atom_site_fract_z
Si Si1 0.584816 0.146496 0.394226
Si Si2 0.580474 0.548255 0.098144
Si Si3 0.583491 0.140325 0.020198
Si Si4 0.083063 0.097817 0.512041
Si Si5 0.420529 0.862299 0.218669
Si Si6 0.916884 0.559321 0.342393
O O1 0.750000 0.121766 0.415263
O O2 0.577284 0.250000 0.354081
O O3 0.493853 0.170380 0.461035
O O4 0.529520 0.053323 0.352356
O O5 0.750000 0.570283 0.107308
O O6 0.551534 0.435371 0.079329
O O7 0.498871 0.568570 0.166157
O O8 0.520143 0.619042 0.041508
O O9 0.750000 0.128648 0.995856
O O10 0.553933 0.250000 0.045845
O O11 0.250000 0.089605 0.491518
O O12 0.068918 0.122517 0.589991
O O13 0.000000 0.000000 0.500000
O O14 0.250000 0.882813 0.216169
O O15 0.455608 0.750000 0.202927
O O16 0.478807 0.889184 0.290683
O O17 0.750000 0.560812 0.317092
#
# Coordination Sequence:
#
# PCOD8243574 Si02
#       6
#     8   8   8   8   8   8
#     4   9  18  33  53  77 105 136 169 208 259 317
#     4  10  20  34  55  82 109 139 175 212 250 296
#     4   9  18  34  56  82 112 142 171 206 250 298
#     4   9  17  30  49  73 100 130 167 212 260 307
#     4  11  24  39  54  73 100 136 174 213 261 312
#     4   9  19  35  53  74 101 134 172 213 255 303
#
# _framework density 18.772324000000001
#
# number of rings (size 3 to 8) (size 9 to 14) (size 15 to 20)
#    0.000    2.500    0.000    3.000    0.000    8.667 
#    0.000    4.167    0.000    5.000    0.000    0.000 
#    0.000    0.000    0.000    0.000    0.000    0.000 
#
# Total GULP energy -594792.954478 kJ/mol
# GULP energy per Si atom -12391.519885 kJ/mol
# Density = 1.872960 g / cm^3
# Si number density = 18.772324 Si / 1000 Ang^3
#
#
#
# Elastic Constant Matrix: (Units=GPa)
#
#
# Indices 1 2 3 4 5 6 
#
# 1 103.7622 40.4602 55.9445 0.0000 0.0000 0.0000
# 2 40.4602 98.2961 27.7359 0.0000 0.0000 0.0000
# 3 55.9445 27.7359 84.5007 0.0000 0.0000 0.0000
# 4 0.0000 0.0000 0.0000 19.0977 0.0000 0.0000
# 5 0.0000 0.0000 0.0000 0.0000 35.1661 0.0000
# 6 0.0000 0.0000 0.0000 0.0000 0.0000 23.1902
#
#
#
# Elastic Compliance Matrix: (Units=1/GPa)
#
#
# Indices 1 2 3 4 5 6 
#
# 1 0.016327 -0.004045 -0.009482 0.000000 0.000000 0.000000
# 2 -0.004045 0.012214 -0.001331 0.000000 0.000000 0.000000
# 3 -0.009482 -0.001331 0.018548 0.000000 0.000000 0.000000
# 4 0.000000 0.000000 0.000000 0.052362 0.000000 0.000000
# 5 0.000000 0.000000 0.000000 0.000000 0.028436 0.000000
# 6 0.000000 0.000000 0.000000 0.000000 0.000000 0.043122
#
#
# Mechanical properties :
#
#
# Convention : Reuss Voigt Hill
#
# Bulk Modulus (GPa) = 57.55723 59.42670 58.49196
# Shear Modulus (GPa) = 24.21119 26.31870 25.26494
#
# Velocity S-wave (km/s) = 3.59517 3.74838 3.67258
# Velocity P-wave (km/s) = 6.92538 7.10346 7.01499
#
# Compressibility (1/GPa) = 0.01737401
#
# Stress axis : x y z
#
# Youngs Moduli (GPa) = 61.24899 81.87409 53.91273
#
# Poissons Ratio (x) = 0.33118 0.51118
# Poissons Ratio (y) = 0.24775 0.07176
# Poissons Ratio (z) = 0.58074 0.10897
#
# Static dielectric constant tensor:
#      x y z
#    x 3.822950 0.000000 0.000000 
#    y 0.000000 3.825330 0.000000 
#    z 0.000000 0.000000 3.375360 
# 
# 
# High freq. dielectric constant tensor:
#      x y z
#    x 1.735310 0.000000 0.000000 
#    y 0.000000 1.737830 0.000000 
#    z 0.000000 0.000000 1.702480 
# 
# From -- ./inp_files/25413.got.cif
#   From: 2010.03.12/outbox.cif.g09.slc.cpg/sg59_13_cif.got.tgz:25413.got - 2010.04.16 16:29:54.
