data_PCOD8243760
_publ_section_title
;
Structure prediction by ZEFSAII (Michael W. Deem and Ramdas Pophale) SiO2 
 PCOD8243760
Probable space group: P M M N
;
_chemical_formula_sum "Si O2"
_cell_formula_units_Z 40
_cell_length_a 8.729658
_cell_length_b 25.743997
_cell_length_c 9.729253
_cell_angle_alpha 90.000000
_cell_angle_beta 90.000000
_cell_angle_gamma 90.000000
_cell_volume 2186.516217
_symmetry_space_group_name_H-M "P M M N"
_symmetry_group_IT_number 59
_space_group.IT_coordinate_system_code '2'
_symmetry_cell_setting 'orthorhombic'
loop_
_space_group_symop_operation_xyz
x,y,z
1/2-x,1/2-y,z
1/2+x,-y,-z
-x,1/2+y,-z
-x,-y,-z
1/2+x,1/2+y,-z
1/2-x,y,z
x,1/2-y,z
loop_
_atom_site_type_symbol
_atom_site_label
_atom_site_fract_x
_atom_site_fract_y
_atom_site_fract_z
Si Si1 0.417181 0.750000 0.846505
Si Si2 0.926410 0.440679 0.653405
Si Si3 0.419101 0.750000 0.171991
Si Si4 0.929374 0.856154 0.159896
Si Si5 0.072307 0.548681 0.663596
Si Si6 0.933093 0.139128 0.134359
O O1 0.250000 0.750000 0.776261
O O2 0.499518 0.804859 0.808859
O O3 0.402178 0.750000 0.009798
O O4 0.750000 0.431114 0.692755
O O5 0.955739 0.433366 0.491842
O O6 0.033408 0.399811 0.729015
O O7 0.972779 0.498411 0.700275
O O8 0.250000 0.750000 0.240298
O O9 0.508285 0.698402 0.218835
O O10 0.750000 0.851214 0.137969
O O11 0.003853 0.873351 0.016084
O O12 0.250000 0.535621 0.689403
O O13 0.013354 0.594636 0.761817
O O14 0.750000 0.143102 0.124338
#
# Coordination Sequence:
#
# PCOD8243760 Si02
#       6
#     4   8   4   8   8   8
#     4   7  12  25  48  73  96 124 154 192 246 301
#     4  10  20  35  53  73 101 138 174 211 260 311
#     4   9  17  33  54  75 102 136 170 206 252 299
#     4  11  21  33  52  79 107 135 169 208 251 302
#     4   9  19  35  54  75  99 132 175 218 260 307
#     4   9  17  32  53  76 102 131 167 211 257 304
#
# _framework density 18.293939999999999
#
# number of rings (size 3 to 8) (size 9 to 14) (size 15 to 20)
#    0.000    2.600    0.000    3.900    0.000    2.400 
#    0.000    1.000    0.000    3.600    0.000    2.800 
#    0.000    0.000    0.000    0.000    0.000    0.000 
#
# Total GULP energy -495842.218618 kJ/mol
# GULP energy per Si atom -12396.055465 kJ/mol
# Density = 1.825230 g / cm^3
# Si number density = 18.293940 Si / 1000 Ang^3
#
#
#
# Elastic Constant Matrix: (Units=GPa)
#
#
# Indices 1 2 3 4 5 6 
#
# 1 61.5793 36.0131 22.5982 0.0000 0.0000 0.0000
# 2 36.0131 137.3145 60.2957 0.0000 0.0000 0.0000
# 3 22.5982 60.2957 58.3369 0.0000 0.0000 0.0000
# 4 0.0000 0.0000 0.0000 2.4747 0.0000 0.0000
# 5 0.0000 0.0000 0.0000 0.0000 19.2144 0.0000
# 6 0.0000 0.0000 0.0000 0.0000 0.0000 29.8847
#
#
#
# Elastic Compliance Matrix: (Units=1/GPa)
#
#
# Indices 1 2 3 4 5 6 
#
# 1 0.019728 -0.003329 -0.004201 0.000000 0.000000 0.000000
# 2 -0.003329 0.013896 -0.013073 0.000000 0.000000 0.000000
# 3 -0.004201 -0.013073 0.032281 0.000000 0.000000 0.000000
# 4 0.000000 0.000000 0.000000 0.404083 0.000000 0.000000
# 5 0.000000 0.000000 0.000000 0.000000 0.052044 0.000000
# 6 0.000000 0.000000 0.000000 0.000000 0.000000 0.033462
#
#
# Mechanical properties :
#
#
# Convention : Reuss Voigt Hill
#
# Bulk Modulus (GPa) = 40.48821 55.00496 47.74658
# Shear Modulus (GPa) = 8.26535 19.53636 13.90086
#
# Velocity S-wave (km/s) = 2.12788 3.27144 2.75955
# Velocity P-wave (km/s) = 5.31199 6.66351 6.02576
#
# Compressibility (1/GPa) = 0.02469855
#
# Stress axis : x y z
#
# Youngs Moduli (GPa) = 50.68949 71.96207 30.97777
#
# Poissons Ratio (x) = 0.23958 0.13014
# Poissons Ratio (y) = 0.16876 0.40498
# Poissons Ratio (z) = 0.21295 0.94077
#
# Static dielectric constant tensor:
#      x y z
#    x 3.281980 0.000000 0.000000 
#    y 0.000000 3.804620 0.000000 
#    z 0.000000 0.000000 3.093720 
# 
# 
# High freq. dielectric constant tensor:
#      x y z
#    x 1.699320 0.000000 0.000000 
#    y 0.000000 1.727510 0.000000 
#    z 0.000000 0.000000 1.679200 
# 
# From -- ./inp_files/5924.got.cif
#   From: 2010.03.12/outbox.cif.g09.slc.cpg/sg59_3_cif.got.tgz:5924.got - 2010.04.16 16:29:54.
