data_PCOD8243566
_publ_section_title
;
Structure prediction by ZEFSAII (Michael W. Deem and Ramdas Pophale) SiO2 
 PCOD8243566
Probable space group: P M M N
;
_chemical_formula_sum "Si O2"
_cell_formula_units_Z 64
_cell_length_a 8.855335
_cell_length_b 28.691480
_cell_length_c 12.571913
_cell_angle_alpha 90.000000
_cell_angle_beta 90.000000
_cell_angle_gamma 90.000000
_cell_volume 3194.179466
_symmetry_space_group_name_H-M "P M M N"
_symmetry_group_IT_number 59
_space_group.IT_coordinate_system_code '2'
_symmetry_cell_setting 'orthorhombic'
loop_
_space_group_symop_operation_xyz
x,y,z
1/2-x,1/2-y,z
1/2+x,-y,-z
-x,1/2+y,-z
-x,-y,-z
1/2+x,1/2+y,-z
1/2-x,y,z
x,1/2-y,z
loop_
_atom_site_type_symbol
_atom_site_label
_atom_site_fract_x
_atom_site_fract_y
_atom_site_fract_z
Si Si1 0.421490 0.451887 0.481733
Si Si2 0.070705 0.124740 0.844884
Si Si3 0.073017 0.196171 0.417572
Si Si4 0.425463 0.302991 0.019943
Si Si5 0.570667 0.980040 0.106680
Si Si6 0.929079 0.865487 0.390617
Si Si7 0.428289 0.847833 0.785850
Si Si8 0.076937 0.057676 0.236160
O O1 0.500000 0.500000 0.500000
O O2 0.250000 0.459351 0.514971
O O3 0.496104 0.412443 0.556170
O O4 0.436261 0.434923 0.361392
O O5 0.250000 0.126433 0.841905
O O6 0.015384 0.073025 0.876333
O O7 0.005221 0.139146 0.728716
O O8 0.009861 0.162435 0.929394
O O9 0.250000 0.187299 0.395997
O O10 0.030097 0.250000 0.411293
O O11 0.026232 0.178332 0.535321
O O12 0.979526 0.168281 0.330277
O O13 0.250000 0.313153 0.043661
O O14 0.449062 0.250000 0.980903
O O15 0.518100 0.310070 0.128140
O O16 0.750000 0.982939 0.100914
O O17 0.511417 0.010843 0.204698
O O18 0.500000 0.000000 0.000000
O O19 0.750000 0.869860 0.385837
O O20 0.250000 0.853078 0.787698
O O21 0.501922 0.897305 0.818602
O O22 0.250000 0.053893 0.197512
#
# Coordination Sequence:
#
# PCOD8243566 Si02
#       8
#     8   8   8   8   8   8   8   8
#     4  10  20  34  55  81 114 153 192 238 290 350
#     4   9  19  35  58  86 120 155 193 246 297 351
#     4  10  20  36  60  87 117 154 194 240 298 362
#     4  10  21  38  61  88 117 153 198 248 305 365
#     4  11  22  37  58  86 120 162 208 253 304 359
#     4   9  17  34  56  83 116 150 190 237 291 348
#     4  12  24  38  59  86 118 155 199 252 305 362
#     4  11  22  38  59  84 118 157 199 248 301 358
#
# _framework density 20.036443999999999
#
# number of rings (size 3 to 8) (size 9 to 14) (size 15 to 20)
#    0.000    1.750    1.250    3.750    0.000    5.500 
#    0.000    3.125    0.000    2.250    0.000    1.750 
#    0.000    0.000    0.000    0.000    0.000    0.000 
#
# Total GULP energy -793722.409749 kJ/mol
# GULP energy per Si atom -12401.912652 kJ/mol
# Density = 1.999084 g / cm^3
# Si number density = 20.036444 Si / 1000 Ang^3
#
#
#
# Elastic Constant Matrix: (Units=GPa)
#
#
# Indices 1 2 3 4 5 6 
#
# 1 70.5981 41.1721 31.4312 0.0000 0.0000 0.0000
# 2 41.1721 139.2619 47.4253 0.0000 0.0000 0.0000
# 3 31.4312 47.4253 117.9095 0.0000 0.0000 0.0000
# 4 0.0000 0.0000 0.0000 38.1070 0.0000 0.0000
# 5 0.0000 0.0000 0.0000 0.0000 19.7106 0.0000
# 6 0.0000 0.0000 0.0000 0.0000 0.0000 25.7565
#
#
#
# Elastic Compliance Matrix: (Units=1/GPa)
#
#
# Indices 1 2 3 4 5 6 
#
# 1 0.018035 -0.004281 -0.003086 0.000000 0.000000 0.000000
# 2 -0.004281 0.009337 -0.002614 0.000000 0.000000 0.000000
# 3 -0.003086 -0.002614 0.010355 0.000000 0.000000 0.000000
# 4 0.000000 0.000000 0.000000 0.026242 0.000000 0.000000
# 5 0.000000 0.000000 0.000000 0.000000 0.050734 0.000000
# 6 0.000000 0.000000 0.000000 0.000000 0.000000 0.038825
#
#
# Mechanical properties :
#
#
# Convention : Reuss Voigt Hill
#
# Bulk Modulus (GPa) = 56.29065 63.09187 59.69126
# Shear Modulus (GPa) = 27.86885 30.56422 29.21653
#
# Velocity S-wave (km/s) = 3.73353 3.90991 3.82274
# Velocity P-wave (km/s) = 6.83673 7.20695 7.02428
#
# Compressibility (1/GPa) = 0.01776494
#
# Stress axis : x y z
#
# Youngs Moduli (GPa) = 55.44700 107.10461 96.57095
#
# Poissons Ratio (x) = 0.45854 0.29799
# Poissons Ratio (y) = 0.23738 0.25245
# Poissons Ratio (z) = 0.17109 0.27999
#
# Static dielectric constant tensor:
#      x y z
#    x 3.395780 0.000000 0.000000 
#    y 0.000000 3.832180 0.000000 
#    z 0.000000 0.000000 3.639400 
# 
# 
# High freq. dielectric constant tensor:
#      x y z
#    x 1.746770 0.000000 0.000000 
#    y 0.000000 1.794650 0.000000 
#    z 0.000000 0.000000 1.790850 
# 
# From -- ./inp_files/15004.got.cif
#   From: 2010.03.12/outbox.cif.g09.slc.cpg/sg59_8_cif.got.tgz:15004.got - 2010.04.16 16:29:54.
