data_PCOD8243089
_publ_section_title
;
Structure prediction by ZEFSAII (Michael W. Deem and Ramdas Pophale) SiO2 
 PCOD8243089
Probable space group: P M M N
;
_chemical_formula_sum "Si O2"
_cell_formula_units_Z 48
_cell_length_a 8.960509
_cell_length_b 14.127230
_cell_length_c 20.334479
_cell_angle_alpha 90.000000
_cell_angle_beta 90.000000
_cell_angle_gamma 90.000000
_cell_volume 2574.084182
_symmetry_space_group_name_H-M "P M M N"
_symmetry_group_IT_number 59
_space_group.IT_coordinate_system_code '2'
_symmetry_cell_setting 'orthorhombic'
loop_
_space_group_symop_operation_xyz
x,y,z
1/2-x,1/2-y,z
1/2+x,-y,-z
-x,1/2+y,-z
-x,-y,-z
1/2+x,1/2+y,-z
1/2-x,y,z
x,1/2-y,z
loop_
_atom_site_type_symbol
_atom_site_label
_atom_site_fract_x
_atom_site_fract_y
_atom_site_fract_z
Si Si1 0.572765 0.545102 0.816004
Si Si2 0.575072 0.750000 0.361891
Si Si3 0.923315 0.053326 0.441790
Si Si4 0.577364 0.250000 0.496796
Si Si5 0.924257 0.750000 0.008230
Si Si6 0.573252 0.551379 0.060620
Si Si7 0.926734 0.750000 0.860780
Si Si8 0.926295 0.953578 0.309833
O O1 0.750000 0.537009 0.821688
O O2 0.498240 0.484291 0.872816
O O3 0.520512 0.655165 0.822248
O O4 0.518148 0.498990 0.748925
O O5 0.750000 0.750000 0.373626
O O6 0.507879 0.750000 0.434519
O O7 0.527613 0.656381 0.321096
O O8 0.750000 0.032788 0.448087
O O9 0.964751 0.162909 0.449822
O O10 0.979827 0.014268 0.372377
O O11 0.000000 0.000000 0.500000
O O12 0.750000 0.250000 0.516371
O O13 0.750000 0.750000 0.994697
O O14 0.970747 0.839160 0.052011
O O15 0.997214 0.750000 0.934785
O O16 0.750000 0.534505 0.061401
O O17 0.500000 0.500000 0.000000
O O18 0.750000 0.750000 0.865285
O O19 0.750000 0.962817 0.296026
#
# Coordination Sequence:
#
# PCOD8243089 Si02
#       8
#     8   4   8   4   4   8   4   8
#     4  11  23  40  61  85 117 154 194 240 289 344
#     4  10  20  37  60  83 113 157 195 231 286 355
#     4  10  20  35  57  84 115 148 189 237 287 339
#     4  10  20  33  56  90 119 147 187 244 296 335
#     4   9  18  35  60  85 116 154 187 227 284 343
#     4  11  21  37  61  88 116 151 193 236 284 340
#     4   9  18  37  60  82 112 152 191 230 288 349
#     4  10  22  39  58  84 118 154 194 237 286 346
#
# _framework density 18.647407999999999
#
# number of rings (size 3 to 8) (size 9 to 14) (size 15 to 20)
#    0.000    1.833    3.333    1.000    0.000    2.667 
#    0.000    8.333    0.000    0.000    0.000    0.000 
#    0.000    0.000    0.000    0.000    0.000    0.000 
#
# Total GULP energy -595091.091240 kJ/mol
# GULP energy per Si atom -12397.731068 kJ/mol
# Density = 1.860497 g / cm^3
# Si number density = 18.647408 Si / 1000 Ang^3
#
#
#
# Elastic Constant Matrix: (Units=GPa)
#
#
# Indices 1 2 3 4 5 6 
#
# 1 58.0793 54.7237 53.9099 0.0000 0.0000 0.0000
# 2 54.7237 194.3359 98.5376 0.0000 0.0000 0.0000
# 3 53.9099 98.5376 158.6792 0.0000 0.0000 0.0000
# 4 0.0000 0.0000 0.0000 31.8595 0.0000 0.0000
# 5 0.0000 0.0000 0.0000 0.0000 36.4263 0.0000
# 6 0.0000 0.0000 0.0000 0.0000 0.0000 23.5679
#
#
#
# Elastic Compliance Matrix: (Units=1/GPa)
#
#
# Indices 1 2 3 4 5 6 
#
# 1 0.027493 -0.004387 -0.006616 0.000000 0.000000 0.000000
# 2 -0.004387 0.008211 -0.003608 0.000000 0.000000 0.000000
# 3 -0.006616 -0.003608 0.010790 0.000000 0.000000 0.000000
# 4 0.000000 0.000000 0.000000 0.031388 0.000000 0.000000
# 5 0.000000 0.000000 0.000000 0.000000 0.027453 0.000000
# 6 0.000000 0.000000 0.000000 0.000000 0.000000 0.042431
#
#
# Mechanical properties :
#
#
# Convention : Reuss Voigt Hill
#
# Bulk Modulus (GPa) = 57.90074 91.71520 74.80797
# Shear Modulus (GPa) = 27.36060 31.96560 29.66310
#
# Velocity S-wave (km/s) = 3.83464 4.14480 3.99273
# Velocity P-wave (km/s) = 7.12205 8.49685 7.83964
#
# Compressibility (1/GPa) = 0.01727094
#
# Stress axis : x y z
#
# Youngs Moduli (GPa) = 36.37346 121.79311 92.67466
#
# Poissons Ratio (x) = 0.53431 0.61314
# Poissons Ratio (y) = 0.15957 0.33439
# Poissons Ratio (z) = 0.24065 0.43946
#
# Static dielectric constant tensor:
#      x y z
#    x 3.353100 0.000000 0.000000 
#    y 0.000000 3.796000 0.000000 
#    z 0.000000 0.000000 1.482260 
# 
# 
# High freq. dielectric constant tensor:
#      x y z
#    x 1.709090 0.000000 0.000000 
#    y 0.000000 1.745040 0.000000 
#    z 0.000000 0.000000 1.724790 
# 
# From -- ./inp_files/25707.got.cif
#   From: 2010.03.12/outbox.cif.g09.slc.cpg/sg59_13_cif.got.tgz:25707.got - 2010.04.16 16:29:54.
