data_PCOD8243913
_publ_section_title
;
Structure prediction by ZEFSAII (Michael W. Deem and Ramdas Pophale) SiO2 
 PCOD8243913
Probable space group: P M M N
;
_chemical_formula_sum "Si O2"
_cell_formula_units_Z 56
_cell_length_a 8.880894
_cell_length_b 22.497313
_cell_length_c 15.039420
_cell_angle_alpha 90.000000
_cell_angle_beta 90.000000
_cell_angle_gamma 90.000000
_cell_volume 3004.819749
_symmetry_space_group_name_H-M "P M M N"
_symmetry_group_IT_number 59
_space_group.IT_coordinate_system_code '2'
_symmetry_cell_setting 'orthorhombic'
loop_
_space_group_symop_operation_xyz
x,y,z
1/2-x,1/2-y,z
1/2+x,-y,-z
-x,1/2+y,-z
-x,-y,-z
1/2+x,1/2+y,-z
1/2-x,y,z
x,1/2-y,z
loop_
_atom_site_type_symbol
_atom_site_label
_atom_site_fract_x
_atom_site_fract_y
_atom_site_fract_z
Si Si1 0.928624 0.915350 0.788804
Si Si2 0.074186 0.945253 0.611307
Si Si3 0.928309 0.683509 0.923443
Si Si4 0.426887 0.079173 0.571641
Si Si5 0.921320 0.990546 0.093313
Si Si6 0.071543 0.183651 0.699536
Si Si7 0.920434 0.647445 0.112481
O O1 0.750000 0.916161 0.785896
O O2 0.991521 0.860713 0.848263
O O3 0.991404 0.909810 0.689644
O O4 0.988335 0.975960 0.830592
O O5 0.250000 0.933229 0.619212
O O6 0.015219 0.916865 0.520450
O O7 0.038391 0.015743 0.617697
O O8 0.750000 0.674572 0.929316
O O9 0.973492 0.750000 0.895562
O O10 0.999962 0.668430 0.020552
O O11 0.250000 0.085749 0.552234
O O12 0.489958 0.132935 0.632881
O O13 0.750000 0.013683 0.087690
O O14 0.926005 0.922763 0.121522
O O15 0.000000 0.000000 0.000000
O O16 0.250000 0.175433 0.705370
O O17 0.028099 0.250000 0.665541
O O18 0.002258 0.174609 0.798859
O O19 0.750000 0.671155 0.108779
#
# Coordination Sequence:
#
# PCOD8243913 Si02
#       7
#     8   8   8   8   8   8   8
#     4  11  21  34  52  79 108 137 174 218 265 312
#     4  10  20  35  56  79 102 135 173 213 265 318
#     4   9  17  30  48  71 101 137 178 219 255 298
#     4   9  18  34  54  79 107 132 166 214 261 314
#     4  11  20  32  50  76 108 141 176 218 265 311
#     4   9  16  27  48  78 107 134 167 212 263 309
#     4   9  16  28  47  74 106 137 172 213 257 305
#
# _framework density 18.636724999999998
#
# number of rings (size 3 to 8) (size 9 to 14) (size 15 to 20)
#    0.000    2.286    1.429    2.571    0.000    4.571 
#    0.000    0.714    0.000    6.429    0.000    0.000 
#    0.000    0.000    0.000    0.000    0.000    0.000 
#
# Total GULP energy -694268.572360 kJ/mol
# GULP energy per Si atom -12397.653078 kJ/mol
# Density = 1.859431 g / cm^3
# Si number density = 18.636725 Si / 1000 Ang^3
#
#
#
# Elastic Constant Matrix: (Units=GPa)
#
#
# Indices 1 2 3 4 5 6 
#
# 1 47.4392 23.1139 41.7546 0.0000 0.0000 0.0000
# 2 23.1139 107.1854 71.9402 0.0000 0.0000 0.0000
# 3 41.7546 71.9402 144.8527 0.0000 0.0000 0.0000
# 4 0.0000 0.0000 0.0000 26.5198 0.0000 0.0000
# 5 0.0000 0.0000 0.0000 0.0000 25.6402 0.0000
# 6 0.0000 0.0000 0.0000 0.0000 0.0000 17.7804
#
#
#
# Elastic Compliance Matrix: (Units=1/GPa)
#
#
# Indices 1 2 3 4 5 6 
#
# 1 0.028309 -0.000942 -0.007693 0.000000 0.000000 0.000000
# 2 -0.000942 0.014026 -0.006694 0.000000 0.000000 0.000000
# 3 -0.007693 -0.006694 0.012446 0.000000 0.000000 0.000000
# 4 0.000000 0.000000 0.000000 0.037708 0.000000 0.000000
# 5 0.000000 0.000000 0.000000 0.000000 0.039001 0.000000
# 6 0.000000 0.000000 0.000000 0.000000 0.000000 0.056242
#
#
# Mechanical properties :
#
#
# Convention : Reuss Voigt Hill
#
# Bulk Modulus (GPa) = 41.45341 63.67720 52.56531
# Shear Modulus (GPa) = 22.08188 24.83265 23.45726
#
# Velocity S-wave (km/s) = 3.44591 3.65424 3.55161
# Velocity P-wave (km/s) = 6.17443 7.21432 6.71454
#
# Compressibility (1/GPa) = 0.02412347
#
# Stress axis : x y z
#
# Youngs Moduli (GPa) = 35.32413 71.29713 80.34864
#
# Poissons Ratio (x) = 0.06713 0.61809
# Poissons Ratio (y) = 0.03326 0.53789
# Poissons Ratio (z) = 0.27174 0.47729
#
# Static dielectric constant tensor:
#      x y z
#    x 3.086820 0.000000 0.000000 
#    y 0.000000 3.152170 0.000000 
#    z 0.000000 0.000000 3.532310 
# 
# 
# High freq. dielectric constant tensor:
#      x y z
#    x 1.680420 0.000000 0.000000 
#    y 0.000000 1.721360 0.000000 
#    z 0.000000 0.000000 1.732810 
# 
# From -- ./inp_files/21045.got.cif
#   From: 2010.03.12/outbox.cif.g09.slc.cpg/sg59_11_cif.got.tgz:21045.got - 2010.04.16 16:29:54.
