data_PCOD8243906
_publ_section_title
;
Structure prediction by ZEFSAII (Michael W. Deem and Ramdas Pophale) SiO2 
 PCOD8243906
Probable space group: P M M N
;
_chemical_formula_sum "Si O2"
_cell_formula_units_Z 40
_cell_length_a 9.079916
_cell_length_b 18.130983
_cell_length_c 12.779662
_cell_angle_alpha 90.000000
_cell_angle_beta 90.000000
_cell_angle_gamma 90.000000
_cell_volume 2103.887674
_symmetry_space_group_name_H-M "P M M N"
_symmetry_group_IT_number 59
_space_group.IT_coordinate_system_code '2'
_symmetry_cell_setting 'orthorhombic'
loop_
_space_group_symop_operation_xyz
x,y,z
1/2-x,1/2-y,z
1/2+x,-y,-z
-x,1/2+y,-z
-x,-y,-z
1/2+x,1/2+y,-z
1/2-x,y,z
x,1/2-y,z
loop_
_atom_site_type_symbol
_atom_site_label
_atom_site_fract_x
_atom_site_fract_y
_atom_site_fract_z
Si Si1 0.579620 0.334707 0.486408
Si Si2 0.424990 0.668144 0.128041
Si Si3 0.075670 0.094189 0.296748
Si Si4 0.925051 0.427698 0.682459
Si Si5 0.419912 0.836357 0.893631
O O1 0.750000 0.352220 0.464082
O O2 0.557588 0.250000 0.519359
O O3 0.490274 0.350242 0.381372
O O4 0.516422 0.385301 0.579886
O O5 0.250000 0.671378 0.134504
O O6 0.487817 0.750000 0.151399
O O7 0.490095 0.611550 0.213543
O O8 0.470157 0.642809 0.011385
O O9 0.250000 0.099358 0.300300
O O10 0.022023 0.116376 0.182122
O O11 0.019434 0.011588 0.321495
O O12 0.750000 0.423384 0.685860
O O13 0.250000 0.857301 0.874223
O O14 0.444165 0.750000 0.872828
#
# Coordination Sequence:
#
# PCOD8243906 Si02
#       5
#     8   8   8   8   8
#     4  10  20  35  56  76  94 124 168 211 245 284
#     4   8  14  28  52  77  98 124 163 209 248 282
#     4  11  22  33  48  73 106 137 160 193 246 300
#     4   9  18  32  50  75 103 127 158 203 252 296
#     4   9  18  33  53  75  98 128 168 208 241 280
#
# _framework density 19.012422000000001
#
# number of rings (size 3 to 8) (size 9 to 14) (size 15 to 20)
#    0.000    2.600    0.000    3.600    0.000    6.400 
#    0.000    1.000    0.000    2.400    0.000    2.800 
#    0.000    0.000    0.000    0.000    0.000    0.000 
#
# Total GULP energy -496007.731375 kJ/mol
# GULP energy per Si atom -12400.193284 kJ/mol
# Density = 1.896915 g / cm^3
# Si number density = 19.012422 Si / 1000 Ang^3
#
#
#
# Elastic Constant Matrix: (Units=GPa)
#
#
# Indices 1 2 3 4 5 6 
#
# 1 41.0820 27.6734 27.6985 0.0000 0.0000 0.0000
# 2 27.6734 80.3052 38.7785 0.0000 0.0000 0.0000
# 3 27.6985 38.7785 115.1801 0.0000 0.0000 0.0000
# 4 0.0000 0.0000 0.0000 32.3437 0.0000 0.0000
# 5 0.0000 0.0000 0.0000 0.0000 15.4377 0.0000
# 6 0.0000 0.0000 0.0000 0.0000 0.0000 20.9639
#
#
#
# Elastic Compliance Matrix: (Units=1/GPa)
#
#
# Indices 1 2 3 4 5 6 
#
# 1 0.033996 -0.009275 -0.005053 0.000000 0.000000 0.000000
# 2 -0.009275 0.017401 -0.003628 0.000000 0.000000 0.000000
# 3 -0.005053 -0.003628 0.011119 0.000000 0.000000 0.000000
# 4 0.000000 0.000000 0.000000 0.030918 0.000000 0.000000
# 5 0.000000 0.000000 0.000000 0.000000 0.064777 0.000000
# 6 0.000000 0.000000 0.000000 0.000000 0.000000 0.047701
#
#
# Mechanical properties :
#
#
# Convention : Reuss Voigt Hill
#
# Bulk Modulus (GPa) = 37.58873 47.20758 42.39816
# Shear Modulus (GPa) = 19.94492 23.24351 21.59422
#
# Velocity S-wave (km/s) = 3.24241 3.50028 3.37381
# Velocity P-wave (km/s) = 5.81646 6.42026 6.12580
#
# Compressibility (1/GPa) = 0.02660372
#
# Stress axis : x y z
#
# Youngs Moduli (GPa) = 29.41517 57.46914 89.93998
#
# Poissons Ratio (x) = 0.53304 0.45443
# Poissons Ratio (y) = 0.27283 0.32629
# Poissons Ratio (z) = 0.14862 0.20849
#
# Static dielectric constant tensor:
#      x y z
#    x 2.989060 0.000000 0.000000 
#    y 0.000000 3.618270 0.000000 
#    z 0.000000 0.000000 3.673470 
# 
# 
# High freq. dielectric constant tensor:
#      x y z
#    x 1.690230 0.000000 0.000000 
#    y 0.000000 1.743110 0.000000 
#    z 0.000000 0.000000 1.755230 
# 
# From -- ./inp_files/13835.got.cif
#   From: 2010.03.12/outbox.cif.g09.slc.cpg/sg59_7_cif.got.tgz:13835.got - 2010.04.16 16:29:54.
