data_PCOD8243315
_publ_section_title
;
Structure prediction by ZEFSAII (Michael W. Deem and Ramdas Pophale) SiO2 
 PCOD8243315
Probable space group: P M M N
;
_chemical_formula_sum "Si O2"
_cell_formula_units_Z 40
_cell_length_a 8.989751
_cell_length_b 9.039265
_cell_length_c 25.810899
_cell_angle_alpha 90.000000
_cell_angle_beta 90.000000
_cell_angle_gamma 90.000000
_cell_volume 2097.412793
_symmetry_space_group_name_H-M "P M M N"
_symmetry_group_IT_number 59
_space_group.IT_coordinate_system_code '2'
_symmetry_cell_setting 'orthorhombic'
loop_
_space_group_symop_operation_xyz
x,y,z
1/2-x,1/2-y,z
1/2+x,-y,-z
-x,1/2+y,-z
-x,-y,-z
1/2+x,1/2+y,-z
1/2-x,y,z
x,1/2-y,z
loop_
_atom_site_type_symbol
_atom_site_label
_atom_site_fract_x
_atom_site_fract_y
_atom_site_fract_z
Si Si1 0.424591 0.919978 0.847162
Si Si2 0.074005 0.579807 0.452025
Si Si3 0.926794 0.916817 0.650309
Si Si4 0.579659 0.576056 0.952470
Si Si5 0.078253 0.576445 0.246452
O O1 0.250000 0.940235 0.854308
O O2 0.467255 0.750000 0.835103
O O3 0.502378 0.975658 0.899516
O O4 0.480388 0.022637 0.801164
O O5 0.250000 0.562551 0.456611
O O6 0.024933 0.750000 0.451266
O O7 0.012924 0.504151 0.399656
O O8 0.000000 0.500000 0.500000
O O9 0.750000 0.917522 0.649655
O O10 0.989679 0.750000 0.649203
O O11 0.983785 0.997294 0.702056
O O12 0.750000 0.524656 0.950580
O O13 0.563824 0.750000 0.959844
O O14 0.500000 0.500000 0.000000
O O15 0.250000 0.534545 0.236184
O O16 0.057893 0.750000 0.254224
#
# Coordination Sequence:
#
# PCOD8243315 Si02
#       5
#     8   8   8   8   8
#     4  10  21  37  56  78 106 141 179 219 264 314
#     4  10  20  34  53  78 108 141 178 221 268 319
#     4   9  17  31  53  78 104 137 176 218 265 317
#     4  10  21  37  58  83 110 142 180 221 266 316
#     4  10  20  34  54  80 107 136 173 217 264 315
#
# _framework density 19.071114000000001
#
# number of rings (size 3 to 8) (size 9 to 14) (size 15 to 20)
#    0.000    2.200    0.000    3.000    0.000    8.000 
#    0.000    1.000    0.000    6.000    0.000    0.000 
#    0.000    0.000    0.000    0.000    0.000    0.000 
#
# Total GULP energy -496148.955694 kJ/mol
# GULP energy per Si atom -12403.723892 kJ/mol
# Density = 1.902771 g / cm^3
# Si number density = 19.071114 Si / 1000 Ang^3
#
#
#
# Elastic Constant Matrix: (Units=GPa)
#
#
# Indices 1 2 3 4 5 6 
#
# 1 69.4530 41.4369 57.8214 0.0000 0.0000 0.0000
# 2 41.4369 117.3530 81.9460 0.0000 0.0000 0.0000
# 3 57.8214 81.9460 188.4917 0.0000 0.0000 0.0000
# 4 0.0000 0.0000 0.0000 44.5032 0.0000 0.0000
# 5 0.0000 0.0000 0.0000 0.0000 34.5688 0.0000
# 6 0.0000 0.0000 0.0000 0.0000 0.0000 26.9156
#
#
#
# Elastic Compliance Matrix: (Units=1/GPa)
#
#
# Indices 1 2 3 4 5 6 
#
# 1 0.020633 -0.004115 -0.004540 0.000000 0.000000 0.000000
# 2 -0.004115 0.013056 -0.004414 0.000000 0.000000 0.000000
# 3 -0.004540 -0.004414 0.008617 0.000000 0.000000 0.000000
# 4 0.000000 0.000000 0.000000 0.022470 0.000000 0.000000
# 5 0.000000 0.000000 0.000000 0.000000 0.028928 0.000000
# 6 0.000000 0.000000 0.000000 0.000000 0.000000 0.037153
#
#
# Mechanical properties :
#
#
# Convention : Reuss Voigt Hill
#
# Bulk Modulus (GPa) = 61.85038 81.96737 71.90887
# Shear Modulus (GPa) = 30.79075 34.13707 32.46391
#
# Velocity S-wave (km/s) = 4.02247 4.23542 4.13032
# Velocity P-wave (km/s) = 7.35361 8.18483 7.78033
#
# Compressibility (1/GPa) = 0.01616805
#
# Stress axis : x y z
#
# Youngs Moduli (GPa) = 48.46514 76.59028 116.04914
#
# Poissons Ratio (x) = 0.31517 0.52692
# Poissons Ratio (y) = 0.19944 0.51223
# Poissons Ratio (z) = 0.22005 0.33806
#
# Static dielectric constant tensor:
#      x y z
#    x 3.294370 0.000000 0.000000 
#    y 0.000000 3.516920 0.000000 
#    z 0.000000 0.000000 3.621450 
# 
# 
# High freq. dielectric constant tensor:
#      x y z
#    x 1.719450 0.000000 0.000000 
#    y 0.000000 1.747970 0.000000 
#    z 0.000000 0.000000 1.759010 
# 
# From -- ./inp_files/31131.got.cif
#   From: 2010.03.12/outbox.cif.g09.slc.cpg/sg59_16_cif.got.tgz:31131.got - 2010.04.16 16:29:54.
