data_PCOD8243912
_publ_section_title
;
Structure prediction by ZEFSAII (Michael W. Deem and Ramdas Pophale) SiO2 
 PCOD8243912
Probable space group: P M M N
;
_chemical_formula_sum "Si O2"
_cell_formula_units_Z 56
_cell_length_a 8.768879
_cell_length_b 15.391516
_cell_length_c 20.929482
_cell_angle_alpha 90.000000
_cell_angle_beta 90.000000
_cell_angle_gamma 90.000000
_cell_volume 2824.775614
_symmetry_space_group_name_H-M "P M M N"
_symmetry_group_IT_number 59
_space_group.IT_coordinate_system_code '2'
_symmetry_cell_setting 'orthorhombic'
loop_
_space_group_symop_operation_xyz
x,y,z
1/2-x,1/2-y,z
1/2+x,-y,-z
-x,1/2+y,-z
-x,-y,-z
1/2+x,1/2+y,-z
1/2-x,y,z
x,1/2-y,z
loop_
_atom_site_type_symbol
_atom_site_label
_atom_site_fract_x
_atom_site_fract_y
_atom_site_fract_z
Si Si1 0.928005 0.657445 0.092051
Si Si2 0.569179 0.481861 0.153907
Si Si3 0.426779 0.079972 0.035796
Si Si4 0.929438 0.511600 0.710658
Si Si5 0.073934 0.847423 0.619711
Si Si6 0.072609 0.151114 0.646572
Si Si7 0.570552 0.905416 0.495590
O O1 0.750000 0.653866 0.107095
O O2 0.996177 0.750000 0.116746
O O3 0.998928 0.575251 0.129729
O O4 0.952513 0.657563 0.014861
O O5 0.750000 0.480042 0.155876
O O6 0.511411 0.407763 0.104013
O O7 0.505369 0.460613 0.223116
O O8 0.250000 0.063380 0.049642
O O9 0.500000 0.000000 0.000000
O O10 0.750000 0.513795 0.718182
O O11 0.978961 0.582740 0.659237
O O12 0.978722 0.414803 0.690618
O O13 0.250000 0.876755 0.619429
O O14 0.056291 0.750000 0.648188
O O15 0.009628 0.845109 0.547976
O O16 0.250000 0.133568 0.659623
O O17 0.028636 0.250000 0.664906
O O18 0.033163 0.136047 0.572691
O O19 0.750000 0.909730 0.508680
O O20 0.500000 0.000000 0.500000
#
# Coordination Sequence:
#
# PCOD8243912 Si02
#       7
#     8   8   8   8   8   8   8
#     4   8  15  29  52  82 110 139 179 226 276 332
#     4  10  20  35  56  78 108 149 190 234 284 345
#     4   9  16  29  51  77 105 138 177 221 271 328
#     4  12  25  40  60  85 117 157 200 249 299 357
#     4  11  24  42  64  88 116 152 196 248 304 360
#     4  10  22  40  61  85 118 159 199 240 291 354
#     4  11  21  36  62  92 121 154 194 241 297 354
#
# _framework density 19.824584000000002
#
# number of rings (size 3 to 8) (size 9 to 14) (size 15 to 20)
#    0.000    1.857    1.429    4.286    0.000    3.143 
#    0.000    2.143    0.000   17.571    0.000    0.000 
#    0.000    0.000    0.000    0.000    0.000    0.000 
#
# Total GULP energy -694135.654744 kJ/mol
# GULP energy per Si atom -12395.279549 kJ/mol
# Density = 1.977946 g / cm^3
# Si number density = 19.824584 Si / 1000 Ang^3
#
#
#
# Elastic Constant Matrix: (Units=GPa)
#
#
# Indices 1 2 3 4 5 6 
#
# 1 91.0386 13.7366 26.0861 0.0000 0.0000 0.0000
# 2 13.7366 59.6384 -3.4984 0.0000 0.0000 0.0000
# 3 26.0861 -3.4984 82.0139 0.0000 0.0000 0.0000
# 4 0.0000 0.0000 0.0000 14.5674 0.0000 0.0000
# 5 0.0000 0.0000 0.0000 0.0000 37.2126 0.0000
# 6 0.0000 0.0000 0.0000 0.0000 0.0000 19.7068
#
#
#
# Elastic Compliance Matrix: (Units=1/GPa)
#
#
# Indices 1 2 3 4 5 6 
#
# 1 0.012653 -0.003158 -0.004159 0.000000 0.000000 0.000000
# 2 -0.003158 0.017598 0.001755 0.000000 0.000000 0.000000
# 3 -0.004159 0.001755 0.013591 0.000000 0.000000 0.000000
# 4 0.000000 0.000000 0.000000 0.068647 0.000000 0.000000
# 5 0.000000 0.000000 0.000000 0.000000 0.026873 0.000000
# 6 0.000000 0.000000 0.000000 0.000000 0.000000 0.050744
#
#
# Mechanical properties :
#
#
# Convention : Reuss Voigt Hill
#
# Bulk Modulus (GPa) = 30.56495 33.92661 32.24578
# Shear Modulus (GPa) = 23.56992 27.38846 25.47919
#
# Velocity S-wave (km/s) = 3.45182 3.72094 3.58890
# Velocity P-wave (km/s) = 5.59803 5.96750 5.78571
#
# Compressibility (1/GPa) = 0.03271721
#
# Stress axis : x y z
#
# Youngs Moduli (GPa) = 79.03484 56.82422 73.57906
#
# Poissons Ratio (x) = 0.17947 0.30603
# Poissons Ratio (y) = 0.24961 -0.12915
# Poissons Ratio (z) = 0.32872 -0.09974
#
# Static dielectric constant tensor:
#      x y z
#    x 3.645750 0.000000 0.000000 
#    y 0.000000 3.734390 0.000000 
#    z 0.000000 0.000000 3.884460 
# 
# 
# High freq. dielectric constant tensor:
#      x y z
#    x 1.766970 0.000000 0.000000 
#    y 0.000000 1.765580 0.000000 
#    z 0.000000 0.000000 1.773670 
# 
# From -- ./inp_files/29066.got.cif
#   From: 2010.03.12/outbox.cif.g09.slc.cpg/sg59_15_cif.got.tgz:29066.got - 2010.04.16 16:29:54.
