data_PCOD8243885
_publ_section_title
;
Structure prediction by ZEFSAII (Michael W. Deem and Ramdas Pophale) SiO2 
 PCOD8243885
Probable space group: P M M N
;
_chemical_formula_sum "Si O2"
_cell_formula_units_Z 64
_cell_length_a 21.654469
_cell_length_b 8.888904
_cell_length_c 16.687362
_cell_angle_alpha 90.000000
_cell_angle_beta 90.000000
_cell_angle_gamma 90.000000
_cell_volume 3212.058466
_symmetry_space_group_name_H-M "P M M N"
_symmetry_group_IT_number 59
_space_group.IT_coordinate_system_code '2'
_symmetry_cell_setting 'orthorhombic'
loop_
_space_group_symop_operation_xyz
x,y,z
1/2-x,1/2-y,z
1/2+x,-y,-z
-x,1/2+y,-z
-x,-y,-z
1/2+x,1/2+y,-z
1/2-x,y,z
x,1/2-y,z
loop_
_atom_site_type_symbol
_atom_site_label
_atom_site_fract_x
_atom_site_fract_y
_atom_site_fract_z
Si Si1 0.989132 0.571401 0.182228
Si Si2 0.321008 0.071920 0.537365
Si Si3 0.180514 0.077631 0.063216
Si Si4 0.089455 0.918165 0.947193
Si Si5 0.884770 0.922104 0.776959
Si Si6 0.817412 0.413455 0.194172
Si Si7 0.607752 0.922888 0.310081
Si Si8 0.321737 0.575541 0.369961
O O1 0.982060 0.750000 0.178791
O O2 0.966842 0.508296 0.095177
O O3 0.950188 0.506023 0.259918
O O4 0.058827 0.523731 0.193911
O O5 0.250000 0.033791 0.562969
O O6 0.327266 0.250000 0.523489
O O7 0.371710 0.013003 0.602937
O O8 0.339184 0.984057 0.457517
O O9 0.250000 0.012760 0.045152
O O10 0.177935 0.250000 0.034766
O O11 0.170192 0.064209 0.158638
O O12 0.121806 0.994687 0.023461
O O13 0.066501 0.750000 0.970751
O O14 0.142995 0.912329 0.884020
O O15 0.906868 0.750000 0.767556
O O16 0.861364 0.981321 0.692352
O O17 0.750000 0.445458 0.161436
O O18 0.823024 0.250000 0.237916
O O19 0.833270 0.547854 0.254273
O O20 0.594207 0.750000 0.321708
O O21 0.250000 0.548732 0.351997
O O22 0.339707 0.750000 0.363821
#
# Coordination Sequence:
#
# PCOD8243885 Si02
#       8
#     8   8   8   8   8   8   8   8
#     4  10  21  38  58  81 112 149 189 231 273 321
#     4   9  17  31  53  81 112 144 179 221 271 327
#     4  10  22  39  59  84 111 139 176 225 279 332
#     4  10  20  35  55  80 111 146 183 222 268 324
#     4  11  23  40  61  82 107 143 187 232 279 330
#     4   9  17  28  44  70 105 142 177 216 264 316
#     4   9  18  32  51  76 106 142 184 226 267 318
#     4  10  21  37  58  85 114 142 176 222 277 332
#
# _framework density 19.924917000000001
#
# number of rings (size 3 to 8) (size 9 to 14) (size 15 to 20)
#    0.000    2.250    0.000    2.625    0.000    5.750 
#    0.000    1.875    0.000    0.000    0.000    0.000 
#    0.000    0.000    0.000    0.000    0.000    0.000 
#
# Total GULP energy -792969.087562 kJ/mol
# GULP energy per Si atom -12390.141993 kJ/mol
# Density = 1.987957 g / cm^3
# Si number density = 19.924917 Si / 1000 Ang^3
#
#
#
# Elastic Constant Matrix: (Units=GPa)
#
#
# Indices 1 2 3 4 5 6 
#
# 1 46.2996 18.4609 14.8153 0.0000 0.0000 0.0000
# 2 18.4609 57.0831 26.7399 0.0000 0.0000 0.0000
# 3 14.8153 26.7399 84.8879 0.0000 0.0000 0.0000
# 4 0.0000 0.0000 0.0000 28.1163 0.0000 0.0000
# 5 0.0000 0.0000 0.0000 0.0000 51.0494 0.0000
# 6 0.0000 0.0000 0.0000 0.0000 0.0000 21.6736
#
#
#
# Elastic Compliance Matrix: (Units=1/GPa)
#
#
# Indices 1 2 3 4 5 6 
#
# 1 0.025123 -0.007122 -0.002141 0.000000 0.000000 0.000000
# 2 -0.007122 0.022570 -0.005867 0.000000 0.000000 0.000000
# 3 -0.002141 -0.005867 0.014002 0.000000 0.000000 0.000000
# 4 0.000000 0.000000 0.000000 0.035566 0.000000 0.000000
# 5 0.000000 0.000000 0.000000 0.000000 0.019589 0.000000
# 6 0.000000 0.000000 0.000000 0.000000 0.000000 0.046139
#
#
# Mechanical properties :
#
#
# Convention : Reuss Voigt Hill
#
# Bulk Modulus (GPa) = 31.81122 34.25586 33.03354
# Shear Modulus (GPa) = 24.54259 28.71818 26.63038
#
# Velocity S-wave (km/s) = 3.51344 3.80059 3.65983
# Velocity P-wave (km/s) = 5.69730 6.04062 5.87147
#
# Compressibility (1/GPa) = 0.03143545
#
# Stress axis : x y z
#
# Youngs Moduli (GPa) = 39.80360 44.30719 71.41875
#
# Poissons Ratio (x) = 0.31555 0.15293
# Poissons Ratio (y) = 0.28348 0.41898
# Poissons Ratio (z) = 0.08523 0.25993
#
# Static dielectric constant tensor:
#      x y z
#    x 3.885380 0.000000 0.000000 
#    y 0.000000 3.853470 0.000000 
#    z 0.000000 0.000000 3.758360 
# 
# 
# High freq. dielectric constant tensor:
#      x y z
#    x 1.770580 0.000000 0.000000 
#    y 0.000000 1.772910 0.000000 
#    z 0.000000 0.000000 1.776960 
# 
# From -- ./inp_files/24715.got.cif
#   From: 2010.03.12/outbox.cif.g09.slc.cpg/sg59_13_cif.got.tgz:24715.got - 2010.04.16 16:29:54.
