data_PCOD8243502
_publ_section_title
;
Structure prediction by ZEFSAII (Michael W. Deem and Ramdas Pophale) SiO2 
 PCOD8243502
Probable space group: P M M N
;
_chemical_formula_sum "Si O2"
_cell_formula_units_Z 56
_cell_length_a 22.852680
_cell_length_b 8.576335
_cell_length_c 14.241497
_cell_angle_alpha 90.000000
_cell_angle_beta 90.000000
_cell_angle_gamma 90.000000
_cell_volume 2791.222888
_symmetry_space_group_name_H-M "P M M N"
_symmetry_group_IT_number 59
_space_group.IT_coordinate_system_code '2'
_symmetry_cell_setting 'orthorhombic'
loop_
_space_group_symop_operation_xyz
x,y,z
1/2-x,1/2-y,z
1/2+x,-y,-z
-x,1/2+y,-z
-x,-y,-z
1/2+x,1/2+y,-z
1/2-x,y,z
x,1/2-y,z
loop_
_atom_site_type_symbol
_atom_site_label
_atom_site_fract_x
_atom_site_fract_y
_atom_site_fract_z
Si Si1 0.096024 0.430829 0.142855
Si Si2 0.138791 0.931940 0.529169
Si Si3 0.088965 0.432345 0.354174
Si Si4 0.472542 0.070750 0.857010
Si Si5 0.250000 0.564703 0.856624
Si Si6 0.864917 0.067578 0.036846
Si Si7 0.464523 0.429235 0.641925
Si Si8 0.750000 0.064468 0.355388
O O1 0.108715 0.250000 0.126558
O O2 0.110014 0.481430 0.249991
O O3 0.028314 0.465073 0.119080
O O4 0.138450 0.529668 0.074348
O O5 0.146269 0.750000 0.509755
O O6 0.192839 0.997405 0.590185
O O7 0.138709 0.020472 0.428932
O O8 0.079072 0.962360 0.584429
O O9 0.075079 0.250000 0.357117
O O10 0.030605 0.524567 0.383218
O O11 0.490479 0.250000 0.872550
O O12 0.451566 0.040915 0.751046
O O13 0.420163 0.025784 0.924731
O O14 0.250000 0.750000 0.855243
O O15 0.192996 0.503871 0.911770
O O16 0.250000 0.496897 0.750682
O O17 0.873186 0.250000 0.054850
O O18 0.454459 0.250000 0.613127
O O19 0.750000 0.250000 0.350500
#
# Coordination Sequence:
#
# PCOD8243502 Si02
#       8
#     8   8   8   8   4   8   8   4
#     4  10  21  37  56  79 109 144 181 222 269 322
#     4  11  21  35  57  81 108 143 182 225 270 318
#     4  10  21  37  56  79 109 144 181 222 269 322
#     4  10  20  34  54  82 114 145 179 221 269 322
#     4   9  20  38  58  81 108 140 179 219 262 317
#     4  11  21  35  57  81 108 143 182 225 270 318
#     4  10  20  34  54  82 114 145 179 221 269 322
#     4   9  20  38  58  81 108 140 179 219 262 317
#
# _framework density 20.062891
#
# number of rings (size 3 to 8) (size 9 to 14) (size 15 to 20)
#    0.000    1.857    0.000    4.286    0.000    4.571 
#    0.000    3.571    0.000    9.429    0.000    0.000 
#    0.000    0.000    0.000    0.000    0.000    0.000 
#
# Total GULP energy -694625.295162 kJ/mol
# GULP energy per Si atom -12404.023128 kJ/mol
# Density = 2.001723 g / cm^3
# Si number density = 20.062891 Si / 1000 Ang^3
#
#
#
# Elastic Constant Matrix: (Units=GPa)
#
#
# Indices 1 2 3 4 5 6 
#
# 1 75.5921 11.2641 75.6991 0.0000 0.0000 0.0000
# 2 11.2641 42.9767 22.5261 0.0000 0.0000 0.0000
# 3 75.6991 22.5261 148.0374 0.0000 0.0000 0.0000
# 4 0.0000 0.0000 0.0000 32.7763 0.0000 0.0000
# 5 0.0000 0.0000 0.0000 0.0000 35.5546 0.0000
# 6 0.0000 0.0000 0.0000 0.0000 0.0000 20.5854
#
#
#
# Elastic Compliance Matrix: (Units=1/GPa)
#
#
# Indices 1 2 3 4 5 6 
#
# 1 0.027114 0.000175 -0.013891 0.000000 0.000000 0.000000
# 2 0.000175 0.025286 -0.003937 0.000000 0.000000 0.000000
# 3 -0.013891 -0.003937 0.014457 0.000000 0.000000 0.000000
# 4 0.000000 0.000000 0.000000 0.030510 0.000000 0.000000
# 5 0.000000 0.000000 0.000000 0.000000 0.028126 0.000000
# 6 0.000000 0.000000 0.000000 0.000000 0.000000 0.048578
#
#
# Mechanical properties :
#
#
# Convention : Reuss Voigt Hill
#
# Bulk Modulus (GPa) = 31.69554 53.95386 42.82470
# Shear Modulus (GPa) = 22.73814 28.25774 25.49794
#
# Velocity S-wave (km/s) = 3.37017 3.75701 3.56884
# Velocity P-wave (km/s) = 5.56565 6.76542 6.19465
#
# Compressibility (1/GPa) = 0.03155018
#
# Stress axis : x y z
#
# Youngs Moduli (GPa) = 36.88165 39.54730 69.16871
#
# Poissons Ratio (x) = -0.00690 0.96084
# Poissons Ratio (y) = -0.00644 0.27231
# Poissons Ratio (z) = 0.51233 0.15570
#
# Static dielectric constant tensor:
#      x y z
#    x 3.471730 0.000000 0.000000 
#    y 0.000000 3.462010 0.000000 
#    z 0.000000 0.000000 4.009180 
# 
# 
# High freq. dielectric constant tensor:
#      x y z
#    x 1.756370 0.000000 0.000000 
#    y 0.000000 1.775680 0.000000 
#    z 0.000000 0.000000 1.804010 
# 
# From -- ./inp_files/24409.got.cif
#   From: 2010.03.12/outbox.cif.g09.slc.cpg/sg59_13_cif.got.tgz:24409.got - 2010.04.16 16:29:54.
