data_PCOD8243100
_publ_section_title
;
Structure prediction by ZEFSAII (Michael W. Deem and Ramdas Pophale) SiO2 
 PCOD8243100
Probable space group: P M M N
;
_chemical_formula_sum "Si O2"
_cell_formula_units_Z 64
_cell_length_a 19.308546
_cell_length_b 18.826013
_cell_length_c 9.302592
_cell_angle_alpha 90.000000
_cell_angle_beta 90.000000
_cell_angle_gamma 90.000000
_cell_volume 3381.519523
_symmetry_space_group_name_H-M "P M M N"
_symmetry_group_IT_number 59
_space_group.IT_coordinate_system_code '2'
_symmetry_cell_setting 'orthorhombic'
loop_
_space_group_symop_operation_xyz
x,y,z
1/2-x,1/2-y,z
1/2+x,-y,-z
-x,1/2+y,-z
-x,-y,-z
1/2+x,1/2+y,-z
1/2-x,y,z
x,1/2-y,z
loop_
_atom_site_type_symbol
_atom_site_label
_atom_site_fract_x
_atom_site_fract_y
_atom_site_fract_z
Si Si1 0.576582 0.167495 0.280243
Si Si2 0.172547 0.085987 0.108869
Si Si3 0.328778 0.168085 0.834336
Si Si4 0.051647 0.565350 0.454081
Si Si5 0.576082 0.673280 0.713433
Si Si6 0.830174 0.331994 0.013363
Si Si7 0.170886 0.938414 0.229072
Si Si8 0.553365 0.671094 0.377777
O O1 0.592072 0.250000 0.330172
O O2 0.581200 0.111368 0.411826
O O3 0.499324 0.163613 0.214677
O O4 0.627998 0.142218 0.154205
O O5 0.250000 0.115253 0.129777
O O6 0.127402 0.112128 0.241365
O O7 0.169440 0.001382 0.111419
O O8 0.143086 0.117786 0.961116
O O9 0.250000 0.149769 0.791855
O O10 0.336220 0.250000 0.881672
O O11 0.375718 0.148957 0.698782
O O12 0.119182 0.543338 0.361274
O O13 0.000000 0.500000 0.500000
O O14 0.007632 0.615473 0.345950
O O15 0.606913 0.750000 0.757503
O O16 0.567954 0.667812 0.544798
O O17 0.750000 0.347071 0.047098
O O18 0.845820 0.250000 0.984787
O O19 0.852553 0.370795 0.865476
O O20 0.250000 0.929502 0.288992
O O21 0.529752 0.750000 0.329721
#
# Coordination Sequence:
#
# PCOD8243100 Si02
#       8
#     8   8   8   8   8   8   8   8
#     4   9  19  36  57  80 106 136 171 216 266 316
#     4  10  20  34  50  71 103 138 173 213 255 303
#     4   9  18  33  53  77 104 136 175 214 254 308
#     4  11  22  37  56  80 109 142 181 221 262 317
#     4   9  17  31  51  75 103 134 169 207 251 304
#     4   9  19  37  59  82 107 137 178 226 274 324
#     4  10  22  38  55  77 107 141 176 219 269 318
#     4   9  19  35  53  75 105 137 170 215 266 311
#
# _framework density 18.926403000000001
#
# number of rings (size 3 to 8) (size 9 to 14) (size 15 to 20)
#    0.000    2.500    0.000    3.000    0.000    4.750 
#    0.000    6.250    0.000    0.000    0.000    0.000 
#    0.000    0.000    0.000    0.000    0.000    0.000 
#
# Total GULP energy -793128.147518 kJ/mol
# GULP energy per Si atom -12392.627305 kJ/mol
# Density = 1.888333 g / cm^3
# Si number density = 18.926403 Si / 1000 Ang^3
#
#
#
# Elastic Constant Matrix: (Units=GPa)
#
#
# Indices 1 2 3 4 5 6 
#
# 1 92.6947 43.5519 56.2215 0.0000 0.0000 0.0000
# 2 43.5519 79.6016 36.4003 0.0000 0.0000 0.0000
# 3 56.2215 36.4003 62.8853 0.0000 0.0000 0.0000
# 4 0.0000 0.0000 0.0000 28.2209 0.0000 0.0000
# 5 0.0000 0.0000 0.0000 0.0000 37.7900 0.0000
# 6 0.0000 0.0000 0.0000 0.0000 0.0000 27.2487
#
#
#
# Elastic Compliance Matrix: (Units=1/GPa)
#
#
# Indices 1 2 3 4 5 6 
#
# 1 0.024777 -0.004660 -0.019454 0.000000 0.000000 0.000000
# 2 -0.004660 0.017961 -0.006230 0.000000 0.000000 0.000000
# 3 -0.019454 -0.006230 0.036901 0.000000 0.000000 0.000000
# 4 0.000000 0.000000 0.000000 0.035435 0.000000 0.000000
# 5 0.000000 0.000000 0.000000 0.000000 0.026462 0.000000
# 6 0.000000 0.000000 0.000000 0.000000 0.000000 0.036699
#
#
# Mechanical properties :
#
#
# Convention : Reuss Voigt Hill
#
# Bulk Modulus (GPa) = 52.76999 56.39213 54.58106
# Shear Modulus (GPa) = 20.38820 25.25245 22.82033
#
# Velocity S-wave (km/s) = 3.28569 3.65669 3.47614
# Velocity P-wave (km/s) = 6.50665 6.90570 6.70914
#
# Compressibility (1/GPa) = 0.01895017
#
# Stress axis : x y z
#
# Youngs Moduli (GPa) = 40.36018 55.67546 27.09974
#
# Poissons Ratio (x) = 0.25945 0.52720
# Poissons Ratio (y) = 0.18808 0.16884
# Poissons Ratio (z) = 0.78516 0.34688
#
# Static dielectric constant tensor:
#      x y z
#    x 3.617920 0.000000 0.000000 
#    y 0.000000 3.726440 0.000000 
#    z 0.000000 0.000000 3.229470 
# 
# 
# High freq. dielectric constant tensor:
#      x y z
#    x 1.735920 0.000000 0.000000 
#    y 0.000000 1.741380 0.000000 
#    z 0.000000 0.000000 1.716850 
# 
# From -- ./inp_files/11601.got.cif
#   From: 2010.03.12/outbox.cif.g09.slc.cpg/sg59_6_cif.got.tgz:11601.got - 2010.04.16 16:29:54.
