data_PCOD8243858
_publ_section_title
;
Structure prediction by ZEFSAII (Michael W. Deem and Ramdas Pophale) SiO2 
 PCOD8243858
Probable space group: P M M N
;
_chemical_formula_sum "Si O2"
_cell_formula_units_Z 48
_cell_length_a 8.817183
_cell_length_b 10.210806
_cell_length_c 29.146553
_cell_angle_alpha 90.000000
_cell_angle_beta 90.000000
_cell_angle_gamma 90.000000
_cell_volume 2624.080054
_symmetry_space_group_name_H-M "P M M N"
_symmetry_group_IT_number 59
_space_group.IT_coordinate_system_code '2'
_symmetry_cell_setting 'orthorhombic'
loop_
_space_group_symop_operation_xyz
x,y,z
1/2-x,1/2-y,z
1/2+x,-y,-z
-x,1/2+y,-z
-x,-y,-z
1/2+x,1/2+y,-z
1/2-x,y,z
x,1/2-y,z
loop_
_atom_site_type_symbol
_atom_site_label
_atom_site_fract_x
_atom_site_fract_y
_atom_site_fract_z
Si Si1 0.570212 0.250000 0.952706
Si Si2 0.073467 0.097897 0.807787
Si Si3 0.069870 0.104324 0.362843
Si Si4 0.928647 0.602129 0.534411
Si Si5 0.929978 0.250000 0.056425
Si Si6 0.570343 0.999793 0.896938
Si Si7 0.928242 0.099859 0.712057
O O1 0.750000 0.250000 0.952562
O O2 0.509544 0.377266 0.926245
O O3 0.506765 0.250000 0.004410
O O4 0.250000 0.064642 0.812158
O O5 0.039530 0.250000 0.816734
O O6 0.015947 0.057351 0.757703
O O7 0.979501 0.014190 0.844348
O O8 0.250000 0.101740 0.363123
O O9 0.014239 0.250000 0.347883
O O10 0.010993 0.072649 0.414125
O O11 0.008170 0.994034 0.328108
O O12 0.750000 0.585204 0.532683
O O13 0.974855 0.750000 0.520233
O O14 0.000000 0.500000 0.500000
O O15 0.750000 0.250000 0.056938
O O16 0.990715 0.125052 0.082385
O O17 0.750000 0.984106 0.899582
O O18 0.750000 0.080268 0.720478
O O19 0.964787 0.250000 0.698548
#
# Coordination Sequence:
#
# PCOD8243858 Si02
#       7
#     4   8   8   8   4   8   8
#     4   9  20  37  61  85 109 141 183 225 264 311
#     4  10  20  35  55  79 106 139 176 217 269 322
#     4   8  15  30  50  72 100 133 170 214 263 314
#     4   9  18  32  50  74 105 140 179 222 266 315
#     4  11  23  39  55  83 119 145 173 221 274 319
#     4  11  21  38  60  83 109 144 184 223 263 315
#     4   9  17  30  51  76  98 126 169 218 260 309
#
# _framework density 18.292124999999999
#
# number of rings (size 3 to 8) (size 9 to 14) (size 15 to 20)
#    0.000    2.500    0.833    2.750    0.000    1.667 
#    1.500    5.000    0.000    3.000    0.000    0.000 
#    0.000    0.000    0.000    0.000    0.000    0.000 
#
# Total GULP energy -595188.407656 kJ/mol
# GULP energy per Si atom -12399.758493 kJ/mol
# Density = 1.825049 g / cm^3
# Si number density = 18.292125 Si / 1000 Ang^3
#
#
#
# Elastic Constant Matrix: (Units=GPa)
#
#
# Indices 1 2 3 4 5 6 
#
# 1 47.9994 35.1593 36.0952 0.0000 0.0000 0.0000
# 2 35.1593 141.0896 95.1699 0.0000 0.0000 0.0000
# 3 36.0952 95.1699 149.6393 0.0000 0.0000 0.0000
# 4 0.0000 0.0000 0.0000 44.7435 0.0000 0.0000
# 5 0.0000 0.0000 0.0000 0.0000 27.3821 0.0000
# 6 0.0000 0.0000 0.0000 0.0000 0.0000 51.0689
#
#
#
# Elastic Compliance Matrix: (Units=1/GPa)
#
#
# Indices 1 2 3 4 5 6 
#
# 1 0.026706 -0.004045 -0.003869 0.000000 0.000000 0.000000
# 2 -0.004045 0.013026 -0.007308 0.000000 0.000000 0.000000
# 3 -0.003869 -0.007308 0.012264 0.000000 0.000000 0.000000
# 4 0.000000 0.000000 0.000000 0.022350 0.000000 0.000000
# 5 0.000000 0.000000 0.000000 0.000000 0.036520 0.000000
# 6 0.000000 0.000000 0.000000 0.000000 0.000000 0.019581
#
#
# Mechanical properties :
#
#
# Convention : Reuss Voigt Hill
#
# Bulk Modulus (GPa) = 46.40303 74.61966 60.51134
# Shear Modulus (GPa) = 29.74837 36.12582 32.93710
#
# Velocity S-wave (km/s) = 4.03711 4.44885 4.24797
# Velocity P-wave (km/s) = 6.86686 8.20192 7.56391
#
# Compressibility (1/GPa) = 0.02155032
#
# Stress axis : x y z
#
# Youngs Moduli (GPa) = 37.44426 76.77214 81.53848
#
# Poissons Ratio (x) = 0.31057 0.31549
# Poissons Ratio (y) = 0.15147 0.59592
# Poissons Ratio (z) = 0.14488 0.56108
#
# Static dielectric constant tensor:
#      x y z
#    x 3.126920 0.000000 0.000000 
#    y 0.000000 3.434710 0.000000 
#    z 0.000000 0.000000 4.318930 
# 
# 
# High freq. dielectric constant tensor:
#      x y z
#    x 1.687270 0.000000 0.000000 
#    y 0.000000 1.709360 0.000000 
#    z 0.000000 0.000000 1.718280 
# 
# From -- ./inp_files/32956.got.cif
#   From: 2010.03.12/outbox.cif.g09.slc.cpg/sg59_17_cif.got.tgz:32956.got - 2010.04.16 16:29:54.
