data_PCOD8243827
_publ_section_title
;
Structure prediction by ZEFSAII (Michael W. Deem and Ramdas Pophale) SiO2 
 PCOD8243827
Probable space group: P M M N
;
_chemical_formula_sum "Si O2"
_cell_formula_units_Z 64
_cell_length_a 21.865210
_cell_length_b 9.332402
_cell_length_c 16.668169
_cell_angle_alpha 90.000000
_cell_angle_beta 90.000000
_cell_angle_gamma 90.000000
_cell_volume 3401.222051
_symmetry_space_group_name_H-M "P M M N"
_symmetry_group_IT_number 59
_space_group.IT_coordinate_system_code '2'
_symmetry_cell_setting 'orthorhombic'
loop_
_space_group_symop_operation_xyz
x,y,z
1/2-x,1/2-y,z
1/2+x,-y,-z
-x,1/2+y,-z
-x,-y,-z
1/2+x,1/2+y,-z
1/2-x,y,z
x,1/2-y,z
loop_
_atom_site_type_symbol
_atom_site_label
_atom_site_fract_x
_atom_site_fract_y
_atom_site_fract_z
Si Si1 0.107637 0.582893 0.380184
Si Si2 0.989095 0.418000 0.351548
Si Si3 0.816454 0.587659 0.308752
Si Si4 0.681423 0.580560 0.934496
Si Si5 0.821012 0.911721 0.751447
Si Si6 0.560650 0.918950 0.028455
Si Si7 0.134118 0.587511 0.558022
Si Si8 0.567613 0.582761 0.214182
O O1 0.093307 0.750000 0.365465
O O2 0.146049 0.523437 0.306145
O O3 0.143576 0.560357 0.463621
O O4 0.046241 0.493950 0.391968
O O5 0.000968 0.250000 0.340745
O O6 0.933671 0.452879 0.411364
O O7 0.980806 0.487823 0.263268
O O8 0.750000 0.567879 0.268787
O O9 0.830270 0.750000 0.331669
O O10 0.817496 0.505192 0.393039
O O11 0.865320 0.533945 0.243990
O O12 0.750000 0.521586 0.959878
O O13 0.684444 0.750000 0.942681
O O14 0.667812 0.537140 0.842642
O O15 0.623963 0.522933 0.987426
O O16 0.750000 0.914315 0.730560
O O17 0.846680 0.750000 0.738914
O O18 0.552912 0.750000 0.011625
O O19 0.565247 0.955184 0.121582
O O20 0.500000 0.000000 0.000000
O O21 0.148103 0.750000 0.580144
O O22 0.554167 0.750000 0.229759
#
# Coordination Sequence:
#
# PCOD8243827 Si02
#       8
#     8   8   8   8   8   8   8   8
#     4  11  22  34  52  77 105 136 173 218 270 321
#     4  10  20  35  55  75 100 137 180 217 260 317
#     4   9  18  33  54  78 105 139 177 219 265 312
#     4   8  16  34  58  80 104 140 185 226 264 314
#     4   9  19  36  55  76 103 136 179 223 259 306
#     4  10  21  35  55  84 115 144 178 224 277 328
#     4   9  20  36  51  73 104 138 175 218 266 318
#     4   9  19  35  52  77 111 140 171 216 268 319
#
# _framework density 18.816766000000001
#
# number of rings (size 3 to 8) (size 9 to 14) (size 15 to 20)
#    0.000    2.625    0.000    1.875    1.750    3.500 
#    0.000    5.000    0.000    1.125    0.000    1.750 
#    0.000    0.000    0.000    0.000    0.000    0.000 
#
# Total GULP energy -793303.449940 kJ/mol
# GULP energy per Si atom -12395.366405 kJ/mol
# Density = 1.877394 g / cm^3
# Si number density = 18.816766 Si / 1000 Ang^3
#
#
#
# Elastic Constant Matrix: (Units=GPa)
#
#
# Indices 1 2 3 4 5 6 
#
# 1 80.7251 27.3436 34.3978 0.0000 0.0000 0.0000
# 2 27.3436 59.8504 36.4055 0.0000 0.0000 0.0000
# 3 34.3978 36.4055 94.1690 0.0000 0.0000 0.0000
# 4 0.0000 0.0000 0.0000 26.3859 0.0000 0.0000
# 5 0.0000 0.0000 0.0000 0.0000 20.9466 0.0000
# 6 0.0000 0.0000 0.0000 0.0000 0.0000 26.9872
#
#
#
# Elastic Compliance Matrix: (Units=1/GPa)
#
#
# Indices 1 2 3 4 5 6 
#
# 1 0.015662 -0.004805 -0.003863 0.000000 0.000000 0.000000
# 2 -0.004805 0.023320 -0.007260 0.000000 0.000000 0.000000
# 3 -0.003863 -0.007260 0.014837 0.000000 0.000000 0.000000
# 4 0.000000 0.000000 0.000000 0.037899 0.000000 0.000000
# 5 0.000000 0.000000 0.000000 0.000000 0.047741 0.000000
# 6 0.000000 0.000000 0.000000 0.000000 0.000000 0.037055
#
#
# Mechanical properties :
#
#
# Convention : Reuss Voigt Hill
#
# Bulk Modulus (GPa) = 45.53462 47.89315 46.71388
# Shear Modulus (GPa) = 23.18140 23.97044 23.57592
#
# Velocity S-wave (km/s) = 3.51373 3.57303 3.54350
# Velocity P-wave (km/s) = 6.38069 6.52148 6.45147
#
# Compressibility (1/GPa) = 0.02196131
#
# Stress axis : x y z
#
# Youngs Moduli (GPa) = 63.85072 42.88189 67.39907
#
# Poissons Ratio (x) = 0.20607 0.26036
# Poissons Ratio (y) = 0.30683 0.48932
# Poissons Ratio (z) = 0.24666 0.31133
#
# Static dielectric constant tensor:
#      x y z
#    x 3.620800 0.000000 0.000000 
#    y 0.000000 3.343060 0.000000 
#    z 0.000000 0.000000 3.502120 
# 
# 
# High freq. dielectric constant tensor:
#      x y z
#    x 1.734260 0.000000 0.000000 
#    y 0.000000 1.714540 0.000000 
#    z 0.000000 0.000000 1.729990 
# 
# From -- ./inp_files/24737.got.cif
#   From: 2010.03.12/outbox.cif.g09.slc.cpg/sg59_13_cif.got.tgz:24737.got - 2010.04.16 16:29:54.
