data_PCOD8243961
_publ_section_title
;
Structure prediction by ZEFSAII (Michael W. Deem and Ramdas Pophale) SiO2 
 PCOD8243961
Probable space group: P M M N
;
_chemical_formula_sum "Si O2"
_cell_formula_units_Z 56
_cell_length_a 22.411993
_cell_length_b 9.150778
_cell_length_c 14.660683
_cell_angle_alpha 90.000000
_cell_angle_beta 90.000000
_cell_angle_gamma 90.000000
_cell_volume 3006.718023
_symmetry_space_group_name_H-M "P M M N"
_symmetry_group_IT_number 59
_space_group.IT_coordinate_system_code '2'
_symmetry_cell_setting 'orthorhombic'
loop_
_space_group_symop_operation_xyz
x,y,z
1/2-x,1/2-y,z
1/2+x,-y,-z
-x,1/2+y,-z
-x,-y,-z
1/2+x,1/2+y,-z
1/2-x,y,z
x,1/2-y,z
loop_
_atom_site_type_symbol
_atom_site_label
_atom_site_fract_x
_atom_site_fract_y
_atom_site_fract_z
Si Si1 0.250000 0.423806 0.816193
Si Si2 0.391690 0.914938 0.333600
Si Si3 0.979340 0.577921 0.910519
Si Si4 0.136960 0.583076 0.131662
Si Si5 0.979923 0.579505 0.260383
Si Si6 0.183311 0.077467 0.480147
Si Si7 0.250000 0.918762 0.009959
Si Si8 0.649956 0.578077 0.322442
O O1 0.250000 0.250000 0.827383
O O2 0.250000 0.489890 0.917284
O O3 0.191323 0.479935 0.760790
O O4 0.386922 0.750000 0.369514
O O5 0.353529 0.932870 0.240447
O O6 0.461409 0.957370 0.319988
O O7 0.364930 0.018827 0.409692
O O8 0.986827 0.750000 0.918728
O O9 0.911025 0.536064 0.896538
O O10 0.020473 0.518493 0.829524
O O11 0.000000 0.500000 0.000000
O O12 0.115810 0.750000 0.111086
O O13 0.194599 0.541608 0.073995
O O14 0.980823 0.750000 0.232438
O O15 0.919497 0.536156 0.312340
O O16 0.250000 0.031454 0.449967
O O17 0.175959 0.250000 0.482068
O O18 0.171281 0.012060 0.581037
O O19 0.250000 0.750000 0.981867
O O20 0.659054 0.750000 0.324924
#
# Coordination Sequence:
#
# PCOD8243961 Si02
#       8
#     4   8   8   8   8   8   4   8
#     4  10  20  36  57  82 110 144 189 232 275 338
#     4   9  19  35  56  81 111 144 184 227 275 334
#     4  11  22  36  56  81 111 146 187 232 277 329
#     4   9  20  39  58  80 113 150 185 225 277 336
#     4   9  19  37  58  80 108 146 187 229 281 336
#     4  10  20  35  56  82 111 146 185 227 275 330
#     4  10  22  38  57  82 114 148 183 228 283 332
#     4   9  18  36  60  81 109 146 186 229 278 333
#
# _framework density 18.624957999999999
#
# number of rings (size 3 to 8) (size 9 to 14) (size 15 to 20)
#    0.000    2.429    0.714    2.143    3.000    3.714 
#    0.000    1.429    0.000    0.000    0.000    0.000 
#    0.000    0.000    0.000    0.000    0.000    0.000 
#
# Total GULP energy -694227.217643 kJ/mol
# GULP energy per Si atom -12396.914601 kJ/mol
# Density = 1.858257 g / cm^3
# Si number density = 18.624958 Si / 1000 Ang^3
#
#
#
# Elastic Constant Matrix: (Units=GPa)
#
#
# Indices 1 2 3 4 5 6 
#
# 1 118.3720 36.1585 71.3216 0.0000 0.0000 0.0000
# 2 36.1585 65.5053 39.8860 0.0000 0.0000 0.0000
# 3 71.3216 39.8860 117.7675 0.0000 0.0000 0.0000
# 4 0.0000 0.0000 0.0000 31.5509 0.0000 0.0000
# 5 0.0000 0.0000 0.0000 0.0000 24.1688 0.0000
# 6 0.0000 0.0000 0.0000 0.0000 0.0000 25.1633
#
#
#
# Elastic Compliance Matrix: (Units=1/GPa)
#
#
# Indices 1 2 3 4 5 6 
#
# 1 0.013811 -0.003188 -0.007284 0.000000 0.000000 0.000000
# 2 -0.003188 0.019968 -0.004832 0.000000 0.000000 0.000000
# 3 -0.007284 -0.004832 0.014539 0.000000 0.000000 0.000000
# 4 0.000000 0.000000 0.000000 0.031695 0.000000 0.000000
# 5 0.000000 0.000000 0.000000 0.000000 0.041376 0.000000
# 6 0.000000 0.000000 0.000000 0.000000 0.000000 0.039740
#
#
# Mechanical properties :
#
#
# Convention : Reuss Voigt Hill
#
# Bulk Modulus (GPa) = 56.46779 66.26409 61.36594
# Shear Modulus (GPa) = 25.29845 26.46184 25.88014
#
# Velocity S-wave (km/s) = 3.68952 3.77340 3.73170
# Velocity P-wave (km/s) = 6.96665 7.39190 7.18242
#
# Compressibility (1/GPa) = 0.01770921
#
# Stress axis : x y z
#
# Youngs Moduli (GPa) = 72.40785 50.08013 68.77938
#
# Poissons Ratio (x) = 0.15966 0.50100
# Poissons Ratio (y) = 0.23084 0.33235
# Poissons Ratio (z) = 0.52743 0.24199
#
# Static dielectric constant tensor:
#      x y z
#    x 3.516140 0.000000 0.000000 
#    y 0.000000 3.066000 0.000000 
#    z 0.000000 0.000000 -1.077220 
# 
# 
# High freq. dielectric constant tensor:
#      x y z
#    x 1.731200 0.000000 0.000000 
#    y 0.000000 1.699560 0.000000 
#    z 0.000000 0.000000 1.727240 
# 
# From -- ./inp_files/24356.got.cif
#   From: 2010.03.12/outbox.cif.g09.slc.cpg/sg59_13_cif.got.tgz:24356.got - 2010.04.16 16:29:54.
