data_PCOD8243061
_publ_section_title
;
Structure prediction by ZEFSAII (Michael W. Deem and Ramdas Pophale) SiO2 
 PCOD8243061
Probable space group: P M M N
;
_chemical_formula_sum "Si O2"
_cell_formula_units_Z 64
_cell_length_a 12.967569
_cell_length_b 19.386053
_cell_length_c 13.187279
_cell_angle_alpha 90.000000
_cell_angle_beta 90.000000
_cell_angle_gamma 90.000000
_cell_volume 3315.149803
_symmetry_space_group_name_H-M "P M M N"
_symmetry_group_IT_number 59
_space_group.IT_coordinate_system_code '2'
_symmetry_cell_setting 'orthorhombic'
loop_
_space_group_symop_operation_xyz
x,y,z
1/2-x,1/2-y,z
1/2+x,-y,-z
-x,1/2+y,-z
-x,-y,-z
1/2+x,1/2+y,-z
1/2-x,y,z
x,1/2-y,z
loop_
_atom_site_type_symbol
_atom_site_label
_atom_site_fract_x
_atom_site_fract_y
_atom_site_fract_z
Si Si1 0.497872 0.827356 0.538922
Si Si2 0.863268 0.169673 0.808154
Si Si3 0.058520 0.325120 0.684231
Si Si4 0.974594 0.969295 0.858561
Si Si5 0.870673 0.462536 0.478281
Si Si6 0.127389 0.069532 0.349550
Si Si7 0.863466 0.963341 0.270671
Si Si8 0.130642 0.924689 0.006362
O O1 0.457937 0.750000 0.572004
O O2 0.558968 0.818695 0.435448
O O3 0.406778 0.882994 0.522421
O O4 0.579393 0.856744 0.620075
O O5 0.750000 0.143580 0.770708
O O6 0.861650 0.250000 0.828294
O O7 0.890748 0.136337 0.915357
O O8 0.945406 0.149413 0.722255
O O9 0.085961 0.250000 0.731915
O O10 0.143751 0.381054 0.713083
O O11 0.907699 0.941478 0.765738
O O12 0.895965 0.002517 0.939130
O O13 0.056107 0.025635 0.818961
O O14 0.049612 0.912874 0.913425
O O15 0.750000 0.460760 0.493123
O O16 0.915307 0.510503 0.570896
O O17 0.901542 0.497585 0.371710
O O18 0.250000 0.073467 0.353727
O O19 0.750000 0.989505 0.239023
O O20 0.250000 0.925504 0.969474
#
# Coordination Sequence:
#
# PCOD8243061 Si02
#       8
#     8   8   8   8   8   8   8   8
#     4  11  22  36  55  83 121 154 186 233 281 331
#     4   9  18  34  56  81 110 144 182 226 281 342
#     4  10  20  33  53  84 118 151 185 225 278 335
#     4  11  21  36  57  82 112 141 184 239 285 336
#     4  10  21  36  58  83 113 152 194 234 274 330
#     4  11  22  38  60  84 111 151 199 237 279 336
#     4  11  20  34  56  82 114 151 186 227 276 331
#     4  10  21  36  57  84 109 138 180 235 291 339
#
# _framework density 19.305311
#
# number of rings (size 3 to 8) (size 9 to 14) (size 15 to 20)
#    0.000    1.625    3.750    1.875    0.000    1.250 
#    0.000    3.125    0.000    0.000    0.000    0.000 
#    0.000    0.000    0.000    0.000    0.000    0.000 
#
# Total GULP energy -793128.855035 kJ/mol
# GULP energy per Si atom -12392.638360 kJ/mol
# Density = 1.926137 g / cm^3
# Si number density = 19.305311 Si / 1000 Ang^3
#
#
#
# Elastic Constant Matrix: (Units=GPa)
#
#
# Indices 1 2 3 4 5 6 
#
# 1 49.9998 15.6094 12.8446 0.0000 0.0000 0.0000
# 2 15.6094 89.3206 13.6238 0.0000 0.0000 0.0000
# 3 12.8446 13.6238 66.0607 0.0000 0.0000 0.0000
# 4 0.0000 0.0000 0.0000 22.3350 0.0000 0.0000
# 5 0.0000 0.0000 0.0000 0.0000 29.3295 0.0000
# 6 0.0000 0.0000 0.0000 0.0000 0.0000 21.8484
#
#
#
# Elastic Compliance Matrix: (Units=1/GPa)
#
#
# Indices 1 2 3 4 5 6 
#
# 1 0.021949 -0.003288 -0.003589 0.000000 0.000000 0.000000
# 2 -0.003288 0.012052 -0.001846 0.000000 0.000000 0.000000
# 3 -0.003589 -0.001846 0.016216 0.000000 0.000000 0.000000
# 4 0.000000 0.000000 0.000000 0.044773 0.000000 0.000000
# 5 0.000000 0.000000 0.000000 0.000000 0.034095 0.000000
# 6 0.000000 0.000000 0.000000 0.000000 0.000000 0.045770
#
#
# Mechanical properties :
#
#
# Convention : Reuss Voigt Hill
#
# Bulk Modulus (GPa) = 30.51646 32.17073 31.34360
# Shear Modulus (GPa) = 24.60319 25.58946 25.09632
#
# Velocity S-wave (km/s) = 3.57378 3.64471 3.60942
# Velocity P-wave (km/s) = 5.73331 5.86620 5.80013
#
# Compressibility (1/GPa) = 0.03276920
#
# Stress axis : x y z
#
# Youngs Moduli (GPa) = 45.56070 82.97482 61.66656
#
# Poissons Ratio (x) = 0.27284 0.22135
# Poissons Ratio (y) = 0.14981 0.11384
# Poissons Ratio (z) = 0.16354 0.15318
#
# Static dielectric constant tensor:
#      x y z
#    x 3.654990 0.000000 0.000000 
#    y 0.000000 3.665850 0.000000 
#    z 0.000000 0.000000 3.531560 
# 
# 
# High freq. dielectric constant tensor:
#      x y z
#    x 1.762190 0.000000 0.000000 
#    y 0.000000 1.734210 0.000000 
#    z 0.000000 0.000000 1.740560 
# 
# From -- ./inp_files/17239.got.cif
#   From: 2010.03.12/outbox.cif.g09.slc.cpg/sg59_9_cif.got.tgz:17239.got - 2010.04.16 16:29:54.
