data_PCOD8243708
_publ_section_title
;
Structure prediction by ZEFSAII (Michael W. Deem and Ramdas Pophale) SiO2 
 PCOD8243708
Probable space group: P M M N
;
_chemical_formula_sum "Si O2"
_cell_formula_units_Z 48
_cell_length_a 19.137649
_cell_length_b 14.093755
_cell_length_c 9.328969
_cell_angle_alpha 90.000000
_cell_angle_beta 90.000000
_cell_angle_gamma 90.000000
_cell_volume 2516.221985
_symmetry_space_group_name_H-M "P M M N"
_symmetry_group_IT_number 59
_space_group.IT_coordinate_system_code '2'
_symmetry_cell_setting 'orthorhombic'
loop_
_space_group_symop_operation_xyz
x,y,z
1/2-x,1/2-y,z
1/2+x,-y,-z
-x,1/2+y,-z
-x,-y,-z
1/2+x,1/2+y,-z
1/2-x,y,z
x,1/2-y,z
loop_
_atom_site_type_symbol
_atom_site_label
_atom_site_fract_x
_atom_site_fract_y
_atom_site_fract_z
Si Si1 0.670583 0.359593 0.685778
Si Si2 0.172972 0.353720 0.536145
Si Si3 0.064498 0.000285 0.842326
Si Si4 0.580757 0.018636 0.477738
Si Si5 0.554352 0.362333 0.905953
Si Si6 0.671943 0.854258 0.123098
O O1 0.750000 0.403665 0.688064
O O2 0.678053 0.250000 0.650879
O O3 0.618289 0.397165 0.562646
O O4 0.631873 0.374635 0.838873
O O5 0.250000 0.388418 0.491970
O O6 0.158055 0.250000 0.472162
O O7 0.166375 0.351127 0.706355
O O8 0.117573 0.423315 0.465361
O O9 0.120506 0.063542 0.932284
O O10 0.094346 0.963955 0.691018
O O11 0.049794 0.905431 0.933611
O O12 0.998654 0.071229 0.813985
O O13 0.500000 0.000000 0.500000
O O14 0.532866 0.250000 0.906539
O O15 0.750000 0.879394 0.072455
O O16 0.650625 0.750000 0.062868
#
# Coordination Sequence:
#
# PCOD8243708 Si02
#       6
#     8   8   8   8   8   8
#     4  10  22  40  59  80 114 159 197 231 281 349
#     4   8  15  28  47  72 102 136 171 214 270 329
#     4  10  20  34  57  83 112 140 193 241 289 336
#     4  11  20  33  55  86 114 144 188 238 294 339
#     4  10  21  38  57  78 110 153 194 235 283 344
#     4   8  14  26  47  76 105 132 167 218 278 332
#
# _framework density 19.076218999999998
#
# number of rings (size 3 to 8) (size 9 to 14) (size 15 to 20)
#    0.000    2.500    1.667    2.000    0.000    3.333 
#    0.000    0.000    0.000    2.000    0.000    2.333 
#    0.000    0.000    0.000    0.000    0.000    0.000 
#
# Total GULP energy -594647.943272 kJ/mol
# GULP energy per Si atom -12388.498818 kJ/mol
# Density = 1.903280 g / cm^3
# Si number density = 19.076219 Si / 1000 Ang^3
#
#
#
# Elastic Constant Matrix: (Units=GPa)
#
#
# Indices 1 2 3 4 5 6 
#
# 1 125.7657 47.5302 21.1829 0.0000 0.0000 0.0000
# 2 47.5302 84.9173 29.5423 0.0000 0.0000 0.0000
# 3 21.1829 29.5423 51.1778 0.0000 0.0000 0.0000
# 4 0.0000 0.0000 0.0000 22.5080 0.0000 0.0000
# 5 0.0000 0.0000 0.0000 0.0000 20.6702 0.0000
# 6 0.0000 0.0000 0.0000 0.0000 0.0000 34.8653
#
#
#
# Elastic Compliance Matrix: (Units=1/GPa)
#
#
# Indices 1 2 3 4 5 6 
#
# 1 0.010139 -0.005274 -0.001152 0.000000 0.000000 0.000000
# 2 -0.005274 0.017479 -0.007907 0.000000 0.000000 0.000000
# 3 -0.001152 -0.007907 0.024581 0.000000 0.000000 0.000000
# 4 0.000000 0.000000 0.000000 0.044429 0.000000 0.000000
# 5 0.000000 0.000000 0.000000 0.000000 0.048379 0.000000
# 6 0.000000 0.000000 0.000000 0.000000 0.000000 0.028682
#
#
# Mechanical properties :
#
#
# Convention : Reuss Voigt Hill
#
# Bulk Modulus (GPa) = 42.49414 50.93017 46.71216
# Shear Modulus (GPa) = 23.78721 26.51571 25.15146
#
# Velocity S-wave (km/s) = 3.53506 3.73230 3.63502
# Velocity P-wave (km/s) = 6.24392 6.73273 6.49292
#
# Compressibility (1/GPa) = 0.02353265
#
# Stress axis : x y z
#
# Youngs Moduli (GPa) = 98.63390 57.21208 40.68241
#
# Poissons Ratio (x) = 0.30174 0.04687
# Poissons Ratio (y) = 0.52019 0.32166
# Poissons Ratio (z) = 0.11363 0.45236
#
# Static dielectric constant tensor:
#      x y z
#    x 3.776680 0.000000 0.000000 
#    y 0.000000 3.772560 0.000000 
#    z 0.000000 0.000000 3.087440 
# 
# 
# High freq. dielectric constant tensor:
#      x y z
#    x 1.754840 0.000000 0.000000 
#    y 0.000000 1.741500 0.000000 
#    z 0.000000 0.000000 1.699320 
# 
# From -- ./inp_files/17038.got.cif
#   From: 2010.03.12/outbox.cif.g09.slc.cpg/sg59_9_cif.got.tgz:17038.got - 2010.04.16 16:29:54.
