data_PCOD8243568
_publ_section_title
;
Structure prediction by ZEFSAII (Michael W. Deem and Ramdas Pophale) SiO2 
 PCOD8243568
Probable space group: P M M N
;
_chemical_formula_sum "Si O2"
_cell_formula_units_Z 48
_cell_length_a 8.997257
_cell_length_b 9.197114
_cell_length_c 30.887136
_cell_angle_alpha 90.000000
_cell_angle_beta 90.000000
_cell_angle_gamma 90.000000
_cell_volume 2555.873387
_symmetry_space_group_name_H-M "P M M N"
_symmetry_group_IT_number 59
_space_group.IT_coordinate_system_code '2'
_symmetry_cell_setting 'orthorhombic'
loop_
_space_group_symop_operation_xyz
x,y,z
1/2-x,1/2-y,z
1/2+x,-y,-z
-x,1/2+y,-z
-x,-y,-z
1/2+x,1/2+y,-z
1/2-x,y,z
x,1/2-y,z
loop_
_atom_site_type_symbol
_atom_site_label
_atom_site_fract_x
_atom_site_fract_y
_atom_site_fract_z
Si Si1 0.420843 0.579607 0.461022
Si Si2 0.923015 0.920486 0.705536
Si Si3 0.924464 0.582159 0.372361
Si Si4 0.076098 0.419582 0.783549
Si Si5 0.082249 0.920543 0.961950
Si Si6 0.073575 0.588748 0.867124
O O1 0.500000 0.500000 0.500000
O O2 0.250000 0.531173 0.458857
O O3 0.438074 0.750000 0.468783
O O4 0.498524 0.532005 0.416607
O O5 0.750000 0.955374 0.698947
O O6 0.953861 0.750000 0.709184
O O7 0.013808 0.982317 0.665388
O O8 0.979307 0.995781 0.748874
O O9 0.750000 0.556728 0.377167
O O10 0.961168 0.750000 0.361632
O O11 0.250000 0.452517 0.775616
O O12 0.041661 0.250000 0.779826
O O13 0.023600 0.473952 0.830806
O O14 0.250000 0.976531 0.963418
O O15 0.071951 0.750000 0.969971
O O16 0.012335 0.958638 0.914523
O O17 0.000000 0.000000 0.000000
O O18 0.250000 0.595866 0.870674
O O19 0.013742 0.750000 0.854785
#
# Coordination Sequence:
#
# PCOD8243568 Si02
#       6
#     8   8   8   8   8   8
#     4  10  21  37  58  84 114 149 186 224 269 318
#     4  11  24  39  55  78 108 142 178 215 259 313
#     4  10  21  38  60  84 109 140 180 224 269 317
#     4  10  20  34  55  82 106 131 169 215 262 314
#     4   9  18  32  50  74 103 135 173 215 259 310
#     4   8  15  30  51  73 100 135 173 214 259 307
#
# _framework density 18.780273000000001
#
# number of rings (size 3 to 8) (size 9 to 14) (size 15 to 20)
#    0.000    2.333    0.000    3.500    0.000    8.000 
#    0.000    2.500    0.000    1.000    0.000    0.000 
#    0.000    0.000    0.000    0.000    0.000    0.000 
#
# Total GULP energy -595198.989780 kJ/mol
# GULP energy per Si atom -12399.978954 kJ/mol
# Density = 1.873753 g / cm^3
# Si number density = 18.780273 Si / 1000 Ang^3
#
#
#
# Elastic Constant Matrix: (Units=GPa)
#
#
# Indices 1 2 3 4 5 6 
#
# 1 83.3897 43.9060 59.2107 0.0000 0.0000 0.0000
# 2 43.9060 74.2895 63.1704 0.0000 0.0000 0.0000
# 3 59.2107 63.1704 157.5447 0.0000 0.0000 0.0000
# 4 0.0000 0.0000 0.0000 43.1641 0.0000 0.0000
# 5 0.0000 0.0000 0.0000 0.0000 35.1205 0.0000
# 6 0.0000 0.0000 0.0000 0.0000 0.0000 28.9174
#
#
#
# Elastic Compliance Matrix: (Units=1/GPa)
#
#
# Indices 1 2 3 4 5 6 
#
# 1 0.018928 -0.007796 -0.003988 0.000000 0.000000 0.000000
# 2 -0.007796 0.023635 -0.006547 0.000000 0.000000 0.000000
# 3 -0.003988 -0.006547 0.010471 0.000000 0.000000 0.000000
# 4 0.000000 0.000000 0.000000 0.023167 0.000000 0.000000
# 5 0.000000 0.000000 0.000000 0.000000 0.028473 0.000000
# 6 0.000000 0.000000 0.000000 0.000000 0.000000 0.034581
#
#
# Mechanical properties :
#
#
# Convention : Reuss Voigt Hill
#
# Bulk Modulus (GPa) = 61.07501 71.97756 66.52628
# Shear Modulus (GPa) = 27.56698 31.36953 29.46826
#
# Velocity S-wave (km/s) = 3.83543 4.09142 3.96549
# Velocity P-wave (km/s) = 7.22534 7.79288 7.51447
#
# Compressibility (1/GPa) = 0.01637331
#
# Stress axis : x y z
#
# Youngs Moduli (GPa) = 52.83156 42.30942 95.49764
#
# Poissons Ratio (x) = 0.32983 0.38085
# Poissons Ratio (y) = 0.41185 0.62524
# Poissons Ratio (z) = 0.21069 0.27701
#
# Static dielectric constant tensor:
#      x y z
#    x 3.317490 0.000000 0.000000 
#    y 0.000000 3.440820 0.000000 
#    z 0.000000 0.000000 3.479040 
# 
# 
# High freq. dielectric constant tensor:
#      x y z
#    x 1.715460 0.000000 0.000000 
#    y 0.000000 1.727310 0.000000 
#    z 0.000000 0.000000 1.748070 
# 
# From -- ./inp_files/32784.got.cif
#   From: 2010.03.12/outbox.cif.g09.slc.cpg/sg59_17_cif.got.tgz:32784.got - 2010.04.16 16:29:54.
