data_PCOD8243205
_publ_section_title
;
Structure prediction by ZEFSAII (Michael W. Deem and Ramdas Pophale) SiO2 
 PCOD8243205
Probable space group: P M M N
;
_chemical_formula_sum "Si O2"
_cell_formula_units_Z 64
_cell_length_a 9.030001
_cell_length_b 23.009783
_cell_length_c 18.104722
_cell_angle_alpha 90.000000
_cell_angle_beta 90.000000
_cell_angle_gamma 90.000000
_cell_volume 3761.769509
_symmetry_space_group_name_H-M "P M M N"
_symmetry_group_IT_number 59
_space_group.IT_coordinate_system_code '2'
_symmetry_cell_setting 'orthorhombic'
loop_
_space_group_symop_operation_xyz
x,y,z
1/2-x,1/2-y,z
1/2+x,-y,-z
-x,1/2+y,-z
-x,-y,-z
1/2+x,1/2+y,-z
1/2-x,y,z
x,1/2-y,z
loop_
_atom_site_type_symbol
_atom_site_label
_atom_site_fract_x
_atom_site_fract_y
_atom_site_fract_z
Si Si1 0.423910 0.683869 0.770048
Si Si2 0.915007 0.319281 0.942790
Si Si3 0.922344 0.372157 0.633878
Si Si4 0.584157 0.819240 0.915814
Si Si5 0.574273 0.111613 0.372229
Si Si6 0.921310 0.817635 0.500068
Si Si7 0.574409 0.314556 0.782410
Si Si8 0.076694 0.000037 0.420892
O O1 0.250000 0.680911 0.781978
O O2 0.475602 0.750000 0.754875
O O3 0.497915 0.658065 0.843730
O O4 0.475384 0.645560 0.700943
O O5 0.750000 0.344556 0.953181
O O6 0.910531 0.250000 0.946434
O O7 0.983147 0.337417 0.862596
O O8 0.013400 0.345031 0.009271
O O9 0.750000 0.356409 0.621485
O O10 0.973564 0.358357 0.717561
O O11 0.953144 0.439533 0.619650
O O12 0.021155 0.331961 0.581451
O O13 0.750000 0.842902 0.910743
O O14 0.577755 0.750000 0.917923
O O15 0.750000 0.104189 0.377935
O O16 0.520243 0.146479 0.443324
O O17 0.496700 0.049023 0.369629
O O18 0.750000 0.836020 0.507415
O O19 0.943002 0.750000 0.516536
O O20 0.750000 0.310578 0.788851
O O21 0.511126 0.250000 0.765177
O O22 0.250000 0.012422 0.431525
O O23 0.000000 0.000000 0.500000
#
# Coordination Sequence:
#
# PCOD8243205 Si02
#       8
#     8   8   8   8   8   8   8   8
#     4   9  18  32  49  70  96 125 160 200 241 291
#     4   8  13  23  41  64  92 126 159 190 227 275
#     4  10  20  34  53  73  94 127 168 206 246 291
#     4   9  16  25  40  65  97 130 159 187 227 282
#     4  11  22  36  54  73  94 127 167 207 250 293
#     4  11  23  35  49  72 101 130 159 196 246 300
#     4   8  14  26  46  72  98 124 159 201 239 282
#     4  11  22  36  54  74  96 126 166 212 254 294
#
# _framework density 17.013269999999999
#
# number of rings (size 3 to 8) (size 9 to 14) (size 15 to 20)
#    0.000    2.375    1.250    3.000    0.000    5.000 
#    0.000    1.875    0.000    2.250    0.000    0.875 
#    0.000    0.000    0.000    0.000    0.000    0.000 
#
# Total GULP energy -793503.377909 kJ/mol
# GULP energy per Si atom -12398.490280 kJ/mol
# Density = 1.697455 g / cm^3
# Si number density = 17.013270 Si / 1000 Ang^3
#
#
#
# Elastic Constant Matrix: (Units=GPa)
#
#
# Indices 1 2 3 4 5 6 
#
# 1 61.9249 27.4156 42.3887 0.0000 0.0000 0.0000
# 2 27.4156 61.5175 39.2483 0.0000 0.0000 0.0000
# 3 42.3887 39.2483 146.0780 0.0000 0.0000 0.0000
# 4 0.0000 0.0000 0.0000 8.2590 0.0000 0.0000
# 5 0.0000 0.0000 0.0000 0.0000 16.6054 0.0000
# 6 0.0000 0.0000 0.0000 0.0000 0.0000 20.6045
#
#
#
# Elastic Compliance Matrix: (Units=1/GPa)
#
#
# Indices 1 2 3 4 5 6 
#
# 1 0.022429 -0.007052 -0.004614 0.000000 0.000000 0.000000
# 2 -0.007052 0.021836 -0.003821 0.000000 0.000000 0.000000
# 3 -0.004614 -0.003821 0.009211 0.000000 0.000000 0.000000
# 4 0.000000 0.000000 0.000000 0.121080 0.000000 0.000000
# 5 0.000000 0.000000 0.000000 0.000000 0.060222 0.000000
# 6 0.000000 0.000000 0.000000 0.000000 0.000000 0.048533
#
#
# Mechanical properties :
#
#
# Convention : Reuss Voigt Hill
#
# Bulk Modulus (GPa) = 44.43807 54.18063 49.30935
# Shear Modulus (GPa) = 15.53841 19.79163 17.66502
#
# Velocity S-wave (km/s) = 3.02538 3.41443 3.22578
# Velocity P-wave (km/s) = 6.19518 6.88910 6.55133
#
# Compressibility (1/GPa) = 0.02250323
#
# Stress axis : x y z
#
# Youngs Moduli (GPa) = 44.58557 45.79633 108.56681
#
# Poissons Ratio (x) = 0.32296 0.50088
# Poissons Ratio (y) = 0.31442 0.41478
# Poissons Ratio (z) = 0.20570 0.17497
#
# Static dielectric constant tensor:
#      x y z
#    x 3.180530 0.000000 0.000000 
#    y 0.000000 3.063880 0.000000 
#    z 0.000000 0.000000 3.468630 
# 
# 
# High freq. dielectric constant tensor:
#      x y z
#    x 1.651470 0.000000 0.000000 
#    y 0.000000 1.616690 0.000000 
#    z 0.000000 0.000000 1.667070 
# 
# From -- ./inp_files/26436.got.cif
#   From: 2010.03.12/outbox.cif.g09.slc.cpg/sg59_14_cif.got.tgz:26436.got - 2010.04.16 16:29:54.
