data_PCOD8243264
_publ_section_title
;
Structure prediction by ZEFSAII (Michael W. Deem and Ramdas Pophale) SiO2 
 PCOD8243264
Probable space group: P M M N
;
_chemical_formula_sum "Si O2"
_cell_formula_units_Z 64
_cell_length_a 19.845142
_cell_length_b 9.035169
_cell_length_c 20.035414
_cell_angle_alpha 90.000000
_cell_angle_beta 90.000000
_cell_angle_gamma 90.000000
_cell_volume 3592.434115
_symmetry_space_group_name_H-M "P M M N"
_symmetry_group_IT_number 59
_space_group.IT_coordinate_system_code '2'
_symmetry_cell_setting 'orthorhombic'
loop_
_space_group_symop_operation_xyz
x,y,z
1/2-x,1/2-y,z
1/2+x,-y,-z
-x,1/2+y,-z
-x,-y,-z
1/2+x,1/2+y,-z
1/2-x,y,z
x,1/2-y,z
loop_
_atom_site_type_symbol
_atom_site_label
_atom_site_fract_x
_atom_site_fract_y
_atom_site_fract_z
Si Si1 0.674590 0.925792 0.928127
Si Si2 0.424847 0.077627 0.184435
Si Si3 0.927909 0.424298 0.330178
Si Si4 0.066569 0.576010 0.322315
Si Si5 0.672957 0.079611 0.565084
Si Si6 0.325332 0.075013 0.923719
Si Si7 0.421365 0.918151 0.822627
Si Si8 0.671373 0.921379 0.429853
O O1 0.750000 0.979708 0.910189
O O2 0.671341 0.750000 0.927546
O O3 0.623209 0.988804 0.873112
O O4 0.654543 0.983072 0.002187
O O5 0.410802 0.250000 0.199635
O O6 0.500843 0.055113 0.159259
O O7 0.410457 0.987245 0.251319
O O8 0.936667 0.250000 0.340981
O O9 0.908542 0.461474 0.254087
O O10 0.868502 0.485863 0.375286
O O11 0.998378 0.500854 0.349097
O O12 0.054156 0.750000 0.316126
O O13 0.126068 0.536591 0.373216
O O14 0.750000 0.048272 0.586309
O O15 0.663055 0.250000 0.543966
O O16 0.651429 0.978541 0.502975
O O17 0.250000 0.019057 0.906107
O O18 0.326952 0.250000 0.923346
O O19 0.377042 0.020344 0.869059
O O20 0.400114 0.750000 0.835967
O O21 0.750000 0.947892 0.416046
O O22 0.651571 0.750000 0.424481
#
# Coordination Sequence:
#
# PCOD8243264 Si02
#       8
#     8   8   8   8   8   8   8   8
#     4   8  15  30  51  73  98 130 167 204 244 294
#     4   9  18  33  51  72 100 132 166 204 246 297
#     4  10  21  37  55  74 101 137 172 207 251 305
#     4  10  20  34  53  77 104 133 168 211 253 295
#     4   9  19  36  55  75 103 138 170 202 248 304
#     4   9  18  32  50  72  97 127 165 207 248 292
#     4   9  19  33  48  70  99 129 162 201 245 294
#     4  10  21  36  55  80 106 131 166 212 253 293
#
# _framework density 17.81522
#
# number of rings (size 3 to 8) (size 9 to 14) (size 15 to 20)
#    0.000    2.750    0.000    2.625    0.000    6.500 
#    0.000    3.125    0.000    0.750    0.000    0.000 
#    0.000    0.000    0.000    0.000    0.000    0.000 
#
# Total GULP energy -793594.487205 kJ/mol
# GULP energy per Si atom -12399.913863 kJ/mol
# Density = 1.777467 g / cm^3
# Si number density = 17.815220 Si / 1000 Ang^3
#
#
#
# Elastic Constant Matrix: (Units=GPa)
#
#
# Indices 1 2 3 4 5 6 
#
# 1 100.9731 44.6471 83.2413 0.0000 0.0000 0.0000
# 2 44.6471 64.3361 50.4537 0.0000 0.0000 0.0000
# 3 83.2413 50.4537 116.9265 0.0000 0.0000 0.0000
# 4 0.0000 0.0000 0.0000 28.9780 0.0000 0.0000
# 5 0.0000 0.0000 0.0000 0.0000 28.2577 0.0000
# 6 0.0000 0.0000 0.0000 0.0000 0.0000 26.1753
#
#
#
# Elastic Compliance Matrix: (Units=1/GPa)
#
#
# Indices 1 2 3 4 5 6 
#
# 1 0.025048 -0.005136 -0.015616 0.000000 0.000000 0.000000
# 2 -0.005136 0.024547 -0.006935 0.000000 0.000000 0.000000
# 3 -0.015616 -0.006935 0.022662 0.000000 0.000000 0.000000
# 4 0.000000 0.000000 0.000000 0.034509 0.000000 0.000000
# 5 0.000000 0.000000 0.000000 0.000000 0.035389 0.000000
# 6 0.000000 0.000000 0.000000 0.000000 0.000000 0.038204
#
#
# Mechanical properties :
#
#
# Convention : Reuss Voigt Hill
#
# Bulk Modulus (GPa) = 59.23448 70.99111 65.11280
# Shear Modulus (GPa) = 20.71591 23.60844 22.16217
#
# Velocity S-wave (km/s) = 3.41372 3.64426 3.53087
# Velocity P-wave (km/s) = 6.98996 7.59227 7.29733
#
# Compressibility (1/GPa) = 0.01688206
#
# Stress axis : x y z
#
# Youngs Moduli (GPa) = 39.92285 40.73888 44.12692
#
# Poissons Ratio (x) = 0.20926 0.68908
# Poissons Ratio (y) = 0.20506 0.30602
# Poissons Ratio (z) = 0.62343 0.28253
#
# Static dielectric constant tensor:
#      x y z
#    x 3.406360 0.000000 0.000000 
#    y 0.000000 3.188850 0.000000 
#    z 0.000000 0.000000 3.378780 
# 
# 
# High freq. dielectric constant tensor:
#      x y z
#    x 1.692150 0.000000 0.000000 
#    y 0.000000 1.679650 0.000000 
#    z 0.000000 0.000000 1.692740 
# 
# From -- ./inp_files/28230.got.cif
#   From: 2010.03.12/outbox.cif.g09.slc.cpg/sg59_15_cif.got.tgz:28230.got - 2010.04.16 16:29:54.
