data_PCOD8243295
_publ_section_title
;
Structure prediction by ZEFSAII (Michael W. Deem and Ramdas Pophale) SiO2 
 PCOD8243295
Probable space group: P M M N
;
_chemical_formula_sum "Si O2"
_cell_formula_units_Z 64
_cell_length_a 8.981641
_cell_length_b 13.593755
_cell_length_c 26.188040
_cell_angle_alpha 90.000000
_cell_angle_beta 90.000000
_cell_angle_gamma 90.000000
_cell_volume 3197.408507
_symmetry_space_group_name_H-M "P M M N"
_symmetry_group_IT_number 59
_space_group.IT_coordinate_system_code '2'
_symmetry_cell_setting 'orthorhombic'
loop_
_space_group_symop_operation_xyz
x,y,z
1/2-x,1/2-y,z
1/2+x,-y,-z
-x,1/2+y,-z
-x,-y,-z
1/2+x,1/2+y,-z
1/2-x,y,z
x,1/2-y,z
loop_
_atom_site_type_symbol
_atom_site_label
_atom_site_fract_x
_atom_site_fract_y
_atom_site_fract_z
Si Si1 0.915804 0.633925 0.917928
Si Si2 0.921067 0.860228 0.117849
Si Si3 0.926150 0.961866 0.621064
Si Si4 0.921975 0.047648 0.177345
Si Si5 0.081896 0.867450 0.016817
Si Si6 0.418970 0.633567 0.525367
Si Si7 0.073990 0.137306 0.578112
Si Si8 0.925255 0.861925 0.726905
O O1 0.750000 0.589976 0.911553
O O2 0.908487 0.750000 0.924186
O O3 0.012989 0.611616 0.868488
O O4 0.988866 0.587859 0.969261
O O5 0.750000 0.860115 0.100216
O O6 0.972172 0.750000 0.133435
O O7 0.015401 0.903826 0.070715
O O8 0.946013 0.931541 0.166127
O O9 0.750000 0.969942 0.614397
O O10 0.971139 0.906891 0.672746
O O11 0.994979 0.899770 0.575314
O O12 0.999187 0.070857 0.622176
O O13 0.750000 0.075092 0.182529
O O14 0.001753 0.071576 0.229940
O O15 0.250000 0.905370 0.011863
O O16 0.073426 0.750000 0.015645
O O17 0.250000 0.591732 0.524669
O O18 0.417011 0.750000 0.525016
O O19 0.507835 0.596677 0.475349
O O20 0.250000 0.123543 0.577538
O O21 0.028998 0.250000 0.588439
O O22 0.750000 0.864744 0.735113
O O23 0.984276 0.750000 0.730079
#
# Coordination Sequence:
#
# PCOD8243295 Si02
#       8
#     8   8   8   8   8   8   8   8
#     4  10  20  34  53  77 109 148 182 215 265 329
#     4   9  19  37  57  77 106 142 177 215 265 325
#     4  11  22  37  59  84 113 150 192 237 283 335
#     4  11  23  37  57  83 107 137 180 229 276 320
#     4   9  17  30  51  80 110 139 176 222 266 312
#     4  10  20  34  55  85 120 156 194 236 282 334
#     4  10  21  37  57  83 118 157 194 233 278 330
#     4  10  23  43  63  83 110 144 180 221 274 332
#
# _framework density 20.016209
#
# number of rings (size 3 to 8) (size 9 to 14) (size 15 to 20)
#    0.000    2.000    0.000    3.375    0.000    8.500 
#    0.000    0.625    0.000    2.250    0.000    0.000 
#    0.000    0.000    0.000    0.000    0.000    0.000 
#
# Total GULP energy -793798.902841 kJ/mol
# GULP energy per Si atom -12403.107857 kJ/mol
# Density = 1.997065 g / cm^3
# Si number density = 20.016209 Si / 1000 Ang^3
#
#
#
# Elastic Constant Matrix: (Units=GPa)
#
#
# Indices 1 2 3 4 5 6 
#
# 1 68.8369 42.8770 64.5835 0.0000 0.0000 0.0000
# 2 42.8770 67.1052 54.0614 0.0000 0.0000 0.0000
# 3 64.5835 54.0614 123.8993 0.0000 0.0000 0.0000
# 4 0.0000 0.0000 0.0000 32.6035 0.0000 0.0000
# 5 0.0000 0.0000 0.0000 0.0000 37.7017 0.0000
# 6 0.0000 0.0000 0.0000 0.0000 0.0000 27.6367
#
#
#
# Elastic Compliance Matrix: (Units=1/GPa)
#
#
# Indices 1 2 3 4 5 6 
#
# 1 0.033103 -0.011180 -0.012377 0.000000 0.000000 0.000000
# 2 -0.011180 0.026756 -0.005847 0.000000 0.000000 0.000000
# 3 -0.012377 -0.005847 0.017074 0.000000 0.000000 0.000000
# 4 0.000000 0.000000 0.000000 0.030672 0.000000 0.000000
# 5 0.000000 0.000000 0.000000 0.000000 0.026524 0.000000
# 6 0.000000 0.000000 0.000000 0.000000 0.000000 0.036184
#
#
# Mechanical properties :
#
#
# Convention : Reuss Voigt Hill
#
# Bulk Modulus (GPa) = 55.17231 64.76502 59.96866
# Shear Modulus (GPa) = 21.26197 26.14302 23.70250
#
# Velocity S-wave (km/s) = 3.26273 3.61791 3.44490
# Velocity P-wave (km/s) = 6.46665 7.06250 6.77113
#
# Compressibility (1/GPa) = 0.01812503
#
# Stress axis : x y z
#
# Youngs Moduli (GPa) = 30.20854 37.37506 58.56918
#
# Poissons Ratio (x) = 0.41786 0.72491
# Poissons Ratio (y) = 0.33774 0.34244
# Poissons Ratio (z) = 0.37389 0.21852
#
# Static dielectric constant tensor:
#      x y z
#    x 3.832050 0.000000 0.000000 
#    y 0.000000 3.823300 0.000000 
#    z 0.000000 0.000000 3.494220 
# 
# 
# High freq. dielectric constant tensor:
#      x y z
#    x 1.791030 0.000000 0.000000 
#    y 0.000000 1.796720 0.000000 
#    z 0.000000 0.000000 1.762130 
# 
# From -- ./inp_files/31589.got.cif
#   From: 2010.03.12/outbox.cif.g09.slc.cpg/sg59_16_cif.got.tgz:31589.got - 2010.04.16 16:29:54.
