data_PCOD8243654
_publ_section_title
;
Structure prediction by ZEFSAII (Michael W. Deem and Ramdas Pophale) SiO2 
 PCOD8243654
Probable space group: P M M N
;
_chemical_formula_sum "Si O2"
_cell_formula_units_Z 48
_cell_length_a 9.117883
_cell_length_b 10.143248
_cell_length_c 28.733366
_cell_angle_alpha 90.000000
_cell_angle_beta 90.000000
_cell_angle_gamma 90.000000
_cell_volume 2657.403875
_symmetry_space_group_name_H-M "P M M N"
_symmetry_group_IT_number 59
_space_group.IT_coordinate_system_code '2'
_symmetry_cell_setting 'orthorhombic'
loop_
_space_group_symop_operation_xyz
x,y,z
1/2-x,1/2-y,z
1/2+x,-y,-z
-x,1/2+y,-z
-x,-y,-z
1/2+x,1/2+y,-z
1/2-x,y,z
x,1/2-y,z
loop_
_atom_site_type_symbol
_atom_site_label
_atom_site_fract_x
_atom_site_fract_y
_atom_site_fract_z
Si Si1 0.420706 0.902816 0.802831
Si Si2 0.920904 0.602797 0.467460
Si Si3 0.422520 0.250000 0.045387
Si Si4 0.421752 0.491268 0.108115
Si Si5 0.080333 0.750000 0.052180
Si Si6 0.577616 0.901708 0.707820
Si Si7 0.580145 0.901854 0.360071
O O1 0.250000 0.935500 0.798116
O O2 0.449730 0.750000 0.813969
O O3 0.489557 0.988537 0.843978
O O4 0.498777 0.944276 0.755257
O O5 0.750000 0.593121 0.477547
O O6 0.977376 0.750000 0.479258
O O7 0.954183 0.570589 0.413900
O O8 0.000000 0.500000 0.500000
O O9 0.250000 0.250000 0.038321
O O10 0.476063 0.376607 0.073873
O O11 0.491738 0.250000 0.995006
O O12 0.250000 0.477710 0.119569
O O13 0.462700 0.625571 0.082911
O O14 0.250000 0.750000 0.038532
O O15 0.750000 0.920488 0.714465
O O16 0.539197 0.750000 0.694925
O O17 0.521942 0.998179 0.667778
O O18 0.750000 0.930839 0.348825
O O19 0.542770 0.750000 0.347392
#
# Coordination Sequence:
#
# PCOD8243654 Si02
#       7
#     8   8   4   8   4   8   8
#     4  10  20  35  57  82 104 134 178 222 264 315
#     4   9  19  35  54  78 110 147 186 229 274 321
#     4  10  20  34  56  78 102 140 178 212 257 312
#     4  10  20  36  55  77 106 139 173 214 263 312
#     4  10  22  36  52  78 110 138 170 214 259 308
#     4  10  21  36  56  82 110 140 177 224 273 325
#     4   9  19  37  57  78 109 147 185 226 273 324
#
# _framework density 18.062742
#
# number of rings (size 3 to 8) (size 9 to 14) (size 15 to 20)
#    0.000    2.333    0.833    2.500    0.000    5.000 
#    1.500    5.000    0.000    0.000    0.000    0.000 
#    0.000    0.000    0.000    0.000    0.000    0.000 
#
# Total GULP energy -595314.634887 kJ/mol
# GULP energy per Si atom -12402.388227 kJ/mol
# Density = 1.802163 g / cm^3
# Si number density = 18.062742 Si / 1000 Ang^3
#
#
#
# Elastic Constant Matrix: (Units=GPa)
#
#
# Indices 1 2 3 4 5 6 
#
# 1 78.3293 52.0460 66.4684 0.0000 0.0000 0.0000
# 2 52.0460 123.3469 77.6658 0.0000 0.0000 0.0000
# 3 66.4684 77.6658 128.1666 0.0000 0.0000 0.0000
# 4 0.0000 0.0000 0.0000 19.3854 0.0000 0.0000
# 5 0.0000 0.0000 0.0000 0.0000 41.6623 0.0000
# 6 0.0000 0.0000 0.0000 0.0000 0.0000 -19.2400
#
#
#
# Elastic Compliance Matrix: (Units=1/GPa)
#
#
# Indices 1 2 3 4 5 6 
#
# 1 0.023785 -0.003669 -0.010112 0.000000 0.000000 0.000000
# 2 -0.003669 0.013675 -0.006384 0.000000 0.000000 0.000000
# 3 -0.010112 -0.006384 0.016915 0.000000 0.000000 0.000000
# 4 0.000000 0.000000 0.000000 0.051585 0.000000 0.000000
# 5 0.000000 0.000000 0.000000 0.000000 0.024003 0.000000
# 6 0.000000 0.000000 0.000000 0.000000 0.000000 -0.051975
#
#
# Mechanical properties :
#
#
# Convention : Reuss Voigt Hill
#
# Bulk Modulus (GPa) = 71.19743 80.24477 75.72110
# Shear Modulus (GPa) = 40.65058 17.27238 28.96148
#
# Velocity S-wave (km/s) = 4.74911 3.09567 4.00857
# Velocity P-wave (km/s) = 8.34113 7.56965 7.96473
#
# Compressibility (1/GPa) = 0.01404545
#
# Stress axis : x y z
#
# Youngs Moduli (GPa) = 42.04282 73.12592 59.11953
#
# Poissons Ratio (x) = 0.26831 0.59781
# Poissons Ratio (y) = 0.15426 0.37741
# Poissons Ratio (z) = 0.42513 0.46682
#
# Static dielectric constant tensor:
#      x y z
#    x 3.242240 0.000000 0.000000 
#    y 0.000000 3.303930 0.000000 
#    z 0.000000 0.000000 3.331240 
# 
# 
# High freq. dielectric constant tensor:
#      x y z
#    x 1.698710 0.000000 0.000000 
#    y 0.000000 1.700040 0.000000 
#    z 0.000000 0.000000 1.705700 
# 
# From -- ./inp_files/33024.got.cif
#   From: 2010.03.12/outbox.cif.g09.slc.cpg/sg59_17_cif.got.tgz:33024.got - 2010.04.16 16:29:54.
