data_PCOD8243066
_publ_section_title
;
Structure prediction by ZEFSAII (Michael W. Deem and Ramdas Pophale) SiO2 
 PCOD8243066
Probable space group: P M M N
;
_chemical_formula_sum "Si O2"
_cell_formula_units_Z 64
_cell_length_a 9.672869
_cell_length_b 28.783110
_cell_length_c 12.486065
_cell_angle_alpha 90.000000
_cell_angle_beta 90.000000
_cell_angle_gamma 90.000000
_cell_volume 3476.310939
_symmetry_space_group_name_H-M "P M M N"
_symmetry_group_IT_number 59
_space_group.IT_coordinate_system_code '2'
_symmetry_cell_setting 'orthorhombic'
loop_
_space_group_symop_operation_xyz
x,y,z
1/2-x,1/2-y,z
1/2+x,-y,-z
-x,1/2+y,-z
-x,-y,-z
1/2+x,1/2+y,-z
1/2-x,y,z
x,1/2-y,z
loop_
_atom_site_type_symbol
_atom_site_label
_atom_site_fract_x
_atom_site_fract_y
_atom_site_fract_z
Si Si1 0.592429 0.395601 0.854081
Si Si2 0.907136 0.039992 0.049004
Si Si3 0.909635 0.558189 0.323441
Si Si4 0.585687 0.300763 0.938147
Si Si5 0.407875 0.197779 0.363690
Si Si6 0.090371 0.396395 0.457788
Si Si7 0.090594 0.951630 0.707131
Si Si8 0.401641 0.695762 0.826501
O O1 0.750000 0.399601 0.812551
O O2 0.494920 0.424367 0.777443
O O3 0.542506 0.341591 0.856323
O O4 0.581315 0.414590 0.975102
O O5 0.750000 0.021131 0.053797
O O6 0.955827 0.052772 0.168837
O O7 0.000000 0.000000 0.000000
O O8 0.750000 0.570010 0.301707
O O9 0.964738 0.584048 0.429472
O O10 0.933815 0.503571 0.336265
O O11 0.750000 0.298526 0.948347
O O12 0.529481 0.250000 0.899450
O O13 0.530542 0.313279 0.057014
O O14 0.250000 0.199072 0.324892
O O15 0.453160 0.250000 0.401341
O O16 0.426928 0.159941 0.458619
O O17 0.495942 0.177567 0.264744
O O18 0.250000 0.410826 0.441522
O O19 0.003641 0.417565 0.361094
O O20 0.250000 0.937094 0.692921
O O21 0.250000 0.671435 0.814510
O O22 0.381597 0.750000 0.810110
#
# Coordination Sequence:
#
# PCOD8243066 Si02
#       8
#     8   8   8   8   8   8   8   8
#     4  10  20  33  54  80 106 139 178 216 255 312
#     4  10  20  34  53  80 110 139 171 209 260 318
#     4  10  21  39  56  74 105 142 178 219 267 312
#     4   8  15  29  49  74 104 137 172 211 258 308
#     4   9  18  33  50  71 102 135 167 209 261 310
#     4  10  22  37  55  78 102 136 181 220 259 313
#     4  10  21  36  56  80 108 138 170 218 270 312
#     4   8  14  26  47  72  98 132 169 205 250 304
#
# _framework density 18.410322000000001
#
# number of rings (size 3 to 8) (size 9 to 14) (size 15 to 20)
#    0.000    2.625    1.250    1.125    1.750    2.000 
#    0.000    1.250    0.000    1.875    0.000    0.000 
#    0.000    0.000    0.000    0.000    0.000    0.000 
#
# Total GULP energy -793280.183715 kJ/mol
# GULP energy per Si atom -12395.002871 kJ/mol
# Density = 1.836842 g / cm^3
# Si number density = 18.410322 Si / 1000 Ang^3
#
#
#
# Elastic Constant Matrix: (Units=GPa)
#
#
# Indices 1 2 3 4 5 6 
#
# 1 48.8440 27.8072 31.1107 0.0000 0.0000 0.0000
# 2 27.8072 88.0677 29.4407 0.0000 0.0000 0.0000
# 3 31.1107 29.4407 81.8559 0.0000 0.0000 0.0000
# 4 0.0000 0.0000 0.0000 23.8186 0.0000 0.0000
# 5 0.0000 0.0000 0.0000 0.0000 25.4931 0.0000
# 6 0.0000 0.0000 0.0000 0.0000 0.0000 17.5474
#
#
#
# Elastic Compliance Matrix: (Units=1/GPa)
#
#
# Indices 1 2 3 4 5 6 
#
# 1 0.029890 -0.006411 -0.009055 0.000000 0.000000 0.000000
# 2 -0.006411 0.014282 -0.002700 0.000000 0.000000 0.000000
# 3 -0.009055 -0.002700 0.016629 0.000000 0.000000 0.000000
# 4 0.000000 0.000000 0.000000 0.041984 0.000000 0.000000
# 5 0.000000 0.000000 0.000000 0.000000 0.039226 0.000000
# 6 0.000000 0.000000 0.000000 0.000000 0.000000 0.056989
#
#
# Mechanical properties :
#
#
# Convention : Reuss Voigt Hill
#
# Bulk Modulus (GPa) = 40.86626 43.94276 42.40451
# Shear Modulus (GPa) = 20.53493 22.06576 21.30034
#
# Velocity S-wave (km/s) = 3.34339 3.46577 3.40513
# Velocity P-wave (km/s) = 6.09508 6.31948 6.20829
#
# Compressibility (1/GPa) = 0.02447007
#
# Stress axis : x y z
#
# Youngs Moduli (GPa) = 33.45569 70.01933 60.13578
#
# Poissons Ratio (x) = 0.44889 0.54450
# Poissons Ratio (y) = 0.21448 0.16237
# Poissons Ratio (z) = 0.30292 0.18906
#
# Static dielectric constant tensor:
#      x y z
#    x 3.407190 0.000000 0.000000 
#    y 0.000000 3.626030 0.000000 
#    z 0.000000 0.000000 3.312550 
# 
# 
# High freq. dielectric constant tensor:
#      x y z
#    x 1.694940 0.000000 0.000000 
#    y 0.000000 1.723480 0.000000 
#    z 0.000000 0.000000 1.695590 
# 
# From -- ./inp_files/14972.got.cif
#   From: 2010.03.12/outbox.cif.g09.slc.cpg/sg59_8_cif.got.tgz:14972.got - 2010.04.16 16:29:54.
