data_PCOD8243844
_publ_section_title
;
Structure prediction by ZEFSAII (Michael W. Deem and Ramdas Pophale) SiO2 
 PCOD8243844
Probable space group: P M M N
;
_chemical_formula_sum "Si O2"
_cell_formula_units_Z 64
_cell_length_a 8.983710
_cell_length_b 33.533637
_cell_length_c 11.097614
_cell_angle_alpha 90.000000
_cell_angle_beta 90.000000
_cell_angle_gamma 90.000000
_cell_volume 3343.228020
_symmetry_space_group_name_H-M "P M M N"
_symmetry_group_IT_number 59
_space_group.IT_coordinate_system_code '2'
_symmetry_cell_setting 'orthorhombic'
loop_
_space_group_symop_operation_xyz
x,y,z
1/2-x,1/2-y,z
1/2+x,-y,-z
-x,1/2+y,-z
-x,-y,-z
1/2+x,1/2+y,-z
1/2-x,y,z
x,1/2-y,z
loop_
_atom_site_type_symbol
_atom_site_label
_atom_site_fract_x
_atom_site_fract_y
_atom_site_fract_z
Si Si1 0.576100 0.366352 0.841543
Si Si2 0.580420 0.935833 0.045950
Si Si3 0.421699 0.794855 0.003907
Si Si4 0.925028 0.704256 0.754733
Si Si5 0.077005 0.442219 0.226094
Si Si6 0.073802 0.870519 0.652062
Si Si7 0.074421 0.907030 0.396682
Si Si8 0.424730 0.480393 0.714097
O O1 0.750000 0.371618 0.839159
O O2 0.515960 0.396153 0.942493
O O3 0.530430 0.321904 0.882229
O O4 0.515475 0.377211 0.708556
O O5 0.750000 0.922839 0.063974
O O6 0.535358 0.967184 0.149467
O O7 0.553163 0.953878 0.913909
O O8 0.250000 0.802425 0.966608
O O9 0.447585 0.750000 0.048029
O O10 0.523528 0.805187 0.890169
O O11 0.750000 0.696802 0.745578
O O12 0.966091 0.750000 0.720060
O O13 0.009305 0.674161 0.664954
O O14 0.250000 0.439434 0.260176
O O15 0.999872 0.399743 0.250127
O O16 0.999629 0.476486 0.306388
O O17 0.250000 0.869480 0.671131
O O18 0.028433 0.886623 0.520952
O O19 0.250000 0.914827 0.389065
O O20 0.992329 0.949433 0.382199
O O21 0.250000 0.484447 0.691221
#
# Coordination Sequence:
#
# PCOD8243844 Si02
#       8
#     8   8   8   8   8   8   8   8
#     4   9  17  31  52  75 100 133 170 211 260 310
#     4   9  19  33  50  75 104 134 169 212 262 315
#     4   9  17  30  51  80 110 136 165 205 255 312
#     4  10  21  37  57  81 110 141 171 208 257 310
#     4  11  22  35  53  78 109 141 173 214 263 313
#     4  11  23  38  56  78 105 139 181 223 259 303
#     4   9  20  38  55  73 101 138 179 220 262 307
#     4  10  20  35  55  78 104 136 175 217 263 314
#
# _framework density 19.143176
#
# number of rings (size 3 to 8) (size 9 to 14) (size 15 to 20)
#    0.000    2.250    0.000    2.625    0.000    6.250 
#    0.000    0.625    0.000    2.250    0.000    1.750 
#    0.000    0.000    0.000    0.000    0.000    0.000 
#
# Total GULP energy -793623.544245 kJ/mol
# GULP energy per Si atom -12400.367879 kJ/mol
# Density = 1.909961 g / cm^3
# Si number density = 19.143176 Si / 1000 Ang^3
#
#
#
# Elastic Constant Matrix: (Units=GPa)
#
#
# Indices 1 2 3 4 5 6 
#
# 1 59.5763 43.0145 29.1238 0.0000 0.0000 0.0000
# 2 43.0145 114.7409 31.2783 0.0000 0.0000 0.0000
# 3 29.1238 31.2783 56.1344 0.0000 0.0000 0.0000
# 4 0.0000 0.0000 0.0000 24.0931 0.0000 0.0000
# 5 0.0000 0.0000 0.0000 0.0000 22.5549 0.0000
# 6 0.0000 0.0000 0.0000 0.0000 0.0000 33.1200
#
#
#
# Elastic Compliance Matrix: (Units=1/GPa)
#
#
# Indices 1 2 3 4 5 6 
#
# 1 0.026959 -0.007421 -0.009852 0.000000 0.000000 0.000000
# 2 -0.007421 0.012319 -0.003014 0.000000 0.000000 0.000000
# 3 -0.009852 -0.003014 0.024605 0.000000 0.000000 0.000000
# 4 0.000000 0.000000 0.000000 0.041506 0.000000 0.000000
# 5 0.000000 0.000000 0.000000 0.000000 0.044336 0.000000
# 6 0.000000 0.000000 0.000000 0.000000 0.000000 0.030193
#
#
# Mechanical properties :
#
#
# Convention : Reuss Voigt Hill
#
# Bulk Modulus (GPa) = 42.90112 48.58720 45.74416
# Shear Modulus (GPa) = 21.90456 24.42258 23.16357
#
# Velocity S-wave (km/s) = 3.38634 3.57569 3.48230
# Velocity P-wave (km/s) = 6.14403 6.51793 6.33374
#
# Compressibility (1/GPa) = 0.02330942
#
# Stress axis : x y z
#
# Youngs Moduli (GPa) = 37.09273 81.17608 40.64160
#
# Poissons Ratio (x) = 0.60241 0.40041
# Poissons Ratio (y) = 0.27526 0.12249
# Poissons Ratio (z) = 0.36545 0.24466
#
# Static dielectric constant tensor:
#      x y z
#    x 3.469880 0.000000 0.000000 
#    y 0.000000 3.652990 0.000000 
#    z 0.000000 0.000000 3.475810 
# 
# 
# High freq. dielectric constant tensor:
#      x y z
#    x 1.746470 0.000000 0.000000 
#    y 0.000000 1.747680 0.000000 
#    z 0.000000 0.000000 1.730890 
# 
# From -- ./inp_files/14888.got.cif
#   From: 2010.03.12/outbox.cif.g09.slc.cpg/sg59_8_cif.got.tgz:14888.got - 2010.04.16 16:29:54.
