data_PCOD8243928
_publ_section_title
;
Structure prediction by ZEFSAII (Michael W. Deem and Ramdas Pophale) SiO2 
 PCOD8243928
Probable space group: P M M N
;
_chemical_formula_sum "Si O2"
_cell_formula_units_Z 64
_cell_length_a 18.295076
_cell_length_b 8.991704
_cell_length_c 20.380322
_cell_angle_alpha 90.000000
_cell_angle_beta 90.000000
_cell_angle_gamma 90.000000
_cell_volume 3352.642616
_symmetry_space_group_name_H-M "P M M N"
_symmetry_group_IT_number 59
_space_group.IT_coordinate_system_code '2'
_symmetry_cell_setting 'orthorhombic'
loop_
_space_group_symop_operation_xyz
x,y,z
1/2-x,1/2-y,z
1/2+x,-y,-z
-x,1/2+y,-z
-x,-y,-z
1/2+x,1/2+y,-z
1/2-x,y,z
x,1/2-y,z
loop_
_atom_site_type_symbol
_atom_site_label
_atom_site_fract_x
_atom_site_fract_y
_atom_site_fract_z
Si Si1 0.837143 0.417715 0.928643
Si Si2 0.165858 0.079564 0.581225
Si Si3 0.917177 0.425892 0.682420
Si Si4 0.333590 0.576530 0.812838
Si Si5 0.072261 0.924606 0.687360
Si Si6 0.837084 0.917709 0.057091
Si Si7 0.333808 0.079011 0.429407
Si Si8 0.336798 0.418338 0.200892
O O1 0.750000 0.419051 0.929488
O O2 0.867147 0.250000 0.924660
O O3 0.866655 0.508702 0.866101
O O4 0.868354 0.493333 0.994572
O O5 0.250000 0.038853 0.594863
O O6 0.150439 0.250000 0.601346
O O7 0.146841 0.055126 0.505261
O O8 0.114958 0.969773 0.621898
O O9 0.918861 0.250000 0.686428
O O10 0.887138 0.474314 0.611659
O O11 0.864018 0.487942 0.737861
O O12 0.997554 0.487596 0.693123
O O13 0.250000 0.530012 0.799006
O O14 0.339716 0.750000 0.828035
O O15 0.379673 0.529206 0.749824
O O16 0.365908 0.491520 0.875924
O O17 0.056385 0.750000 0.685043
O O18 0.750000 0.922944 0.055940
O O19 0.866467 0.750000 0.053372
O O20 0.250000 0.034574 0.415583
O O21 0.346655 0.250000 0.408885
O O22 0.250000 0.420257 0.202217
O O23 0.366707 0.250000 0.204929
#
# Coordination Sequence:
#
# PCOD8243928 Si02
#       8
#     8   8   8   8   8   8   8   8
#     4   9  16  27  46  74 107 139 173 217 265 312
#     4   9  19  37  61  87 113 140 173 217 268 320
#     4  12  25  38  54  78 109 144 182 224 269 318
#     4   9  18  33  53  77 104 136 176 221 267 315
#     4  11  23  38  56  78 108 146 185 224 267 318
#     4   9  16  26  44  73 106 138 173 215 264 315
#     4   9  19  38  62  85 110 141 176 216 265 320
#     4  10  20  35  56  80 107 140 178 221 269 322
#
# _framework density 19.089418999999999
#
# number of rings (size 3 to 8) (size 9 to 14) (size 15 to 20)
#    0.000    2.250    0.000    4.125    0.000    8.250 
#    0.000    2.500    0.000    0.750    0.000    0.000 
#    0.000    0.000    0.000    0.000    0.000    0.000 
#
# Total GULP energy -793771.559243 kJ/mol
# GULP energy per Si atom -12402.680613 kJ/mol
# Density = 1.904597 g / cm^3
# Si number density = 19.089419 Si / 1000 Ang^3
#
#
#
# Elastic Constant Matrix: (Units=GPa)
#
#
# Indices 1 2 3 4 5 6 
#
# 1 34.9330 31.5084 27.4977 0.0000 0.0000 0.0000
# 2 31.5084 129.2469 61.3711 0.0000 0.0000 0.0000
# 3 27.4977 61.3711 116.4883 0.0000 0.0000 0.0000
# 4 0.0000 0.0000 0.0000 38.6936 0.0000 0.0000
# 5 0.0000 0.0000 0.0000 0.0000 1.4406 0.0000
# 6 0.0000 0.0000 0.0000 0.0000 0.0000 15.9886
#
#
#
# Elastic Compliance Matrix: (Units=1/GPa)
#
#
# Indices 1 2 3 4 5 6 
#
# 1 0.039289 -0.006900 -0.005639 0.000000 0.000000 0.000000
# 2 -0.006900 0.011530 -0.004446 0.000000 0.000000 0.000000
# 3 -0.005639 -0.004446 0.012258 0.000000 0.000000 0.000000
# 4 0.000000 0.000000 0.000000 0.025844 0.000000 0.000000
# 5 0.000000 0.000000 0.000000 0.000000 0.694132 0.000000
# 6 0.000000 0.000000 0.000000 0.000000 0.000000 0.062545
#
#
# Mechanical properties :
#
#
# Convention : Reuss Voigt Hill
#
# Bulk Modulus (GPa) = 34.35621 57.93586 46.14603
# Shear Modulus (GPa) = 5.62258 21.91063 13.76661
#
# Velocity S-wave (km/s) = 1.71808 3.39158 2.68836
# Velocity P-wave (km/s) = 4.68746 6.76407 5.81915
#
# Compressibility (1/GPa) = 0.02910682
#
# Stress axis : x y z
#
# Youngs Moduli (GPa) = 25.45246 86.72736 81.58010
#
# Poissons Ratio (x) = 0.59846 0.46002
# Poissons Ratio (y) = 0.17563 0.36269
# Poissons Ratio (z) = 0.14352 0.38557
#
# Static dielectric constant tensor:
#      x y z
#    x 3.191970 0.000000 0.000000 
#    y 0.000000 3.588060 0.000000 
#    z 0.000000 0.000000 3.633580 
# 
# 
# High freq. dielectric constant tensor:
#      x y z
#    x 1.706670 0.000000 0.000000 
#    y 0.000000 1.749370 0.000000 
#    z 0.000000 0.000000 1.757960 
# 
# From -- ./inp_files/30682.got.cif
#   From: 2010.03.12/outbox.cif.g09.slc.cpg/sg59_16_cif.got.tgz:30682.got - 2010.04.16 16:29:54.
