data_PCOD8243593
_publ_section_title
;
Structure prediction by ZEFSAII (Michael W. Deem and Ramdas Pophale) SiO2 
 PCOD8243593
Probable space group: P M M N
;
_chemical_formula_sum "Si O2"
_cell_formula_units_Z 48
_cell_length_a 8.822106
_cell_length_b 17.775909
_cell_length_c 16.438993
_cell_angle_alpha 90.000000
_cell_angle_beta 90.000000
_cell_angle_gamma 90.000000
_cell_volume 2577.978556
_symmetry_space_group_name_H-M "P M M N"
_symmetry_group_IT_number 59
_space_group.IT_coordinate_system_code '2'
_symmetry_cell_setting 'orthorhombic'
loop_
_space_group_symop_operation_xyz
x,y,z
1/2-x,1/2-y,z
1/2+x,-y,-z
-x,1/2+y,-z
-x,-y,-z
1/2+x,1/2+y,-z
1/2-x,y,z
x,1/2-y,z
loop_
_atom_site_type_symbol
_atom_site_label
_atom_site_fract_x
_atom_site_fract_y
_atom_site_fract_z
Si Si1 0.927960 0.018462 0.414403
Si Si2 0.424121 0.398746 0.172809
Si Si3 0.071317 0.581665 0.992098
Si Si4 0.574108 0.053537 0.738277
Si Si5 0.923954 0.661552 0.141696
Si Si6 0.423867 0.833783 0.676051
O O1 0.750000 0.005032 0.418847
O O2 0.969129 0.104984 0.392006
O O3 0.000000 0.000000 0.500000
O O4 0.996870 0.962505 0.347898
O O5 0.250000 0.383051 0.151462
O O6 0.524200 0.381766 0.093647
O O7 0.450060 0.484504 0.200095
O O8 0.474163 0.342739 0.244062
O O9 0.250000 0.573666 0.998368
O O10 0.000000 0.500000 0.000000
O O11 0.015350 0.636225 0.062690
O O12 0.750000 0.070151 0.723186
O O13 0.494552 0.125669 0.777234
O O14 0.750000 0.635978 0.132673
O O15 0.939543 0.750000 0.151640
O O16 0.250000 0.846358 0.702254
O O17 0.450078 0.750000 0.640157
#
# Coordination Sequence:
#
# PCOD8243593 Si02
#       6
#     8   8   8   8   8   8
#     4  10  20  36  60  87 115 147 188 235 282 344
#     4  10  20  34  55  83 111 145 187 230 278 336
#     4  12  23  36  57  82 112 152 196 241 286 336
#     4  10  20  36  59  83 110 146 186 229 280 341
#     4  11  24  40  58  82 114 151 193 241 289 337
#     4   9  19  36  57  82 113 148 185 230 285 340
#
# _framework density 18.619239
#
# number of rings (size 3 to 8) (size 9 to 14) (size 15 to 20)
#    0.000    1.667    1.667    3.500    0.000    4.333 
#    0.000    0.833    0.000    3.000    0.000    0.000 
#    0.000    0.000    0.000    0.000    0.000    0.000 
#
# Total GULP energy -595417.740764 kJ/mol
# GULP energy per Si atom -12404.536266 kJ/mol
# Density = 1.857686 g / cm^3
# Si number density = 18.619239 Si / 1000 Ang^3
#
#
#
# Elastic Constant Matrix: (Units=GPa)
#
#
# Indices 1 2 3 4 5 6 
#
# 1 143.2213 53.7130 76.7670 0.0000 0.0000 0.0000
# 2 53.7130 95.1381 59.1547 0.0000 0.0000 0.0000
# 3 76.7670 59.1547 151.1330 0.0000 0.0000 0.0000
# 4 0.0000 0.0000 0.0000 21.4591 0.0000 0.0000
# 5 0.0000 0.0000 0.0000 0.0000 38.5741 0.0000
# 6 0.0000 0.0000 0.0000 0.0000 0.0000 26.2740
#
#
#
# Elastic Compliance Matrix: (Units=1/GPa)
#
#
# Indices 1 2 3 4 5 6 
#
# 1 0.010368 -0.003409 -0.003932 0.000000 0.000000 0.000000
# 2 -0.003409 0.015013 -0.004145 0.000000 0.000000 0.000000
# 3 -0.003932 -0.004145 0.010236 0.000000 0.000000 0.000000
# 4 0.000000 0.000000 0.000000 0.046600 0.000000 0.000000
# 5 0.000000 0.000000 0.000000 0.000000 0.025924 0.000000
# 6 0.000000 0.000000 0.000000 0.000000 0.000000 0.038060
#
#
# Mechanical properties :
#
#
# Convention : Reuss Voigt Hill
#
# Bulk Modulus (GPa) = 79.07694 85.41798 82.24746
# Shear Modulus (GPa) = 28.83694 30.58528 29.71111
#
# Velocity S-wave (km/s) = 3.93971 4.05738 3.99898
# Velocity P-wave (km/s) = 7.95348 8.24170 8.09887
#
# Compressibility (1/GPa) = 0.01264591
#
# Stress axis : x y z
#
# Youngs Moduli (GPa) = 96.44763 66.61095 97.69145
#
# Poissons Ratio (x) = 0.22706 0.38415
# Poissons Ratio (y) = 0.32876 0.40489
# Poissons Ratio (z) = 0.37926 0.27608
#
# Static dielectric constant tensor:
#      x y z
#    x 3.656170 0.000000 0.000000 
#    y 0.000000 3.363410 0.000000 
#    z 0.000000 0.000000 3.407820 
# 
# 
# High freq. dielectric constant tensor:
#      x y z
#    x 1.739600 0.000000 0.000000 
#    y 0.000000 1.713200 0.000000 
#    z 0.000000 0.000000 1.717310 
# 
# From -- ./inp_files/20396.got.cif
#   From: 2010.03.12/outbox.cif.g09.slc.cpg/sg59_11_cif.got.tgz:20396.got - 2010.04.16 16:29:54.
