data_PCOD8243595
_publ_section_title
;
Structure prediction by ZEFSAII (Michael W. Deem and Ramdas Pophale) SiO2 
 PCOD8243595
Probable space group: P M M N
;
_chemical_formula_sum "Si O2"
_cell_formula_units_Z 64
_cell_length_a 17.659732
_cell_length_b 9.014724
_cell_length_c 20.485915
_cell_angle_alpha 90.000000
_cell_angle_beta 90.000000
_cell_angle_gamma 90.000000
_cell_volume 3261.308704
_symmetry_space_group_name_H-M "P M M N"
_symmetry_group_IT_number 59
_space_group.IT_coordinate_system_code '2'
_symmetry_cell_setting 'orthorhombic'
loop_
_space_group_symop_operation_xyz
x,y,z
1/2-x,1/2-y,z
1/2+x,-y,-z
-x,1/2+y,-z
-x,-y,-z
1/2+x,1/2+y,-z
1/2-x,y,z
x,1/2-y,z
loop_
_atom_site_type_symbol
_atom_site_label
_atom_site_fract_x
_atom_site_fract_y
_atom_site_fract_z
Si Si1 0.162260 0.922692 0.742951
Si Si2 0.909686 0.924308 0.377103
Si Si3 0.662665 0.577999 0.514093
Si Si4 0.582392 0.425506 0.633367
Si Si5 0.592908 0.925580 0.134297
Si Si6 0.664404 0.426884 0.762951
Si Si7 0.836889 0.079954 0.015400
Si Si8 0.577518 0.425972 0.888929
O O1 0.250000 0.950879 0.758471
O O2 0.142240 0.750000 0.745068
O O3 0.143358 0.986838 0.672200
O O4 0.112002 0.007125 0.795833
O O5 0.900966 0.750000 0.362765
O O6 0.882878 0.965657 0.449373
O O7 0.995812 0.979321 0.369304
O O8 0.750000 0.535837 0.503680
O O9 0.652545 0.750000 0.530575
O O10 0.629538 0.485512 0.573160
O O11 0.586491 0.250000 0.630237
O O12 0.619402 0.486570 0.699967
O O13 0.599017 0.750000 0.139702
O O14 0.508936 0.978477 0.114854
O O15 0.650548 0.983798 0.079943
O O16 0.750000 0.487643 0.760679
O O17 0.663679 0.250000 0.763841
O O18 0.623586 0.491171 0.827391
O O19 0.750000 0.067648 0.993911
O O20 0.858791 0.250000 0.030893
O O21 0.886797 0.013628 0.956232
O O22 0.584362 0.250000 0.887940
#
# Coordination Sequence:
#
# PCOD8243595 Si02
#       8
#     8   8   8   8   8   8   8   8
#     4  11  24  40  58  82 111 143 182 228 275 325
#     4  10  21  38  59  82 110 145 184 227 277 333
#     4  10  21  36  54  78 110 148 187 227 275 330
#     4  10  20  34  55  83 112 143 182 227 274 327
#     4  11  22  36  56  80 109 145 182 223 271 326
#     4   9  16  28  49  77 106 135 172 220 270 319
#     4  10  20  35  56  81 109 141 179 225 273 321
#     4   9  18  33  53  78 107 140 179 221 268 321
#
# _framework density 19.624023999999999
#
# number of rings (size 3 to 8) (size 9 to 14) (size 15 to 20)
#    0.000    2.000    0.000    3.750    0.000    8.500 
#    0.000    0.625    0.000    0.750    0.000    0.000 
#    0.000    0.000    0.000    0.000    0.000    0.000 
#
# Total GULP energy -793887.894730 kJ/mol
# GULP energy per Si atom -12404.498355 kJ/mol
# Density = 1.957936 g / cm^3
# Si number density = 19.624024 Si / 1000 Ang^3
#
#
#
# Elastic Constant Matrix: (Units=GPa)
#
#
# Indices 1 2 3 4 5 6 
#
# 1 85.0064 20.8362 21.0765 0.0000 0.0000 0.0000
# 2 20.8362 37.4032 21.3965 0.0000 0.0000 0.0000
# 3 21.0765 21.3965 103.9626 0.0000 0.0000 0.0000
# 4 0.0000 0.0000 0.0000 29.4252 0.0000 0.0000
# 5 0.0000 0.0000 0.0000 0.0000 45.8145 0.0000
# 6 0.0000 0.0000 0.0000 0.0000 0.0000 22.1821
#
#
#
# Elastic Compliance Matrix: (Units=1/GPa)
#
#
# Indices 1 2 3 4 5 6 
#
# 1 0.013796 -0.006897 -0.001377 0.000000 0.000000 0.000000
# 2 -0.006897 0.033752 -0.005548 0.000000 0.000000 0.000000
# 3 -0.001377 -0.005548 0.011040 0.000000 0.000000 0.000000
# 4 0.000000 0.000000 0.000000 0.033984 0.000000 0.000000
# 5 0.000000 0.000000 0.000000 0.000000 0.021827 0.000000
# 6 0.000000 0.000000 0.000000 0.000000 0.000000 0.045081
#
#
# Mechanical properties :
#
#
# Convention : Reuss Voigt Hill
#
# Bulk Modulus (GPa) = 32.31855 39.22118 35.76986
# Shear Modulus (GPa) = 25.32408 30.35523 27.83966
#
# Velocity S-wave (km/s) = 3.59620 3.93726 3.77059
# Velocity P-wave (km/s) = 5.80932 6.37958 6.10111
#
# Compressibility (1/GPa) = 0.03094199
#
# Stress axis : x y z
#
# Youngs Moduli (GPa) = 72.48491 29.62797 90.58025
#
# Poissons Ratio (x) = 0.20436 0.12476
# Poissons Ratio (y) = 0.49996 0.50255
# Poissons Ratio (z) = 0.09983 0.16438
#
# Static dielectric constant tensor:
#      x y z
#    x 3.776030 0.000000 0.000000 
#    y 0.000000 3.241090 0.000000 
#    z 0.000000 0.000000 3.668770 
# 
# 
# High freq. dielectric constant tensor:
#      x y z
#    x 1.781360 0.000000 0.000000 
#    y 0.000000 1.730530 0.000000 
#    z 0.000000 0.000000 1.781180 
# 
# From -- ./inp_files/30760.got.cif
#   From: 2010.03.12/outbox.cif.g09.slc.cpg/sg59_16_cif.got.tgz:30760.got - 2010.04.16 16:29:54.
