data_PCOD8243123
_publ_section_title
;
Structure prediction by ZEFSAII (Michael W. Deem and Ramdas Pophale) SiO2 
 PCOD8243123
Probable space group: P M M N
;
_chemical_formula_sum "Si O2"
_cell_formula_units_Z 56
_cell_length_a 14.732447
_cell_length_b 9.103758
_cell_length_c 21.205158
_cell_angle_alpha 90.000000
_cell_angle_beta 90.000000
_cell_angle_gamma 90.000000
_cell_volume 2844.049198
_symmetry_space_group_name_H-M "P M M N"
_symmetry_group_IT_number 59
_space_group.IT_coordinate_system_code '2'
_symmetry_cell_setting 'orthorhombic'
loop_
_space_group_symop_operation_xyz
x,y,z
1/2-x,1/2-y,z
1/2+x,-y,-z
-x,1/2+y,-z
-x,-y,-z
1/2+x,1/2+y,-z
1/2-x,y,z
x,1/2-y,z
loop_
_atom_site_type_symbol
_atom_site_label
_atom_site_fract_x
_atom_site_fract_y
_atom_site_fract_z
Si Si1 0.142204 0.084829 0.485465
Si Si2 0.857402 0.079857 0.390874
Si Si3 0.147123 0.580458 0.361126
Si Si4 0.972442 0.921514 0.285681
Si Si5 0.917609 0.083806 0.028241
Si Si6 0.019149 0.577776 0.843540
Si Si7 0.849469 0.081590 0.899987
O O1 0.250000 0.084564 0.487196
O O2 0.103470 0.250000 0.489622
O O3 0.105106 0.991138 0.544331
O O4 0.110077 0.012304 0.420237
O O5 0.750000 0.057590 0.384028
O O6 0.884327 0.250000 0.390919
O O7 0.904652 0.999368 0.333266
O O8 0.250000 0.534588 0.341152
O O9 0.145454 0.750000 0.381662
O O10 0.078242 0.550350 0.303577
O O11 0.949763 0.750000 0.285331
O O12 0.952615 0.987447 0.217429
O O13 0.949707 0.250000 0.031592
O O14 0.904582 0.038422 0.102099
O O15 0.838109 0.060580 0.976828
O O16 0.000000 0.000000 0.000000
O O17 0.016511 0.750000 0.826758
O O18 0.919917 0.528873 0.868107
O O19 0.750000 0.049885 0.871270
O O20 0.879336 0.250000 0.885503
#
# Coordination Sequence:
#
# PCOD8243123 Si02
#       7
#     8   8   8   8   8   8   8
#     4   9  17  31  54  82 108 135 171 220 276 327
#     4  10  21  38  59  80 104 137 178 226 278 329
#     4   9  19  36  55  76 105 141 181 223 267 319
#     4  11  23  37  55  79 108 146 188 226 268 320
#     4   8  15  29  49  71  95 126 163 203 247 295
#     4  10  20  34  51  73 105 141 176 215 261 316
#     4   9  17  31  53  79 104 132 170 214 260 313
#
# _framework density 19.690235999999999
#
# number of rings (size 3 to 8) (size 9 to 14) (size 15 to 20)
#    0.000    2.571    0.000    1.714    0.000    5.714 
#    0.000    2.143    0.000    2.571    0.000    0.000 
#    0.000    0.000    0.000    0.000    0.000    0.000 
#
# Total GULP energy -693886.080610 kJ/mol
# GULP energy per Si atom -12390.822868 kJ/mol
# Density = 1.964542 g / cm^3
# Si number density = 19.690236 Si / 1000 Ang^3
#
#
#
# Elastic Constant Matrix: (Units=GPa)
#
#
# Indices 1 2 3 4 5 6 
#
# 1 20.2904 14.8423 -2.6120 0.0000 0.0000 0.0000
# 2 14.8423 98.1944 42.7073 0.0000 0.0000 0.0000
# 3 -2.6120 42.7073 96.8537 0.0000 0.0000 0.0000
# 4 0.0000 0.0000 0.0000 37.1323 0.0000 0.0000
# 5 0.0000 0.0000 0.0000 0.0000 21.2868 0.0000
# 6 0.0000 0.0000 0.0000 0.0000 0.0000 23.4539
#
#
#
# Elastic Compliance Matrix: (Units=1/GPa)
#
#
# Indices 1 2 3 4 5 6 
#
# 1 0.058835 -0.011857 0.006815 0.000000 0.000000 0.000000
# 2 -0.011857 0.014990 -0.006930 0.000000 0.000000 0.000000
# 3 0.006815 -0.006930 0.013564 0.000000 0.000000 0.000000
# 4 0.000000 0.000000 0.000000 0.026931 0.000000 0.000000
# 5 0.000000 0.000000 0.000000 0.000000 0.046977 0.000000
# 6 0.000000 0.000000 0.000000 0.000000 0.000000 0.042637
#
#
# Mechanical properties :
#
#
# Convention : Reuss Voigt Hill
#
# Bulk Modulus (GPa) = 15.76143 36.13486 25.94815
# Shear Modulus (GPa) = 20.07822 27.06800 23.57311
#
# Velocity S-wave (km/s) = 3.19675 3.71171 3.46381
# Velocity P-wave (km/s) = 4.65270 6.06305 5.40408
#
# Compressibility (1/GPa) = 0.06344601
#
# Stress axis : x y z
#
# Youngs Moduli (GPa) = 16.99667 66.71142 73.72349
#
# Poissons Ratio (x) = 0.79100 -0.50243
# Poissons Ratio (y) = 0.20153 0.51087
# Poissons Ratio (z) = -0.11583 0.46228
#
# Static dielectric constant tensor:
#      x y z
#    x 4.879990 0.000000 0.000000 
#    y 0.000000 3.644780 0.000000 
#    z 0.000000 0.000000 3.901030 
# 
# 
# High freq. dielectric constant tensor:
#      x y z
#    x 1.743450 0.000000 0.000000 
#    y 0.000000 1.773320 0.000000 
#    z 0.000000 0.000000 1.771060 
# 
# From -- ./inp_files/30344.got.cif
#   From: 2010.03.12/outbox.cif.g09.slc.cpg/sg59_16_cif.got.tgz:30344.got - 2010.04.16 16:29:54.
