data_PCOD8243417
_publ_section_title
;
Structure prediction by ZEFSAII (Michael W. Deem and Ramdas Pophale) SiO2 
 PCOD8243417
Probable space group: P M M N
;
_chemical_formula_sum "Si O2"
_cell_formula_units_Z 48
_cell_length_a 30.178426
_cell_length_b 8.825237
_cell_length_c 9.387589
_cell_angle_alpha 90.000000
_cell_angle_beta 90.000000
_cell_angle_gamma 90.000000
_cell_volume 2500.213117
_symmetry_space_group_name_H-M "P M M N"
_symmetry_group_IT_number 59
_space_group.IT_coordinate_system_code '2'
_symmetry_cell_setting 'orthorhombic'
loop_
_space_group_symop_operation_xyz
x,y,z
1/2-x,1/2-y,z
1/2+x,-y,-z
-x,1/2+y,-z
-x,-y,-z
1/2+x,1/2+y,-z
1/2-x,y,z
x,1/2-y,z
loop_
_atom_site_type_symbol
_atom_site_label
_atom_site_fract_x
_atom_site_fract_y
_atom_site_fract_z
Si Si1 0.155876 0.574186 0.510018
Si Si2 0.376550 0.576962 0.814666
Si Si3 0.953178 0.072497 0.969478
Si Si4 0.750000 0.077930 0.816631
Si Si5 0.678816 0.914157 0.977527
Si Si6 0.750000 0.928830 0.521125
Si Si7 0.395318 0.082965 0.251869
O O1 0.164393 0.750000 0.475517
O O2 0.122884 0.553177 0.644516
O O3 0.204328 0.500077 0.540479
O O4 0.129840 0.501712 0.378767
O O5 0.364904 0.750000 0.852786
O O6 0.422291 0.532468 0.893646
O O7 0.337013 0.469868 0.868564
O O8 0.958794 0.250000 0.951862
O O9 0.935848 0.011337 0.816067
O O10 0.000000 0.000000 0.000000
O O11 0.750000 0.250000 0.759964
O O12 0.750000 0.958165 0.689415
O O13 0.708126 0.047915 0.914622
O O14 0.703012 0.750000 0.993464
O O15 0.637326 0.893355 0.877528
O O16 0.750000 0.750000 0.491465
O O17 0.411265 0.250000 0.304751
#
# Coordination Sequence:
#
# PCOD8243417 Si02
#       7
#     8   8   8   4   8   4   8
#     4  11  22  38  59  84 115 156 197 237 286 341
#     4   9  21  39  58  82 115 150 188 233 288 348
#     4  10  20  38  63  89 116 147 189 239 291 352
#     4  12  22  33  54  79 108 146 192 240 282 331
#     4  10  20  34  54  79 109 143 186 235 283 331
#     4  12  24  37  54  81 116 154 196 240 282 333
#     4  10  20  35  57  84 114 148 187 234 284 342
#
# _framework density 19.198363000000001
#
# number of rings (size 3 to 8) (size 9 to 14) (size 15 to 20)
#    0.000    1.667    1.667    3.500    0.000    4.000 
#    0.000    1.667    0.000    0.000    0.000    0.000 
#    0.000    0.000    0.000    0.000    0.000    0.000 
#
# Total GULP energy -594864.695779 kJ/mol
# GULP energy per Si atom -12393.014495 kJ/mol
# Density = 1.915467 g / cm^3
# Si number density = 19.198363 Si / 1000 Ang^3
#
#
#
# Elastic Constant Matrix: (Units=GPa)
#
#
# Indices 1 2 3 4 5 6 
#
# 1 96.8903 46.0296 39.6680 0.0000 0.0000 0.0000
# 2 46.0296 128.4620 41.8440 0.0000 0.0000 0.0000
# 3 39.6680 41.8440 94.6106 0.0000 0.0000 0.0000
# 4 0.0000 0.0000 0.0000 23.2011 0.0000 0.0000
# 5 0.0000 0.0000 0.0000 0.0000 32.2440 0.0000
# 6 0.0000 0.0000 0.0000 0.0000 0.0000 33.4818
#
#
#
# Elastic Compliance Matrix: (Units=1/GPa)
#
#
# Indices 1 2 3 4 5 6 
#
# 1 0.013721 -0.003555 -0.004181 0.000000 0.000000 0.000000
# 2 -0.003555 0.010015 -0.002939 0.000000 0.000000 0.000000
# 3 -0.004181 -0.002939 0.013623 0.000000 0.000000 0.000000
# 4 0.000000 0.000000 0.000000 0.043101 0.000000 0.000000
# 5 0.000000 0.000000 0.000000 0.000000 0.031014 0.000000
# 6 0.000000 0.000000 0.000000 0.000000 0.000000 0.029867
#
#
# Mechanical properties :
#
#
# Convention : Reuss Voigt Hill
#
# Bulk Modulus (GPa) = 62.46177 63.89402 63.17789
# Shear Modulus (GPa) = 29.75703 30.61346 30.18525
#
# Velocity S-wave (km/s) = 3.94125 3.99756 3.96950
# Velocity P-wave (km/s) = 7.30184 7.39328 7.34770
#
# Compressibility (1/GPa) = 0.01600979
#
# Stress axis : x y z
#
# Youngs Moduli (GPa) = 72.87892 99.84531 73.40780
#
# Poissons Ratio (x) = 0.35492 0.30691
# Poissons Ratio (y) = 0.25906 0.21576
# Poissons Ratio (z) = 0.30470 0.29347
#
# Static dielectric constant tensor:
#      x y z
#    x 3.493960 0.000000 0.000000 
#    y 0.000000 3.970130 0.000000 
#    z 0.000000 0.000000 3.442250 
# 
# 
# High freq. dielectric constant tensor:
#      x y z
#    x 1.729550 0.000000 0.000000 
#    y 0.000000 1.765570 0.000000 
#    z 0.000000 0.000000 1.738300 
# 
# From -- ./inp_files/6434.got.cif
#   From: 2010.03.12/outbox.cif.g09.slc.cpg/sg59_4_cif.got.tgz:6434.got - 2010.04.16 16:29:54.
