data_PCOD8243555
_publ_section_title
;
Structure prediction by ZEFSAII (Michael W. Deem and Ramdas Pophale) SiO2 
 PCOD8243555
Probable space group: P M M N
;
_chemical_formula_sum "Si O2"
_cell_formula_units_Z 64
_cell_length_a 9.121411
_cell_length_b 28.935351
_cell_length_c 12.587338
_cell_angle_alpha 90.000000
_cell_angle_beta 90.000000
_cell_angle_gamma 90.000000
_cell_volume 3322.191587
_symmetry_space_group_name_H-M "P M M N"
_symmetry_group_IT_number 59
_space_group.IT_coordinate_system_code '2'
_symmetry_cell_setting 'orthorhombic'
loop_
_space_group_symop_operation_xyz
x,y,z
1/2-x,1/2-y,z
1/2+x,-y,-z
-x,1/2+y,-z
-x,-y,-z
1/2+x,1/2+y,-z
1/2-x,y,z
x,1/2-y,z
loop_
_atom_site_type_symbol
_atom_site_label
_atom_site_fract_x
_atom_site_fract_y
_atom_site_fract_z
Si Si1 0.577212 0.471555 0.093697
Si Si2 0.582878 0.011326 0.334255
Si Si3 0.076075 0.866155 0.900812
Si Si4 0.423554 0.663170 0.489597
Si Si5 0.578730 0.196330 0.905669
Si Si6 0.417681 0.069214 0.502681
Si Si7 0.075497 0.698341 0.716181
Si Si8 0.090031 0.197229 0.704004
O O1 0.750000 0.473491 0.072070
O O2 0.538748 0.492980 0.209925
O O3 0.517835 0.418672 0.092084
O O4 0.500000 0.500000 0.000000
O O5 0.750000 0.030234 0.342640
O O6 0.475522 0.046410 0.394145
O O7 0.568233 0.962448 0.392840
O O8 0.250000 0.867154 0.893801
O O9 0.012144 0.839767 0.797513
O O10 0.022131 0.835886 0.999637
O O11 0.250000 0.663881 0.480824
O O12 0.481109 0.612038 0.470411
O O13 0.479905 0.683478 0.600575
O O14 0.491430 0.695251 0.399985
O O15 0.750000 0.189962 0.884741
O O16 0.543442 0.250000 0.931544
O O17 0.495490 0.175626 0.803622
O O18 0.250000 0.083706 0.483174
O O19 0.250000 0.698710 0.720803
O O20 0.016908 0.750000 0.742893
O O21 0.250000 0.172987 0.688905
O O22 0.115370 0.250000 0.732182
#
# Coordination Sequence:
#
# PCOD8243555 Si02
#       8
#     8   8   8   8   8   8   8   8
#     4  10  21  37  55  76 106 141 178 222 273 325
#     4   9  19  37  57  77 104 138 177 221 268 319
#     4   9  17  31  53  80 107 134 168 215 268 320
#     4  11  21  33  52  79 111 143 177 216 260 316
#     4   9  17  31  53  79 104 131 168 213 261 319
#     4  10  20  34  55  81 107 138 177 220 266 316
#     4   9  17  30  52  82 111 138 171 215 267 321
#     4  10  21  36  52  71 101 140 177 216 262 308
#
# _framework density 19.264392000000001
#
# number of rings (size 3 to 8) (size 9 to 14) (size 15 to 20)
#    0.000    2.375    0.000    2.625    0.000    6.750 
#    0.000    3.125    0.000    1.500    0.000    1.750 
#    0.000    0.000    0.000    0.000    0.000    0.000 
#
# Total GULP energy -793423.033492 kJ/mol
# GULP energy per Si atom -12397.234898 kJ/mol
# Density = 1.922055 g / cm^3
# Si number density = 19.264392 Si / 1000 Ang^3
#
#
#
# Elastic Constant Matrix: (Units=GPa)
#
#
# Indices 1 2 3 4 5 6 
#
# 1 64.3051 27.7431 52.1035 0.0000 0.0000 0.0000
# 2 27.7431 98.8844 62.7798 0.0000 0.0000 0.0000
# 3 52.1035 62.7798 177.9130 0.0000 0.0000 0.0000
# 4 0.0000 0.0000 0.0000 23.5988 0.0000 0.0000
# 5 0.0000 0.0000 0.0000 0.0000 16.6310 0.0000
# 6 0.0000 0.0000 0.0000 0.0000 0.0000 24.3808
#
#
#
# Elastic Compliance Matrix: (Units=1/GPa)
#
#
# Indices 1 2 3 4 5 6 
#
# 1 0.020875 -0.002546 -0.005215 0.000000 0.000000 0.000000
# 2 -0.002546 0.013343 -0.003963 0.000000 0.000000 0.000000
# 3 -0.005215 -0.003963 0.008546 0.000000 0.000000 0.000000
# 4 0.000000 0.000000 0.000000 0.042375 0.000000 0.000000
# 5 0.000000 0.000000 0.000000 0.000000 0.060129 0.000000
# 6 0.000000 0.000000 0.000000 0.000000 0.000000 0.041016
#
#
# Mechanical properties :
#
#
# Convention : Reuss Voigt Hill
#
# Bulk Modulus (GPa) = 51.76810 69.59505 60.68158
# Shear Modulus (GPa) = 23.12999 26.15386 24.64193
#
# Velocity S-wave (km/s) = 3.46881 3.68860 3.58039
# Velocity P-wave (km/s) = 6.55548 7.37195 6.97567
#
# Compressibility (1/GPa) = 0.01931692
#
# Stress axis : x y z
#
# Youngs Moduli (GPa) = 47.90497 74.94616 117.00928
#
# Poissons Ratio (x) = 0.19079 0.61021
# Poissons Ratio (y) = 0.12195 0.46368
# Poissons Ratio (z) = 0.24983 0.29699
#
# Static dielectric constant tensor:
#      x y z
#    x 3.455340 0.000000 0.000000 
#    y 0.000000 3.562370 0.000000 
#    z 0.000000 0.000000 3.665330 
# 
# 
# High freq. dielectric constant tensor:
#      x y z
#    x 1.723350 0.000000 0.000000 
#    y 0.000000 1.747100 0.000000 
#    z 0.000000 0.000000 1.760890 
# 
# From -- ./inp_files/14944.got.cif
#   From: 2010.03.12/outbox.cif.g09.slc.cpg/sg59_8_cif.got.tgz:14944.got - 2010.04.16 16:29:54.
