data_PCOD8243052
_publ_section_title
;
Structure prediction by ZEFSAII (Michael W. Deem and Ramdas Pophale) SiO2 
 PCOD8243052
Probable space group: P M M N
;
_chemical_formula_sum "Si O2"
_cell_formula_units_Z 64
_cell_length_a 9.081105
_cell_length_b 18.528215
_cell_length_c 20.902144
_cell_angle_alpha 90.000000
_cell_angle_beta 90.000000
_cell_angle_gamma 90.000000
_cell_volume 3516.925059
_symmetry_space_group_name_H-M "P M M N"
_symmetry_group_IT_number 59
_space_group.IT_coordinate_system_code '2'
_symmetry_cell_setting 'orthorhombic'
loop_
_space_group_symop_operation_xyz
x,y,z
1/2-x,1/2-y,z
1/2+x,-y,-z
-x,1/2+y,-z
-x,-y,-z
1/2+x,1/2+y,-z
1/2-x,y,z
x,1/2-y,z
loop_
_atom_site_type_symbol
_atom_site_label
_atom_site_fract_x
_atom_site_fract_y
_atom_site_fract_z
Si Si1 0.423445 0.423472 0.495407
Si Si2 0.922986 0.026804 0.805232
Si Si3 0.577992 0.394775 0.250404
Si Si4 0.922660 0.537000 0.940831
Si Si5 0.920289 0.332272 0.113970
Si Si6 0.582998 0.166312 0.599494
Si Si7 0.920530 0.666991 0.627858
Si Si8 0.424486 0.671456 0.255890
O O1 0.500000 0.500000 0.500000
O O2 0.250000 0.434420 0.497440
O O3 0.470818 0.376216 0.555465
O O4 0.472634 0.383007 0.430672
O O5 0.750000 0.018907 0.792490
O O6 0.980187 0.107985 0.790921
O O7 0.963668 0.009483 0.878250
O O8 0.003345 0.972888 0.756567
O O9 0.750000 0.406512 0.260408
O O10 0.542628 0.347031 0.187985
O O11 0.514969 0.352397 0.310436
O O12 0.750000 0.539999 0.953349
O O13 0.981967 0.618176 0.932340
O O14 0.000000 0.500000 0.000000
O O15 0.750000 0.349161 0.099920
O O16 0.960168 0.250000 0.097999
O O17 0.750000 0.137299 0.590409
O O18 0.576296 0.250000 0.581366
O O19 0.527587 0.153682 0.671817
O O20 0.750000 0.653836 0.644085
O O21 0.949765 0.750000 0.608960
O O22 0.250000 0.676489 0.253888
O O23 0.489141 0.750000 0.234478
#
# Coordination Sequence:
#
# PCOD8243052 Si02
#       8
#     8   8   8   8   8   8   8   8
#     4  11  24  39  54  74 103 138 179 223 267 317
#     4   9  18  33  54  79 107 141 180 219 261 313
#     4  10  20  33  53  82 112 139 171 215 268 319
#     4  10  20  34  53  78 109 146 185 221 261 312
#     4   9  18  34  55  79 108 141 177 219 268 319
#     4   9  18  34  56  79 102 132 170 214 267 323
#     4  10  22  39  56  74 101 139 177 214 261 317
#     4   8  15  30  54  80 103 130 169 217 265 313
#
# _framework density 18.197714000000001
#
# number of rings (size 3 to 8) (size 9 to 14) (size 15 to 20)
#    0.000    2.500    0.000    2.625    1.750    3.750 
#    0.000    0.625    0.000    3.375    0.000    0.000 
#    0.000    0.000    0.000    0.000    0.000    0.000 
#
# Total GULP energy -793645.664670 kJ/mol
# GULP energy per Si atom -12400.713510 kJ/mol
# Density = 1.815630 g / cm^3
# Si number density = 18.197714 Si / 1000 Ang^3
#
#
#
# Elastic Constant Matrix: (Units=GPa)
#
#
# Indices 1 2 3 4 5 6 
#
# 1 63.0263 54.4248 44.5271 0.0000 0.0000 0.0000
# 2 54.4248 137.2934 73.5386 0.0000 0.0000 0.0000
# 3 44.5271 73.5386 91.9903 0.0000 0.0000 0.0000
# 4 0.0000 0.0000 0.0000 28.3567 0.0000 0.0000
# 5 0.0000 0.0000 0.0000 0.0000 29.9153 0.0000
# 6 0.0000 0.0000 0.0000 0.0000 0.0000 29.4002
#
#
#
# Elastic Compliance Matrix: (Units=1/GPa)
#
#
# Indices 1 2 3 4 5 6 
#
# 1 0.027058 -0.006490 -0.007909 0.000000 0.000000 0.000000
# 2 -0.006490 0.014295 -0.008286 0.000000 0.000000 0.000000
# 3 -0.007909 -0.008286 0.021323 0.000000 0.000000 0.000000
# 4 0.000000 0.000000 0.000000 0.035265 0.000000 0.000000
# 5 0.000000 0.000000 0.000000 0.000000 0.033428 0.000000
# 6 0.000000 0.000000 0.000000 0.000000 0.000000 0.034013
#
#
# Mechanical properties :
#
#
# Convention : Reuss Voigt Hill
#
# Bulk Modulus (GPa) = 57.78404 70.81011 64.29707
# Shear Modulus (GPa) = 23.09250 25.52241 24.30746
#
# Velocity S-wave (km/s) = 3.56614 3.74907 3.65875
# Velocity P-wave (km/s) = 6.98418 7.59847 7.29779
#
# Compressibility (1/GPa) = 0.01730582
#
# Stress axis : x y z
#
# Youngs Moduli (GPa) = 36.95736 69.95691 46.89759
#
# Poissons Ratio (x) = 0.45400 0.37092
# Poissons Ratio (y) = 0.23984 0.38859
# Poissons Ratio (z) = 0.29230 0.57966
#
# Static dielectric constant tensor:
#      x y z
#    x 3.255410 0.000000 0.000000 
#    y 0.000000 3.763400 0.000000 
#    z 0.000000 0.000000 3.288030 
# 
# 
# High freq. dielectric constant tensor:
#      x y z
#    x 1.694010 0.000000 0.000000 
#    y 0.000000 1.716040 0.000000 
#    z 0.000000 0.000000 1.696260 
# 
# From -- ./inp_files/29498.got.cif
#   From: 2010.03.12/outbox.cif.g09.slc.cpg/sg59_15_cif.got.tgz:29498.got - 2010.04.16 16:29:54.
