data_PCOD8243111
_publ_section_title
;
Structure prediction by ZEFSAII (Michael W. Deem and Ramdas Pophale) SiO2 
 PCOD8243111
Probable space group: P M M N
;
_chemical_formula_sum "Si O2"
_cell_formula_units_Z 64
_cell_length_a 13.791310
_cell_length_b 8.854036
_cell_length_c 31.533473
_cell_angle_alpha 90.000000
_cell_angle_beta 90.000000
_cell_angle_gamma 90.000000
_cell_volume 3850.513136
_symmetry_space_group_name_H-M "P M M N"
_symmetry_group_IT_number 59
_space_group.IT_coordinate_system_code '2'
_symmetry_cell_setting 'orthorhombic'
loop_
_space_group_symop_operation_xyz
x,y,z
1/2-x,1/2-y,z
1/2+x,-y,-z
-x,1/2+y,-z
-x,-y,-z
1/2+x,1/2+y,-z
1/2-x,y,z
x,1/2-y,z
loop_
_atom_site_type_symbol
_atom_site_label
_atom_site_fract_x
_atom_site_fract_y
_atom_site_fract_z
Si Si1 0.637677 0.426955 0.851001
Si Si2 0.642065 0.926904 0.016248
Si Si3 0.135302 0.578220 0.477223
Si Si4 0.135925 0.924926 0.319519
Si Si5 0.465288 0.071593 0.397798
Si Si6 0.361110 0.427976 0.563939
Si Si7 0.134900 0.080361 0.234081
Si Si8 0.952488 0.071937 0.937715
O O1 0.750000 0.466845 0.859143
O O2 0.624011 0.250000 0.843436
O O3 0.595239 0.510820 0.809715
O O4 0.575563 0.486596 0.891011
O O5 0.750000 0.971505 0.032164
O O6 0.633274 0.750000 0.008327
O O7 0.622240 0.005076 0.971488
O O8 0.562883 0.978710 0.051318
O O9 0.250000 0.573747 0.474100
O O10 0.097253 0.750000 0.481033
O O11 0.095901 0.503804 0.434960
O O12 0.100200 0.484390 0.518205
O O13 0.250000 0.953366 0.325341
O O14 0.109623 0.750000 0.325708
O O15 0.079466 0.025538 0.353158
O O16 0.099867 0.977998 0.273282
O O17 0.462733 0.250000 0.402674
O O18 0.575680 0.010641 0.400062
O O19 0.250000 0.475514 0.571224
O O20 0.375526 0.250000 0.566798
O O21 0.250000 0.079530 0.232441
O O22 0.094629 0.250000 0.239560
O O23 0.939894 0.250000 0.939510
#
# Coordination Sequence:
#
# PCOD8243111 Si02
#       8
#     8   8   8   8   8   8   8   8
#     4   9  16  26  41  61  85 114 147 181 218 263
#     4   9  17  28  41  59  86 118 151 190 233 270
#     4  10  20  34  51  71  97 127 158 192 229 270
#     4  10  20  34  51  71  97 126 154 185 223 271
#     4  12  23  33  49  72  98 126 156 190 228 273
#     4  10  21  37  54  70  91 121 158 198 235 271
#     4   9  17  29  45  66  92 119 145 177 222 273
#     4   9  17  28  42  61  85 116 154 190 225 269
#
# _framework density 16.621161000000001
#
# number of rings (size 3 to 8) (size 9 to 14) (size 15 to 20)
#    0.000    2.250    0.000    3.750    0.000    6.500 
#    0.000    1.250    0.000    0.000    0.000    0.875 
#    0.000    5.000    0.000    0.000    0.000    0.000 
#
# Total GULP energy -793634.768922 kJ/mol
# GULP energy per Si atom -12400.543264 kJ/mol
# Density = 1.658333 g / cm^3
# Si number density = 16.621161 Si / 1000 Ang^3
#
#
#
# Elastic Constant Matrix: (Units=GPa)
#
#
# Indices 1 2 3 4 5 6 
#
# 1 58.7779 25.3868 42.8050 0.0000 0.0000 0.0000
# 2 25.3868 64.5237 24.7835 0.0000 0.0000 0.0000
# 3 42.8050 24.7835 97.3815 0.0000 0.0000 0.0000
# 4 0.0000 0.0000 0.0000 30.5636 0.0000 0.0000
# 5 0.0000 0.0000 0.0000 0.0000 21.6801 0.0000
# 6 0.0000 0.0000 0.0000 0.0000 0.0000 20.4024
#
#
#
# Elastic Compliance Matrix: (Units=1/GPa)
#
#
# Indices 1 2 3 4 5 6 
#
# 1 0.027507 -0.006848 -0.010348 0.000000 0.000000 0.000000
# 2 -0.006848 0.018882 -0.001795 0.000000 0.000000 0.000000
# 3 -0.010348 -0.001795 0.015274 0.000000 0.000000 0.000000
# 4 0.000000 0.000000 0.000000 0.032719 0.000000 0.000000
# 5 0.000000 0.000000 0.000000 0.000000 0.046125 0.000000
# 6 0.000000 0.000000 0.000000 0.000000 0.000000 0.049014
#
#
# Mechanical properties :
#
#
# Convention : Reuss Voigt Hill
#
# Bulk Modulus (GPa) = 42.22871 45.18153 43.70512
# Shear Modulus (GPa) = 21.24065 23.04307 22.14186
#
# Velocity S-wave (km/s) = 3.57869 3.72744 3.65382
# Velocity P-wave (km/s) = 6.52210 6.76515 6.64473
#
# Compressibility (1/GPa) = 0.02368057
#
# Stress axis : x y z
#
# Youngs Moduli (GPa) = 36.35444 52.96020 65.46875
#
# Poissons Ratio (x) = 0.36267 0.67748
# Poissons Ratio (y) = 0.24895 0.11754
# Poissons Ratio (z) = 0.37620 0.09509
#
# Static dielectric constant tensor:
#      x y z
#    x 3.182020 0.000000 0.000000 
#    y 0.000000 3.239930 0.000000 
#    z 0.000000 0.000000 3.181540 
# 
# 
# High freq. dielectric constant tensor:
#      x y z
#    x 1.618300 0.000000 0.000000 
#    y 0.000000 1.650750 0.000000 
#    z 0.000000 0.000000 1.631130 
# 
# From -- ./inp_files/33314.got.cif
#   From: 2010.03.12/outbox.cif.g09.slc.cpg/sg59_17_cif.got.tgz:33314.got - 2010.04.16 16:29:54.
