data_PCOD8243270
_publ_section_title
;
Structure prediction by ZEFSAII (Michael W. Deem and Ramdas Pophale) SiO2 
 PCOD8243270
Probable space group: P M M N
;
_chemical_formula_sum "Si O2"
_cell_formula_units_Z 48
_cell_length_a 9.039729
_cell_length_b 8.977371
_cell_length_c 31.147522
_cell_angle_alpha 90.000000
_cell_angle_beta 90.000000
_cell_angle_gamma 90.000000
_cell_volume 2527.714883
_symmetry_space_group_name_H-M "P M M N"
_symmetry_group_IT_number 59
_space_group.IT_coordinate_system_code '2'
_symmetry_cell_setting 'orthorhombic'
loop_
_space_group_symop_operation_xyz
x,y,z
1/2-x,1/2-y,z
1/2+x,-y,-z
-x,1/2+y,-z
-x,-y,-z
1/2+x,1/2+y,-z
1/2-x,y,z
x,1/2-y,z
loop_
_atom_site_type_symbol
_atom_site_label
_atom_site_fract_x
_atom_site_fract_y
_atom_site_fract_z
Si Si1 0.583164 0.072776 0.875509
Si Si2 0.922557 0.576367 0.209359
Si Si3 0.920014 0.573863 0.039741
Si Si4 0.077255 0.424490 0.619392
Si Si5 0.574325 0.082523 0.294464
Si Si6 0.423766 0.423360 0.459927
O O1 0.750000 0.011684 0.877859
O O2 0.579460 0.250000 0.875176
O O3 0.506948 0.012800 0.832207
O O4 0.494149 0.012836 0.916648
O O5 0.750000 0.545282 0.202236
O O6 0.953658 0.750000 0.216570
O O7 0.986506 0.491109 0.250845
O O8 0.750000 0.524703 0.040066
O O9 0.937882 0.750000 0.036018
O O10 0.000000 0.500000 0.000000
O O11 0.250000 0.459428 0.612058
O O12 0.045415 0.250000 0.617692
O O13 0.020636 0.486462 0.664989
O O14 0.983221 0.505455 0.583423
O O15 0.750000 0.081880 0.292842
O O16 0.512161 0.250000 0.298582
O O17 0.500000 0.500000 0.500000
O O18 0.250000 0.450796 0.463188
O O19 0.463893 0.250000 0.460292
#
# Coordination Sequence:
#
# PCOD8243270 Si02
#       6
#     8   8   8   8   8   8
#     4   9  17  30  49  72  98 130 169 212 258 309
#     4   9  16  28  48  72  96 125 166 213 255 300
#     4  10  20  34  53  77 104 135 172 214 261 313
#     4  10  20  35  57  84 111 141 180 223 266 314
#     4   9  17  30  50  76 105 137 172 211 258 311
#     4  11  24  40  58  82 111 143 180 221 266 317
#
# _framework density 18.989484000000001
#
# number of rings (size 3 to 8) (size 9 to 14) (size 15 to 20)
#    0.000    2.333    0.000    3.000    0.000    9.333 
#    0.000    1.667    0.000    6.500    0.000    0.000 
#    0.000    0.000    0.000    0.000    0.000    0.000 
#
# Total GULP energy -595289.855902 kJ/mol
# GULP energy per Si atom -12401.871998 kJ/mol
# Density = 1.894626 g / cm^3
# Si number density = 18.989484 Si / 1000 Ang^3
#
#
#
# Elastic Constant Matrix: (Units=GPa)
#
#
# Indices 1 2 3 4 5 6 
#
# 1 93.1459 52.6188 77.5732 0.0000 0.0000 0.0000
# 2 52.6188 89.5736 71.3027 0.0000 0.0000 0.0000
# 3 77.5732 71.3027 204.0567 0.0000 0.0000 0.0000
# 4 0.0000 0.0000 0.0000 36.0968 0.0000 0.0000
# 5 0.0000 0.0000 0.0000 0.0000 34.5203 0.0000
# 6 0.0000 0.0000 0.0000 0.0000 0.0000 21.5985
#
#
#
# Elastic Compliance Matrix: (Units=1/GPa)
#
#
# Indices 1 2 3 4 5 6 
#
# 1 0.018660 -0.007363 -0.004521 0.000000 0.000000 0.000000
# 2 -0.007363 0.018371 -0.003620 0.000000 0.000000 0.000000
# 3 -0.004521 -0.003620 0.007884 0.000000 0.000000 0.000000
# 4 0.000000 0.000000 0.000000 0.027703 0.000000 0.000000
# 5 0.000000 0.000000 0.000000 0.000000 0.028968 0.000000
# 6 0.000000 0.000000 0.000000 0.000000 0.000000 0.046300
#
#
# Mechanical properties :
#
#
# Convention : Reuss Voigt Hill
#
# Bulk Modulus (GPa) = 71.90478 87.75174 79.82826
# Shear Modulus (GPa) = 27.24329 30.79522 29.01926
#
# Velocity S-wave (km/s) = 3.79179 4.03140 3.91343
# Velocity P-wave (km/s) = 7.55764 8.24504 7.90881
#
# Compressibility (1/GPa) = 0.01390728
#
# Stress axis : x y z
#
# Youngs Moduli (GPa) = 53.58935 54.43340 126.83407
#
# Poissons Ratio (x) = 0.40079 0.57342
# Poissons Ratio (y) = 0.39458 0.45917
# Poissons Ratio (z) = 0.24228 0.19706
#
# Static dielectric constant tensor:
#      x y z
#    x 3.372970 0.000000 0.000000 
#    y 0.000000 3.408030 0.000000 
#    z 0.000000 0.000000 3.829050 
# 
# 
# High freq. dielectric constant tensor:
#      x y z
#    x 1.722600 0.000000 0.000000 
#    y 0.000000 1.723350 0.000000 
#    z 0.000000 0.000000 1.759320 
# 
# From -- ./inp_files/32823.got.cif
#   From: 2010.03.12/outbox.cif.g09.slc.cpg/sg59_17_cif.got.tgz:32823.got - 2010.04.16 16:29:54.
