data_PCOD8243602
_publ_section_title
;
Structure prediction by ZEFSAII (Michael W. Deem and Ramdas Pophale) SiO2 
 PCOD8243602
Probable space group: P M M N
;
_chemical_formula_sum "Si O2"
_cell_formula_units_Z 64
_cell_length_a 14.029092
_cell_length_b 9.198403
_cell_length_c 25.560964
_cell_angle_alpha 90.000000
_cell_angle_beta 90.000000
_cell_angle_gamma 90.000000
_cell_volume 3298.520784
_symmetry_space_group_name_H-M "P M M N"
_symmetry_group_IT_number 59
_space_group.IT_coordinate_system_code '2'
_symmetry_cell_setting 'orthorhombic'
loop_
_space_group_symop_operation_xyz
x,y,z
1/2-x,1/2-y,z
1/2+x,-y,-z
-x,1/2+y,-z
-x,-y,-z
1/2+x,1/2+y,-z
1/2-x,y,z
x,1/2-y,z
loop_
_atom_site_type_symbol
_atom_site_label
_atom_site_fract_x
_atom_site_fract_y
_atom_site_fract_z
Si Si1 0.859763 0.079592 0.722348
Si Si2 0.637106 0.910743 0.032525
Si Si3 0.859838 0.420481 0.133953
Si Si4 0.410472 0.085805 0.483022
Si Si5 0.853678 0.582391 0.407212
Si Si6 0.361221 0.081320 0.083604
Si Si7 0.457656 0.079174 0.372969
Si Si8 0.029347 0.578776 0.173392
O O1 0.750000 0.030563 0.725570
O O2 0.868800 0.250000 0.711691
O O3 0.910225 0.034098 0.776052
O O4 0.912344 0.996335 0.676484
O O5 0.750000 0.902193 0.028372
O O6 0.598238 0.750000 0.048051
O O7 0.606639 0.027227 0.076264
O O8 0.600183 0.956319 0.974852
O O9 0.750000 0.461513 0.145081
O O10 0.877324 0.250000 0.137564
O O11 0.925391 0.502124 0.176624
O O12 0.444375 0.250000 0.480277
O O13 0.335129 0.060852 0.529624
O O14 0.386524 0.042752 0.422608
O O15 0.500000 0.000000 0.500000
O O16 0.750000 0.545657 0.381844
O O17 0.882023 0.750000 0.395914
O O18 0.935285 0.480341 0.383383
O O19 0.250000 0.046403 0.088907
O O20 0.381687 0.250000 0.096841
O O21 0.416196 0.976672 0.122524
O O22 0.465494 0.250000 0.361858
O O23 0.014596 0.750000 0.169851
#
# Coordination Sequence:
#
# PCOD8243602 Si02
#       8
#     8   8   8   8   8   8   8   8
#     4  10  23  43  62  80 105 138 179 225 270 321
#     4   8  15  30  52  78 109 144 179 214 256 312
#     4  10  21  37  57  81 109 140 175 218 268 321
#     4   8  15  28  47  74 108 144 182 222 262 309
#     4   9  17  31  53  80 114 156 192 222 263 317
#     4   9  18  33  54  81 113 146 179 219 267 317
#     4  10  20  34  55  83 113 145 183 229 278 324
#     4  11  23  38  58  81 105 138 180 225 271 321
#
# _framework density 19.402636999999999
#
# number of rings (size 3 to 8) (size 9 to 14) (size 15 to 20)
#    0.000    2.625    0.000    2.250    0.000    5.000 
#    0.000    3.125    0.000    0.750    0.000    0.000 
#    0.000    0.000    0.000    0.000    0.000    0.000 
#
# Total GULP energy -792951.476198 kJ/mol
# GULP energy per Si atom -12389.866816 kJ/mol
# Density = 1.935848 g / cm^3
# Si number density = 19.402637 Si / 1000 Ang^3
#
#
#
# Elastic Constant Matrix: (Units=GPa)
#
#
# Indices 1 2 3 4 5 6 
#
# 1 105.7852 45.8608 64.4737 0.0000 0.0000 0.0000
# 2 45.8608 64.4365 51.1376 0.0000 0.0000 0.0000
# 3 64.4737 51.1376 111.7816 0.0000 0.0000 0.0000
# 4 0.0000 0.0000 0.0000 30.7013 0.0000 0.0000
# 5 0.0000 0.0000 0.0000 0.0000 24.4685 0.0000
# 6 0.0000 0.0000 0.0000 0.0000 0.0000 27.2694
#
#
#
# Elastic Compliance Matrix: (Units=1/GPa)
#
#
# Indices 1 2 3 4 5 6 
#
# 1 0.016110 -0.006424 -0.006353 0.000000 0.000000 0.000000
# 2 -0.006424 0.026927 -0.008613 0.000000 0.000000 0.000000
# 3 -0.006353 -0.008613 0.016551 0.000000 0.000000 0.000000
# 4 0.000000 0.000000 0.000000 0.032572 0.000000 0.000000
# 5 0.000000 0.000000 0.000000 0.000000 0.040869 0.000000
# 6 0.000000 0.000000 0.000000 0.000000 0.000000 0.036671
#
#
# Mechanical properties :
#
#
# Convention : Reuss Voigt Hill
#
# Bulk Modulus (GPa) = 59.49911 67.21641 63.35776
# Shear Modulus (GPa) = 22.92706 24.52325 23.72516
#
# Velocity S-wave (km/s) = 3.44124 3.55901 3.50062
# Velocity P-wave (km/s) = 6.82067 7.18379 7.00459
#
# Compressibility (1/GPa) = 0.01680697
#
# Stress axis : x y z
#
# Youngs Moduli (GPa) = 62.07208 37.13785 60.41994
#
# Poissons Ratio (x) = 0.23857 0.38387
# Poissons Ratio (y) = 0.39875 0.52041
# Poissons Ratio (z) = 0.39436 0.31987
#
# Static dielectric constant tensor:
#      x y z
#    x 3.437560 0.000000 0.000000 
#    y 0.000000 3.508090 0.000000 
#    z 0.000000 0.000000 5.777400 
# 
# 
# High freq. dielectric constant tensor:
#      x y z
#    x 1.753710 0.000000 0.000000 
#    y 0.000000 1.754720 0.000000 
#    z 0.000000 0.000000 1.745620 
# 
# From -- ./inp_files/32133.got.cif
#   From: 2010.03.12/outbox.cif.g09.slc.cpg/sg59_17_cif.got.tgz:32133.got - 2010.04.16 16:29:54.
