data_PCOD8243911
_publ_section_title
;
Structure prediction by ZEFSAII (Michael W. Deem and Ramdas Pophale) SiO2 
 PCOD8243911
Probable space group: P M M N
;
_chemical_formula_sum "Si O2"
_cell_formula_units_Z 48
_cell_length_a 27.899691
_cell_length_b 9.598020
_cell_length_c 10.002870
_cell_angle_alpha 90.000000
_cell_angle_beta 90.000000
_cell_angle_gamma 90.000000
_cell_volume 2678.586456
_symmetry_space_group_name_H-M "P M M N"
_symmetry_group_IT_number 59
_space_group.IT_coordinate_system_code '2'
_symmetry_cell_setting 'orthorhombic'
loop_
_space_group_symop_operation_xyz
x,y,z
1/2-x,1/2-y,z
1/2+x,-y,-z
-x,1/2+y,-z
-x,-y,-z
1/2+x,1/2+y,-z
1/2-x,y,z
x,1/2-y,z
loop_
_atom_site_type_symbol
_atom_site_label
_atom_site_fract_x
_atom_site_fract_y
_atom_site_fract_z
Si Si1 0.108582 0.412865 0.757686
Si Si2 0.005872 0.410961 0.867026
Si Si3 0.250000 0.089598 0.387742
Si Si4 0.354827 0.412135 0.469667
Si Si5 0.594242 0.089932 0.756186
Si Si6 0.750000 0.410119 0.876502
Si Si7 0.652049 0.089658 0.016701
O O1 0.118147 0.250000 0.777897
O O2 0.121783 0.460275 0.608431
O O3 0.143501 0.494452 0.855811
O O4 0.053685 0.453409 0.787616
O O5 0.006728 0.250000 0.911795
O O6 0.962621 0.438214 0.762971
O O7 0.000000 0.500000 0.000000
O O8 0.250000 0.250000 0.343648
O O9 0.202203 0.054853 0.472998
O O10 0.250000 0.000503 0.255085
O O11 0.364187 0.250000 0.442826
O O12 0.381161 0.494573 0.353115
O O13 0.606270 0.250000 0.720944
O O14 0.614249 0.051264 0.901908
O O15 0.750000 0.250000 0.830080
O O16 0.795398 0.446562 0.965600
O O17 0.647020 0.250000 0.059816
#
# Coordination Sequence:
#
# PCOD8243911 Si02
#       7
#     8   8   4   8   8   4   8
#     4  10  22  38  56  81 115 148 181 225 275 328
#     4  10  20  35  56  82 111 144 183 226 275 326
#     4  10  20  35  56  78 106 144 184 221 268 326
#     4  10  22  38  55  80 112 146 183 225 273 328
#     4  10  20  35  57  83 109 142 184 227 270 323
#     4  10  20  35  56  82 110 138 180 233 276 320
#     4  10  20  35  56  82 110 140 180 228 273 322
#
# _framework density 17.919899000000001
#
# number of rings (size 3 to 8) (size 9 to 14) (size 15 to 20)
#    0.000    2.000    3.333    0.000    0.000    4.000 
#    0.000    0.833    0.000    0.000    0.000    0.000 
#    0.000    0.000    0.000    0.000    0.000    0.000 
#
# Total GULP energy -595320.173743 kJ/mol
# GULP energy per Si atom -12402.503620 kJ/mol
# Density = 1.787911 g / cm^3
# Si number density = 17.919899 Si / 1000 Ang^3
#
#
#
# Elastic Constant Matrix: (Units=GPa)
#
#
# Indices 1 2 3 4 5 6 
#
# 1 120.0795 37.1483 40.3051 0.0000 0.0000 0.0000
# 2 37.1483 53.1671 45.5101 0.0000 0.0000 0.0000
# 3 40.3051 45.5101 84.2003 0.0000 0.0000 0.0000
# 4 0.0000 0.0000 0.0000 30.7792 0.0000 0.0000
# 5 0.0000 0.0000 0.0000 0.0000 39.4220 0.0000
# 6 0.0000 0.0000 0.0000 0.0000 0.0000 201.7956
#
#
#
# Elastic Compliance Matrix: (Units=1/GPa)
#
#
# Indices 1 2 3 4 5 6 
#
# 1 0.010808 -0.005812 -0.002032 0.000000 0.000000 0.000000
# 2 -0.005812 0.038129 -0.017826 0.000000 0.000000 0.000000
# 3 -0.002032 -0.017826 0.022484 0.000000 0.000000 0.000000
# 4 0.000000 0.000000 0.000000 0.032489 0.000000 0.000000
# 5 0.000000 0.000000 0.000000 0.000000 0.025367 0.000000
# 6 0.000000 0.000000 0.000000 0.000000 0.000000 0.004956
#
#
# Mechanical properties :
#
#
# Convention : Reuss Voigt Hill
#
# Bulk Modulus (GPa) = 49.80146 55.93045 52.86596
# Shear Modulus (GPa) = 26.00551 63.36491 44.68521
#
# Velocity S-wave (km/s) = 3.81361 5.95289 4.99902
# Velocity P-wave (km/s) = 6.87335 8.86162 7.93004
#
# Compressibility (1/GPa) = 0.02007973
#
# Stress axis : x y z
#
# Youngs Moduli (GPa) = 92.52420 26.22695 44.47551
#
# Poissons Ratio (x) = 0.15244 0.09038
# Poissons Ratio (y) = 0.53777 0.79284
# Poissons Ratio (z) = 0.18802 0.46753
#
# Static dielectric constant tensor:
#      x y z
#    x 3.647600 0.000000 0.000000 
#    y 0.000000 3.283140 0.000000 
#    z 0.000000 0.000000 3.153120 
# 
# 
# High freq. dielectric constant tensor:
#      x y z
#    x 1.713460 0.000000 0.000000 
#    y 0.000000 1.691860 0.000000 
#    z 0.000000 0.000000 1.681800 
# 
# From -- ./inp_files/12985.got.cif
#   From: 2010.03.12/outbox.cif.g09.slc.cpg/sg59_7_cif.got.tgz:12985.got - 2010.04.16 16:29:54.
