data_PCOD8243008
_publ_section_title
;
Structure prediction by ZEFSAII (Michael W. Deem and Ramdas Pophale) SiO2 
 PCOD8243008
Probable space group: P M M N
;
_chemical_formula_sum "Si O2"
_cell_formula_units_Z 64
_cell_length_a 14.030517
_cell_length_b 8.839850
_cell_length_c 26.830164
_cell_angle_alpha 90.000000
_cell_angle_beta 90.000000
_cell_angle_gamma 90.000000
_cell_volume 3327.682611
_symmetry_space_group_name_H-M "P M M N"
_symmetry_group_IT_number 59
_space_group.IT_coordinate_system_code '2'
_symmetry_cell_setting 'orthorhombic'
loop_
_space_group_symop_operation_xyz
x,y,z
1/2-x,1/2-y,z
1/2+x,-y,-z
-x,1/2+y,-z
-x,-y,-z
1/2+x,1/2+y,-z
1/2-x,y,z
x,1/2-y,z
loop_
_atom_site_type_symbol
_atom_site_label
_atom_site_fract_x
_atom_site_fract_y
_atom_site_fract_z
Si Si1 0.857827 0.071254 0.665022
Si Si2 0.441769 0.924557 0.232298
Si Si3 0.356119 0.580363 0.889294
Si Si4 0.014481 0.926515 0.053309
Si Si5 0.140961 0.071588 0.134655
Si Si6 0.642237 0.073543 0.483009
Si Si7 0.852327 0.579493 0.212252
Si Si8 0.956646 0.927256 0.574164
O O1 0.750000 0.021170 0.652165
O O2 0.869848 0.250000 0.662188
O O3 0.882343 0.013576 0.720684
O O4 0.932630 0.999547 0.627068
O O5 0.416492 0.750000 0.221933
O O6 0.554209 0.946050 0.246309
O O7 0.417753 0.016375 0.182590
O O8 0.250000 0.573740 0.911695
O O9 0.398629 0.750000 0.896078
O O10 0.417621 0.455214 0.916970
O O11 0.355157 0.542580 0.831275
O O12 0.034031 0.750000 0.047116
O O13 0.102033 0.998873 0.083728
O O14 0.000000 0.000000 0.000000
O O15 0.250000 0.021432 0.141131
O O16 0.129886 0.250000 0.130388
O O17 0.750000 0.032318 0.465546
O O18 0.633603 0.250000 0.495663
O O19 0.565652 0.028227 0.440414
O O20 0.618282 0.985222 0.533380
O O21 0.750000 0.558975 0.241205
O O22 0.857080 0.750000 0.189973
O O23 0.944337 0.750000 0.578735
#
# Coordination Sequence:
#
# PCOD8243008 Si02
#       8
#     8   8   8   8   8   8   8   8
#     4  10  21  36  53  76 111 153 193 232 280 336
#     4  10  20  36  59  84 111 149 191 231 273 327
#     4  10  20  35  57  84 112 141 175 217 266 322
#     4  12  25  41  61  84 113 148 184 226 275 330
#     4  11  24  41  61  86 116 148 184 230 282 335
#     4   9  18  34  55  77 106 146 186 226 282 346
#     4   9  17  31  54  83 110 138 175 219 268 319
#     4  10  20  33  52  80 110 141 185 238 284 330
#
# _framework density 19.232603000000001
#
# number of rings (size 3 to 8) (size 9 to 14) (size 15 to 20)
#    0.000    1.875    1.250    3.000    0.000    5.750 
#    0.000    0.625    0.000    0.750    0.000    0.000 
#    0.000    0.000    0.000    0.000    0.000    0.000 
#
# Total GULP energy -793406.734380 kJ/mol
# GULP energy per Si atom -12396.980225 kJ/mol
# Density = 1.918883 g / cm^3
# Si number density = 19.232603 Si / 1000 Ang^3
#
#
#
# Elastic Constant Matrix: (Units=GPa)
#
#
# Indices 1 2 3 4 5 6 
#
# 1 137.8982 36.5552 42.9789 0.0000 0.0000 0.0000
# 2 36.5552 73.0593 36.0780 0.0000 0.0000 0.0000
# 3 42.9789 36.0780 94.3655 0.0000 0.0000 0.0000
# 4 0.0000 0.0000 0.0000 29.7954 0.0000 0.0000
# 5 0.0000 0.0000 0.0000 0.0000 26.0618 0.0000
# 6 0.0000 0.0000 0.0000 0.0000 0.0000 27.0818
#
#
#
# Elastic Compliance Matrix: (Units=1/GPa)
#
#
# Indices 1 2 3 4 5 6 
#
# 1 0.008969 -0.003045 -0.002921 0.000000 0.000000 0.000000
# 2 -0.003045 0.017907 -0.005459 0.000000 0.000000 0.000000
# 3 -0.002921 -0.005459 0.014015 0.000000 0.000000 0.000000
# 4 0.000000 0.000000 0.000000 0.033562 0.000000 0.000000
# 5 0.000000 0.000000 0.000000 0.000000 0.038370 0.000000
# 6 0.000000 0.000000 0.000000 0.000000 0.000000 0.036925
#
#
# Mechanical properties :
#
#
# Convention : Reuss Voigt Hill
#
# Bulk Modulus (GPa) = 55.43199 59.61636 57.52418
# Shear Modulus (GPa) = 27.99345 29.23519 28.61432
#
# Velocity S-wave (km/s) = 3.81927 3.90306 3.86139
# Velocity P-wave (km/s) = 6.95223 7.16775 7.06081
#
# Compressibility (1/GPa) = 0.01804013
#
# Stress axis : x y z
#
# Youngs Moduli (GPa) = 111.49060 55.84348 71.35444
#
# Poissons Ratio (x) = 0.17007 0.20841
# Poissons Ratio (y) = 0.33954 0.38954
# Poissons Ratio (z) = 0.32564 0.30486
#
# Static dielectric constant tensor:
#      x y z
#    x 4.051810 0.000000 0.000000 
#    y 0.000000 3.537270 0.000000 
#    z 0.000000 0.000000 3.441880 
# 
# 
# High freq. dielectric constant tensor:
#      x y z
#    x 1.766990 0.000000 0.000000 
#    y 0.000000 1.749490 0.000000 
#    z 0.000000 0.000000 1.720660 
# 
# From -- ./inp_files/32100.got.cif
#   From: 2010.03.12/outbox.cif.g09.slc.cpg/sg59_17_cif.got.tgz:32100.got - 2010.04.16 16:29:54.
