data_PCOD8243281
_publ_section_title
;
Structure prediction by ZEFSAII (Michael W. Deem and Ramdas Pophale) SiO2 
 PCOD8243281
Probable space group: P M M N
;
_chemical_formula_sum "Si O2"
_cell_formula_units_Z 48
_cell_length_a 9.093923
_cell_length_b 8.761644
_cell_length_c 30.798325
_cell_angle_alpha 90.000000
_cell_angle_beta 90.000000
_cell_angle_gamma 90.000000
_cell_volume 2453.940189
_symmetry_space_group_name_H-M "P M M N"
_symmetry_group_IT_number 59
_space_group.IT_coordinate_system_code '2'
_symmetry_cell_setting 'orthorhombic'
loop_
_space_group_symop_operation_xyz
x,y,z
1/2-x,1/2-y,z
1/2+x,-y,-z
-x,1/2+y,-z
-x,-y,-z
1/2+x,1/2+y,-z
1/2-x,y,z
x,1/2-y,z
loop_
_atom_site_type_symbol
_atom_site_label
_atom_site_fract_x
_atom_site_fract_y
_atom_site_fract_z
Si Si1 0.417062 0.929879 0.959525
Si Si2 0.420639 0.927136 0.800678
Si Si3 0.420975 0.572321 0.120608
Si Si4 0.417831 0.431030 0.540712
Si Si5 0.915726 0.068377 0.625497
Si Si6 0.420373 0.074432 0.710553
O O1 0.250000 0.990281 0.959156
O O2 0.421370 0.750000 0.964288
O O3 0.493697 0.975705 0.915028
O O4 0.500000 0.000000 0.000000
O O5 0.250000 0.963480 0.809908
O O6 0.455820 0.750000 0.807960
O O7 0.519308 0.028068 0.832306
O O8 0.463033 0.972912 0.751873
O O9 0.250000 0.531032 0.117885
O O10 0.448510 0.750000 0.112002
O O11 0.500000 0.500000 0.500000
O O12 0.250000 0.487045 0.540515
O O13 0.428861 0.250000 0.538447
O O14 0.493757 0.494522 0.584418
O O15 0.750000 0.005674 0.622546
O O16 0.919494 0.250000 0.625342
O O17 0.988448 0.008871 0.669951
O O18 0.250000 0.058131 0.698497
O O19 0.460436 0.250000 0.720782
#
# Coordination Sequence:
#
# PCOD8243281 Si02
#       6
#     8   8   8   8   8   8
#     4  11  24  41  62  89 119 151 189 231 276 328
#     4  10  21  37  57  82 112 146 184 225 272 327
#     4  11  24  40  59  85 115 148 189 233 276 326
#     4  10  20  34  53  77 105 138 177 220 267 321
#     4   9  17  30  50  75 102 134 175 222 269 318
#     4   9  17  31  52  76 102 135 176 221 269 321
#
# _framework density 19.560379000000001
#
# number of rings (size 3 to 8) (size 9 to 14) (size 15 to 20)
#    0.000    2.000    0.000    3.500    0.000   11.333 
#    0.000    2.500    0.000    3.000    0.000    0.000 
#    0.000    0.000    0.000    0.000    0.000    0.000 
#
# Total GULP energy -595401.384024 kJ/mol
# GULP energy per Si atom -12404.195500 kJ/mol
# Density = 1.951586 g / cm^3
# Si number density = 19.560379 Si / 1000 Ang^3
#
#
#
# Elastic Constant Matrix: (Units=GPa)
#
#
# Indices 1 2 3 4 5 6 
#
# 1 148.9970 37.0317 82.0129 0.0000 0.0000 0.0000
# 2 37.0317 37.7815 24.3904 0.0000 0.0000 0.0000
# 3 82.0129 24.3904 140.1680 0.0000 0.0000 0.0000
# 4 0.0000 0.0000 0.0000 35.0834 0.0000 0.0000
# 5 0.0000 0.0000 0.0000 0.0000 44.9177 0.0000
# 6 0.0000 0.0000 0.0000 0.0000 0.0000 24.9375
#
#
#
# Elastic Compliance Matrix: (Units=1/GPa)
#
#
# Indices 1 2 3 4 5 6 
#
# 1 0.011687 -0.007932 -0.005458 0.000000 0.000000 0.000000
# 2 -0.007932 0.035200 -0.001484 0.000000 0.000000 0.000000
# 3 -0.005458 -0.001484 0.010586 0.000000 0.000000 0.000000
# 4 0.000000 0.000000 0.000000 0.028504 0.000000 0.000000
# 5 0.000000 0.000000 0.000000 0.000000 0.022263 0.000000
# 6 0.000000 0.000000 0.000000 0.000000 0.000000 0.040100
#
#
# Mechanical properties :
#
#
# Convention : Reuss Voigt Hill
#
# Bulk Modulus (GPa) = 36.06769 68.20185 52.13477
# Shear Modulus (GPa) = 26.69082 33.22184 29.95633
#
# Velocity S-wave (km/s) = 3.69797 4.12567 3.91766
# Velocity P-wave (km/s) = 6.05908 7.59196 6.86842
#
# Compressibility (1/GPa) = 0.02772565
#
# Stress axis : x y z
#
# Youngs Moduli (GPa) = 85.56383 28.40871 94.46356
#
# Poissons Ratio (x) = 0.22533 0.51559
# Poissons Ratio (y) = 0.67867 0.14021
# Poissons Ratio (z) = 0.46701 0.04217
#
# Static dielectric constant tensor:
#      x y z
#    x 3.770640 0.000000 0.000000 
#    y 0.000000 3.357260 0.000000 
#    z 0.000000 0.000000 3.766500 
# 
# 
# High freq. dielectric constant tensor:
#      x y z
#    x 1.771120 0.000000 0.000000 
#    y 0.000000 1.742440 0.000000 
#    z 0.000000 0.000000 1.778910 
# 
# From -- ./inp_files/32781.got.cif
#   From: 2010.03.12/outbox.cif.g09.slc.cpg/sg59_17_cif.got.tgz:32781.got - 2010.04.16 16:29:54.
