data_PCOD8243688
_publ_section_title
;
Structure prediction by ZEFSAII (Michael W. Deem and Ramdas Pophale) SiO2 
 PCOD8243688
Probable space group: P M M N
;
_chemical_formula_sum "Si O2"
_cell_formula_units_Z 64
_cell_length_a 9.016023
_cell_length_b 18.478686
_cell_length_c 19.939301
_cell_angle_alpha 90.000000
_cell_angle_beta 90.000000
_cell_angle_gamma 90.000000
_cell_volume 3321.972448
_symmetry_space_group_name_H-M "P M M N"
_symmetry_group_IT_number 59
_space_group.IT_coordinate_system_code '2'
_symmetry_cell_setting 'orthorhombic'
loop_
_space_group_symop_operation_xyz
x,y,z
1/2-x,1/2-y,z
1/2+x,-y,-z
-x,1/2+y,-z
-x,-y,-z
1/2+x,1/2+y,-z
1/2-x,y,z
x,1/2-y,z
loop_
_atom_site_type_symbol
_atom_site_label
_atom_site_fract_x
_atom_site_fract_y
_atom_site_fract_z
Si Si1 0.425206 0.927417 0.308773
Si Si2 0.076254 0.419402 0.926591
Si Si3 0.074935 0.918560 0.684198
Si Si4 0.578224 0.565675 0.921629
Si Si5 0.922613 0.332537 0.817202
Si Si6 0.920721 0.667223 0.416222
Si Si7 0.420688 0.166078 0.200404
Si Si8 0.920669 0.667114 0.571973
O O1 0.250000 0.938245 0.310729
O O2 0.476925 0.880883 0.244898
O O3 0.474192 0.886400 0.375806
O O4 0.501390 0.004511 0.302872
O O5 0.250000 0.419556 0.915563
O O6 0.013257 0.495335 0.899651
O O7 0.008036 0.353882 0.884630
O O8 0.032055 0.407718 0.004287
O O9 0.250000 0.927850 0.684410
O O10 0.026188 0.863848 0.742091
O O11 0.025170 0.886732 0.612834
O O12 0.750000 0.543667 0.919776
O O13 0.540485 0.629386 0.870346
O O14 0.750000 0.343967 0.830794
O O15 0.960592 0.250000 0.799438
O O16 0.750000 0.652493 0.397263
O O17 0.963114 0.750000 0.399519
O O18 0.947892 0.651234 0.494140
O O19 0.250000 0.151588 0.220721
O O20 0.453886 0.250000 0.191106
O O21 0.750000 0.652419 0.591288
O O22 0.961522 0.750000 0.589251
#
# Coordination Sequence:
#
# PCOD8243688 Si02
#       8
#     8   8   8   8   8   8   8   8
#     4  11  23  39  59  81 109 148 191 230 270 325
#     4  10  20  34  56  85 113 143 182 227 272 320
#     4  12  25  38  55  82 114 145 182 231 281 326
#     4   9  19  36  57  81 111 147 184 222 269 327
#     4  10  22  39  57  79 109 145 184 225 272 328
#     4   9  19  37  61  88 116 144 178 225 277 325
#     4  10  21  38  59  80 106 144 186 227 274 330
#     4   9  19  38  62  85 112 148 185 220 267 330
#
# _framework density 19.265661999999999
#
# number of rings (size 3 to 8) (size 9 to 14) (size 15 to 20)
#    0.000    2.000    0.000    4.125    0.000    9.500 
#    0.000    2.500    0.000    0.000    0.000    0.000 
#    0.000    0.000    0.000    0.000    0.000    0.000 
#
# Total GULP energy -793912.444518 kJ/mol
# GULP energy per Si atom -12404.881946 kJ/mol
# Density = 1.922181 g / cm^3
# Si number density = 19.265662 Si / 1000 Ang^3
#
#
#
# Elastic Constant Matrix: (Units=GPa)
#
#
# Indices 1 2 3 4 5 6 
#
# 1 74.8225 39.9967 38.0970 0.0000 0.0000 0.0000
# 2 39.9967 94.4063 44.6801 0.0000 0.0000 0.0000
# 3 38.0970 44.6801 89.1511 0.0000 0.0000 0.0000
# 4 0.0000 0.0000 0.0000 40.8448 0.0000 0.0000
# 5 0.0000 0.0000 0.0000 0.0000 32.0414 0.0000
# 6 0.0000 0.0000 0.0000 0.0000 0.0000 30.6610
#
#
#
# Elastic Compliance Matrix: (Units=1/GPa)
#
#
# Indices 1 2 3 4 5 6 
#
# 1 0.019057 -0.005532 -0.005371 0.000000 0.000000 0.000000
# 2 -0.005532 0.015492 -0.005400 0.000000 0.000000 0.000000
# 3 -0.005371 -0.005400 0.016219 0.000000 0.000000 0.000000
# 4 0.000000 0.000000 0.000000 0.024483 0.000000 0.000000
# 5 0.000000 0.000000 0.000000 0.000000 0.031210 0.000000
# 6 0.000000 0.000000 0.000000 0.000000 0.000000 0.032615
#
#
# Mechanical properties :
#
#
# Convention : Reuss Voigt Hill
#
# Bulk Modulus (GPa) = 55.06292 55.99195 55.52743
# Shear Modulus (GPa) = 28.13181 29.74983 28.94082
#
# Velocity S-wave (km/s) = 3.82541 3.93388 3.88002
# Velocity P-wave (km/s) = 6.93935 7.05408 6.99695
#
# Compressibility (1/GPa) = 0.01816104
#
# Stress axis : x y z
#
# Youngs Moduli (GPa) = 52.47473 64.54984 61.65726
#
# Poissons Ratio (x) = 0.35707 0.33118
# Poissons Ratio (y) = 0.29027 0.33297
# Poissons Ratio (z) = 0.28185 0.34859
#
# Static dielectric constant tensor:
#      x y z
#    x 3.464120 0.000000 0.000000 
#    y 0.000000 3.536520 0.000000 
#    z 0.000000 0.000000 3.619270 
# 
# 
# High freq. dielectric constant tensor:
#      x y z
#    x 1.744700 0.000000 0.000000 
#    y 0.000000 1.753520 0.000000 
#    z 0.000000 0.000000 1.760140 
# 
# From -- ./inp_files/29552.got.cif
#   From: 2010.03.12/outbox.cif.g09.slc.cpg/sg59_15_cif.got.tgz:29552.got - 2010.04.16 16:29:54.
