data_PCOD8243090
_publ_section_title
;
Structure prediction by ZEFSAII (Michael W. Deem and Ramdas Pophale) SiO2 
 PCOD8243090
Probable space group: P M M N
;
_chemical_formula_sum "Si O2"
_cell_formula_units_Z 48
_cell_length_a 8.745011
_cell_length_b 14.106860
_cell_length_c 20.203746
_cell_angle_alpha 90.000000
_cell_angle_beta 90.000000
_cell_angle_gamma 90.000000
_cell_volume 2492.427971
_symmetry_space_group_name_H-M "P M M N"
_symmetry_group_IT_number 59
_space_group.IT_coordinate_system_code '2'
_symmetry_cell_setting 'orthorhombic'
loop_
_space_group_symop_operation_xyz
x,y,z
1/2-x,1/2-y,z
1/2+x,-y,-z
-x,1/2+y,-z
-x,-y,-z
1/2+x,1/2+y,-z
1/2-x,y,z
x,1/2-y,z
loop_
_atom_site_type_symbol
_atom_site_label
_atom_site_fract_x
_atom_site_fract_y
_atom_site_fract_z
Si Si1 0.571418 0.544053 0.820846
Si Si2 0.570712 0.750000 0.358849
Si Si3 0.928819 0.054580 0.440281
Si Si4 0.571348 0.250000 0.495894
Si Si5 0.069119 0.750000 0.013853
Si Si6 0.569782 0.560277 0.058205
Si Si7 0.926719 0.750000 0.869544
Si Si8 0.931151 0.954373 0.307871
O O1 0.750000 0.525775 0.834490
O O2 0.468954 0.488044 0.872834
O O3 0.533875 0.656629 0.826173
O O4 0.525789 0.502283 0.750431
O O5 0.750000 0.750000 0.369263
O O6 0.505057 0.750000 0.432486
O O7 0.521333 0.656076 0.317944
O O8 0.750000 0.039443 0.443817
O O9 0.978425 0.163009 0.449605
O O10 0.988312 0.013257 0.371315
O O11 0.000000 0.000000 0.500000
O O12 0.750000 0.250000 0.510853
O O13 0.250000 0.750000 0.016656
O O14 0.004067 0.837131 0.055046
O O15 0.021671 0.750000 0.937159
O O16 0.750000 0.567801 0.048982
O O17 0.500000 0.500000 0.000000
O O18 0.750000 0.750000 0.890702
O O19 0.750000 0.964148 0.294864
#
# Coordination Sequence:
#
# PCOD8243090 Si02
#       8
#     8   4   8   4   4   8   4   8
#     4  11  24  42  64  91 125 164 209 258 313 375
#     4  10  20  37  60  85 116 159 202 245 305 370
#     4  10  20  35  57  85 117 153 198 249 301 362
#     4  10  20  33  56  90 120 151 197 253 304 355
#     4  12  24  39  66  99 128 167 213 256 312 373
#     4  12  24  41  65  95 129 165 209 260 310 367
#     4  10  22  41  64  88 122 163 206 260 317 368
#     4  10  22  39  59  86 122 161 203 251 309 372
#
# _framework density 19.258330999999998
#
# number of rings (size 3 to 8) (size 9 to 14) (size 15 to 20)
#    0.000    1.333    3.333    2.750    0.000    3.333 
#    0.000    3.333    0.000    0.000    0.000    0.000 
#    0.000    0.000    0.000    0.000    0.000    0.000 
#
# Total GULP energy -595215.353281 kJ/mol
# GULP energy per Si atom -12400.319860 kJ/mol
# Density = 1.921450 g / cm^3
# Si number density = 19.258331 Si / 1000 Ang^3
#
#
#
# Elastic Constant Matrix: (Units=GPa)
#
#
# Indices 1 2 3 4 5 6 
#
# 1 86.9598 56.5706 38.4012 0.0000 0.0000 0.0000
# 2 56.5706 186.1228 74.5504 0.0000 0.0000 0.0000
# 3 38.4012 74.5504 124.6846 0.0000 0.0000 0.0000
# 4 0.0000 0.0000 0.0000 33.0737 0.0000 0.0000
# 5 0.0000 0.0000 0.0000 0.0000 36.2639 0.0000
# 6 0.0000 0.0000 0.0000 0.0000 0.0000 26.1367
#
#
#
# Elastic Compliance Matrix: (Units=1/GPa)
#
#
# Indices 1 2 3 4 5 6 
#
# 1 0.014892 -0.003536 -0.002472 0.000000 0.000000 0.000000
# 2 -0.003536 0.007904 -0.003637 0.000000 0.000000 0.000000
# 3 -0.002472 -0.003637 0.010956 0.000000 0.000000 0.000000
# 4 0.000000 0.000000 0.000000 0.030236 0.000000 0.000000
# 5 0.000000 0.000000 0.000000 0.000000 0.027576 0.000000
# 6 0.000000 0.000000 0.000000 0.000000 0.000000 0.038260
#
#
# Mechanical properties :
#
#
# Convention : Reuss Voigt Hill
#
# Bulk Modulus (GPa) = 69.14811 81.86798 75.50805
# Shear Modulus (GPa) = 32.48132 34.31121 33.39626
#
# Velocity S-wave (km/s) = 4.11129 4.22551 4.16879
# Velocity P-wave (km/s) = 7.64987 8.14919 7.90347
#
# Compressibility (1/GPa) = 0.01446171
#
# Stress axis : x y z
#
# Youngs Moduli (GPa) = 67.15221 126.51303 91.27177
#
# Poissons Ratio (x) = 0.44734 0.22564
# Poissons Ratio (y) = 0.23745 0.33196
# Poissons Ratio (z) = 0.16601 0.46014
#
# Static dielectric constant tensor:
#      x y z
#    x 3.537990 0.000000 0.000000 
#    y 0.000000 3.981670 0.000000 
#    z 0.000000 0.000000 3.121680 
# 
# 
# High freq. dielectric constant tensor:
#      x y z
#    x 1.749740 0.000000 0.000000 
#    y 0.000000 1.771650 0.000000 
#    z 0.000000 0.000000 1.746780 
# 
# From -- ./inp_files/25709.got.cif
#   From: 2010.03.12/outbox.cif.g09.slc.cpg/sg59_13_cif.got.tgz:25709.got - 2010.04.16 16:29:54.
