data_PCOD8243549
_publ_section_title
;
Structure prediction by ZEFSAII (Michael W. Deem and Ramdas Pophale) SiO2 
 PCOD8243549
Probable space group: P M M N
;
_chemical_formula_sum "Si O2"
_cell_formula_units_Z 56
_cell_length_a 14.687291
_cell_length_b 13.713509
_cell_length_c 15.271616
_cell_angle_alpha 90.000000
_cell_angle_beta 90.000000
_cell_angle_gamma 90.000000
_cell_volume 3075.921805
_symmetry_space_group_name_H-M "P M M N"
_symmetry_group_IT_number 59
_space_group.IT_coordinate_system_code '2'
_symmetry_cell_setting 'orthorhombic'
loop_
_space_group_symop_operation_xyz
x,y,z
1/2-x,1/2-y,z
1/2+x,-y,-z
-x,1/2+y,-z
-x,-y,-z
1/2+x,1/2+y,-z
1/2-x,y,z
x,1/2-y,z
loop_
_atom_site_type_symbol
_atom_site_label
_atom_site_fract_x
_atom_site_fract_y
_atom_site_fract_z
Si Si1 0.641811 0.358838 0.492221
Si Si2 0.054158 0.640951 0.174902
Si Si3 0.645050 0.043162 0.664674
Si Si4 0.852405 0.134633 0.299811
Si Si5 0.351115 0.639173 0.997774
Si Si6 0.645628 0.862332 0.776598
Si Si7 0.972980 0.447263 0.145630
O O1 0.750000 0.354136 0.487685
O O2 0.604137 0.250000 0.512802
O O3 0.607426 0.434421 0.566883
O O4 0.609132 0.394844 0.396090
O O5 0.012835 0.750000 0.177280
O O6 0.095733 0.615180 0.268417
O O7 0.975061 0.564522 0.150804
O O8 0.132389 0.632428 0.101351
O O9 0.750000 0.072182 0.668086
O O10 0.630337 0.929381 0.690055
O O11 0.750000 0.094811 0.284983
O O12 0.853066 0.250000 0.290009
O O13 0.917527 0.089471 0.228324
O O14 0.250000 0.598582 0.978109
O O15 0.358590 0.750000 0.964516
O O16 0.426271 0.577979 0.945862
O O17 0.750000 0.873901 0.810958
O O18 0.625136 0.750000 0.751776
O O19 0.575311 0.900569 0.850906
#
# Coordination Sequence:
#
# PCOD8243549 Si02
#       7
#     8   8   8   8   8   8   8
#     4   8  14  25  44  72 101 125 154 198 251 300
#     4  10  21  34  47  69 101 132 164 202 241 285
#     4   9  16  28  49  71  93 128 167 203 249 296
#     4   9  17  30  51  79 104 124 156 207 258 296
#     4  10  20  34  55  81 102 121 154 203 253 296
#     4   9  18  31  46  68  99 133 168 203 240 289
#     4  11  20  33  53  74  98 132 165 198 244 294
#
# _framework density 18.205925000000001
#
# number of rings (size 3 to 8) (size 9 to 14) (size 15 to 20)
#    0.000    2.571    0.000    3.857    0.000    3.143 
#    0.000    2.857    0.000    4.286    0.000    4.000 
#    0.000    0.000    0.000    0.000    0.000    1.571 
#
# Total GULP energy -694078.883081 kJ/mol
# GULP energy per Si atom -12394.265769 kJ/mol
# Density = 1.816449 g / cm^3
# Si number density = 18.205925 Si / 1000 Ang^3
#
#
#
# Elastic Constant Matrix: (Units=GPa)
#
#
# Indices 1 2 3 4 5 6 
#
# 1 64.9146 23.9501 21.9711 0.0000 0.0000 0.0000
# 2 23.9501 88.2828 25.8965 0.0000 0.0000 0.0000
# 3 21.9711 25.8965 78.1115 0.0000 0.0000 0.0000
# 4 0.0000 0.0000 0.0000 25.4148 0.0000 0.0000
# 5 0.0000 0.0000 0.0000 0.0000 14.7836 0.0000
# 6 0.0000 0.0000 0.0000 0.0000 0.0000 19.2738
#
#
#
# Elastic Compliance Matrix: (Units=1/GPa)
#
#
# Indices 1 2 3 4 5 6 
#
# 1 0.018100 -0.003785 -0.003836 0.000000 0.000000 0.000000
# 2 -0.003785 0.013339 -0.003358 0.000000 0.000000 0.000000
# 3 -0.003836 -0.003358 0.014994 0.000000 0.000000 0.000000
# 4 0.000000 0.000000 0.000000 0.039347 0.000000 0.000000
# 5 0.000000 0.000000 0.000000 0.000000 0.067642 0.000000
# 6 0.000000 0.000000 0.000000 0.000000 0.000000 0.051884
#
#
# Mechanical properties :
#
#
# Convention : Reuss Voigt Hill
#
# Bulk Modulus (GPa) = 40.85730 41.66047 41.25888
# Shear Modulus (GPa) = 21.23837 22.52718 21.88278
#
# Velocity S-wave (km/s) = 3.41920 3.52142 3.47069
# Velocity P-wave (km/s) = 6.17077 6.28223 6.22675
#
# Compressibility (1/GPa) = 0.02447543
#
# Stress axis : x y z
#
# Youngs Moduli (GPa) = 55.24946 74.96832 66.69134
#
# Poissons Ratio (x) = 0.28375 0.25584
# Poissons Ratio (y) = 0.20912 0.22393
# Poissons Ratio (z) = 0.21195 0.25172
#
# Static dielectric constant tensor:
#      x y z
#    x 3.328190 0.000000 0.000000 
#    y 0.000000 3.446830 0.000000 
#    z 0.000000 0.000000 3.549950 
# 
# 
# High freq. dielectric constant tensor:
#      x y z
#    x 1.683210 0.000000 0.000000 
#    y 0.000000 1.696500 0.000000 
#    z 0.000000 0.000000 1.705770 
# 
# From -- ./inp_files/23345.got.cif
#   From: 2010.03.12/outbox.cif.g09.slc.cpg/sg59_12_cif.got.tgz:23345.got - 2010.04.16 16:29:54.
