data_PCOD8243670
_publ_section_title
;
Structure prediction by ZEFSAII (Michael W. Deem and Ramdas Pophale) SiO2 
 PCOD8243670
Probable space group: P M M N
;
_chemical_formula_sum "Si O2"
_cell_formula_units_Z 48
_cell_length_a 8.840477
_cell_length_b 20.694036
_cell_length_c 13.976078
_cell_angle_alpha 90.000000
_cell_angle_beta 90.000000
_cell_angle_gamma 90.000000
_cell_volume 2556.855676
_symmetry_space_group_name_H-M "P M M N"
_symmetry_group_IT_number 59
_space_group.IT_coordinate_system_code '2'
_symmetry_cell_setting 'orthorhombic'
loop_
_space_group_symop_operation_xyz
x,y,z
1/2-x,1/2-y,z
1/2+x,-y,-z
-x,1/2+y,-z
-x,-y,-z
1/2+x,1/2+y,-z
1/2-x,y,z
x,1/2-y,z
loop_
_atom_site_type_symbol
_atom_site_label
_atom_site_fract_x
_atom_site_fract_y
_atom_site_fract_z
Si Si1 0.925967 0.124864 0.780523
Si Si2 0.074719 0.071570 0.391712
Si Si3 0.074448 0.434739 0.608637
Si Si4 0.429116 0.621933 0.785451
Si Si5 0.070051 0.750000 0.891117
Si Si6 0.573656 0.995871 0.897338
Si Si7 0.929764 0.250000 0.893340
O O1 0.750000 0.132449 0.755391
O O2 0.987928 0.186826 0.837725
O O3 0.018852 0.120208 0.681598
O O4 0.958208 0.062990 0.845126
O O5 0.250000 0.074755 0.364213
O O6 0.044865 0.091269 0.501496
O O7 0.983715 0.121502 0.324855
O O8 0.021036 0.998893 0.371432
O O9 0.250000 0.451175 0.624132
O O10 0.250000 0.617812 0.790090
O O11 0.489642 0.686872 0.835694
O O12 0.497686 0.560704 0.838088
O O13 0.250000 0.750000 0.893634
O O14 0.003950 0.750000 0.998909
O O15 0.750000 0.981662 0.907932
O O16 0.500000 0.000000 0.000000
O O17 0.750000 0.250000 0.899562
#
# Coordination Sequence:
#
# PCOD8243670 Si02
#       7
#     8   8   8   8   4   8   4
#     4  10  20  35  57  82 111 146 188 232 280 332
#     4  10  20  35  55  83 115 147 185 229 281 341
#     4  10  20  34  56  83 113 148 185 229 283 337
#     4  11  21  36  59  85 112 147 189 236 286 338
#     4   9  20  38  58  81 112 150 193 233 280 341
#     4  11  22  35  54  82 113 146 187 238 286 336
#     4   9  18  36  58  79 108 152 191 227 276 333
#
# _framework density 18.773056
#
# number of rings (size 3 to 8) (size 9 to 14) (size 15 to 20)
#    0.000    1.833    1.667    3.000    0.000    5.333 
#    0.000    2.917    0.000    7.000    0.000    0.000 
#    0.000    0.000    0.000    0.000    0.000    0.000 
#
# Total GULP energy -595351.564707 kJ/mol
# GULP energy per Si atom -12403.157598 kJ/mol
# Density = 1.873033 g / cm^3
# Si number density = 18.773056 Si / 1000 Ang^3
#
#
#
# Elastic Constant Matrix: (Units=GPa)
#
#
# Indices 1 2 3 4 5 6 
#
# 1 72.4608 47.6489 54.2005 0.0000 0.0000 0.0000
# 2 47.6489 122.9655 70.3349 0.0000 0.0000 0.0000
# 3 54.2005 70.3349 156.3523 0.0000 0.0000 0.0000
# 4 0.0000 0.0000 0.0000 33.1414 0.0000 0.0000
# 5 0.0000 0.0000 0.0000 0.0000 36.9560 0.0000
# 6 0.0000 0.0000 0.0000 0.0000 0.0000 22.8630
#
#
#
# Elastic Compliance Matrix: (Units=1/GPa)
#
#
# Indices 1 2 3 4 5 6 
#
# 1 0.020945 -0.005336 -0.004860 0.000000 0.000000 0.000000
# 2 -0.005336 0.012309 -0.003688 0.000000 0.000000 0.000000
# 3 -0.004860 -0.003688 0.009739 0.000000 0.000000 0.000000
# 4 0.000000 0.000000 0.000000 0.030174 0.000000 0.000000
# 5 0.000000 0.000000 0.000000 0.000000 0.027059 0.000000
# 6 0.000000 0.000000 0.000000 0.000000 0.000000 0.043739
#
#
# Mechanical properties :
#
#
# Convention : Reuss Voigt Hill
#
# Bulk Modulus (GPa) = 65.67737 77.34970 71.51353
# Shear Modulus (GPa) = 28.27915 30.56502 29.42209
#
# Velocity S-wave (km/s) = 3.88541 4.03939 3.96315
# Velocity P-wave (km/s) = 7.42896 7.94025 7.68885
#
# Compressibility (1/GPa) = 0.01522595
#
# Stress axis : x y z
#
# Youngs Moduli (GPa) = 47.74426 81.23921 102.67485
#
# Poissons Ratio (x) = 0.43350 0.49903
# Poissons Ratio (y) = 0.25477 0.37862
# Poissons Ratio (z) = 0.23205 0.29957
#
# Static dielectric constant tensor:
#      x y z
#    x 4.745150 0.000000 0.000000 
#    y 0.000000 3.418080 0.000000 
#    z 0.000000 0.000000 3.782180 
# 
# 
# High freq. dielectric constant tensor:
#      x y z
#    x 1.722060 0.000000 0.000000 
#    y 0.000000 1.712150 0.000000 
#    z 0.000000 0.000000 1.748750 
# 
# From -- ./inp_files/20485.got.cif
#   From: 2010.03.12/outbox.cif.g09.slc.cpg/sg59_11_cif.got.tgz:20485.got - 2010.04.16 16:29:54.
