data_PCOD8243931
_publ_section_title
;
Structure prediction by ZEFSAII (Michael W. Deem and Ramdas Pophale) SiO2 
 PCOD8243931
Probable space group: P M M N
;
_chemical_formula_sum "Si O2"
_cell_formula_units_Z 64
_cell_length_a 23.271745
_cell_length_b 9.062758
_cell_length_c 15.450769
_cell_angle_alpha 90.000000
_cell_angle_beta 90.000000
_cell_angle_gamma 90.000000
_cell_volume 3258.662871
_symmetry_space_group_name_H-M "P M M N"
_symmetry_group_IT_number 59
_space_group.IT_coordinate_system_code '2'
_symmetry_cell_setting 'orthorhombic'
loop_
_space_group_symop_operation_xyz
x,y,z
1/2-x,1/2-y,z
1/2+x,-y,-z
-x,1/2+y,-z
-x,-y,-z
1/2+x,1/2+y,-z
1/2-x,y,z
x,1/2-y,z
loop_
_atom_site_type_symbol
_atom_site_label
_atom_site_fract_x
_atom_site_fract_y
_atom_site_fract_z
Si Si1 0.816561 0.579761 0.053648
Si Si2 0.884734 0.921886 0.384092
Si Si3 0.131491 0.920522 0.446563
Si Si4 0.504559 0.922843 0.810801
Si Si5 0.985113 0.083971 0.640365
Si Si6 0.376887 0.574381 0.794967
Si Si7 0.817067 0.919185 0.715785
Si Si8 0.619409 0.924371 0.886090
O O1 0.750000 0.563376 0.030423
O O2 0.832893 0.750000 0.071565
O O3 0.830044 0.484213 0.138148
O O4 0.852584 0.511230 0.973394
O O5 0.869089 0.750000 0.376737
O O6 0.952468 0.949739 0.398936
O O7 0.851972 0.991849 0.466137
O O8 0.863235 0.004105 0.297974
O O9 0.147907 0.750000 0.458713
O O10 0.063256 0.941247 0.431733
O O11 0.167657 0.983925 0.367251
O O12 0.501645 0.750000 0.802764
O O13 0.440016 0.981553 0.828405
O O14 0.551403 0.968799 0.883827
O O15 0.528982 0.977889 0.719747
O O16 0.983224 0.250000 0.676798
O O17 0.373126 0.750000 0.787467
O O18 0.750000 0.931225 0.734856
O O19 0.835574 0.750000 0.698183
O O20 0.849201 0.985345 0.800178
O O21 0.628585 0.750000 0.887554
#
# Coordination Sequence:
#
# PCOD8243931 Si02
#       8
#     8   8   8   8   8   8   8   8
#     4  10  21  38  60  83 107 142 189 234 275 325
#     4  10  20  35  56  80 108 144 187 229 269 320
#     4  11  21  33  51  79 114 148 182 223 275 327
#     4   9  17  31  54  82 113 148 182 219 274 333
#     4   9  18  31  49  78 113 147 181 219 266 322
#     4  10  21  37  56  82 115 146 180 228 284 338
#     4  10  20  35  56  80 108 147 192 233 272 322
#     4   9  17  33  58  85 111 141 183 230 272 321
#
# _framework density 19.639956999999999
#
# number of rings (size 3 to 8) (size 9 to 14) (size 15 to 20)
#    0.000    2.250    1.250    1.875    0.000    4.000 
#    0.000    1.875    0.000    5.250    0.000    0.000 
#    0.000    0.000    0.000    0.000    0.000    0.000 
#
# Total GULP energy -793518.098771 kJ/mol
# GULP energy per Si atom -12398.720293 kJ/mol
# Density = 1.959526 g / cm^3
# Si number density = 19.639957 Si / 1000 Ang^3
#
#
#
# Elastic Constant Matrix: (Units=GPa)
#
#
# Indices 1 2 3 4 5 6 
#
# 1 34.6939 18.3998 24.4438 0.0000 0.0000 0.0000
# 2 18.3998 57.2598 34.1972 0.0000 0.0000 0.0000
# 3 24.4438 34.1972 108.0572 0.0000 0.0000 0.0000
# 4 0.0000 0.0000 0.0000 25.9502 0.0000 0.0000
# 5 0.0000 0.0000 0.0000 0.0000 25.2430 0.0000
# 6 0.0000 0.0000 0.0000 0.0000 0.0000 22.4285
#
#
#
# Elastic Compliance Matrix: (Units=1/GPa)
#
#
# Indices 1 2 3 4 5 6 
#
# 1 0.037431 -0.008596 -0.005747 0.000000 0.000000 0.000000
# 2 -0.008596 0.023508 -0.005495 0.000000 0.000000 0.000000
# 3 -0.005747 -0.005495 0.012294 0.000000 0.000000 0.000000
# 4 0.000000 0.000000 0.000000 0.038535 0.000000 0.000000
# 5 0.000000 0.000000 0.000000 0.000000 0.039615 0.000000
# 6 0.000000 0.000000 0.000000 0.000000 0.000000 0.044586
#
#
# Mechanical properties :
#
#
# Convention : Reuss Voigt Hill
#
# Bulk Modulus (GPa) = 29.80014 39.34363 34.57188
# Shear Modulus (GPa) = 20.25669 22.92233 21.58951
#
# Velocity S-wave (km/s) = 3.21503 3.42003 3.31911
# Velocity P-wave (km/s) = 5.38405 5.97255 5.68592
#
# Compressibility (1/GPa) = 0.03355689
#
# Stress axis : x y z
#
# Youngs Moduli (GPa) = 26.71550 42.53801 81.34364
#
# Poissons Ratio (x) = 0.36565 0.46749
# Poissons Ratio (y) = 0.22964 0.44701
# Poissons Ratio (z) = 0.15354 0.23376
#
# Static dielectric constant tensor:
#      x y z
#    x 3.574340 0.000000 0.000000 
#    y 0.000000 3.430560 0.000000 
#    z 0.000000 0.000000 3.476580 
# 
# 
# High freq. dielectric constant tensor:
#      x y z
#    x 1.756790 0.000000 0.000000 
#    y 0.000000 1.750470 0.000000 
#    z 0.000000 0.000000 1.760890 
# 
# From -- ./inp_files/21498.got.cif
#   From: 2010.03.12/outbox.cif.g09.slc.cpg/sg59_11_cif.got.tgz:21498.got - 2010.04.16 16:29:54.
