data_PCOD8243540
_publ_section_title
;
Structure prediction by ZEFSAII (Michael W. Deem and Ramdas Pophale) SiO2 
 PCOD8243540
Probable space group: P M M N
;
_chemical_formula_sum "Si O2"
_cell_formula_units_Z 48
_cell_length_a 23.369604
_cell_length_b 8.712142
_cell_length_c 12.837443
_cell_angle_alpha 90.000000
_cell_angle_beta 90.000000
_cell_angle_gamma 90.000000
_cell_volume 2613.694518
_symmetry_space_group_name_H-M "P M M N"
_symmetry_group_IT_number 59
_space_group.IT_coordinate_system_code '2'
_symmetry_cell_setting 'orthorhombic'
loop_
_space_group_symop_operation_xyz
x,y,z
1/2-x,1/2-y,z
1/2+x,-y,-z
-x,1/2+y,-z
-x,-y,-z
1/2+x,1/2+y,-z
1/2-x,y,z
x,1/2-y,z
loop_
_atom_site_type_symbol
_atom_site_label
_atom_site_fract_x
_atom_site_fract_y
_atom_site_fract_z
Si Si1 0.497803 0.569857 0.614008
Si Si2 0.126895 0.930992 0.688217
Si Si3 0.186181 0.568007 0.894219
Si Si4 0.683744 0.928350 0.505864
Si Si5 0.685669 0.067532 0.876271
Si Si6 0.610838 0.431373 0.687135
O O1 0.500000 0.500000 0.500000
O O2 0.504751 0.750000 0.602721
O O3 0.438666 0.523747 0.668954
O O4 0.548212 0.504957 0.685698
O O5 0.137253 0.750000 0.673713
O O6 0.142833 0.987960 0.804674
O O7 0.168457 0.020674 0.610455
O O8 0.250000 0.504565 0.871015
O O9 0.188447 0.750000 0.896032
O O10 0.165685 0.510626 0.008755
O O11 0.750000 0.963038 0.527502
O O12 0.669284 0.750000 0.520798
O O13 0.645847 0.027108 0.584193
O O14 0.750000 0.007658 0.853633
O O15 0.685256 0.250000 0.870514
O O16 0.643157 0.001071 0.788678
O O17 0.604100 0.250000 0.691828
#
# Coordination Sequence:
#
# PCOD8243540 Si02
#       6
#     8   8   8   8   8   8
#     4  11  22  36  53  75 105 143 182 222 267 314
#     4  10  20  34  55  79 102 135 179 221 263 316
#     4   8  14  28  52  80 106 131 166 217 269 313
#     4  11  23  35  50  76 109 139 168 214 272 322
#     4   8  15  29  51  79 107 134 169 216 266 314
#     4  11  21  34  54  78 104 139 181 220 260 311
#
# _framework density 18.364809000000001
#
# number of rings (size 3 to 8) (size 9 to 14) (size 15 to 20)
#    0.000    2.167    1.667    3.500    0.000    3.333 
#    0.000    0.833    0.000    2.000    0.000    7.000 
#    0.000    0.000    0.000    0.000    0.000    0.000 
#
# Total GULP energy -595157.360126 kJ/mol
# GULP energy per Si atom -12399.111669 kJ/mol
# Density = 1.832301 g / cm^3
# Si number density = 18.364809 Si / 1000 Ang^3
#
#
#
# Elastic Constant Matrix: (Units=GPa)
#
#
# Indices 1 2 3 4 5 6 
#
# 1 106.3355 24.6508 60.7824 0.0000 0.0000 0.0000
# 2 24.6508 38.3931 15.4354 0.0000 0.0000 0.0000
# 3 60.7824 15.4354 138.8091 0.0000 0.0000 0.0000
# 4 0.0000 0.0000 0.0000 11.7767 0.0000 0.0000
# 5 0.0000 0.0000 0.0000 0.0000 31.9168 0.0000
# 6 0.0000 0.0000 0.0000 0.0000 0.0000 25.9679
#
#
#
# Elastic Compliance Matrix: (Units=1/GPa)
#
#
# Indices 1 2 3 4 5 6 
#
# 1 0.014086 -0.006872 -0.005404 0.000000 0.000000 0.000000
# 2 -0.006872 0.030617 -0.000396 0.000000 0.000000 0.000000
# 3 -0.005404 -0.000396 0.009614 0.000000 0.000000 0.000000
# 4 0.000000 0.000000 0.000000 0.084913 0.000000 0.000000
# 5 0.000000 0.000000 0.000000 0.000000 0.031331 0.000000
# 6 0.000000 0.000000 0.000000 0.000000 0.000000 0.038509
#
#
# Mechanical properties :
#
#
# Convention : Reuss Voigt Hill
#
# Bulk Modulus (GPa) = 34.51187 53.91943 44.21565
# Shear Modulus (GPa) = 20.48567 26.11021 23.29794
#
# Velocity S-wave (km/s) = 3.34351 3.77470 3.56563
# Velocity P-wave (km/s) = 5.80849 6.95858 6.40938
#
# Compressibility (1/GPa) = 0.02897554
#
# Stress axis : x y z
#
# Youngs Moduli (GPa) = 70.99169 32.66112 104.00995
#
# Poissons Ratio (x) = 0.22443 0.56207
# Poissons Ratio (y) = 0.48783 0.04115
# Poissons Ratio (z) = 0.38364 0.01292
#
# Static dielectric constant tensor:
#      x y z
#    x 3.623310 0.000000 0.000000 
#    y 0.000000 3.109990 0.000000 
#    z 0.000000 0.000000 3.717140 
# 
# 
# High freq. dielectric constant tensor:
#      x y z
#    x 1.713730 0.000000 0.000000 
#    y 0.000000 1.685440 0.000000 
#    z 0.000000 0.000000 1.717640 
# 
# From -- ./inp_files/18614.got.cif
#   From: 2010.03.12/outbox.cif.g09.slc.cpg/sg59_10_cif.got.tgz:18614.got - 2010.04.16 16:29:54.
