data_PCOD8243713
_publ_section_title
;
Structure prediction by ZEFSAII (Michael W. Deem and Ramdas Pophale) SiO2 
 PCOD8243713
Probable space group: P M M N
;
_chemical_formula_sum "Si O2"
_cell_formula_units_Z 64
_cell_length_a 17.976574
_cell_length_b 19.595362
_cell_length_c 8.905133
_cell_angle_alpha 90.000000
_cell_angle_beta 90.000000
_cell_angle_gamma 90.000000
_cell_volume 3136.899666
_symmetry_space_group_name_H-M "P M M N"
_symmetry_group_IT_number 59
_space_group.IT_coordinate_system_code '2'
_symmetry_cell_setting 'orthorhombic'
loop_
_space_group_symop_operation_xyz
x,y,z
1/2-x,1/2-y,z
1/2+x,-y,-z
-x,1/2+y,-z
-x,-y,-z
1/2+x,1/2+y,-z
1/2-x,y,z
x,1/2-y,z
loop_
_atom_site_type_symbol
_atom_site_label
_atom_site_fract_x
_atom_site_fract_y
_atom_site_fract_z
Si Si1 0.431675 0.068740 0.272941
Si Si2 0.098989 0.092238 0.952054
Si Si3 0.471376 0.177279 0.516734
Si Si4 0.333344 0.005698 0.514234
Si Si5 0.405683 0.547684 0.796985
Si Si6 0.830049 0.850929 0.320233
Si Si7 0.163770 0.828443 0.970303
Si Si8 0.534467 0.329040 0.820399
O O1 0.462590 0.128009 0.378351
O O2 0.381503 0.014063 0.361934
O O3 0.505643 0.035225 0.206065
O O4 0.385227 0.098204 0.130786
O O5 0.153979 0.140954 0.857858
O O6 0.014946 0.118577 0.918898
O O7 0.118895 0.014614 0.903261
O O8 0.499861 0.250000 0.453891
O O9 0.393202 0.192768 0.600349
O O10 0.528080 0.149027 0.644510
O O11 0.250000 0.980242 0.473708
O O12 0.329952 0.076652 0.599396
O O13 0.373555 0.953926 0.627470
O O14 0.376535 0.620580 0.854976
O O15 0.750000 0.814869 0.338535
O O16 0.250000 0.848669 0.993765
O O17 0.156953 0.750000 0.911526
O O18 0.120353 0.836130 0.128778
O O19 0.507787 0.250000 0.840338
#
# Coordination Sequence:
#
# PCOD8243713 Si02
#       8
#     8   8   8   8   8   8   8   8
#     4  11  21  33  54  83 114 149 190 243 285 336
#     4  10  20  34  57  85 113 146 193 240 282 334
#     4   9  19  34  54  78 107 146 187 223 276 343
#     4   9  19  35  52  75 111 149 182 224 282 339
#     4  11  21  37  59  81 114 153 194 237 293 349
#     4   8  16  32  53  76 106 142 180 221 267 324
#     4  10  21  37  61  89 112 142 189 243 295 347
#     4   9  18  36  58  82 114 150 186 231 283 346
#
# _framework density 20.402311000000001
#
# number of rings (size 3 to 8) (size 9 to 14) (size 15 to 20)
#    0.000    2.375    1.250    1.875    0.000    2.250 
#    0.000    0.000    0.000    0.750    0.000    5.250 
#    0.000    0.000    0.000    0.000    0.000    0.000 
#
# Total GULP energy -792957.739144 kJ/mol
# GULP energy per Si atom -12389.964674 kJ/mol
# Density = 2.035587 g / cm^3
# Si number density = 20.402311 Si / 1000 Ang^3
#
#
#
# Elastic Constant Matrix: (Units=GPa)
#
#
# Indices 1 2 3 4 5 6 
#
# 1 91.5231 3.9825 11.5304 0.0000 0.0000 0.0000
# 2 3.9825 63.7466 24.1563 0.0000 0.0000 0.0000
# 3 11.5304 24.1563 116.9560 0.0000 0.0000 0.0000
# 4 0.0000 0.0000 0.0000 21.3787 0.0000 0.0000
# 5 0.0000 0.0000 0.0000 0.0000 24.7285 0.0000
# 6 0.0000 0.0000 0.0000 0.0000 0.0000 13.0940
#
#
#
# Elastic Compliance Matrix: (Units=1/GPa)
#
#
# Indices 1 2 3 4 5 6 
#
# 1 0.011069 -0.000302 -0.001029 0.000000 0.000000 0.000000
# 2 -0.000302 0.017027 -0.003487 0.000000 0.000000 0.000000
# 3 -0.001029 -0.003487 0.009372 0.000000 0.000000 0.000000
# 4 0.000000 0.000000 0.000000 0.046776 0.000000 0.000000
# 5 0.000000 0.000000 0.000000 0.000000 0.040439 0.000000
# 6 0.000000 0.000000 0.000000 0.000000 0.000000 0.076371
#
#
# Mechanical properties :
#
#
# Convention : Reuss Voigt Hill
#
# Bulk Modulus (GPa) = 35.92879 39.06268 37.49573
# Shear Modulus (GPa) = 22.73071 27.34400 25.03735
#
# Velocity S-wave (km/s) = 3.34147 3.66490 3.50692
# Velocity P-wave (km/s) = 5.70400 6.09068 5.90051
#
# Compressibility (1/GPa) = 0.02783284
#
# Stress axis : x y z
#
# Youngs Moduli (GPa) = 90.34270 58.72894 106.70189
#
# Poissons Ratio (x) = 0.01771 0.10979
# Poissons Ratio (y) = 0.02725 0.37208
# Poissons Ratio (z) = 0.09296 0.20480
#
# Static dielectric constant tensor:
#      x y z
#    x 3.883730 0.000000 0.000000 
#    y 0.000000 3.523370 0.000000 
#    z 0.000000 0.000000 3.647460 
# 
# 
# High freq. dielectric constant tensor:
#      x y z
#    x 1.786900 0.000000 0.000000 
#    y 0.000000 1.789670 0.000000 
#    z 0.000000 0.000000 1.788240 
# 
# From -- ./inp_files/10676.got.cif
#   From: 2010.03.12/outbox.cif.g09.slc.cpg/sg59_6_cif.got.tgz:10676.got - 2010.04.16 16:29:54.
