data_PCOD8243578
_publ_section_title
;
Structure prediction by ZEFSAII (Michael W. Deem and Ramdas Pophale) SiO2 
 PCOD8243578
Probable space group: P M M N
;
_chemical_formula_sum "Si O2"
_cell_formula_units_Z 48
_cell_length_a 7.838046
_cell_length_b 9.338979
_cell_length_c 34.246329
_cell_angle_alpha 90.000000
_cell_angle_beta 90.000000
_cell_angle_gamma 90.000000
_cell_volume 2506.808920
_symmetry_space_group_name_H-M "P M M N"
_symmetry_group_IT_number 59
_space_group.IT_coordinate_system_code '2'
_symmetry_cell_setting 'orthorhombic'
loop_
_space_group_symop_operation_xyz
x,y,z
1/2-x,1/2-y,z
1/2+x,-y,-z
-x,1/2+y,-z
-x,-y,-z
1/2+x,1/2+y,-z
1/2-x,y,z
x,1/2-y,z
loop_
_atom_site_type_symbol
_atom_site_label
_atom_site_fract_x
_atom_site_fract_y
_atom_site_fract_z
Si Si1 0.449526 0.910275 0.962781
Si Si2 0.444690 0.414152 0.120447
Si Si3 0.439845 0.414789 0.808437
Si Si4 0.050075 0.590132 0.537437
Si Si5 0.250000 0.920505 0.243801
Si Si6 0.750000 0.080966 0.669213
Si Si7 0.052694 0.417857 0.613380
O O1 0.250000 0.912053 0.956455
O O2 0.518900 0.750000 0.969641
O O3 0.533121 0.975270 0.923461
O O4 0.500000 0.000000 0.000000
O O5 0.250000 0.429274 0.133589
O O6 0.507460 0.250000 0.121270
O O7 0.557332 0.502830 0.150628
O O8 0.250000 0.432586 0.790249
O O9 0.481165 0.250000 0.817510
O O10 0.579780 0.476341 0.778188
O O11 0.250000 0.606230 0.538723
O O12 0.967341 0.750000 0.536256
O O13 0.989335 0.505000 0.575655
O O14 0.000000 0.500000 0.500000
O O15 0.250000 0.750000 0.245944
O O16 0.250000 0.986594 0.287388
O O17 0.750000 0.250000 0.672437
O O18 0.575395 0.032530 0.647706
O O19 0.250000 0.452419 0.624893
O O20 0.032029 0.250000 0.603970
#
# Coordination Sequence:
#
# PCOD8243578 Si02
#       7
#     8   8   8   8   4   4   8
#     4  10  21  36  53  75 103 137 178 222 268 319
#     4  10  20  35  56  79 105 140 179 221 271 324
#     4  10  20  34  55  82 111 144 180 221 272 324
#     4  10  21  35  52  76 107 142 180 225 274 322
#     4   9  18  34  53  81 115 139 175 231 275 321
#     4   9  18  32  55  81 107 143 181 221 273 327
#     4   9  18  33  52  76 106 139 180 226 269 320
#
# _framework density 19.147850999999999
#
# number of rings (size 3 to 8) (size 9 to 14) (size 15 to 20)
#    0.000    2.333    0.833    1.500    1.167    4.333 
#    0.000    3.333    0.000    2.000    0.000    2.333 
#    0.000    0.000    0.000    0.000    0.000    0.000 
#
# Total GULP energy -595116.171675 kJ/mol
# GULP energy per Si atom -12398.253577 kJ/mol
# Density = 1.910427 g / cm^3
# Si number density = 19.147851 Si / 1000 Ang^3
#
#
#
# Elastic Constant Matrix: (Units=GPa)
#
#
# Indices 1 2 3 4 5 6 
#
# 1 100.1766 28.6034 62.2722 0.0000 0.0000 0.0000
# 2 28.6034 64.4309 54.3915 0.0000 0.0000 0.0000
# 3 62.2722 54.3915 167.7454 0.0000 0.0000 0.0000
# 4 0.0000 0.0000 0.0000 24.3564 0.0000 0.0000
# 5 0.0000 0.0000 0.0000 0.0000 31.8498 0.0000
# 6 0.0000 0.0000 0.0000 0.0000 0.0000 18.9114
#
#
#
# Elastic Compliance Matrix: (Units=1/GPa)
#
#
# Indices 1 2 3 4 5 6 
#
# 1 0.013237 -0.002379 -0.004142 0.000000 0.000000 0.000000
# 2 -0.002379 0.021798 -0.006185 0.000000 0.000000 0.000000
# 3 -0.004142 -0.006185 0.009505 0.000000 0.000000 0.000000
# 4 0.000000 0.000000 0.000000 0.041057 0.000000 0.000000
# 5 0.000000 0.000000 0.000000 0.000000 0.031397 0.000000
# 6 0.000000 0.000000 0.000000 0.000000 0.000000 0.052878
#
#
# Mechanical properties :
#
#
# Convention : Reuss Voigt Hill
#
# Bulk Modulus (GPa) = 52.28401 69.20967 60.74684
# Shear Modulus (GPa) = 24.79422 27.49590 26.14506
#
# Velocity S-wave (km/s) = 3.60235 3.79354 3.69918
# Velocity P-wave (km/s) = 6.68336 7.44388 7.07385
#
# Compressibility (1/GPa) = 0.01912630
#
# Stress axis : x y z
#
# Youngs Moduli (GPa) = 75.54721 45.87627 105.21271
#
# Poissons Ratio (x) = 0.10916 0.43583
# Poissons Ratio (y) = 0.17976 0.65070
# Poissons Ratio (z) = 0.31294 0.28373
#
# Static dielectric constant tensor:
#      x y z
#    x 3.698380 0.000000 0.000000 
#    y 0.000000 3.406150 0.000000 
#    z 0.000000 0.000000 3.530240 
# 
# 
# High freq. dielectric constant tensor:
#      x y z
#    x 1.755810 0.000000 0.000000 
#    y 0.000000 1.718330 0.000000 
#    z 0.000000 0.000000 1.741810 
# 
# From -- ./inp_files/33002.got.cif
#   From: 2010.03.12/outbox.cif.g09.slc.cpg/sg59_17_cif.got.tgz:33002.got - 2010.04.16 16:29:54.
