data_PCOD8243300
_publ_section_title
;
Structure prediction by ZEFSAII (Michael W. Deem and Ramdas Pophale) SiO2 
 PCOD8243300
Probable space group: P M M N
;
_chemical_formula_sum "Si O2"
_cell_formula_units_Z 48
_cell_length_a 15.314077
_cell_length_b 9.501491
_cell_length_c 17.014117
_cell_angle_alpha 90.000000
_cell_angle_beta 90.000000
_cell_angle_gamma 90.000000
_cell_volume 2475.665718
_symmetry_space_group_name_H-M "P M M N"
_symmetry_group_IT_number 59
_space_group.IT_coordinate_system_code '2'
_symmetry_cell_setting 'orthorhombic'
loop_
_space_group_symop_operation_xyz
x,y,z
1/2-x,1/2-y,z
1/2+x,-y,-z
-x,1/2+y,-z
-x,-y,-z
1/2+x,1/2+y,-z
1/2-x,y,z
x,1/2-y,z
loop_
_atom_site_type_symbol
_atom_site_label
_atom_site_fract_x
_atom_site_fract_y
_atom_site_fract_z
Si Si1 0.750000 0.413910 0.071633
Si Si2 0.403034 0.413544 0.204280
Si Si3 0.604163 0.413066 0.194056
Si Si4 0.088717 0.906542 0.350699
Si Si5 0.385072 0.404863 0.661513
Si Si6 0.750000 0.913134 0.913488
Si Si7 0.348991 0.409280 0.488457
O O1 0.750000 0.250000 0.050907
O O2 0.662050 0.454944 0.118873
O O3 0.750000 0.498754 0.991998
O O4 0.395130 0.250000 0.227716
O O5 0.502326 0.450799 0.178051
O O6 0.370786 0.502552 0.279661
O O7 0.337608 0.452181 0.134109
O O8 0.614937 0.250000 0.213870
O O9 0.645241 0.493643 0.268656
O O10 0.131626 0.750000 0.353947
O O11 0.987844 0.891665 0.334742
O O12 0.098150 0.985605 0.433339
O O13 0.343002 0.250000 0.673654
O O14 0.354587 0.466319 0.577653
O O15 0.750000 0.750000 0.936038
O O16 0.250000 0.409561 0.458987
O O17 0.387965 0.250000 0.484018
#
# Coordination Sequence:
#
# PCOD8243300 Si02
#       7
#     4   8   8   8   8   4   8
#     4  10  22  38  56  83 114 141 170 213 272 327
#     4   9  19  37  58  79 107 143 181 219 263 319
#     4   9  19  36  57  80 109 144 177 215 267 323
#     4  10  20  34  53  78 106 137 178 225 270 314
#     4   9  19  35  54  77 104 138 181 224 264 311
#     4  10  22  38  58  83 106 137 180 219 260 319
#     4  10  21  34  49  73 106 144 182 219 263 313
#
# _framework density 19.388725999999998
#
# number of rings (size 3 to 8) (size 9 to 14) (size 15 to 20)
#    0.000    2.500    0.000    1.000    2.333    3.667 
#    0.000    0.000    0.000    0.000    0.000    0.000 
#    0.000    0.000    0.000    0.000    0.000    0.000 
#
# Total GULP energy -595128.729587 kJ/mol
# GULP energy per Si atom -12398.515200 kJ/mol
# Density = 1.934460 g / cm^3
# Si number density = 19.388726 Si / 1000 Ang^3
#
#
#
# Elastic Constant Matrix: (Units=GPa)
#
#
# Indices 1 2 3 4 5 6 
#
# 1 70.7555 34.7683 51.3521 0.0000 0.0000 0.0000
# 2 34.7683 96.2004 86.2869 0.0000 0.0000 0.0000
# 3 51.3521 86.2869 163.5025 0.0000 0.0000 0.0000
# 4 0.0000 0.0000 0.0000 39.8224 0.0000 0.0000
# 5 0.0000 0.0000 0.0000 0.0000 26.3448 0.0000
# 6 0.0000 0.0000 0.0000 0.0000 0.0000 10.9720
#
#
#
# Elastic Compliance Matrix: (Units=1/GPa)
#
#
# Indices 1 2 3 4 5 6 
#
# 1 0.018703 -0.002831 -0.004380 0.000000 0.000000 0.000000
# 2 -0.002831 0.020167 -0.009754 0.000000 0.000000 0.000000
# 3 -0.004380 -0.009754 0.012639 0.000000 0.000000 0.000000
# 4 0.000000 0.000000 0.000000 0.025112 0.000000 0.000000
# 5 0.000000 0.000000 0.000000 0.000000 0.037958 0.000000
# 6 0.000000 0.000000 0.000000 0.000000 0.000000 0.091141
#
#
# Mechanical properties :
#
#
# Convention : Reuss Voigt Hill
#
# Bulk Modulus (GPa) = 56.88387 75.03035 65.95711
# Shear Modulus (GPa) = 20.36586 25.96459 23.16522
#
# Velocity S-wave (km/s) = 3.24450 3.66342 3.46031
# Velocity P-wave (km/s) = 6.59075 7.52836 7.07510
#
# Compressibility (1/GPa) = 0.01757968
#
# Stress axis : x y z
#
# Youngs Moduli (GPa) = 53.46662 49.58701 79.11840
#
# Poissons Ratio (x) = 0.14037 0.34657
# Poissons Ratio (y) = 0.15135 0.77169
# Poissons Ratio (z) = 0.23420 0.48366
#
# Static dielectric constant tensor:
#      x y z
#    x 3.619450 0.000000 0.000000 
#    y 0.000000 3.900810 0.000000 
#    z 0.000000 0.000000 3.411200 
# 
# 
# High freq. dielectric constant tensor:
#      x y z
#    x 1.756750 0.000000 0.000000 
#    y 0.000000 1.751420 0.000000 
#    z 0.000000 0.000000 1.746910 
# 
# From -- ./inp_files/23754.got.cif
#   From: 2010.03.12/outbox.cif.g09.slc.cpg/sg59_12_cif.got.tgz:23754.got - 2010.04.16 16:29:54.
