data_PCOD8243646
_publ_section_title
;
Structure prediction by ZEFSAII (Michael W. Deem and Ramdas Pophale) SiO2 
 PCOD8243646
Probable space group: P M M N
;
_chemical_formula_sum "Si O2"
_cell_formula_units_Z 64
_cell_length_a 8.667946
_cell_length_b 14.447927
_cell_length_c 24.931647
_cell_angle_alpha 90.000000
_cell_angle_beta 90.000000
_cell_angle_gamma 90.000000
_cell_volume 3122.286167
_symmetry_space_group_name_H-M "P M M N"
_symmetry_group_IT_number 59
_space_group.IT_coordinate_system_code '2'
_symmetry_cell_setting 'orthorhombic'
loop_
_space_group_symop_operation_xyz
x,y,z
1/2-x,1/2-y,z
1/2+x,-y,-z
-x,1/2+y,-z
-x,-y,-z
1/2+x,1/2+y,-z
1/2-x,y,z
x,1/2-y,z
loop_
_atom_site_type_symbol
_atom_site_label
_atom_site_fract_x
_atom_site_fract_y
_atom_site_fract_z
Si Si1 0.931155 0.470637 0.375465
Si Si2 0.931655 0.145722 0.275073
Si Si3 0.570561 0.145611 0.583110
Si Si4 0.428383 0.143813 0.468409
Si Si5 0.576797 0.149103 0.089637
Si Si6 0.427178 0.036336 0.178795
Si Si7 0.072870 0.853452 0.124660
Si Si8 0.931316 0.901168 0.013224
O O1 0.750000 0.486133 0.369617
O O2 0.997455 0.407373 0.327221
O O3 0.013539 0.571253 0.372887
O O4 0.967955 0.420486 0.431168
O O5 0.750000 0.154570 0.279803
O O6 0.002976 0.250000 0.271625
O O7 0.968776 0.084203 0.223425
O O8 0.750000 0.131771 0.570619
O O9 0.538169 0.250000 0.604237
O O10 0.475302 0.125623 0.529397
O O11 0.250000 0.117204 0.461077
O O12 0.459891 0.250000 0.452605
O O13 0.750000 0.106680 0.088589
O O14 0.580544 0.250000 0.117693
O O15 0.463321 0.081661 0.121435
O O16 0.512486 0.165494 0.029815
O O17 0.250000 0.052732 0.194176
O O18 0.466079 0.926949 0.172082
O O19 0.250000 0.867634 0.106682
O O20 0.044714 0.750000 0.147552
O O21 0.966527 0.868584 0.073182
O O22 0.750000 0.899656 0.004594
O O23 0.000000 0.000000 0.000000
#
# Coordination Sequence:
#
# PCOD8243646 Si02
#       8
#     8   8   8   8   8   8   8   8
#     4  11  22  37  59  85 116 155 198 245 298 355
#     4  10  23  43  64  86 115 151 189 235 294 353
#     4  10  21  37  57  83 118 159 200 242 290 347
#     4  10  20  34  55  85 121 159 199 244 293 349
#     4  11  23  38  58  84 117 155 189 229 285 344
#     4  11  23  39  62  88 114 148 191 241 289 340
#     4  10  22  41  62  85 117 155 192 235 290 346
#     4  12  23  36  57  86 119 155 193 235 284 340
#
# _framework density 20.497800000000002
#
# number of rings (size 3 to 8) (size 9 to 14) (size 15 to 20)
#    0.000    1.375    1.250    4.500    0.000    8.000 
#    0.000    0.625    0.000    2.250    0.000    0.000 
#    0.000    0.000    0.000    0.000    0.000    0.000 
#
# Total GULP energy -793664.253417 kJ/mol
# GULP energy per Si atom -12401.003960 kJ/mol
# Density = 2.045115 g / cm^3
# Si number density = 20.497800 Si / 1000 Ang^3
#
#
#
# Elastic Constant Matrix: (Units=GPa)
#
#
# Indices 1 2 3 4 5 6 
#
# 1 61.3582 32.5408 14.9487 0.0000 0.0000 0.0000
# 2 32.5408 158.1871 55.5196 0.0000 0.0000 0.0000
# 3 14.9487 55.5196 74.3402 0.0000 0.0000 0.0000
# 4 0.0000 0.0000 0.0000 32.6024 0.0000 0.0000
# 5 0.0000 0.0000 0.0000 0.0000 29.2735 0.0000
# 6 0.0000 0.0000 0.0000 0.0000 0.0000 29.4088
#
#
#
# Elastic Compliance Matrix: (Units=1/GPa)
#
#
# Indices 1 2 3 4 5 6 
#
# 1 0.018370 -0.003364 -0.001181 0.000000 0.000000 0.000000
# 2 -0.003364 0.009183 -0.006182 0.000000 0.000000 0.000000
# 3 -0.001181 -0.006182 0.018306 0.000000 0.000000 0.000000
# 4 0.000000 0.000000 0.000000 0.030673 0.000000 0.000000
# 5 0.000000 0.000000 0.000000 0.000000 0.034161 0.000000
# 6 0.000000 0.000000 0.000000 0.000000 0.000000 0.034003
#
#
# Mechanical properties :
#
#
# Convention : Reuss Voigt Hill
#
# Bulk Modulus (GPa) = 40.97665 55.54485 48.26075
# Shear Modulus (GPa) = 28.68855 30.98204 29.83529
#
# Velocity S-wave (km/s) = 3.74517 3.89200 3.81929
# Velocity P-wave (km/s) = 6.22382 6.88140 6.56085
#
# Compressibility (1/GPa) = 0.02440414
#
# Stress axis : x y z
#
# Youngs Moduli (GPa) = 54.43734 108.89230 54.62666
#
# Poissons Ratio (x) = 0.36634 0.06453
# Poissons Ratio (y) = 0.18314 0.33770
# Poissons Ratio (z) = 0.06431 0.67317
#
# Static dielectric constant tensor:
#      x y z
#    x 3.656860 0.000000 0.000000 
#    y 0.000000 4.131190 0.000000 
#    z 0.000000 0.000000 3.539410 
# 
# 
# High freq. dielectric constant tensor:
#      x y z
#    x 1.802970 0.000000 0.000000 
#    y 0.000000 1.822340 0.000000 
#    z 0.000000 0.000000 1.772910 
# 
# From -- ./inp_files/31408.got.cif
#   From: 2010.03.12/outbox.cif.g09.slc.cpg/sg59_16_cif.got.tgz:31408.got - 2010.04.16 16:29:54.
