data_PCOD8243784
_publ_section_title
;
Structure prediction by ZEFSAII (Michael W. Deem and Ramdas Pophale) SiO2 
 PCOD8243784
Probable space group: P M M N
;
_chemical_formula_sum "Si O2"
_cell_formula_units_Z 64
_cell_length_a 19.568598
_cell_length_b 9.163899
_cell_length_c 20.361606
_cell_angle_alpha 90.000000
_cell_angle_beta 90.000000
_cell_angle_gamma 90.000000
_cell_volume 3651.337984
_symmetry_space_group_name_H-M "P M M N"
_symmetry_group_IT_number 59
_space_group.IT_coordinate_system_code '2'
_symmetry_cell_setting 'orthorhombic'
loop_
_space_group_symop_operation_xyz
x,y,z
1/2-x,1/2-y,z
1/2+x,-y,-z
-x,1/2+y,-z
-x,-y,-z
1/2+x,1/2+y,-z
1/2-x,y,z
x,1/2-y,z
loop_
_atom_site_type_symbol
_atom_site_label
_atom_site_fract_x
_atom_site_fract_y
_atom_site_fract_z
Si Si1 0.077049 0.077380 0.795889
Si Si2 0.949835 0.922176 0.346384
Si Si3 0.568931 0.918540 0.485923
Si Si4 0.590382 0.580780 0.625653
Si Si5 0.670665 0.922905 0.088215
Si Si6 0.674308 0.578595 0.748012
Si Si7 0.929042 0.082165 0.990825
Si Si8 0.570753 0.415649 0.839243
O O1 0.078078 0.250000 0.796711
O O2 0.085859 0.018734 0.720638
O O3 0.138824 0.022567 0.842194
O O4 0.005323 0.021350 0.826187
O O5 0.959219 0.750000 0.339381
O O6 0.904560 0.963048 0.412227
O O7 0.024908 0.988202 0.353383
O O8 0.550291 0.750000 0.482940
O O9 0.616261 0.951407 0.549931
O O10 0.500000 0.000000 0.500000
O O11 0.569849 0.750000 0.632863
O O12 0.651872 0.539027 0.673817
O O13 0.750000 0.967222 0.087183
O O14 0.660719 0.750000 0.078618
O O15 0.631867 0.004484 0.029825
O O16 0.750000 0.514374 0.757924
O O17 0.673485 0.750000 0.759409
O O18 0.624771 0.510564 0.800833
O O19 0.936881 0.250000 0.013878
O O20 0.909137 0.074166 0.914924
O O21 0.000000 0.000000 0.000000
O O22 0.574735 0.250000 0.813620
#
# Coordination Sequence:
#
# PCOD8243784 Si02
#       8
#     8   8   8   8   8   8   8   8
#     4   9  16  30  51  75 101 128 162 203 249 297
#     4   9  15  25  45  69  93 121 157 201 245 287
#     4   8  14  23  38  63  90 118 151 194 242 287
#     4   9  16  27  42  62  93 125 159 200 245 292
#     4  10  21  38  58  79 106 139 171 205 253 309
#     4  10  21  34  47  67  98 135 172 208 249 301
#     4  11  22  37  58  81 107 135 170 211 254 305
#     4  10  20  35  54  74  98 128 165 209 252 296
#
# _framework density 17.527820999999999
#
# number of rings (size 3 to 8) (size 9 to 14) (size 15 to 20)
#    0.000    2.500    2.500    0.375    0.000    2.000 
#    0.000    3.125    0.000    0.750    0.000    5.250 
#    0.000    0.000    0.000   10.375    0.000   10.000 
#
# Total GULP energy -792857.576886 kJ/mol
# GULP energy per Si atom -12388.399639 kJ/mol
# Density = 1.748793 g / cm^3
# Si number density = 17.527821 Si / 1000 Ang^3
#
#
#
# Elastic Constant Matrix: (Units=GPa)
#
#
# Indices 1 2 3 4 5 6 
#
# 1 112.6574 32.1370 62.3824 0.0000 0.0000 0.0000
# 2 32.1370 35.8415 31.6534 0.0000 0.0000 0.0000
# 3 62.3824 31.6534 146.3467 0.0000 0.0000 0.0000
# 4 0.0000 0.0000 0.0000 21.9264 0.0000 0.0000
# 5 0.0000 0.0000 0.0000 0.0000 21.1663 0.0000
# 6 0.0000 0.0000 0.0000 0.0000 0.0000 20.3662
#
#
#
# Elastic Compliance Matrix: (Units=1/GPa)
#
#
# Indices 1 2 3 4 5 6 
#
# 1 0.013499 -0.008680 -0.003877 0.000000 0.000000 0.000000
# 2 -0.008680 0.040070 -0.004967 0.000000 0.000000 0.000000
# 3 -0.003877 -0.004967 0.009560 0.000000 0.000000 0.000000
# 4 0.000000 0.000000 0.000000 0.045607 0.000000 0.000000
# 5 0.000000 0.000000 0.000000 0.000000 0.047245 0.000000
# 6 0.000000 0.000000 0.000000 0.000000 0.000000 0.049101
#
#
# Mechanical properties :
#
#
# Convention : Reuss Voigt Hill
#
# Bulk Modulus (GPa) = 35.61040 60.79902 48.20471
# Shear Modulus (GPa) = 20.04087 23.93666 21.98877
#
# Velocity S-wave (km/s) = 3.38505 3.69946 3.54574
# Velocity P-wave (km/s) = 5.96982 7.28083 6.65767
#
# Compressibility (1/GPa) = 0.02808169
#
# Stress axis : x y z
#
# Youngs Moduli (GPa) = 74.07740 24.95633 104.60371
#
# Poissons Ratio (x) = 0.21663 0.40553
# Poissons Ratio (y) = 0.64301 0.51953
# Poissons Ratio (z) = 0.28719 0.12395
#
# Static dielectric constant tensor:
#      x y z
#    x 3.038140 0.000000 0.000000 
#    y 0.000000 3.159150 0.000000 
#    z 0.000000 0.000000 4.032770 
# 
# 
# High freq. dielectric constant tensor:
#      x y z
#    x 1.637390 0.000000 0.000000 
#    y 0.000000 1.662580 0.000000 
#    z 0.000000 0.000000 1.705800 
# 
# From -- ./inp_files/29670.got.cif
#   From: 2010.03.12/outbox.cif.g09.slc.cpg/sg59_15_cif.got.tgz:29670.got - 2010.04.16 16:29:54.
