data_PCOD8243139
_publ_section_title
;
Structure prediction by ZEFSAII (Michael W. Deem and Ramdas Pophale) SiO2 
 PCOD8243139
Probable space group: P M M N
;
_chemical_formula_sum "Si O2"
_cell_formula_units_Z 56
_cell_length_a 14.065056
_cell_length_b 9.691128
_cell_length_c 22.825285
_cell_angle_alpha 90.000000
_cell_angle_beta 90.000000
_cell_angle_gamma 90.000000
_cell_volume 3111.229187
_symmetry_space_group_name_H-M "P M M N"
_symmetry_group_IT_number 59
_space_group.IT_coordinate_system_code '2'
_symmetry_cell_setting 'orthorhombic'
loop_
_space_group_symop_operation_xyz
x,y,z
1/2-x,1/2-y,z
1/2+x,-y,-z
-x,1/2+y,-z
-x,-y,-z
1/2+x,1/2+y,-z
1/2-x,y,z
x,1/2-y,z
loop_
_atom_site_type_symbol
_atom_site_label
_atom_site_fract_x
_atom_site_fract_y
_atom_site_fract_z
Si Si1 0.583581 0.903667 0.015957
Si Si2 0.639938 0.912725 0.256765
Si Si3 0.143155 0.408472 0.415430
Si Si4 0.534631 0.910087 0.139615
Si Si5 0.639977 0.092904 0.476282
Si Si6 0.146126 0.408932 0.106129
Si Si7 0.042247 0.908404 0.644659
O O1 0.543011 0.750000 0.012345
O O2 0.608307 0.933186 0.084493
O O3 0.661242 0.926064 0.964965
O O4 0.500000 0.000000 0.000000
O O5 0.750000 0.957203 0.256356
O O6 0.629507 0.750000 0.266866
O O7 0.592240 0.960338 0.196053
O O8 0.584617 0.990548 0.307602
O O9 0.250000 0.451432 0.395882
O O10 0.139644 0.250000 0.435907
O O11 0.106868 0.496941 0.470430
O O12 0.071998 0.430906 0.360496
O O13 0.505612 0.750000 0.145551
O O14 0.436573 0.995600 0.132723
O O15 0.750000 0.069329 0.462368
O O16 0.618223 0.250000 0.494390
O O17 0.584468 0.050988 0.418097
O O18 0.250000 0.447940 0.132893
O O19 0.120661 0.250000 0.121129
O O20 0.066939 0.750000 0.661073
#
# Coordination Sequence:
#
# PCOD8243139 Si02
#       7
#     8   8   8   8   8   8   8
#     4   8  14  26  45  68  95 126 158 194 237 283
#     4  10  22  38  54  73  96 124 163 208 248 289
#     4   9  18  32  50  74 102 130 162 200 242 289
#     4   9  18  33  51  71  98 132 167 204 247 293
#     4   9  17  29  47  73 102 130 162 200 243 291
#     4   9  17  29  48  76 105 131 162 200 243 294
#     4  10  20  34  52  73 100 134 167 201 243 289
#
# _framework density 17.999316
#
# number of rings (size 3 to 8) (size 9 to 14) (size 15 to 20)
#    0.000    2.857    0.000    0.857    0.000    3.429 
#    0.000    5.000    0.000    2.571    0.000    6.000 
#    0.000    0.000    0.000    0.000    0.000    0.000 
#
# Total GULP energy -693734.090713 kJ/mol
# GULP energy per Si atom -12388.108763 kJ/mol
# Density = 1.795835 g / cm^3
# Si number density = 17.999316 Si / 1000 Ang^3
#
#
#
# Elastic Constant Matrix: (Units=GPa)
#
#
# Indices 1 2 3 4 5 6 
#
# 1 96.6425 42.2256 66.7749 0.0000 0.0000 0.0000
# 2 42.2256 59.0598 52.2022 0.0000 0.0000 0.0000
# 3 66.7749 52.2022 101.4490 0.0000 0.0000 0.0000
# 4 0.0000 0.0000 0.0000 27.8757 0.0000 0.0000
# 5 0.0000 0.0000 0.0000 0.0000 21.1014 0.0000
# 6 0.0000 0.0000 0.0000 0.0000 0.0000 24.3071
#
#
#
# Elastic Compliance Matrix: (Units=1/GPa)
#
#
# Indices 1 2 3 4 5 6 
#
# 1 0.019697 -0.004812 -0.010489 0.000000 0.000000 0.000000
# 2 -0.004812 0.032233 -0.013419 0.000000 0.000000 0.000000
# 3 -0.010489 -0.013419 0.023666 0.000000 0.000000 0.000000
# 4 0.000000 0.000000 0.000000 0.035874 0.000000 0.000000
# 5 0.000000 0.000000 0.000000 0.000000 0.047390 0.000000
# 6 0.000000 0.000000 0.000000 0.000000 0.000000 0.041140
#
#
# Mechanical properties :
#
#
# Convention : Reuss Voigt Hill
#
# Bulk Modulus (GPa) = 55.07497 64.39520 59.73509
# Shear Modulus (GPa) = 18.97597 21.05341 20.01469
#
# Velocity S-wave (km/s) = 3.25046 3.42377 3.33824
# Velocity P-wave (km/s) = 6.68970 7.17521 6.93671
#
# Compressibility (1/GPa) = 0.01815707
#
# Stress axis : x y z
#
# Youngs Moduli (GPa) = 50.76905 31.02418 42.25475
#
# Poissons Ratio (x) = 0.14928 0.44321
# Poissons Ratio (y) = 0.24428 0.56701
# Poissons Ratio (z) = 0.53251 0.41631
#
# Static dielectric constant tensor:
#      x y z
#    x 3.250090 0.000000 0.000000 
#    y 0.000000 3.340390 0.000000 
#    z 0.000000 0.000000 5.625950 
# 
# 
# High freq. dielectric constant tensor:
#      x y z
#    x 1.696380 0.000000 0.000000 
#    y 0.000000 1.695100 0.000000 
#    z 0.000000 0.000000 1.682370 
# 
# From -- ./inp_files/30325.got.cif
#   From: 2010.03.12/outbox.cif.g09.slc.cpg/sg59_16_cif.got.tgz:30325.got - 2010.04.16 16:29:54.
