data_PCOD8243982
_publ_section_title
;
Structure prediction by ZEFSAII (Michael W. Deem and Ramdas Pophale) SiO2 
 PCOD8243982
Probable space group: P M M N
;
_chemical_formula_sum "Si O2"
_cell_formula_units_Z 48
_cell_length_a 9.066019
_cell_length_b 16.508977
_cell_length_c 16.447972
_cell_angle_alpha 90.000000
_cell_angle_beta 90.000000
_cell_angle_gamma 90.000000
_cell_volume 2461.779469
_symmetry_space_group_name_H-M "P M M N"
_symmetry_group_IT_number 59
_space_group.IT_coordinate_system_code '2'
_symmetry_cell_setting 'orthorhombic'
loop_
_space_group_symop_operation_xyz
x,y,z
1/2-x,1/2-y,z
1/2+x,-y,-z
-x,1/2+y,-z
-x,-y,-z
1/2+x,1/2+y,-z
1/2-x,y,z
x,1/2-y,z
loop_
_atom_site_type_symbol
_atom_site_label
_atom_site_fract_x
_atom_site_fract_y
_atom_site_fract_z
Si Si1 0.923050 0.844193 0.035057
Si Si2 0.424889 0.750000 0.295020
Si Si3 0.081736 0.543699 0.730202
Si Si4 0.582101 0.158144 0.123187
Si Si5 0.077363 0.923899 0.544170
Si Si6 0.574483 0.250000 0.522847
Si Si7 0.423524 0.899547 0.191510
O O1 0.750000 0.856764 0.039324
O O2 0.969033 0.750000 0.046034
O O3 0.996253 0.898288 0.104879
O O4 0.980456 0.878280 0.948574
O O5 0.250000 0.750000 0.300003
O O6 0.489189 0.750000 0.385762
O O7 0.484076 0.826744 0.246312
O O8 0.250000 0.511290 0.736469
O O9 0.055264 0.618263 0.790057
O O10 0.044480 0.571548 0.639628
O O11 0.964404 0.477726 0.757294
O O12 0.750000 0.148351 0.093812
O O13 0.536542 0.250000 0.137467
O O14 0.250000 0.930795 0.523953
O O15 0.017107 0.834620 0.517193
O O16 0.000000 0.000000 0.500000
O O17 0.750000 0.250000 0.518685
O O18 0.250000 0.894867 0.176494
#
# Coordination Sequence:
#
# PCOD8243982 Si02
#       7
#     8   4   8   8   8   4   8
#     4  10  20  35  56  83 115 148 185 232 285 335
#     4   9  18  32  53  82 109 138 186 233 271 331
#     4  10  22  37  55  84 115 146 188 239 289 336
#     4   9  19  36  58  80 109 148 191 235 279 335
#     4  10  21  38  61  87 120 154 194 244 297 353
#     4   9  18  34  59  86 111 150 194 235 287 351
#     4  11  21  35  57  82 113 151 191 233 280 338
#
# _framework density 19.498092
#
# number of rings (size 3 to 8) (size 9 to 14) (size 15 to 20)
#    0.000    2.167    0.833    2.000    1.167    4.000 
#    0.000    0.417    0.000    3.000    0.000    0.000 
#    0.000    0.000    0.000    0.000    0.000    0.000 
#
# Total GULP energy -595145.153587 kJ/mol
# GULP energy per Si atom -12398.857366 kJ/mol
# Density = 1.945371 g / cm^3
# Si number density = 19.498092 Si / 1000 Ang^3
#
#
#
# Elastic Constant Matrix: (Units=GPa)
#
#
# Indices 1 2 3 4 5 6 
#
# 1 63.4514 37.4800 52.0381 0.0000 0.0000 0.0000
# 2 37.4800 114.8958 67.8601 0.0000 0.0000 0.0000
# 3 52.0381 67.8601 172.8266 0.0000 0.0000 0.0000
# 4 0.0000 0.0000 0.0000 31.1483 0.0000 0.0000
# 5 0.0000 0.0000 0.0000 0.0000 26.4084 0.0000
# 6 0.0000 0.0000 0.0000 0.0000 0.0000 25.6566
#
#
#
# Elastic Compliance Matrix: (Units=1/GPa)
#
#
# Indices 1 2 3 4 5 6 
#
# 1 0.022477 -0.004342 -0.005063 0.000000 0.000000 0.000000
# 2 -0.004342 0.012170 -0.003471 0.000000 0.000000 0.000000
# 3 -0.005063 -0.003471 0.008674 0.000000 0.000000 0.000000
# 4 0.000000 0.000000 0.000000 0.032105 0.000000 0.000000
# 5 0.000000 0.000000 0.000000 0.000000 0.037867 0.000000
# 6 0.000000 0.000000 0.000000 0.000000 0.000000 0.038976
#
#
# Mechanical properties :
#
#
# Convention : Reuss Voigt Hill
#
# Bulk Modulus (GPa) = 56.91995 73.99221 65.45608
# Shear Modulus (GPa) = 27.19210 29.56234 28.37722
#
# Velocity S-wave (km/s) = 3.73849 3.89802 3.81909
# Velocity P-wave (km/s) = 6.92033 7.63481 7.28633
#
# Compressibility (1/GPa) = 0.01756853
#
# Stress axis : x y z
#
# Youngs Moduli (GPa) = 44.48969 82.16868 115.29242
#
# Poissons Ratio (x) = 0.35677 0.58373
# Poissons Ratio (y) = 0.19317 0.40021
# Poissons Ratio (z) = 0.22525 0.28523
#
# Static dielectric constant tensor:
#      x y z
#    x 3.341420 0.000000 0.000000 
#    y 0.000000 4.585520 0.000000 
#    z 0.000000 0.000000 3.748320 
# 
# 
# High freq. dielectric constant tensor:
#      x y z
#    x 1.737560 0.000000 0.000000 
#    y 0.000000 1.759610 0.000000 
#    z 0.000000 0.000000 1.775100 
# 
# From -- ./inp_files/20606.got.cif
#   From: 2010.03.12/outbox.cif.g09.slc.cpg/sg59_11_cif.got.tgz:20606.got - 2010.04.16 16:29:54.
