data_PCOD8243887
_publ_section_title
;
Structure prediction by ZEFSAII (Michael W. Deem and Ramdas Pophale) SiO2 
 PCOD8243887
Probable space group: P M M N
;
_chemical_formula_sum "Si O2"
_cell_formula_units_Z 48
_cell_length_a 9.394875
_cell_length_b 8.827594
_cell_length_c 29.052683
_cell_angle_alpha 90.000000
_cell_angle_beta 90.000000
_cell_angle_gamma 90.000000
_cell_volume 2409.459343
_symmetry_space_group_name_H-M "P M M N"
_symmetry_group_IT_number 59
_space_group.IT_coordinate_system_code '2'
_symmetry_cell_setting 'orthorhombic'
loop_
_space_group_symop_operation_xyz
x,y,z
1/2-x,1/2-y,z
1/2+x,-y,-z
-x,1/2+y,-z
-x,-y,-z
1/2+x,1/2+y,-z
1/2-x,y,z
x,1/2-y,z
loop_
_atom_site_type_symbol
_atom_site_label
_atom_site_fract_x
_atom_site_fract_y
_atom_site_fract_z
Si Si1 0.910961 0.429944 0.284503
Si Si2 0.915805 0.929629 0.457657
Si Si3 0.250000 0.426649 0.933436
Si Si4 0.416432 0.070755 0.373598
Si Si5 0.750000 0.570446 0.964136
Si Si6 0.408471 0.422009 0.199817
Si Si7 0.541493 0.427054 0.895368
O O1 0.750000 0.494756 0.289479
O O2 0.907701 0.250000 0.283570
O O3 0.011092 0.483863 0.326181
O O4 0.980967 0.489749 0.237055
O O5 0.750000 0.982439 0.457563
O O6 0.924573 0.750000 0.461091
O O7 0.000000 0.000000 0.500000
O O8 0.995568 0.985049 0.412364
O O9 0.250000 0.250000 0.943421
O O10 0.379113 0.474471 0.901157
O O11 0.250000 0.500950 0.984336
O O12 0.250000 0.023487 0.374211
O O13 0.431915 0.250000 0.381089
O O14 0.750000 0.750000 0.964287
O O15 0.613405 0.512235 0.937426
O O16 0.250000 0.426723 0.221549
O O17 0.449808 0.250000 0.186759
O O18 0.406382 0.521864 0.154259
O O19 0.572231 0.250000 0.900372
#
# Coordination Sequence:
#
# PCOD8243887 Si02
#       7
#     8   8   4   8   4   8   8
#     4   9  18  33  56  85 115 150 193 239 286 336
#     4  11  24  40  59  86 120 158 202 250 299 351
#     4   9  22  39  57  81 113 147 183 229 282 337
#     4  10  20  36  60  89 120 156 198 242 291 345
#     4  11  21  39  61  83 109 143 187 233 278 333
#     4  10  20  35  55  80 112 147 188 234 280 333
#     4  11  22  38  58  82 113 148 184 227 283 342
#
# _framework density 19.921479999999999
#
# number of rings (size 3 to 8) (size 9 to 14) (size 15 to 20)
#    0.000    1.833    0.833    3.250    1.167    6.333 
#    0.000    4.583    0.000    3.000    0.000    0.000 
#    0.000    0.000    0.000    0.000    0.000    0.000 
#
# Total GULP energy -595093.904207 kJ/mol
# GULP energy per Si atom -12397.789671 kJ/mol
# Density = 1.987614 g / cm^3
# Si number density = 19.921480 Si / 1000 Ang^3
#
#
#
# Elastic Constant Matrix: (Units=GPa)
#
#
# Indices 1 2 3 4 5 6 
#
# 1 170.4826 32.7042 59.0113 0.0000 0.0000 0.0000
# 2 32.7042 54.5598 26.0784 0.0000 0.0000 0.0000
# 3 59.0113 26.0784 120.9774 0.0000 0.0000 0.0000
# 4 0.0000 0.0000 0.0000 19.8177 0.0000 0.0000
# 5 0.0000 0.0000 0.0000 0.0000 45.1861 0.0000
# 6 0.0000 0.0000 0.0000 0.0000 0.0000 26.0961
#
#
#
# Elastic Compliance Matrix: (Units=1/GPa)
#
#
# Indices 1 2 3 4 5 6 
#
# 1 0.007489 -0.003058 -0.002994 0.000000 0.000000 0.000000
# 2 -0.003058 0.021683 -0.003182 0.000000 0.000000 0.000000
# 3 -0.002994 -0.003182 0.010412 0.000000 0.000000 0.000000
# 4 0.000000 0.000000 0.000000 0.050460 0.000000 0.000000
# 5 0.000000 0.000000 0.000000 0.000000 0.022131 0.000000
# 6 0.000000 0.000000 0.000000 0.000000 0.000000 0.038320
#
#
# Mechanical properties :
#
#
# Convention : Reuss Voigt Hill
#
# Bulk Modulus (GPa) = 47.35848 64.62309 55.99078
# Shear Modulus (GPa) = 28.40904 33.43503 30.92204
#
# Velocity S-wave (km/s) = 3.78041 4.10120 3.94407
# Velocity P-wave (km/s) = 6.54824 7.41187 6.99340
#
# Compressibility (1/GPa) = 0.02111554
#
# Stress axis : x y z
#
# Youngs Moduli (GPa) = 133.53755 46.12000 96.04048
#
# Poissons Ratio (x) = 0.14103 0.28751
# Poissons Ratio (y) = 0.40834 0.30564
# Poissons Ratio (z) = 0.39976 0.14677
#
# Static dielectric constant tensor:
#      x y z
#    x 3.969000 0.000000 0.000000 
#    y 0.000000 3.342480 0.000000 
#    z 0.000000 0.000000 3.826240 
# 
# 
# High freq. dielectric constant tensor:
#      x y z
#    x 1.798920 0.000000 0.000000 
#    y 0.000000 1.747990 0.000000 
#    z 0.000000 0.000000 1.788150 
# 
# From -- ./inp_files/33020.got.cif
#   From: 2010.03.12/outbox.cif.g09.slc.cpg/sg59_17_cif.got.tgz:33020.got - 2010.04.16 16:29:54.
