data_PCOD8243128
_publ_section_title
;
Structure prediction by ZEFSAII (Michael W. Deem and Ramdas Pophale) SiO2 
 PCOD8243128
Probable space group: P M M N
;
_chemical_formula_sum "Si O2"
_cell_formula_units_Z 48
_cell_length_a 8.750710
_cell_length_b 25.821559
_cell_length_c 11.925430
_cell_angle_alpha 90.000000
_cell_angle_beta 90.000000
_cell_angle_gamma 90.000000
_cell_volume 2694.634083
_symmetry_space_group_name_H-M "P M M N"
_symmetry_group_IT_number 59
_space_group.IT_coordinate_system_code '2'
_symmetry_cell_setting 'orthorhombic'
loop_
_space_group_symop_operation_xyz
x,y,z
1/2-x,1/2-y,z
1/2+x,-y,-z
-x,1/2+y,-z
-x,-y,-z
1/2+x,1/2+y,-z
1/2-x,y,z
x,1/2-y,z
loop_
_atom_site_type_symbol
_atom_site_label
_atom_site_fract_x
_atom_site_fract_y
_atom_site_fract_z
Si Si1 0.432258 0.427350 0.723893
Si Si2 0.922028 0.117851 0.172626
Si Si3 0.432054 0.619823 0.477758
Si Si4 0.921999 0.465303 0.357917
Si Si5 0.072718 0.309662 0.342692
Si Si6 0.431037 0.554766 0.037652
O O1 0.250000 0.427177 0.733917
O O2 0.491785 0.379955 0.645938
O O3 0.500052 0.479283 0.664153
O O4 0.502517 0.423822 0.846582
O O5 0.750000 0.140265 0.172626
O O6 0.929105 0.064956 0.241704
O O7 0.029869 0.161282 0.227053
O O8 0.975068 0.100833 0.048834
O O9 0.250000 0.619673 0.468609
O O10 0.498630 0.569155 0.544138
O O11 0.480314 0.669889 0.549216
O O12 0.750000 0.475838 0.395621
O O13 0.250000 0.318299 0.366953
O O14 0.030559 0.250000 0.326202
O O15 0.250000 0.547492 0.045156
O O16 0.500000 0.500000 0.000000
#
# Coordination Sequence:
#
# PCOD8243128 Si02
#       6
#     8   8   8   8   8   8
#     4  11  20  32  49  73 108 146 181 216 258 306
#     4   9  18  34  53  76 106 139 180 220 257 309
#     4  10  20  34  51  75 105 138 177 216 261 317
#     4   8  15  29  47  70 102 137 173 212 250 298
#     4  10  21  37  58  83 106 130 168 220 276 325
#     4  11  21  34  51  75 108 147 186 221 258 312
#
# _framework density 17.813179000000002
#
# number of rings (size 3 to 8) (size 9 to 14) (size 15 to 20)
#    0.000    2.167    1.667    3.500    0.000    2.667 
#    0.000    1.667    0.000    1.000    0.000    4.667 
#    0.000    0.000    0.000    0.000    0.000    0.000 
#
# Total GULP energy -594948.398498 kJ/mol
# GULP energy per Si atom -12394.758302 kJ/mol
# Density = 1.777264 g / cm^3
# Si number density = 17.813179 Si / 1000 Ang^3
#
#
#
# Elastic Constant Matrix: (Units=GPa)
#
#
# Indices 1 2 3 4 5 6 
#
# 1 77.6659 37.1936 52.9373 0.0000 0.0000 0.0000
# 2 37.1936 78.8669 52.3250 0.0000 0.0000 0.0000
# 3 52.9373 52.3250 133.6831 0.0000 0.0000 0.0000
# 4 0.0000 0.0000 0.0000 10.6641 0.0000 0.0000
# 5 0.0000 0.0000 0.0000 0.0000 32.0932 0.0000
# 6 0.0000 0.0000 0.0000 0.0000 0.0000 23.5512
#
#
#
# Elastic Compliance Matrix: (Units=1/GPa)
#
#
# Indices 1 2 3 4 5 6 
#
# 1 0.019210 -0.005420 -0.005486 0.000000 0.000000 0.000000
# 2 -0.005420 0.018657 -0.005156 0.000000 0.000000 0.000000
# 3 -0.005486 -0.005156 0.011671 0.000000 0.000000 0.000000
# 4 0.000000 0.000000 0.000000 0.093773 0.000000 0.000000
# 5 0.000000 0.000000 0.000000 0.000000 0.031159 0.000000
# 6 0.000000 0.000000 0.000000 0.000000 0.000000 0.042461
#
#
# Mechanical properties :
#
#
# Convention : Reuss Voigt Hill
#
# Bulk Modulus (GPa) = 57.42485 63.90309 60.66397
# Shear Modulus (GPa) = 19.61872 23.11238 21.36555
#
# Velocity S-wave (km/s) = 3.32227 3.60597 3.46703
# Velocity P-wave (km/s) = 6.85740 7.29995 7.08213
#
# Compressibility (1/GPa) = 0.01741406
#
# Stress axis : x y z
#
# Youngs Moduli (GPa) = 52.05540 53.60053 85.68417
#
# Poissons Ratio (x) = 0.29052 0.47003
# Poissons Ratio (y) = 0.28214 0.44179
# Poissons Ratio (z) = 0.28556 0.27637
#
# Static dielectric constant tensor:
#      x y z
#    x 3.220260 0.000000 0.000000 
#    y 0.000000 3.086450 0.000000 
#    z 0.000000 0.000000 3.471640 
# 
# 
# High freq. dielectric constant tensor:
#      x y z
#    x 1.686930 0.000000 0.000000 
#    y 0.000000 1.655280 0.000000 
#    z 0.000000 0.000000 1.695600 
# 
# From -- ./inp_files/14392.got.cif
#   From: 2010.03.12/outbox.cif.g09.slc.cpg/sg59_8_cif.got.tgz:14392.got - 2010.04.16 16:29:54.
