data_PCOD8243527
_publ_section_title
;
Structure prediction by ZEFSAII (Michael W. Deem and Ramdas Pophale) SiO2 
 PCOD8243527
Probable space group: P M M N
;
_chemical_formula_sum "Si O2"
_cell_formula_units_Z 64
_cell_length_a 20.227923
_cell_length_b 17.427436
_cell_length_c 9.736231
_cell_angle_alpha 90.000000
_cell_angle_beta 90.000000
_cell_angle_gamma 90.000000
_cell_volume 3432.224267
_symmetry_space_group_name_H-M "P M M N"
_symmetry_group_IT_number 59
_space_group.IT_coordinate_system_code '2'
_symmetry_cell_setting 'orthorhombic'
loop_
_space_group_symop_operation_xyz
x,y,z
1/2-x,1/2-y,z
1/2+x,-y,-z
-x,1/2+y,-z
-x,-y,-z
1/2+x,1/2+y,-z
1/2-x,y,z
x,1/2-y,z
loop_
_atom_site_type_symbol
_atom_site_label
_atom_site_fract_x
_atom_site_fract_y
_atom_site_fract_z
Si Si1 0.487898 0.338652 0.934320
Si Si2 0.981595 0.663614 0.550692
Si Si3 0.626119 0.166199 0.784664
Si Si4 0.676688 0.008986 0.440930
Si Si5 0.453329 0.427848 0.202666
Si Si6 0.626719 0.168013 0.466444
Si Si7 0.676583 0.493767 0.761983
Si Si8 0.552947 0.938656 0.297179
O O1 0.466990 0.250000 0.952996
O O2 0.561377 0.346992 0.875559
O O3 0.437344 0.380498 0.830016
O O4 0.486158 0.383275 0.077304
O O5 0.958970 0.750000 0.510825
O O6 0.937426 0.632033 0.675428
O O7 0.977972 0.607364 0.422503
O O8 0.056351 0.661926 0.610068
O O9 0.657849 0.250000 0.821396
O O10 0.605808 0.165048 0.625919
O O11 0.676775 0.096083 0.807107
O O12 0.750000 0.979848 0.401972
O O13 0.675068 0.100925 0.418135
O O14 0.661212 0.993907 0.600591
O O15 0.624911 0.968937 0.340423
O O16 0.382007 0.462686 0.157358
O O17 0.502816 0.493678 0.256028
O O18 0.661142 0.250000 0.432411
O O19 0.750000 0.525542 0.798248
#
# Coordination Sequence:
#
# PCOD8243527 Si02
#       8
#     8   8   8   8   8   8   8   8
#     4  11  23  38  58  86 117 146 188 242 295 344
#     4  11  20  33  57  86 113 144 187 237 291 341
#     4   9  17  31  53  82 115 148 183 223 280 347
#     4  10  20  34  54  84 117 152 192 239 287 340
#     4  12  22  36  59  87 118 149 192 241 292 338
#     4   9  16  29  51  83 117 149 180 222 284 350
#     4  10  20  34  55  84 118 152 189 237 288 343
#     4  12  20  36  61  84 113 149 191 243 289 335
#
# _framework density 18.646799999999999
#
# number of rings (size 3 to 8) (size 9 to 14) (size 15 to 20)
#    0.000    1.500    5.000    2.250    0.000    0.500 
#    0.000    3.125    0.000    4.500    0.000    0.000 
#    0.000    0.000    0.000    0.000    0.000    0.000 
#
# Total GULP energy -793167.758125 kJ/mol
# GULP energy per Si atom -12393.246221 kJ/mol
# Density = 1.860436 g / cm^3
# Si number density = 18.646800 Si / 1000 Ang^3
#
#
#
# Elastic Constant Matrix: (Units=GPa)
#
#
# Indices 1 2 3 4 5 6 
#
# 1 92.4383 43.4912 19.0777 0.0000 0.0000 0.0000
# 2 43.4912 102.5491 49.6786 0.0000 0.0000 0.0000
# 3 19.0777 49.6786 77.6529 0.0000 0.0000 0.0000
# 4 0.0000 0.0000 0.0000 30.0394 0.0000 0.0000
# 5 0.0000 0.0000 0.0000 0.0000 12.5035 0.0000
# 6 0.0000 0.0000 0.0000 0.0000 0.0000 18.3872
#
#
#
# Elastic Compliance Matrix: (Units=1/GPa)
#
#
# Indices 1 2 3 4 5 6 
#
# 1 0.013528 -0.005981 0.000503 0.000000 0.000000 0.000000
# 2 -0.005981 0.016775 -0.009262 0.000000 0.000000 0.000000
# 3 0.000503 -0.009262 0.018680 0.000000 0.000000 0.000000
# 4 0.000000 0.000000 0.000000 0.033290 0.000000 0.000000
# 5 0.000000 0.000000 0.000000 0.000000 0.079978 0.000000
# 6 0.000000 0.000000 0.000000 0.000000 0.000000 0.054386
#
#
# Mechanical properties :
#
#
# Convention : Reuss Voigt Hill
#
# Bulk Modulus (GPa) = 51.27703 55.23725 53.25714
# Shear Modulus (GPa) = 19.79272 22.87887 21.33579
#
# Velocity S-wave (km/s) = 3.26153 3.50660 3.38628
# Velocity P-wave (km/s) = 6.46082 6.78839 6.62663
#
# Compressibility (1/GPa) = 0.01950191
#
# Stress axis : x y z
#
# Youngs Moduli (GPa) = 73.91969 59.61263 53.53319
#
# Poissons Ratio (x) = 0.35653 -0.02691
# Poissons Ratio (y) = 0.44210 0.49585
# Poissons Ratio (z) = -0.03716 0.55216
#
# Static dielectric constant tensor:
#      x y z
#    x 3.149490 0.000000 0.000000 
#    y 0.000000 3.781280 0.000000 
#    z 0.000000 0.000000 3.245490 
# 
# 
# High freq. dielectric constant tensor:
#      x y z
#    x 1.696600 0.000000 0.000000 
#    y 0.000000 1.736570 0.000000 
#    z 0.000000 0.000000 1.695880 
# 
# From -- ./inp_files/11603.got.cif
#   From: 2010.03.12/outbox.cif.g09.slc.cpg/sg59_6_cif.got.tgz:11603.got - 2010.04.16 16:29:54.
