data_PCOD8243663
_publ_section_title
;
Structure prediction by ZEFSAII (Michael W. Deem and Ramdas Pophale) SiO2 
 PCOD8243663
Probable space group: P M M N
;
_chemical_formula_sum "Si O2"
_cell_formula_units_Z 56
_cell_length_a 19.604799
_cell_length_b 8.902855
_cell_length_c 17.077730
_cell_angle_alpha 90.000000
_cell_angle_beta 90.000000
_cell_angle_gamma 90.000000
_cell_volume 2980.724499
_symmetry_space_group_name_H-M "P M M N"
_symmetry_group_IT_number 59
_space_group.IT_coordinate_system_code '2'
_symmetry_cell_setting 'orthorhombic'
loop_
_space_group_symop_operation_xyz
x,y,z
1/2-x,1/2-y,z
1/2+x,-y,-z
-x,1/2+y,-z
-x,-y,-z
1/2+x,1/2+y,-z
1/2-x,y,z
x,1/2-y,z
loop_
_atom_site_type_symbol
_atom_site_label
_atom_site_fract_x
_atom_site_fract_y
_atom_site_fract_z
Si Si1 0.911618 0.923350 0.945696
Si Si2 0.454486 0.423509 0.885756
Si Si3 0.060175 0.573663 0.725392
Si Si4 0.172500 0.423594 0.442212
Si Si5 0.827135 0.423684 0.827589
Si Si6 0.919560 0.073045 0.682982
Si Si7 0.328504 0.078218 0.624078
O O1 0.927470 0.750000 0.927457
O O2 0.841885 0.977230 0.905051
O O3 0.905769 0.949503 0.039047
O O4 0.969880 0.025006 0.907463
O O5 0.458096 0.250000 0.861107
O O6 0.425502 0.516550 0.813259
O O7 0.049513 0.750000 0.727191
O O8 0.125567 0.533897 0.673829
O O9 0.993526 0.500599 0.687109
O O10 0.250000 0.473187 0.422478
O O11 0.162193 0.250000 0.420065
O O12 0.119047 0.523340 0.395133
O O13 0.157165 0.450882 0.533068
O O14 0.750000 0.453998 0.800953
O O15 0.839121 0.250000 0.847965
O O16 0.875632 0.478780 0.757655
O O17 0.929028 0.250000 0.680735
O O18 0.250000 0.043976 0.644124
O O19 0.346358 0.250000 0.645690
#
# Coordination Sequence:
#
# PCOD8243663 Si02
#       7
#     8   8   8   8   8   8   8
#     4  10  20  34  56  83 108 143 189 232 278 332
#     4  10  20  36  57  81 111 146 185 230 280 336
#     4  12  24  37  58  88 117 147 189 239 289 337
#     4   9  19  37  60  85 114 150 192 236 283 339
#     4  10  21  36  54  79 115 157 195 234 283 337
#     4  11  22  36  56  83 116 155 195 233 282 340
#     4   9  20  41  65  85 110 148 189 232 290 350
#
# _framework density 18.787379000000001
#
# number of rings (size 3 to 8) (size 9 to 14) (size 15 to 20)
#    0.000    1.857    1.429    3.857    0.000    4.857 
#    0.000    2.143    0.000    0.857    0.000    0.000 
#    0.000    0.000    0.000    0.000    0.000    0.000 
#
# Total GULP energy -694576.308918 kJ/mol
# GULP energy per Si atom -12403.148374 kJ/mol
# Density = 1.874462 g / cm^3
# Si number density = 18.787379 Si / 1000 Ang^3
#
#
#
# Elastic Constant Matrix: (Units=GPa)
#
#
# Indices 1 2 3 4 5 6 
#
# 1 94.2774 46.7589 57.2215 0.0000 0.0000 0.0000
# 2 46.7589 95.8904 56.0850 0.0000 0.0000 0.0000
# 3 57.2215 56.0850 104.1285 0.0000 0.0000 0.0000
# 4 0.0000 0.0000 0.0000 34.1198 0.0000 0.0000
# 5 0.0000 0.0000 0.0000 0.0000 27.5486 0.0000
# 6 0.0000 0.0000 0.0000 0.0000 0.0000 30.7935
#
#
#
# Elastic Compliance Matrix: (Units=1/GPa)
#
#
# Indices 1 2 3 4 5 6 
#
# 1 0.016959 -0.004115 -0.007103 0.000000 0.000000 0.000000
# 2 -0.004115 0.016223 -0.006477 0.000000 0.000000 0.000000
# 3 -0.007103 -0.006477 0.016995 0.000000 0.000000 0.000000
# 4 0.000000 0.000000 0.000000 0.029309 0.000000 0.000000
# 5 0.000000 0.000000 0.000000 0.000000 0.036299 0.000000
# 6 0.000000 0.000000 0.000000 0.000000 0.000000 0.032474
#
#
# Mechanical properties :
#
#
# Convention : Reuss Voigt Hill
#
# Bulk Modulus (GPa) = 67.62286 68.26966 67.94626
# Shear Modulus (GPa) = 26.51401 27.44111 26.97756
#
# Velocity S-wave (km/s) = 3.76076 3.82594 3.79349
# Velocity P-wave (km/s) = 7.41145 7.47891 7.44526
#
# Compressibility (1/GPa) = 0.01478790
#
# Stress axis : x y z
#
# Youngs Moduli (GPa) = 58.96492 61.63916 58.84014
#
# Poissons Ratio (x) = 0.25367 0.41794
# Poissons Ratio (y) = 0.24266 0.38109
# Poissons Ratio (z) = 0.41883 0.39922
#
# Static dielectric constant tensor:
#      x y z
#    x 3.309310 0.000000 0.000000 
#    y 0.000000 3.426180 0.000000 
#    z 0.000000 0.000000 3.549930 
# 
# 
# High freq. dielectric constant tensor:
#      x y z
#    x 1.717810 0.000000 0.000000 
#    y 0.000000 1.734070 0.000000 
#    z 0.000000 0.000000 1.734930 
# 
# From -- ./inp_files/24293.got.cif
#   From: 2010.03.12/outbox.cif.g09.slc.cpg/sg59_13_cif.got.tgz:24293.got - 2010.04.16 16:29:54.
