data_PCOD8243438
_publ_section_title
;
Structure prediction by ZEFSAII (Michael W. Deem and Ramdas Pophale) SiO2 
 PCOD8243438
Probable space group: P M M N
;
_chemical_formula_sum "Si O2"
_cell_formula_units_Z 48
_cell_length_a 9.173325
_cell_length_b 9.012759
_cell_length_c 30.910774
_cell_angle_alpha 90.000000
_cell_angle_beta 90.000000
_cell_angle_gamma 90.000000
_cell_volume 2555.609056
_symmetry_space_group_name_H-M "P M M N"
_symmetry_group_IT_number 59
_space_group.IT_coordinate_system_code '2'
_symmetry_cell_setting 'orthorhombic'
loop_
_space_group_symop_operation_xyz
x,y,z
1/2-x,1/2-y,z
1/2+x,-y,-z
-x,1/2+y,-z
-x,-y,-z
1/2+x,1/2+y,-z
1/2-x,y,z
x,1/2-y,z
loop_
_atom_site_type_symbol
_atom_site_label
_atom_site_fract_x
_atom_site_fract_y
_atom_site_fract_z
Si Si1 0.414396 0.073646 0.289603
Si Si2 0.921125 0.422158 0.204460
Si Si3 0.920941 0.579509 0.961003
Si Si4 0.080972 0.923080 0.626339
Si Si5 0.582429 0.424198 0.872692
Si Si6 0.420908 0.078765 0.539083
O O1 0.250000 0.011740 0.287418
O O2 0.416705 0.250000 0.290542
O O3 0.502323 0.017250 0.247853
O O4 0.491306 0.013506 0.332932
O O5 0.750000 0.447034 0.209642
O O6 0.959219 0.250000 0.196247
O O7 0.979653 0.518266 0.165081
O O8 0.750000 0.562429 0.968495
O O9 0.969833 0.750000 0.959076
O O10 0.969250 0.502533 0.916568
O O11 0.000000 0.500000 0.000000
O O12 0.250000 0.954616 0.635691
O O13 0.051222 0.750000 0.618744
O O14 0.025072 0.008500 0.584044
O O15 0.750000 0.464725 0.861916
O O16 0.560827 0.250000 0.878581
O O17 0.250000 0.053176 0.533284
O O18 0.464152 0.250000 0.539123
O O19 0.500000 0.000000 0.500000
#
# Coordination Sequence:
#
# PCOD8243438 Si02
#       6
#     8   8   8   8   8   8
#     4   9  17  30  51  78 105 135 174 219 264 311
#     4  10  20  34  54  80 108 140 179 220 262 311
#     4  10  21  37  58  83 110 142 179 219 265 316
#     4   9  17  31  51  74 102 136 173 215 264 316
#     4  10  21  37  56  78 106 141 180 222 268 316
#     4  10  21  36  54  77 105 138 176 217 262 313
#
# _framework density 18.782215000000001
#
# number of rings (size 3 to 8) (size 9 to 14) (size 15 to 20)
#    0.000    2.333    0.000    2.500    0.000    7.333 
#    0.000    2.500    0.000    3.000    0.000    0.000 
#    0.000    0.000    0.000    0.000    0.000    0.000 
#
# Total GULP energy -595366.998386 kJ/mol
# GULP energy per Si atom -12403.479133 kJ/mol
# Density = 1.873947 g / cm^3
# Si number density = 18.782215 Si / 1000 Ang^3
#
#
#
# Elastic Constant Matrix: (Units=GPa)
#
#
# Indices 1 2 3 4 5 6 
#
# 1 84.3516 45.2706 78.9085 0.0000 0.0000 0.0000
# 2 45.2706 89.0992 74.7432 0.0000 0.0000 0.0000
# 3 78.9085 74.7432 193.0566 0.0000 0.0000 0.0000
# 4 0.0000 0.0000 0.0000 33.1824 0.0000 0.0000
# 5 0.0000 0.0000 0.0000 0.0000 43.1445 0.0000
# 6 0.0000 0.0000 0.0000 0.0000 0.0000 24.9639
#
#
#
# Elastic Compliance Matrix: (Units=1/GPa)
#
#
# Indices 1 2 3 4 5 6 
#
# 1 0.020620 -0.005045 -0.006475 0.000000 0.000000 0.000000
# 2 -0.005045 0.017856 -0.004851 0.000000 0.000000 0.000000
# 3 -0.006475 -0.004851 0.009704 0.000000 0.000000 0.000000
# 4 0.000000 0.000000 0.000000 0.030136 0.000000 0.000000
# 5 0.000000 0.000000 0.000000 0.000000 0.023178 0.000000
# 6 0.000000 0.000000 0.000000 0.000000 0.000000 0.040058
#
#
# Mechanical properties :
#
#
# Convention : Reuss Voigt Hill
#
# Bulk Modulus (GPa) = 64.77329 84.92802 74.85065
# Shear Modulus (GPa) = 27.86437 31.43051 29.64744
#
# Velocity S-wave (km/s) = 3.85587 4.09518 3.97733
# Velocity P-wave (km/s) = 7.37462 8.22655 7.81220
#
# Compressibility (1/GPa) = 0.01543846
#
# Stress axis : x y z
#
# Youngs Moduli (GPa) = 48.49726 56.00252 103.04689
#
# Poissons Ratio (x) = 0.28255 0.66719
# Poissons Ratio (y) = 0.24468 0.49988
# Poissons Ratio (z) = 0.31400 0.27167
#
# Static dielectric constant tensor:
#      x y z
#    x 3.440570 0.000000 0.000000 
#    y 0.000000 3.247090 0.000000 
#    z 0.000000 0.000000 3.823500 
# 
# 
# High freq. dielectric constant tensor:
#      x y z
#    x 1.727390 0.000000 0.000000 
#    y 0.000000 1.714570 0.000000 
#    z 0.000000 0.000000 1.745750 
# 
# From -- ./inp_files/32788.got.cif
#   From: 2010.03.12/outbox.cif.g09.slc.cpg/sg59_17_cif.got.tgz:32788.got - 2010.04.16 16:29:54.
