data_PCOD8243857
_publ_section_title
;
Structure prediction by ZEFSAII (Michael W. Deem and Ramdas Pophale) SiO2 
 PCOD8243857
Probable space group: P M M N
;
_chemical_formula_sum "Si O2"
_cell_formula_units_Z 64
_cell_length_a 29.690674
_cell_length_b 9.407812
_cell_length_c 12.406421
_cell_angle_alpha 90.000000
_cell_angle_beta 90.000000
_cell_angle_gamma 90.000000
_cell_volume 3465.414603
_symmetry_space_group_name_H-M "P M M N"
_symmetry_group_IT_number 59
_space_group.IT_coordinate_system_code '2'
_symmetry_cell_setting 'orthorhombic'
loop_
_space_group_symop_operation_xyz
x,y,z
1/2-x,1/2-y,z
1/2+x,-y,-z
-x,1/2+y,-z
-x,-y,-z
1/2+x,1/2+y,-z
1/2-x,y,z
x,1/2-y,z
loop_
_atom_site_type_symbol
_atom_site_label
_atom_site_fract_x
_atom_site_fract_y
_atom_site_fract_z
Si Si1 0.886829 0.418506 0.875094
Si Si2 0.797884 0.915139 0.394558
Si Si3 0.564658 0.914398 0.690385
Si Si4 0.300110 0.414386 0.074258
Si Si5 0.092414 0.588149 0.887635
Si Si6 0.462089 0.586862 0.688135
Si Si7 0.394203 0.083686 0.539044
Si Si8 0.674474 0.589162 0.162369
O O1 0.883067 0.250000 0.859185
O O2 0.917333 0.483918 0.782856
O O3 0.836719 0.485402 0.868515
O O4 0.911337 0.461894 0.987888
O O5 0.750000 0.979175 0.440032
O O6 0.798868 0.750000 0.423685
O O7 0.843724 0.981665 0.443896
O O8 0.794858 0.939198 0.265957
O O9 0.567821 0.750000 0.727058
O O10 0.513298 0.957850 0.666037
O O11 0.593720 0.943472 0.584480
O O12 0.250000 0.448117 0.119567
O O13 0.312744 0.250000 0.096934
O O14 0.298567 0.446629 0.946477
O O15 0.108149 0.750000 0.888772
O O16 0.047173 0.565923 0.817035
O O17 0.130380 0.504467 0.823843
O O18 0.453697 0.750000 0.654944
O O19 0.429854 0.491607 0.615830
O O20 0.395520 0.250000 0.568848
O O21 0.657128 0.750000 0.159981
#
# Coordination Sequence:
#
# PCOD8243857 Si02
#       8
#     8   8   8   8   8   8   8   8
#     4  10  21  36  53  75 105 140 178 221 265 315
#     4   9  16  27  47  76 106 133 163 204 255 306
#     4  10  22  38  54  75 104 140 182 226 268 316
#     4   9  17  30  51  78 105 136 175 216 259 312
#     4   9  18  32  50  75 107 137 166 208 264 319
#     4  10  20  35  56  79 106 138 171 217 277 328
#     4  10  20  35  55  79 106 135 175 221 262 313
#     4   9  15  26  47  75 105 135 166 204 251 307
#
# _framework density 18.468209000000002
#
# number of rings (size 3 to 8) (size 9 to 14) (size 15 to 20)
#    0.000    2.500    1.250    1.125    0.000    3.750 
#    0.000    0.625    0.000    4.500    0.000    0.000 
#    0.000    0.000    0.000    0.000    0.000    0.000 
#
# Total GULP energy -793181.463511 kJ/mol
# GULP energy per Si atom -12393.460367 kJ/mol
# Density = 1.842617 g / cm^3
# Si number density = 18.468209 Si / 1000 Ang^3
#
#
#
# Elastic Constant Matrix: (Units=GPa)
#
#
# Indices 1 2 3 4 5 6 
#
# 1 138.7389 43.7708 49.6244 0.0000 0.0000 0.0000
# 2 43.7708 54.9781 33.9882 0.0000 0.0000 0.0000
# 3 49.6244 33.9882 65.2770 0.0000 0.0000 0.0000
# 4 0.0000 0.0000 0.0000 21.7423 0.0000 0.0000
# 5 0.0000 0.0000 0.0000 0.0000 14.6098 0.0000
# 6 0.0000 0.0000 0.0000 0.0000 0.0000 25.7083
#
#
#
# Elastic Compliance Matrix: (Units=1/GPa)
#
#
# Indices 1 2 3 4 5 6 
#
# 1 0.010824 -0.005206 -0.005518 0.000000 0.000000 0.000000
# 2 -0.005206 0.029327 -0.011312 0.000000 0.000000 0.000000
# 3 -0.005518 -0.011312 0.025404 0.000000 0.000000 0.000000
# 4 0.000000 0.000000 0.000000 0.045993 0.000000 0.000000
# 5 0.000000 0.000000 0.000000 0.000000 0.068447 0.000000
# 6 0.000000 0.000000 0.000000 0.000000 0.000000 0.038898
#
#
# Mechanical properties :
#
#
# Convention : Reuss Voigt Hill
#
# Bulk Modulus (GPa) = 46.54867 57.08455 51.81661
# Shear Modulus (GPa) = 18.50982 21.18612 19.84797
#
# Velocity S-wave (km/s) = 3.16927 3.39066 3.28183
# Velocity P-wave (km/s) = 6.21706 6.80481 6.51757
#
# Compressibility (1/GPa) = 0.02148289
#
# Stress axis : x y z
#
# Youngs Moduli (GPa) = 92.38809 34.09774 39.36408
#
# Poissons Ratio (x) = 0.17753 0.21720
# Poissons Ratio (y) = 0.48101 0.44529
# Poissons Ratio (z) = 0.50976 0.38572
#
# Static dielectric constant tensor:
#      x y z
#    x 3.683110 0.000000 0.000000 
#    y 0.000000 3.274850 0.000000 
#    z 0.000000 0.000000 3.323220 
# 
# 
# High freq. dielectric constant tensor:
#      x y z
#    x 1.720980 0.000000 0.000000 
#    y 0.000000 1.696200 0.000000 
#    z 0.000000 0.000000 1.704380 
# 
# From -- ./inp_files/19219.got.cif
#   From: 2010.03.12/outbox.cif.g09.slc.cpg/sg59_10_cif.got.tgz:19219.got - 2010.04.16 16:29:54.
