data_PCOD8243600
_publ_section_title
;
Structure prediction by ZEFSAII (Michael W. Deem and Ramdas Pophale) SiO2 
 PCOD8243600
Probable space group: P M M N
;
_chemical_formula_sum "Si O2"
_cell_formula_units_Z 64
_cell_length_a 9.080381
_cell_length_b 14.493272
_cell_length_c 24.571135
_cell_angle_alpha 90.000000
_cell_angle_beta 90.000000
_cell_angle_gamma 90.000000
_cell_volume 3233.670258
_symmetry_space_group_name_H-M "P M M N"
_symmetry_group_IT_number 59
_space_group.IT_coordinate_system_code '2'
_symmetry_cell_setting 'orthorhombic'
loop_
_space_group_symop_operation_xyz
x,y,z
1/2-x,1/2-y,z
1/2+x,-y,-z
-x,1/2+y,-z
-x,-y,-z
1/2+x,1/2+y,-z
1/2-x,y,z
x,1/2-y,z
loop_
_atom_site_type_symbol
_atom_site_label
_atom_site_fract_x
_atom_site_fract_y
_atom_site_fract_z
Si Si1 0.580813 0.451994 0.739103
Si Si2 0.075257 0.851029 0.582719
Si Si3 0.422757 0.505995 0.057579
Si Si4 0.915326 0.353050 0.116830
Si Si5 0.415825 0.642374 0.460760
Si Si6 0.923425 0.962114 0.367762
Si Si7 0.574929 0.355209 0.849746
Si Si8 0.914815 0.849931 0.775698
O O1 0.750000 0.422809 0.732464
O O2 0.493566 0.416759 0.686412
O O3 0.517367 0.406651 0.794928
O O4 0.559080 0.562752 0.737244
O O5 0.250000 0.844978 0.580790
O O6 0.012397 0.750000 0.600714
O O7 0.022775 0.875981 0.521593
O O8 0.024189 0.931178 0.624108
O O9 0.250000 0.514865 0.048083
O O10 0.461572 0.410667 0.086119
O O11 0.480120 0.590079 0.096270
O O12 0.500000 0.500000 0.000000
O O13 0.750000 0.394240 0.110527
O O14 0.918949 0.250000 0.092540
O O15 0.958399 0.352314 0.179614
O O16 0.250000 0.602632 0.453341
O O17 0.414808 0.750000 0.447989
O O18 0.527801 0.594711 0.419901
O O19 0.750000 0.955248 0.361629
O O20 0.750000 0.356717 0.849130
O O21 0.515024 0.250000 0.851569
O O22 0.750000 0.859219 0.801700
O O23 0.927096 0.750000 0.745005
#
# Coordination Sequence:
#
# PCOD8243600 Si02
#       8
#     8   8   8   8   8   8   8   8
#     4  10  20  36  55  78 108 148 193 229 271 331
#     4   8  16  33  55  78 107 145 186 225 274 339
#     4  11  22  38  60  88 117 148 185 232 287 338
#     4  10  20  34  55  83 113 145 181 223 273 332
#     4   9  18  35  58  78 100 140 190 233 276 335
#     4  11  22  33  51  82 115 145 179 231 288 329
#     4   9  19  38  62  83 106 144 192 233 271 321
#     4   9  17  32  55  80 105 136 178 228 278 326
#
# _framework density 19.791751000000001
#
# number of rings (size 3 to 8) (size 9 to 14) (size 15 to 20)
#    0.000    2.375    1.250    2.250    0.000    3.000 
#    0.000    3.125    0.000    5.250    0.000    0.000 
#    0.000    0.000    0.000    0.000    0.000    0.000 
#
# Total GULP energy -793133.424628 kJ/mol
# GULP energy per Si atom -12392.709760 kJ/mol
# Density = 1.974670 g / cm^3
# Si number density = 19.791751 Si / 1000 Ang^3
#
#
#
# Elastic Constant Matrix: (Units=GPa)
#
#
# Indices 1 2 3 4 5 6 
#
# 1 51.9031 28.9866 33.8776 0.0000 0.0000 0.0000
# 2 28.9866 86.8141 43.8512 0.0000 0.0000 0.0000
# 3 33.8776 43.8512 110.2098 0.0000 0.0000 0.0000
# 4 0.0000 0.0000 0.0000 14.1910 0.0000 0.0000
# 5 0.0000 0.0000 0.0000 0.0000 26.4459 0.0000
# 6 0.0000 0.0000 0.0000 0.0000 0.0000 23.1974
#
#
#
# Elastic Compliance Matrix: (Units=1/GPa)
#
#
# Indices 1 2 3 4 5 6 
#
# 1 0.026300 -0.005879 -0.005745 0.000000 0.000000 0.000000
# 2 -0.005879 0.015731 -0.004452 0.000000 0.000000 0.000000
# 3 -0.005745 -0.004452 0.012611 0.000000 0.000000 0.000000
# 4 0.000000 0.000000 0.000000 0.070467 0.000000 0.000000
# 5 0.000000 0.000000 0.000000 0.000000 0.037813 0.000000
# 6 0.000000 0.000000 0.000000 0.000000 0.000000 0.043108
#
#
# Mechanical properties :
#
#
# Convention : Reuss Voigt Hill
#
# Bulk Modulus (GPa) = 44.46610 51.37308 47.91959
# Shear Modulus (GPa) = 20.35177 22.24764 21.29970
#
# Velocity S-wave (km/s) = 3.21018 3.35638 3.28409
# Velocity P-wave (km/s) = 6.02131 6.40574 6.21650
#
# Compressibility (1/GPa) = 0.02248904
#
# Stress axis : x y z
#
# Youngs Moduli (GPa) = 38.02280 63.57033 79.29670
#
# Poissons Ratio (x) = 0.37376 0.45556
# Poissons Ratio (y) = 0.22355 0.35301
# Poissons Ratio (z) = 0.21844 0.28300
#
# Static dielectric constant tensor:
#      x y z
#    x 3.353690 0.000000 0.000000 
#    y 0.000000 4.413190 0.000000 
#    z 0.000000 0.000000 4.005810 
# 
# 
# High freq. dielectric constant tensor:
#      x y z
#    x 1.745540 0.000000 0.000000 
#    y 0.000000 1.777110 0.000000 
#    z 0.000000 0.000000 1.761270 
# 
# From -- ./inp_files/31677.got.cif
#   From: 2010.03.12/outbox.cif.g09.slc.cpg/sg59_16_cif.got.tgz:31677.got - 2010.04.16 16:29:54.
