data_PCOD8243503
_publ_section_title
;
Structure prediction by ZEFSAII (Michael W. Deem and Ramdas Pophale) SiO2 
 PCOD8243503
Probable space group: P M M N
;
_chemical_formula_sum "Si O2"
_cell_formula_units_Z 40
_cell_length_a 24.993607
_cell_length_b 9.130018
_cell_length_c 9.176063
_cell_angle_alpha 90.000000
_cell_angle_beta 90.000000
_cell_angle_gamma 90.000000
_cell_volume 2093.904919
_symmetry_space_group_name_H-M "P M M N"
_symmetry_group_IT_number 59
_space_group.IT_coordinate_system_code '2'
_symmetry_cell_setting 'orthorhombic'
loop_
_space_group_symop_operation_xyz
x,y,z
1/2-x,1/2-y,z
1/2+x,-y,-z
-x,1/2+y,-z
-x,-y,-z
1/2+x,1/2+y,-z
1/2-x,y,z
x,1/2-y,z
loop_
_atom_site_type_symbol
_atom_site_label
_atom_site_fract_x
_atom_site_fract_y
_atom_site_fract_z
Si Si1 0.940154 0.582402 0.864287
Si Si2 0.250000 0.420370 0.855259
Si Si3 0.352685 0.079459 0.663983
Si Si4 0.750000 0.076272 0.838980
Si Si5 0.841882 0.581085 0.667980
Si Si6 0.061809 0.578582 0.845794
O O1 0.938601 0.750000 0.917922
O O2 0.901874 0.556714 0.726803
O O3 0.999908 0.538094 0.816165
O O4 0.919625 0.485402 0.998887
O O5 0.250000 0.250000 0.900086
O O6 0.198173 0.460817 0.761455
O O7 0.250000 0.518977 0.997132
O O8 0.366682 0.250000 0.672113
O O9 0.339884 0.032200 0.499373
O O10 0.404239 0.991140 0.716350
O O11 0.750000 0.250000 0.840998
O O12 0.697550 0.020601 0.757685
O O13 0.823943 0.750000 0.685982
O O14 0.072346 0.750000 0.847857
#
# Coordination Sequence:
#
# PCOD8243503 Si02
#       6
#     8   4   8   4   8   8
#     4   9  19  36  57  80 108 146 189 227 265 318
#     4  10  21  38  58  78 104 140 181 220 262 320
#     4  10  21  37  58  82 107 141 184 225 267 321
#     4  12  25  38  56  84 112 138 175 224 276 322
#     4  10  21  39  60  80 107 145 186 223 264 322
#     4  10  20  34  54  82 114 145 180 226 276 321
#
# _framework density 19.103062999999999
#
# number of rings (size 3 to 8) (size 9 to 14) (size 15 to 20)
#    0.000    2.000    0.000    3.300    0.000   10.400 
#    0.000    1.000    0.000    0.000    0.000    0.000 
#    0.000    0.000    0.000    0.000    0.000    0.000 
#
# Total GULP energy -496205.254026 kJ/mol
# GULP energy per Si atom -12405.131351 kJ/mol
# Density = 1.905958 g / cm^3
# Si number density = 19.103063 Si / 1000 Ang^3
#
#
#
# Elastic Constant Matrix: (Units=GPa)
#
#
# Indices 1 2 3 4 5 6 
#
# 1 107.4133 55.4414 72.5240 0.0000 0.0000 0.0000
# 2 55.4414 90.5492 74.7963 0.0000 0.0000 0.0000
# 3 72.5240 74.7963 160.1870 0.0000 0.0000 0.0000
# 4 0.0000 0.0000 0.0000 21.3588 0.0000 0.0000
# 5 0.0000 0.0000 0.0000 0.0000 26.5722 0.0000
# 6 0.0000 0.0000 0.0000 0.0000 0.0000 32.3339
#
#
#
# Elastic Compliance Matrix: (Units=1/GPa)
#
#
# Indices 1 2 3 4 5 6 
#
# 1 0.015104 -0.005859 -0.004102 0.000000 0.000000 0.000000
# 2 -0.005859 0.020250 -0.006803 0.000000 0.000000 0.000000
# 3 -0.004102 -0.006803 0.011277 0.000000 0.000000 0.000000
# 4 0.000000 0.000000 0.000000 0.046819 0.000000 0.000000
# 5 0.000000 0.000000 0.000000 0.000000 0.037633 0.000000
# 6 0.000000 0.000000 0.000000 0.000000 0.000000 0.030927
#
#
# Mechanical properties :
#
#
# Convention : Reuss Voigt Hill
#
# Bulk Modulus (GPa) = 76.32360 84.85254 80.58807
# Shear Modulus (GPa) = 25.01166 26.41219 25.71192
#
# Velocity S-wave (km/s) = 3.62235 3.72239 3.67271
# Velocity P-wave (km/s) = 7.58522 7.93660 7.76290
#
# Compressibility (1/GPa) = 0.01310211
#
# Stress axis : x y z
#
# Youngs Moduli (GPa) = 66.20806 49.38152 88.67943
#
# Poissons Ratio (x) = 0.28933 0.36380
# Poissons Ratio (y) = 0.38792 0.60328
# Poissons Ratio (z) = 0.27162 0.33594
#
# Static dielectric constant tensor:
#      x y z
#    x 3.618590 0.000000 0.000000 
#    y 0.000000 3.437120 0.000000 
#    z 0.000000 0.000000 3.528820 
# 
# 
# High freq. dielectric constant tensor:
#      x y z
#    x 1.755030 0.000000 0.000000 
#    y 0.000000 1.735900 0.000000 
#    z 0.000000 0.000000 1.745320 
# 
# From -- ./inp_files/12418.got.cif
#   From: 2010.03.12/outbox.cif.g09.slc.cpg/sg59_7_cif.got.tgz:12418.got - 2010.04.16 16:29:54.
