data_PCOD8243160
_publ_section_title
;
Structure prediction by ZEFSAII (Michael W. Deem and Ramdas Pophale) SiO2 
 PCOD8243160
Probable space group: P M M N
;
_chemical_formula_sum "Si O2"
_cell_formula_units_Z 56
_cell_length_a 8.942324
_cell_length_b 19.118272
_cell_length_c 17.046516
_cell_angle_alpha 90.000000
_cell_angle_beta 90.000000
_cell_angle_gamma 90.000000
_cell_volume 2914.302762
_symmetry_space_group_name_H-M "P M M N"
_symmetry_group_IT_number 59
_space_group.IT_coordinate_system_code '2'
_symmetry_cell_setting 'orthorhombic'
loop_
_space_group_symop_operation_xyz
x,y,z
1/2-x,1/2-y,z
1/2+x,-y,-z
-x,1/2+y,-z
-x,-y,-z
1/2+x,1/2+y,-z
1/2-x,y,z
x,1/2-y,z
loop_
_atom_site_type_symbol
_atom_site_label
_atom_site_fract_x
_atom_site_fract_y
_atom_site_fract_z
Si Si1 0.073928 0.331265 0.149756
Si Si2 0.085034 0.460723 0.788612
Si Si3 0.924940 0.329065 0.768211
Si Si4 0.926632 0.325566 0.591760
Si Si5 0.925684 0.576223 0.700794
Si Si6 0.071648 0.568188 0.536120
Si Si7 0.915621 0.051521 0.058660
O O1 0.250000 0.336363 0.136457
O O2 0.020248 0.250000 0.147910
O O3 0.031523 0.364949 0.234355
O O4 0.999192 0.375023 0.078135
O O5 0.250000 0.449003 0.751603
O O6 0.100530 0.510043 0.861963
O O7 0.015175 0.386676 0.818078
O O8 0.975716 0.498664 0.726984
O O9 0.750000 0.336053 0.785107
O O10 0.977156 0.250000 0.788367
O O11 0.968408 0.350052 0.679266
O O12 0.750000 0.320253 0.586608
O O13 0.999181 0.250000 0.576734
O O14 0.989060 0.374868 0.524836
O O15 0.750000 0.574692 0.684669
O O16 0.011612 0.592389 0.620504
O O17 0.250000 0.561367 0.539277
O O18 0.000000 0.500000 0.500000
O O19 0.750000 0.068930 0.025033
O O20 0.000000 0.000000 0.000000
#
# Coordination Sequence:
#
# PCOD8243160 Si02
#       7
#     8   8   8   8   8   8   8
#     4   9  19  37  60  84 111 145 183 224 273 327
#     4  10  20  34  53  77 103 131 169 213 254 302
#     4   9  17  31  52  75  99 131 171 212 256 308
#     4   8  16  31  48  66  91 126 166 206 251 301
#     4  10  20  34  52  74 103 139 176 217 267 321
#     4  11  21  32  49  73 101 134 175 223 272 321
#     4  10  21  37  58  84 112 143 177 215 262 317
#
# _framework density 19.215575000000001
#
# number of rings (size 3 to 8) (size 9 to 14) (size 15 to 20)
#    0.000    2.429    0.000    3.429    0.000    4.571 
#    0.000    1.429    0.000    3.857    0.000    0.000 
#    0.000    0.000    0.000    0.000    0.000    0.000 
#
# Total GULP energy -694000.868018 kJ/mol
# GULP energy per Si atom -12392.872643 kJ/mol
# Density = 1.917184 g / cm^3
# Si number density = 19.215575 Si / 1000 Ang^3
#
#
#
# Elastic Constant Matrix: (Units=GPa)
#
#
# Indices 1 2 3 4 5 6 
#
# 1 83.8115 43.6309 19.7942 0.0000 0.0000 0.0000
# 2 43.6309 135.8706 17.5875 0.0000 0.0000 0.0000
# 3 19.7942 17.5875 28.4530 0.0000 0.0000 0.0000
# 4 0.0000 0.0000 0.0000 30.0810 0.0000 0.0000
# 5 0.0000 0.0000 0.0000 0.0000 30.2206 0.0000
# 6 0.0000 0.0000 0.0000 0.0000 0.0000 28.0874
#
#
#
# Elastic Compliance Matrix: (Units=1/GPa)
#
#
# Indices 1 2 3 4 5 6 
#
# 1 0.016089 -0.004041 -0.008695 0.000000 0.000000 0.000000
# 2 -0.004041 0.009015 -0.002761 0.000000 0.000000 0.000000
# 3 -0.008695 -0.002761 0.042901 0.000000 0.000000 0.000000
# 4 0.000000 0.000000 0.000000 0.033244 0.000000 0.000000
# 5 0.000000 0.000000 0.000000 0.000000 0.033090 0.000000
# 6 0.000000 0.000000 0.000000 0.000000 0.000000 0.035603
#
#
# Mechanical properties :
#
#
# Convention : Reuss Voigt Hill
#
# Bulk Modulus (GPa) = 27.01893 45.57335 36.29614
# Shear Modulus (GPa) = 23.44422 28.81932 26.13177
#
# Velocity S-wave (km/s) = 3.49673 3.87691 3.69172
# Velocity P-wave (km/s) = 5.51310 6.61884 6.09111
#
# Compressibility (1/GPa) = 0.03701108
#
# Stress axis : x y z
#
# Youngs Moduli (GPa) = 62.15558 110.92643 23.30939
#
# Poissons Ratio (x) = 0.44825 0.20267
# Poissons Ratio (y) = 0.25117 0.06436
# Poissons Ratio (z) = 0.54043 0.30629
#
# Static dielectric constant tensor:
#      x y z
#    x 3.676310 0.000000 0.000000 
#    y 0.000000 3.885970 0.000000 
#    z 0.000000 0.000000 3.536210 
# 
# 
# High freq. dielectric constant tensor:
#      x y z
#    x 1.741120 0.000000 0.000000 
#    y 0.000000 1.756400 0.000000 
#    z 0.000000 0.000000 1.731080 
# 
# From -- ./inp_files/26105.got.cif
#   From: 2010.03.12/outbox.cif.g09.slc.cpg/sg59_14_cif.got.tgz:26105.got - 2010.04.16 16:29:54.
