data_PCOD8243817
_publ_section_title
;
Structure prediction by ZEFSAII (Michael W. Deem and Ramdas Pophale) SiO2 
 PCOD8243817
Probable space group: P M M N
;
_chemical_formula_sum "Si O2"
_cell_formula_units_Z 64
_cell_length_a 21.738971
_cell_length_b 8.794677
_cell_length_c 16.582901
_cell_angle_alpha 90.000000
_cell_angle_beta 90.000000
_cell_angle_gamma 90.000000
_cell_volume 3170.438879
_symmetry_space_group_name_H-M "P M M N"
_symmetry_group_IT_number 59
_space_group.IT_coordinate_system_code '2'
_symmetry_cell_setting 'orthorhombic'
loop_
_space_group_symop_operation_xyz
x,y,z
1/2-x,1/2-y,z
1/2+x,-y,-z
-x,1/2+y,-z
-x,-y,-z
1/2+x,1/2+y,-z
1/2-x,y,z
x,1/2-y,z
loop_
_atom_site_type_symbol
_atom_site_label
_atom_site_fract_x
_atom_site_fract_y
_atom_site_fract_z
Si Si1 0.382379 0.428454 0.386994
Si Si2 0.624269 0.074795 0.453199
Si Si3 0.989482 0.573917 0.370617
Si Si4 0.439491 0.571597 0.961359
Si Si5 0.819388 0.420906 0.288094
Si Si6 0.321385 0.077107 0.224493
Si Si7 0.680389 0.070342 0.943263
Si Si8 0.925886 0.923297 0.205214
O O1 0.370636 0.250000 0.393534
O O2 0.348859 0.510229 0.462621
O O3 0.453789 0.468130 0.392396
O O4 0.355913 0.491086 0.302463
O O5 0.605133 0.250000 0.463413
O O6 0.675573 0.053544 0.384219
O O7 0.565198 0.976481 0.428669
O O8 0.004644 0.750000 0.387008
O O9 0.973739 0.546263 0.276904
O O10 0.443150 0.750000 0.975792
O O11 0.442243 0.534634 0.867244
O O12 0.500000 0.500000 0.000000
O O13 0.374200 0.509050 0.998056
O O14 0.750000 0.444976 0.260795
O O15 0.842121 0.250000 0.266831
O O16 0.857898 0.542002 0.237778
O O17 0.250000 0.067894 0.244480
O O18 0.342122 0.250000 0.207204
O O19 0.338533 0.978033 0.146755
O O20 0.750000 0.007400 0.965148
O O21 0.682722 0.250000 0.947618
O O22 0.928185 0.750000 0.175016
#
# Coordination Sequence:
#
# PCOD8243817 Si02
#       8
#     8   8   8   8   8   8   8   8
#     4  11  22  34  53  80 109 145 186 229 281 339
#     4  10  20  35  54  79 111 146 187 234 282 334
#     4  10  21  37  56  77 108 146 186 232 280 336
#     4  11  24  40  61  90 124 157 193 242 298 355
#     4   9  19  37  60  84 113 151 192 235 284 340
#     4   9  20  38  57  80 110 144 184 230 279 334
#     4   9  20  40  63  85 112 150 194 238 286 342
#     4  10  22  39  58  85 116 148 188 235 286 344
#
# _framework density 20.18648
#
# number of rings (size 3 to 8) (size 9 to 14) (size 15 to 20)
#    0.000    2.125    0.000    2.250    1.750    5.250 
#    0.000    1.250    0.000    0.000    0.000    0.000 
#    0.000    0.000    0.000    0.000    0.000    0.000 
#
# Total GULP energy -793554.330773 kJ/mol
# GULP energy per Si atom -12399.286418 kJ/mol
# Density = 2.014053 g / cm^3
# Si number density = 20.186480 Si / 1000 Ang^3
#
#
#
# Elastic Constant Matrix: (Units=GPa)
#
#
# Indices 1 2 3 4 5 6 
#
# 1 63.8314 23.0416 26.0622 0.0000 0.0000 0.0000
# 2 23.0416 47.6757 29.5839 0.0000 0.0000 0.0000
# 3 26.0622 29.5839 102.1187 0.0000 0.0000 0.0000
# 4 0.0000 0.0000 0.0000 37.5972 0.0000 0.0000
# 5 0.0000 0.0000 0.0000 0.0000 18.7123 0.0000
# 6 0.0000 0.0000 0.0000 0.0000 0.0000 26.2660
#
#
#
# Elastic Compliance Matrix: (Units=1/GPa)
#
#
# Indices 1 2 3 4 5 6 
#
# 1 0.019591 -0.007761 -0.002752 0.000000 0.000000 0.000000
# 2 -0.007761 0.028647 -0.006318 0.000000 0.000000 0.000000
# 3 -0.002752 -0.006318 0.012325 0.000000 0.000000 0.000000
# 4 0.000000 0.000000 0.000000 0.026598 0.000000 0.000000
# 5 0.000000 0.000000 0.000000 0.000000 0.053441 0.000000
# 6 0.000000 0.000000 0.000000 0.000000 0.000000 0.038072
#
#
# Mechanical properties :
#
#
# Convention : Reuss Voigt Hill
#
# Bulk Modulus (GPa) = 37.17288 41.22236 39.19762
# Shear Modulus (GPa) = 22.59353 25.51098 24.05225
#
# Velocity S-wave (km/s) = 3.34913 3.55880 3.45556
# Velocity P-wave (km/s) = 5.78017 6.11162 5.94820
#
# Compressibility (1/GPa) = 0.02690133
#
# Stress axis : x y z
#
# Youngs Moduli (GPa) = 51.04309 34.90822 81.13476
#
# Poissons Ratio (x) = 0.27092 0.22325
# Poissons Ratio (y) = 0.39615 0.51263
# Poissons Ratio (z) = 0.14045 0.22056
#
# Static dielectric constant tensor:
#      x y z
#    x 3.685140 0.000000 0.000000 
#    y 0.000000 3.616540 0.000000 
#    z 0.000000 0.000000 3.844390 
# 
# 
# High freq. dielectric constant tensor:
#      x y z
#    x 1.780890 0.000000 0.000000 
#    y 0.000000 1.784630 0.000000 
#    z 0.000000 0.000000 1.796260 
# 
# From -- ./inp_files/24659.got.cif
#   From: 2010.03.12/outbox.cif.g09.slc.cpg/sg59_13_cif.got.tgz:24659.got - 2010.04.16 16:29:54.
