data_PCOD8243280
_publ_section_title
;
Structure prediction by ZEFSAII (Michael W. Deem and Ramdas Pophale) SiO2 
 PCOD8243280
Probable space group: P M M N
;
_chemical_formula_sum "Si O2"
_cell_formula_units_Z 40
_cell_length_a 9.102812
_cell_length_b 8.953150
_cell_length_c 25.753328
_cell_angle_alpha 90.000000
_cell_angle_beta 90.000000
_cell_angle_gamma 90.000000
_cell_volume 2098.866391
_symmetry_space_group_name_H-M "P M M N"
_symmetry_group_IT_number 59
_space_group.IT_coordinate_system_code '2'
_symmetry_cell_setting 'orthorhombic'
loop_
_space_group_symop_operation_xyz
x,y,z
1/2-x,1/2-y,z
1/2+x,-y,-z
-x,1/2+y,-z
-x,-y,-z
1/2+x,1/2+y,-z
1/2-x,y,z
x,1/2-y,z
loop_
_atom_site_type_symbol
_atom_site_label
_atom_site_fract_x
_atom_site_fract_y
_atom_site_fract_z
Si Si1 0.581228 0.926846 0.047895
Si Si2 0.915594 0.072349 0.850343
Si Si3 0.080051 0.924606 0.642207
Si Si4 0.579601 0.577931 0.251393
Si Si5 0.421585 0.575835 0.451931
O O1 0.750000 0.977468 0.047991
O O2 0.565397 0.750000 0.043568
O O3 0.506972 0.987890 0.100587
O O4 0.500000 0.000000 0.000000
O O5 0.750000 0.010599 0.853991
O O6 0.918547 0.250000 0.850286
O O7 0.988727 0.014021 0.797278
O O8 0.250000 0.962009 0.630764
O O9 0.048627 0.750000 0.637865
O O10 0.034801 0.979980 0.699166
O O11 0.980074 0.009954 0.601526
O O12 0.750000 0.560194 0.237447
O O13 0.540501 0.750000 0.263367
O O14 0.500000 0.500000 0.500000
O O15 0.250000 0.542777 0.456179
O O16 0.456973 0.750000 0.453421
#
# Coordination Sequence:
#
# PCOD8243280 Si02
#       5
#     8   8   8   8   8
#     4  10  20  34  53  77 105 138 177 220 267 321
#     4   9  17  30  50  75 102 134 175 222 268 315
#     4  10  21  37  57  82 112 145 181 220 264 316
#     4   9  17  31  52  76 102 135 175 218 265 316
#     4  11  24  40  59  84 112 143 181 223 267 317
#
# _framework density 19.057905999999999
#
# number of rings (size 3 to 8) (size 9 to 14) (size 15 to 20)
#    0.000    2.200    0.000    3.000    0.000    9.600 
#    0.000    3.000    0.000    3.600    0.000    0.000 
#    0.000    0.000    0.000    0.000    0.000    0.000 
#
# Total GULP energy -496133.456005 kJ/mol
# GULP energy per Si atom -12403.336400 kJ/mol
# Density = 1.901453 g / cm^3
# Si number density = 19.057906 Si / 1000 Ang^3
#
#
#
# Elastic Constant Matrix: (Units=GPa)
#
#
# Indices 1 2 3 4 5 6 
#
# 1 131.3192 64.8752 101.5281 0.0000 0.0000 0.0000
# 2 64.8752 65.3850 61.7488 0.0000 0.0000 0.0000
# 3 101.5281 61.7488 176.6993 0.0000 0.0000 0.0000
# 4 0.0000 0.0000 0.0000 34.6973 0.0000 0.0000
# 5 0.0000 0.0000 0.0000 0.0000 44.7059 0.0000
# 6 0.0000 0.0000 0.0000 0.0000 0.0000 24.4710
#
#
#
# Elastic Compliance Matrix: (Units=1/GPa)
#
#
# Indices 1 2 3 4 5 6 
#
# 1 0.018777 -0.012600 -0.006386 0.000000 0.000000 0.000000
# 2 -0.012600 0.031282 -0.003692 0.000000 0.000000 0.000000
# 3 -0.006386 -0.003692 0.010619 0.000000 0.000000 0.000000
# 4 0.000000 0.000000 0.000000 0.028821 0.000000 0.000000
# 5 0.000000 0.000000 0.000000 0.000000 0.022368 0.000000
# 6 0.000000 0.000000 0.000000 0.000000 0.000000 0.040865
#
#
# Mechanical properties :
#
#
# Convention : Reuss Voigt Hill
#
# Bulk Modulus (GPa) = 65.26365 92.18974 78.72670
# Shear Modulus (GPa) = 24.60700 30.45827 27.53263
#
# Velocity S-wave (km/s) = 3.59718 4.00208 3.80502
# Velocity P-wave (km/s) = 7.18138 8.35668 7.79122
#
# Compressibility (1/GPa) = 0.01532246
#
# Stress axis : x y z
#
# Youngs Moduli (GPa) = 53.25784 31.96685 94.17340
#
# Poissons Ratio (x) = 0.40277 0.60136
# Poissons Ratio (y) = 0.67103 0.34772
# Poissons Ratio (z) = 0.34009 0.11803
#
# Static dielectric constant tensor:
#      x y z
#    x 3.436900 0.000000 0.000000 
#    y 0.000000 3.309180 0.000000 
#    z 0.000000 0.000000 3.702710 
# 
# 
# High freq. dielectric constant tensor:
#      x y z
#    x 1.748120 0.000000 0.000000 
#    y 0.000000 1.718440 0.000000 
#    z 0.000000 0.000000 1.758890 
# 
# From -- ./inp_files/31147.got.cif
#   From: 2010.03.12/outbox.cif.g09.slc.cpg/sg59_16_cif.got.tgz:31147.got - 2010.04.16 16:29:54.
