data_PCOD8243012
_publ_section_title
;
Structure prediction by ZEFSAII (Michael W. Deem and Ramdas Pophale) SiO2 
 PCOD8243012
Probable space group: P M M N
;
_chemical_formula_sum "Si O2"
_cell_formula_units_Z 64
_cell_length_a 19.280158
_cell_length_b 8.995970
_cell_length_c 19.883208
_cell_angle_alpha 90.000000
_cell_angle_beta 90.000000
_cell_angle_gamma 90.000000
_cell_volume 3448.617620
_symmetry_space_group_name_H-M "P M M N"
_symmetry_group_IT_number 59
_space_group.IT_coordinate_system_code '2'
_symmetry_cell_setting 'orthorhombic'
loop_
_space_group_symop_operation_xyz
x,y,z
1/2-x,1/2-y,z
1/2+x,-y,-z
-x,1/2+y,-z
-x,-y,-z
1/2+x,1/2+y,-z
1/2-x,y,z
x,1/2-y,z
loop_
_atom_site_type_symbol
_atom_site_label
_atom_site_fract_x
_atom_site_fract_y
_atom_site_fract_z
Si Si1 0.066883 0.076832 0.231941
Si Si2 0.095355 0.921837 0.954140
Si Si3 0.828977 0.921108 0.151601
Si Si4 0.088717 0.923287 0.731652
Si Si5 0.169597 0.423792 0.613110
Si Si6 0.330771 0.923450 0.331900
Si Si7 0.458522 0.577126 0.096475
Si Si8 0.332010 0.586330 0.481419
O O1 0.075159 0.250000 0.215403
O O2 0.993046 0.043244 0.266595
O O3 0.126934 0.026312 0.281720
O O4 0.077082 0.985173 0.163257
O O5 0.100513 0.750000 0.934817
O O6 0.160796 0.008963 0.922747
O O7 0.094616 0.945524 0.034362
O O8 0.027318 0.985334 0.918314
O O9 0.750000 0.940767 0.174581
O O10 0.850729 0.750000 0.150283
O O11 0.877888 0.005921 0.202804
O O12 0.105386 0.750000 0.731599
O O13 0.120930 0.993338 0.665220
O O14 0.250000 0.468259 0.625158
O O15 0.158710 0.250000 0.622286
O O16 0.144635 0.469800 0.538341
O O17 0.250000 0.961325 0.322572
O O18 0.344687 0.750000 0.317177
O O19 0.357028 0.964105 0.407403
O O20 0.477621 0.750000 0.105141
O O21 0.250000 0.597691 0.478243
O O22 0.362195 0.750000 0.499116
#
# Coordination Sequence:
#
# PCOD8243012 Si02
#       8
#     8   8   8   8   8   8   8   8
#     4  11  23  37  56  84 114 145 185 230 276 331
#     4  10  20  35  56  83 108 138 183 227 273 327
#     4  11  23  37  55  81 113 150 190 232 280 331
#     4  11  23  37  53  77 110 149 191 231 274 328
#     4  10  20  33  52  80 111 144 185 231 277 327
#     4   9  19  37  61  86 110 140 180 225 279 342
#     4  10  20  35  58  82 108 143 181 225 273 324
#     4   8  15  31  55  80 106 139 180 224 272 331
#
# _framework density 18.558160999999998
#
# number of rings (size 3 to 8) (size 9 to 14) (size 15 to 20)
#    0.000    2.000    1.250    3.375    0.000    7.000 
#    0.000    2.500    0.000    0.750    0.000    0.000 
#    0.000    0.000    0.000    0.000    0.000    0.000 
#
# Total GULP energy -793628.393006 kJ/mol
# GULP energy per Si atom -12400.443641 kJ/mol
# Density = 1.851592 g / cm^3
# Si number density = 18.558161 Si / 1000 Ang^3
#
#
#
# Elastic Constant Matrix: (Units=GPa)
#
#
# Indices 1 2 3 4 5 6 
#
# 1 61.3362 34.5099 40.4819 0.0000 0.0000 0.0000
# 2 34.5099 75.2998 52.3314 0.0000 0.0000 0.0000
# 3 40.4819 52.3314 122.0765 0.0000 0.0000 0.0000
# 4 0.0000 0.0000 0.0000 35.2385 0.0000 0.0000
# 5 0.0000 0.0000 0.0000 0.0000 27.9132 0.0000
# 6 0.0000 0.0000 0.0000 0.0000 0.0000 28.3435
#
#
#
# Elastic Compliance Matrix: (Units=1/GPa)
#
#
# Indices 1 2 3 4 5 6 
#
# 1 0.023616 -0.007664 -0.004546 0.000000 0.000000 0.000000
# 2 -0.007664 0.021403 -0.006633 0.000000 0.000000 0.000000
# 3 -0.004546 -0.006633 0.012543 0.000000 0.000000 0.000000
# 4 0.000000 0.000000 0.000000 0.028378 0.000000 0.000000
# 5 0.000000 0.000000 0.000000 0.000000 0.035825 0.000000
# 6 0.000000 0.000000 0.000000 0.000000 0.000000 0.035281
#
#
# Mechanical properties :
#
#
# Convention : Reuss Voigt Hill
#
# Bulk Modulus (GPa) = 50.31510 57.03987 53.67748
# Shear Modulus (GPa) = 24.83147 27.05832 25.94489
#
# Velocity S-wave (km/s) = 3.66188 3.82256 3.74308
# Velocity P-wave (km/s) = 6.71194 7.09119 6.90417
#
# Compressibility (1/GPa) = 0.01987475
#
# Stress axis : x y z
#
# Youngs Moduli (GPa) = 42.34440 46.72321 79.72795
#
# Poissons Ratio (x) = 0.35808 0.36244
# Poissons Ratio (y) = 0.32452 0.52887
# Poissons Ratio (z) = 0.19250 0.30993
#
# Static dielectric constant tensor:
#      x y z
#    x 3.198190 0.000000 0.000000 
#    y 0.000000 3.543600 0.000000 
#    z 0.000000 0.000000 3.706290 
# 
# 
# High freq. dielectric constant tensor:
#      x y z
#    x 1.690660 0.000000 0.000000 
#    y 0.000000 1.732520 0.000000 
#    z 0.000000 0.000000 1.731620 
# 
# From -- ./inp_files/28263.got.cif
#   From: 2010.03.12/outbox.cif.g09.slc.cpg/sg59_15_cif.got.tgz:28263.got - 2010.04.16 16:29:54.
