data_PCOD8243717
_publ_section_title
;
Structure prediction by ZEFSAII (Michael W. Deem and Ramdas Pophale) SiO2 
 PCOD8243717
Probable space group: P M M N
;
_chemical_formula_sum "Si O2"
_cell_formula_units_Z 64
_cell_length_a 16.953554
_cell_length_b 12.839272
_cell_length_c 15.259767
_cell_angle_alpha 90.000000
_cell_angle_beta 90.000000
_cell_angle_gamma 90.000000
_cell_volume 3321.613186
_symmetry_space_group_name_H-M "P M M N"
_symmetry_group_IT_number 59
_space_group.IT_coordinate_system_code '2'
_symmetry_cell_setting 'orthorhombic'
loop_
_space_group_symop_operation_xyz
x,y,z
1/2-x,1/2-y,z
1/2+x,-y,-z
-x,1/2+y,-z
-x,-y,-z
1/2+x,1/2+y,-z
1/2-x,y,z
x,1/2-y,z
loop_
_atom_site_type_symbol
_atom_site_label
_atom_site_fract_x
_atom_site_fract_y
_atom_site_fract_z
Si Si1 0.339807 0.631365 0.158886
Si Si2 0.563558 0.370680 0.202931
Si Si3 0.159797 0.373111 0.440057
Si Si4 0.157491 0.445435 0.746695
Si Si5 0.341394 0.362077 0.928156
Si Si6 0.070302 0.492446 0.296711
Si Si7 0.053961 0.131094 0.601828
Si Si8 0.416930 0.947029 0.989944
O O1 0.250000 0.592315 0.142877
O O2 0.339461 0.750000 0.189404
O O3 0.380376 0.569610 0.236812
O O4 0.391310 0.625530 0.069869
O O5 0.567615 0.250000 0.229862
O O6 0.629278 0.434130 0.258419
O O7 0.479358 0.418063 0.231580
O O8 0.582827 0.380857 0.099549
O O9 0.250000 0.408589 0.463034
O O10 0.157375 0.250000 0.429069
O O11 0.133363 0.424055 0.349062
O O12 0.095149 0.408630 0.512330
O O13 0.250000 0.442810 0.743001
O O14 0.120993 0.396445 0.835492
O O15 0.124964 0.372676 0.670834
O O16 0.250000 0.346746 0.914553
O O17 0.378232 0.250000 0.957959
O O18 0.356834 0.454988 0.995293
O O19 0.016410 0.556238 0.366130
O O20 0.023244 0.250000 0.592782
O O21 0.500000 0.000000 0.000000
#
# Coordination Sequence:
#
# PCOD8243717 Si02
#       8
#     8   8   8   8   8   8   8   8
#     4  11  24  41  61  84 114 152 195 239 281 336
#     4  10  21  36  55  80 111 148 191 235 283 337
#     4  10  21  37  59  86 115 149 188 233 288 349
#     4   9  18  32  52  80 114 148 185 229 281 336
#     4   9  18  32  51  76 107 142 179 224 278 331
#     4  11  21  39  58  84 116 151 191 235 289 339
#     4  10  20  34  57  87 116 148 189 237 287 341
#     4  11  21  38  54  81 109 148 186 237 283 328
#
# _framework density 19.267745999999999
#
# number of rings (size 3 to 8) (size 9 to 14) (size 15 to 20)
#    0.000    1.875    1.250    3.000    0.000    3.000 
#    0.000    0.000    0.000    3.000    0.000    0.000 
#    0.000    0.000    0.000    0.000    0.000    0.000 
#
# Total GULP energy -793249.205579 kJ/mol
# GULP energy per Si atom -12394.518837 kJ/mol
# Density = 1.922389 g / cm^3
# Si number density = 19.267746 Si / 1000 Ang^3
#
#
#
# Elastic Constant Matrix: (Units=GPa)
#
#
# Indices 1 2 3 4 5 6 
#
# 1 83.9530 18.2963 24.9843 0.0000 0.0000 0.0000
# 2 18.2963 77.2344 12.9343 0.0000 0.0000 0.0000
# 3 24.9843 12.9343 80.3042 0.0000 0.0000 0.0000
# 4 0.0000 0.0000 0.0000 27.7253 0.0000 0.0000
# 5 0.0000 0.0000 0.0000 0.0000 32.5639 0.0000
# 6 0.0000 0.0000 0.0000 0.0000 0.0000 26.8038
#
#
#
# Elastic Compliance Matrix: (Units=1/GPa)
#
#
# Indices 1 2 3 4 5 6 
#
# 1 0.013611 -0.002585 -0.003818 0.000000 0.000000 0.000000
# 2 -0.002585 0.013797 -0.001418 0.000000 0.000000 0.000000
# 3 -0.003818 -0.001418 0.013869 0.000000 0.000000 0.000000
# 4 0.000000 0.000000 0.000000 0.036068 0.000000 0.000000
# 5 0.000000 0.000000 0.000000 0.000000 0.030709 0.000000
# 6 0.000000 0.000000 0.000000 0.000000 0.000000 0.037308
#
#
# Mechanical properties :
#
#
# Convention : Reuss Voigt Hill
#
# Bulk Modulus (GPa) = 39.00942 39.32462 39.16702
# Shear Modulus (GPa) = 29.48976 29.77037 29.63007
#
# Velocity S-wave (km/s) = 3.91644 3.93503 3.92574
# Velocity P-wave (km/s) = 6.38288 6.41091 6.39691
#
# Compressibility (1/GPa) = 0.02563484
#
# Stress axis : x y z
#
# Youngs Moduli (GPa) = 73.46932 72.47727 72.10316
#
# Poissons Ratio (x) = 0.18735 0.27532
# Poissons Ratio (y) = 0.18991 0.10225
# Poissons Ratio (z) = 0.28053 0.10278
#
# Static dielectric constant tensor:
#      x y z
#    x 3.567670 0.000000 0.000000 
#    y 0.000000 3.547560 0.000000 
#    z 0.000000 0.000000 3.521790 
# 
# 
# High freq. dielectric constant tensor:
#      x y z
#    x 1.751240 0.000000 0.000000 
#    y 0.000000 1.752580 0.000000 
#    z 0.000000 0.000000 1.741590 
# 
# From -- ./inp_files/22724.got.cif
#   From: 2010.03.12/outbox.cif.g09.slc.cpg/sg59_12_cif.got.tgz:22724.got - 2010.04.16 16:29:54.
