data_PCOD8243504
_publ_section_title
;
Structure prediction by ZEFSAII (Michael W. Deem and Ramdas Pophale) SiO2 
 PCOD8243504
Probable space group: P M M N
;
_chemical_formula_sum "Si O2"
_cell_formula_units_Z 64
_cell_length_a 29.681310
_cell_length_b 8.872115
_cell_length_c 12.535687
_cell_angle_alpha 90.000000
_cell_angle_beta 90.000000
_cell_angle_gamma 90.000000
_cell_volume 3301.097618
_symmetry_space_group_name_H-M "P M M N"
_symmetry_group_IT_number 59
_space_group.IT_coordinate_system_code '2'
_symmetry_cell_setting 'orthorhombic'
loop_
_space_group_symop_operation_xyz
x,y,z
1/2-x,1/2-y,z
1/2+x,-y,-z
-x,1/2+y,-z
-x,-y,-z
1/2+x,1/2+y,-z
1/2-x,y,z
x,1/2-y,z
loop_
_atom_site_type_symbol
_atom_site_label
_atom_site_fract_x
_atom_site_fract_y
_atom_site_fract_z
Si Si1 0.799988 0.422615 0.927876
Si Si2 0.829029 0.079377 0.160812
Si Si3 0.417302 0.424744 0.892000
Si Si4 0.440032 0.571501 0.322910
Si Si5 0.034338 0.572176 0.710439
Si Si6 0.798248 0.073964 0.390167
Si Si7 0.109987 0.426583 0.127389
Si Si8 0.893026 0.429099 0.462670
O O1 0.750000 0.467596 0.886391
O O2 0.810999 0.250000 0.897250
O O3 0.837325 0.528397 0.873877
O O4 0.799276 0.442842 0.055483
O O5 0.848871 0.250000 0.166340
O O6 0.798772 0.045601 0.263267
O O7 0.870081 0.963272 0.162977
O O8 0.427938 0.250000 0.878320
O O9 0.456480 0.516970 0.831617
O O10 0.414442 0.470475 0.016430
O O11 0.444688 0.750000 0.322513
O O12 0.488998 0.500435 0.333470
O O13 0.415244 0.519267 0.216957
O O14 0.411413 0.513608 0.424214
O O15 0.028259 0.750000 0.710596
O O16 0.074494 0.516618 0.632944
O O17 0.750000 0.005983 0.431561
O O18 0.798528 0.250000 0.415519
O O19 0.842583 0.001908 0.445899
O O20 0.106387 0.250000 0.150634
O O21 0.890832 0.250000 0.459071
#
# Coordination Sequence:
#
# PCOD8243504 Si02
#       8
#     8   8   8   8   8   8   8   8
#     4   9  17  30  52  83 113 144 187 234 278 326
#     4   9  15  27  49  79 114 147 177 218 269 325
#     4  10  20  34  54  82 114 146 179 221 274 331
#     4  11  23  39  58  80 109 145 191 239 280 328
#     4  11  21  37  61  86 112 141 179 226 283 343
#     4   9  15  26  50  83 114 143 176 215 265 324
#     4  10  22  39  56  78 112 152 191 229 277 335
#     4   9  19  35  55  83 115 145 181 228 275 326
#
# _framework density 19.387492000000002
#
# number of rings (size 3 to 8) (size 9 to 14) (size 15 to 20)
#    0.000    2.250    1.250    2.250    0.000    3.750 
#    0.000    2.500    0.000    3.375    0.000    0.000 
#    0.000    0.000    0.000    0.000    0.000    0.000 
#
# Total GULP energy -793392.913337 kJ/mol
# GULP energy per Si atom -12396.764271 kJ/mol
# Density = 1.934336 g / cm^3
# Si number density = 19.387492 Si / 1000 Ang^3
#
#
#
# Elastic Constant Matrix: (Units=GPa)
#
#
# Indices 1 2 3 4 5 6 
#
# 1 144.3570 31.4890 62.7215 0.0000 0.0000 0.0000
# 2 31.4890 55.5647 32.8964 0.0000 0.0000 0.0000
# 3 62.7215 32.8964 96.5012 0.0000 0.0000 0.0000
# 4 0.0000 0.0000 0.0000 17.2876 0.0000 0.0000
# 5 0.0000 0.0000 0.0000 0.0000 15.5598 0.0000
# 6 0.0000 0.0000 0.0000 0.0000 0.0000 29.0044
#
#
#
# Elastic Compliance Matrix: (Units=1/GPa)
#
#
# Indices 1 2 3 4 5 6 
#
# 1 0.009873 -0.002250 -0.005650 0.000000 0.000000 0.000000
# 2 -0.002250 0.023060 -0.006399 0.000000 0.000000 0.000000
# 3 -0.005650 -0.006399 0.016216 0.000000 0.000000 0.000000
# 4 0.000000 0.000000 0.000000 0.057845 0.000000 0.000000
# 5 0.000000 0.000000 0.000000 0.000000 0.064268 0.000000
# 6 0.000000 0.000000 0.000000 0.000000 0.000000 0.034478
#
#
# Mechanical properties :
#
#
# Convention : Reuss Voigt Hill
#
# Bulk Modulus (GPa) = 48.65698 61.18186 54.91942
# Shear Modulus (GPa) = 20.73070 23.65807 22.19438
#
# Velocity S-wave (km/s) = 3.27354 3.49703 3.38713
# Velocity P-wave (km/s) = 6.28010 6.92326 6.60951
#
# Compressibility (1/GPa) = 0.02055204
#
# Stress axis : x y z
#
# Youngs Moduli (GPa) = 101.28723 43.36434 61.66752
#
# Poissons Ratio (x) = 0.09757 0.34842
# Poissons Ratio (y) = 0.22791 0.39459
# Poissons Ratio (z) = 0.57226 0.27747
#
# Static dielectric constant tensor:
#      x y z
#    x 3.789030 0.000000 0.000000 
#    y 0.000000 3.295320 0.000000 
#    z 0.000000 0.000000 3.526450 
# 
# 
# High freq. dielectric constant tensor:
#      x y z
#    x 1.762990 0.000000 0.000000 
#    y 0.000000 1.726520 0.000000 
#    z 0.000000 0.000000 1.742940 
# 
# From -- ./inp_files/19202.got.cif
#   From: 2010.03.12/outbox.cif.g09.slc.cpg/sg59_10_cif.got.tgz:19202.got - 2010.04.16 16:29:54.
