data_PCOD8243165
_publ_section_title
;
Structure prediction by ZEFSAII (Michael W. Deem and Ramdas Pophale) SiO2 
 PCOD8243165
Probable space group: P M M N
;
_chemical_formula_sum "Si O2"
_cell_formula_units_Z 64
_cell_length_a 9.044184
_cell_length_b 18.632551
_cell_length_c 21.755765
_cell_angle_alpha 90.000000
_cell_angle_beta 90.000000
_cell_angle_gamma 90.000000
_cell_volume 3666.199273
_symmetry_space_group_name_H-M "P M M N"
_symmetry_group_IT_number 59
_space_group.IT_coordinate_system_code '2'
_symmetry_cell_setting 'orthorhombic'
loop_
_space_group_symop_operation_xyz
x,y,z
1/2-x,1/2-y,z
1/2+x,-y,-z
-x,1/2+y,-z
-x,-y,-z
1/2+x,1/2+y,-z
1/2-x,y,z
x,1/2-y,z
loop_
_atom_site_type_symbol
_atom_site_label
_atom_site_fract_x
_atom_site_fract_y
_atom_site_fract_z
Si Si1 0.574765 0.458332 0.556009
Si Si2 0.584479 0.957098 0.913624
Si Si3 0.418022 0.829512 0.621633
Si Si4 0.584628 0.107719 0.982077
Si Si5 0.423757 0.027485 0.805781
Si Si6 0.921237 0.829879 0.128054
Si Si7 0.919666 0.667762 0.496169
Si Si8 0.579154 0.022360 0.327504
O O1 0.500000 0.500000 0.500000
O O2 0.750000 0.462998 0.550145
O O3 0.519080 0.376350 0.551854
O O4 0.524355 0.489378 0.620758
O O5 0.750000 0.930409 0.899724
O O6 0.586384 0.029988 0.951720
O O7 0.501126 0.969686 0.849628
O O8 0.501950 0.895868 0.953207
O O9 0.250000 0.832776 0.596398
O O10 0.451078 0.750000 0.649477
O O11 0.526385 0.846120 0.565406
O O12 0.441482 0.890822 0.673190
O O13 0.750000 0.135051 0.995198
O O14 0.507053 0.163194 0.936081
O O15 0.250000 0.016492 0.813464
O O16 0.471441 0.109398 0.822807
O O17 0.475109 0.010586 0.736773
O O18 0.750000 0.840939 0.112449
O O19 0.951637 0.750000 0.155306
O O20 0.750000 0.642367 0.492600
O O21 0.937454 0.750000 0.477051
O O22 0.750000 0.002085 0.340347
#
# Coordination Sequence:
#
# PCOD8243165 Si02
#       8
#     8   8   8   8   8   8   8   8
#     4  12  23  35  53  76 104 136 171 216 269 320
#     4   9  16  27  45  69  96 124 157 200 248 295
#     4   9  17  30  50  74  98 126 160 203 257 314
#     4   9  16  26  44  70  96 122 156 200 249 295
#     4   9  18  32  49  70  98 134 175 215 257 308
#     4   9  17  30  48  70  98 133 173 215 257 302
#     4  10  20  34  53  77 103 130 163 206 259 318
#     4  10  20  34  52  75 103 135 174 219 264 316
#
# _framework density 17.456769999999999
#
# number of rings (size 3 to 8) (size 9 to 14) (size 15 to 20)
#    0.000    2.375    1.250    2.250    0.000    4.500 
#    0.000    0.625    0.000    3.000    0.000    1.750 
#    0.000    0.000    0.000    0.000    0.000    0.000 
#
# Total GULP energy -793448.993385 kJ/mol
# GULP energy per Si atom -12397.640522 kJ/mol
# Density = 1.741704 g / cm^3
# Si number density = 17.456770 Si / 1000 Ang^3
#
#
#
# Elastic Constant Matrix: (Units=GPa)
#
#
# Indices 1 2 3 4 5 6 
#
# 1 101.7230 41.8995 58.5141 0.0000 0.0000 0.0000
# 2 41.8995 96.0329 58.2173 0.0000 0.0000 0.0000
# 3 58.5141 58.2173 119.2238 0.0000 0.0000 0.0000
# 4 0.0000 0.0000 0.0000 21.6049 0.0000 0.0000
# 5 0.0000 0.0000 0.0000 0.0000 26.5409 0.0000
# 6 0.0000 0.0000 0.0000 0.0000 0.0000 20.9819
#
#
#
# Elastic Compliance Matrix: (Units=1/GPa)
#
#
# Indices 1 2 3 4 5 6 
#
# 1 0.014209 -0.002801 -0.005606 0.000000 0.000000 0.000000
# 2 -0.002801 0.015344 -0.006118 0.000000 0.000000 0.000000
# 3 -0.005606 -0.006118 0.014126 0.000000 0.000000 0.000000
# 4 0.000000 0.000000 0.000000 0.046286 0.000000 0.000000
# 5 0.000000 0.000000 0.000000 0.000000 0.037678 0.000000
# 6 0.000000 0.000000 0.000000 0.000000 0.000000 0.047660
#
#
# Mechanical properties :
#
#
# Convention : Reuss Voigt Hill
#
# Bulk Modulus (GPa) = 68.35368 70.47128 69.41248
# Shear Modulus (GPa) = 23.89727 24.38213 24.13970
#
# Velocity S-wave (km/s) = 3.70393 3.74132 3.72267
# Velocity P-wave (km/s) = 7.58506 7.68895 7.63718
#
# Compressibility (1/GPa) = 0.01462979
#
# Stress axis : x y z
#
# Youngs Moduli (GPa) = 70.37766 65.17240 70.79013
#
# Poissons Ratio (x) = 0.18255 0.39685
# Poissons Ratio (y) = 0.19713 0.43308
# Poissons Ratio (z) = 0.39453 0.39871
#
# Static dielectric constant tensor:
#      x y z
#    x 3.379110 0.000000 0.000000 
#    y 0.000000 3.376720 0.000000 
#    z 0.000000 0.000000 3.091340 
# 
# 
# High freq. dielectric constant tensor:
#      x y z
#    x 1.681880 0.000000 0.000000 
#    y 0.000000 1.665230 0.000000 
#    z 0.000000 0.000000 1.644830 
# 
# From -- ./inp_files/29450.got.cif
#   From: 2010.03.12/outbox.cif.g09.slc.cpg/sg59_15_cif.got.tgz:29450.got - 2010.04.16 16:29:54.
