data_PCOD8243703
_publ_section_title
;
Structure prediction by ZEFSAII (Michael W. Deem and Ramdas Pophale) SiO2 
 PCOD8243703
Probable space group: P M M N
;
_chemical_formula_sum "Si O2"
_cell_formula_units_Z 56
_cell_length_a 14.052947
_cell_length_b 8.784804
_cell_length_c 22.750924
_cell_angle_alpha 90.000000
_cell_angle_beta 90.000000
_cell_angle_gamma 90.000000
_cell_volume 2808.655829
_symmetry_space_group_name_H-M "P M M N"
_symmetry_group_IT_number 59
_space_group.IT_coordinate_system_code '2'
_symmetry_cell_setting 'orthorhombic'
loop_
_space_group_symop_operation_xyz
x,y,z
1/2-x,1/2-y,z
1/2+x,-y,-z
-x,1/2+y,-z
-x,-y,-z
1/2+x,1/2+y,-z
1/2-x,y,z
x,1/2-y,z
loop_
_atom_site_type_symbol
_atom_site_label
_atom_site_fract_x
_atom_site_fract_y
_atom_site_fract_z
Si Si1 0.147384 0.920755 0.405044
Si Si2 0.858162 0.429768 0.801940
Si Si3 0.035193 0.072362 0.306365
Si Si4 0.399713 0.069504 0.516548
Si Si5 0.641614 0.426503 0.021454
Si Si6 0.857502 0.573591 0.350845
Si Si7 0.454172 0.426948 0.087647
O O1 0.250000 0.913263 0.372869
O O2 0.103120 0.750000 0.409359
O O3 0.075587 0.028455 0.370110
O O4 0.168924 0.991670 0.469005
O O5 0.750000 0.492441 0.809033
O O6 0.856912 0.250000 0.801177
O O7 0.903112 0.486206 0.741685
O O8 0.925621 0.483383 0.854433
O O9 0.042964 0.250000 0.294356
O O10 0.924941 0.021432 0.306750
O O11 0.396390 0.250000 0.509667
O O12 0.368587 0.020234 0.581704
O O13 0.500000 0.000000 0.500000
O O14 0.750000 0.464449 0.042091
O O15 0.632754 0.250000 0.003383
O O16 0.565069 0.464600 0.072629
O O17 0.616047 0.525834 0.964824
O O18 0.750000 0.542618 0.330201
O O19 0.884734 0.750000 0.344950
O O20 0.440136 0.250000 0.099991
#
# Coordination Sequence:
#
# PCOD8243703 Si02
#       7
#     8   8   8   8   8   8   8
#     4  11  23  38  57  82 114 150 186 229 284 345
#     4  11  24  42  63  85 114 154 195 238 292 353
#     4  12  25  40  61  86 113 146 188 241 292 343
#     4  11  21  35  58  86 115 148 185 229 285 344
#     4   9  18  34  56  84 122 165 201 236 286 344
#     4  10  22  41  63  84 112 151 191 233 285 347
#     4  10  20  34  56  88 122 156 199 248 292 339
#
# _framework density 19.938364
#
# number of rings (size 3 to 8) (size 9 to 14) (size 15 to 20)
#    0.000    1.429    1.429    4.286    0.000    8.000 
#    0.000    0.714    0.000    2.571    0.000    0.000 
#    0.000    0.000    0.000    0.000    0.000    0.000 
#
# Total GULP energy -694345.463888 kJ/mol
# GULP energy per Si atom -12399.026141 kJ/mol
# Density = 1.989298 g / cm^3
# Si number density = 19.938364 Si / 1000 Ang^3
#
#
#
# Elastic Constant Matrix: (Units=GPa)
#
#
# Indices 1 2 3 4 5 6 
#
# 1 141.1166 39.0163 42.5342 0.0000 0.0000 0.0000
# 2 39.0163 71.4203 33.0210 0.0000 0.0000 0.0000
# 3 42.5342 33.0210 82.2505 0.0000 0.0000 0.0000
# 4 0.0000 0.0000 0.0000 35.6950 0.0000 0.0000
# 5 0.0000 0.0000 0.0000 0.0000 26.2770 0.0000
# 6 0.0000 0.0000 0.0000 0.0000 0.0000 24.7386
#
#
#
# Elastic Compliance Matrix: (Units=1/GPa)
#
#
# Indices 1 2 3 4 5 6 
#
# 1 0.009022 -0.003403 -0.003299 0.000000 0.000000 0.000000
# 2 -0.003403 0.018477 -0.005658 0.000000 0.000000 0.000000
# 3 -0.003299 -0.005658 0.016136 0.000000 0.000000 0.000000
# 4 0.000000 0.000000 0.000000 0.028015 0.000000 0.000000
# 5 0.000000 0.000000 0.000000 0.000000 0.038056 0.000000
# 6 0.000000 0.000000 0.000000 0.000000 0.000000 0.040423
#
#
# Mechanical properties :
#
#
# Convention : Reuss Voigt Hill
#
# Bulk Modulus (GPa) = 52.87235 58.21450 55.54342
# Shear Modulus (GPa) = 27.60105 29.35651 28.47878
#
# Velocity S-wave (km/s) = 3.72468 3.84130 3.78344
# Velocity P-wave (km/s) = 6.71365 6.99534 6.85594
#
# Compressibility (1/GPa) = 0.01891348
#
# Stress axis : x y z
#
# Youngs Moduli (GPa) = 110.84475 54.12238 61.97496
#
# Poissons Ratio (x) = 0.18418 0.20446
# Poissons Ratio (y) = 0.37722 0.35065
# Poissons Ratio (z) = 0.36569 0.30622
#
# Static dielectric constant tensor:
#      x y z
#    x 3.907100 0.000000 0.000000 
#    y 0.000000 3.711140 0.000000 
#    z 0.000000 0.000000 3.540820 
# 
# 
# High freq. dielectric constant tensor:
#      x y z
#    x 1.796600 0.000000 0.000000 
#    y 0.000000 1.780520 0.000000 
#    z 0.000000 0.000000 1.755270 
# 
# From -- ./inp_files/30383.got.cif
#   From: 2010.03.12/outbox.cif.g09.slc.cpg/sg59_16_cif.got.tgz:30383.got - 2010.04.16 16:29:54.
