data_PCOD8243830
_publ_section_title
;
Structure prediction by ZEFSAII (Michael W. Deem and Ramdas Pophale) SiO2 
 PCOD8243830
Probable space group: P M M N
;
_chemical_formula_sum "Si O2"
_cell_formula_units_Z 64
_cell_length_a 14.940355
_cell_length_b 9.561848
_cell_length_c 23.849092
_cell_angle_alpha 90.000000
_cell_angle_beta 90.000000
_cell_angle_gamma 90.000000
_cell_volume 3407.019361
_symmetry_space_group_name_H-M "P M M N"
_symmetry_group_IT_number 59
_space_group.IT_coordinate_system_code '2'
_symmetry_cell_setting 'orthorhombic'
loop_
_space_group_symop_operation_xyz
x,y,z
1/2-x,1/2-y,z
1/2+x,-y,-z
-x,1/2+y,-z
-x,-y,-z
1/2+x,1/2+y,-z
1/2-x,y,z
x,1/2-y,z
loop_
_atom_site_type_symbol
_atom_site_label
_atom_site_fract_x
_atom_site_fract_y
_atom_site_fract_z
Si Si1 0.148947 0.090141 0.773142
Si Si2 0.488333 0.087339 0.421307
Si Si3 0.647169 0.092342 0.009208
Si Si4 0.991324 0.085292 0.293130
Si Si5 0.855368 0.086690 0.505903
Si Si6 0.152307 0.092286 0.216492
Si Si7 0.090514 0.404958 0.891697
Si Si8 0.614072 0.406105 0.885349
O O1 0.250000 0.079787 0.751771
O O2 0.113474 0.250000 0.770291
O O3 0.145049 0.037803 0.837986
O O4 0.093290 0.992360 0.732397
O O5 0.463300 0.250000 0.427325
O O6 0.498928 0.040641 0.357344
O O7 0.584530 0.055903 0.450543
O O8 0.403813 0.000885 0.445150
O O9 0.750000 0.088251 0.026470
O O10 0.608654 0.250000 0.011038
O O11 0.594434 0.002429 0.054357
O O12 0.632471 0.030157 0.947105
O O13 0.975288 0.250000 0.287306
O O14 0.080255 0.034598 0.260620
O O15 0.750000 0.042246 0.497536
O O16 0.859646 0.250000 0.521638
O O17 0.250000 0.087564 0.245756
O O18 0.126642 0.250000 0.198936
O O19 0.160275 0.002285 0.160356
O O20 0.124768 0.250000 0.908669
O O21 0.989539 0.400713 0.870915
O O22 0.655950 0.250000 0.882666
#
# Coordination Sequence:
#
# PCOD8243830 Si02
#       8
#     8   8   8   8   8   8   8   8
#     4  10  21  37  56  79 109 144 183 228 275 324
#     4   9  19  35  56  83 114 150 188 228 273 320
#     4  10  21  34  49  74 104 131 167 218 272 328
#     4  10  21  37  57  82 112 146 186 228 269 318
#     4   9  18  34  56  83 116 151 187 228 271 318
#     4  10  21  36  54  78 108 141 178 223 273 323
#     4  10  20  35  55  76 100 135 177 219 269 327
#     4  10  20  36  56  76 100 134 175 220 271 327
#
# _framework density 18.784746999999999
#
# number of rings (size 3 to 8) (size 9 to 14) (size 15 to 20)
#    0.000    2.250    1.250    1.125    0.000    5.000 
#    0.000    2.500    0.000    0.000    0.000    0.000 
#    0.000    0.000    0.000    0.000    0.000    0.000 
#
# Total GULP energy -793460.267315 kJ/mol
# GULP energy per Si atom -12397.816677 kJ/mol
# Density = 1.874199 g / cm^3
# Si number density = 18.784747 Si / 1000 Ang^3
#
#
#
# Elastic Constant Matrix: (Units=GPa)
#
#
# Indices 1 2 3 4 5 6 
#
# 1 114.4726 37.7007 49.7972 0.0000 0.0000 0.0000
# 2 37.7007 58.7534 56.2576 0.0000 0.0000 0.0000
# 3 49.7972 56.2576 141.5082 0.0000 0.0000 0.0000
# 4 0.0000 0.0000 0.0000 30.1869 0.0000 0.0000
# 5 0.0000 0.0000 0.0000 0.0000 10.8164 0.0000
# 6 0.0000 0.0000 0.0000 0.0000 0.0000 26.3183
#
#
#
# Elastic Compliance Matrix: (Units=1/GPa)
#
#
# Indices 1 2 3 4 5 6 
#
# 1 0.011346 -0.005582 -0.001773 0.000000 0.000000 0.000000
# 2 -0.005582 0.030228 -0.010053 0.000000 0.000000 0.000000
# 3 -0.001773 -0.010053 0.011687 0.000000 0.000000 0.000000
# 4 0.000000 0.000000 0.000000 0.033127 0.000000 0.000000
# 5 0.000000 0.000000 0.000000 0.000000 0.092452 0.000000
# 6 0.000000 0.000000 0.000000 0.000000 0.000000 0.037996
#
#
# Mechanical properties :
#
#
# Convention : Reuss Voigt Hill
#
# Bulk Modulus (GPa) = 54.21781 66.91612 60.56697
# Shear Modulus (GPa) = 19.39471 24.86290 22.12880
#
# Velocity S-wave (km/s) = 3.21669 3.64203 3.43595
# Velocity P-wave (km/s) = 6.53617 7.30656 6.93207
#
# Compressibility (1/GPa) = 0.01844412
#
# Stress axis : x y z
#
# Youngs Moduli (GPa) = 88.13988 33.08155 85.56213
#
# Poissons Ratio (x) = 0.18467 0.15173
# Poissons Ratio (y) = 0.49202 0.86016
# Poissons Ratio (z) = 0.15630 0.33257
#
# Static dielectric constant tensor:
#      x y z
#    x 3.512050 0.000000 0.000000 
#    y 0.000000 3.421410 0.000000 
#    z 0.000000 0.000000 3.332670 
# 
# 
# High freq. dielectric constant tensor:
#      x y z
#    x 1.739410 0.000000 0.000000 
#    y 0.000000 1.720040 0.000000 
#    z 0.000000 0.000000 1.720960 
# 
# From -- ./inp_files/31459.got.cif
#   From: 2010.03.12/outbox.cif.g09.slc.cpg/sg59_16_cif.got.tgz:31459.got - 2010.04.16 16:29:54.
