data_PCOD8243924
_publ_section_title
;
Structure prediction by ZEFSAII (Michael W. Deem and Ramdas Pophale) SiO2 
 PCOD8243924
Probable space group: P M M N
;
_chemical_formula_sum "Si O2"
_cell_formula_units_Z 48
_cell_length_a 8.960368
_cell_length_b 30.001401
_cell_length_c 9.810968
_cell_angle_alpha 90.000000
_cell_angle_beta 90.000000
_cell_angle_gamma 90.000000
_cell_volume 2637.419673
_symmetry_space_group_name_H-M "P M M N"
_symmetry_group_IT_number 59
_space_group.IT_coordinate_system_code '2'
_symmetry_cell_setting 'orthorhombic'
loop_
_space_group_symop_operation_xyz
x,y,z
1/2-x,1/2-y,z
1/2+x,-y,-z
-x,1/2+y,-z
-x,-y,-z
1/2+x,1/2+y,-z
1/2-x,y,z
x,1/2-y,z
loop_
_atom_site_type_symbol
_atom_site_label
_atom_site_fract_x
_atom_site_fract_y
_atom_site_fract_z
Si Si1 0.423058 0.698080 0.401338
Si Si2 0.576161 0.870732 0.593100
Si Si3 0.925944 0.037361 0.408182
Si Si4 0.922686 0.699194 0.124035
Si Si5 0.424628 0.536393 0.906249
Si Si6 0.422113 0.126744 0.093822
O O1 0.250000 0.686002 0.414667
O O2 0.454115 0.750000 0.427373
O O3 0.516236 0.671552 0.512542
O O4 0.478226 0.684192 0.251671
O O5 0.750000 0.877716 0.562711
O O6 0.490376 0.915055 0.545573
O O7 0.544349 0.860388 0.750829
O O8 0.750000 0.037485 0.431893
O O9 0.967884 0.027680 0.251097
O O10 0.000000 0.000000 0.500000
O O11 0.750000 0.692834 0.163875
O O12 0.956675 0.750000 0.081972
O O13 0.968853 0.668974 0.996386
O O14 0.250000 0.533928 0.929520
O O15 0.480720 0.584760 0.953203
O O16 0.500000 0.500000 0.000000
O O17 0.250000 0.113805 0.072864
#
# Coordination Sequence:
#
# PCOD8243924 Si02
#       6
#     8   8   8   8   8   8
#     4  10  21  36  53  76 107 141 177 217 260 308
#     4  10  20  35  56  80 106 138 175 216 263 313
#     4  10  21  37  56  79 107 139 176 217 261 310
#     4   9  18  34  55  78 105 137 173 214 258 305
#     4  10  21  36  55  78 105 137 173 213 258 309
#     4   9  19  35  55  79 106 135 171 215 260 308
#
# _framework density 18.199607
#
# number of rings (size 3 to 8) (size 9 to 14) (size 15 to 20)
#    0.000    2.333    0.000    2.000    0.000    6.333 
#    0.000    3.333    0.000    2.000    0.000    0.000 
#    0.000    0.000    0.000    0.000    0.000    0.000 
#
# Total GULP energy -595393.552733 kJ/mol
# GULP energy per Si atom -12404.032349 kJ/mol
# Density = 1.815818 g / cm^3
# Si number density = 18.199607 Si / 1000 Ang^3
#
#
#
# Elastic Constant Matrix: (Units=GPa)
#
#
# Indices 1 2 3 4 5 6 
#
# 1 83.0082 57.4440 51.0849 0.0000 0.0000 0.0000
# 2 57.4440 116.9351 79.3535 0.0000 0.0000 0.0000
# 3 51.0849 79.3535 94.9546 0.0000 0.0000 0.0000
# 4 0.0000 0.0000 0.0000 42.4674 0.0000 0.0000
# 5 0.0000 0.0000 0.0000 0.0000 28.2541 0.0000
# 6 0.0000 0.0000 0.0000 0.0000 0.0000 36.5677
#
#
#
# Elastic Compliance Matrix: (Units=1/GPa)
#
#
# Indices 1 2 3 4 5 6 
#
# 1 0.019522 -0.005689 -0.005748 0.000000 0.000000 0.000000
# 2 -0.005689 0.021413 -0.014834 0.000000 0.000000 0.000000
# 3 -0.005748 -0.014834 0.026021 0.000000 0.000000 0.000000
# 4 0.000000 0.000000 0.000000 0.023547 0.000000 0.000000
# 5 0.000000 0.000000 0.000000 0.000000 0.035393 0.000000
# 6 0.000000 0.000000 0.000000 0.000000 0.000000 0.027347
#
#
# Mechanical properties :
#
#
# Convention : Reuss Voigt Hill
#
# Bulk Modulus (GPa) = 69.38398 74.51808 71.95103
# Shear Modulus (GPa) = 23.74283 28.59220 26.16751
#
# Velocity S-wave (km/s) = 3.61581 3.96793 3.79596
# Velocity P-wave (km/s) = 7.45914 7.87568 7.67024
#
# Compressibility (1/GPa) = 0.01441255
#
# Stress axis : x y z
#
# Youngs Moduli (GPa) = 51.22546 46.69990 38.43095
#
# Poissons Ratio (x) = 0.26569 0.22090
# Poissons Ratio (y) = 0.29144 0.57010
# Poissons Ratio (z) = 0.29444 0.69276
#
# Static dielectric constant tensor:
#      x y z
#    x 3.476240 0.000000 0.000000 
#    y 0.000000 3.444940 0.000000 
#    z 0.000000 0.000000 3.366780 
# 
# 
# High freq. dielectric constant tensor:
#      x y z
#    x 1.715190 0.000000 0.000000 
#    y 0.000000 1.709490 0.000000 
#    z 0.000000 0.000000 1.703900 
# 
# From -- ./inp_files/6226.got.cif
#   From: 2010.03.12/outbox.cif.g09.slc.cpg/sg59_4_cif.got.tgz:6226.got - 2010.04.16 16:29:54.
