data_PCOD8243447
_publ_section_title
;
Structure prediction by ZEFSAII (Michael W. Deem and Ramdas Pophale) SiO2 
 PCOD8243447
Probable space group: P M M N
;
_chemical_formula_sum "Si O2"
_cell_formula_units_Z 64
_cell_length_a 13.846502
_cell_length_b 8.882278
_cell_length_c 27.253596
_cell_angle_alpha 90.000000
_cell_angle_beta 90.000000
_cell_angle_gamma 90.000000
_cell_volume 3351.878349
_symmetry_space_group_name_H-M "P M M N"
_symmetry_group_IT_number 59
_space_group.IT_coordinate_system_code '2'
_symmetry_cell_setting 'orthorhombic'
loop_
_space_group_symop_operation_xyz
x,y,z
1/2-x,1/2-y,z
1/2+x,-y,-z
-x,1/2+y,-z
-x,-y,-z
1/2+x,1/2+y,-z
1/2-x,y,z
x,1/2-y,z
loop_
_atom_site_type_symbol
_atom_site_label
_atom_site_fract_x
_atom_site_fract_y
_atom_site_fract_z
Si Si1 0.141943 0.918020 0.373419
Si Si2 0.359871 0.927135 0.917066
Si Si3 0.983847 0.582823 0.449602
Si Si4 0.860984 0.425703 0.787710
Si Si5 0.041092 0.925664 0.110684
Si Si6 0.138839 0.071029 0.640963
Si Si7 0.861179 0.577406 0.980686
Si Si8 0.980478 0.925855 0.703899
O O1 0.250000 0.965460 0.385065
O O2 0.134719 0.750000 0.349617
O O3 0.088311 0.918624 0.424955
O O4 0.099789 0.040938 0.336833
O O5 0.250000 0.973290 0.903883
O O6 0.375195 0.750000 0.911944
O O7 0.431581 0.014790 0.879735
O O8 0.386067 0.976895 0.972233
O O9 0.948444 0.750000 0.462476
O O10 0.906383 0.511530 0.410872
O O11 0.000000 0.500000 0.500000
O O12 0.750000 0.480250 0.778868
O O13 0.869338 0.250000 0.775721
O O14 0.890059 0.460090 0.843475
O O15 0.939060 0.512319 0.754856
O O16 0.040181 0.750000 0.098422
O O17 0.078419 0.019011 0.064795
O O18 0.250000 0.020662 0.644121
O O19 0.125845 0.250000 0.643412
O O20 0.081534 0.002572 0.687438
O O21 0.750000 0.560462 0.966333
O O22 0.888551 0.750000 0.992182
O O23 0.999082 0.750000 0.709032
#
# Coordination Sequence:
#
# PCOD8243447 Si02
#       8
#     8   8   8   8   8   8   8   8
#     4   9  18  34  54  73  99 139 181 216 254 309
#     4  10  21  37  56  77 105 143 184 224 266 314
#     4   9  18  31  48  75 109 143 179 219 265 315
#     4  10  22  40  60  81 108 144 180 213 259 324
#     4  11  22  36  56  81 109 140 178 223 268 319
#     4   9  19  38  61  80 104 145 192 230 266 316
#     4  10  20  34  54  80 110 144 181 221 266 318
#     4  11  22  35  55  84 112 135 168 220 275 320
#
# _framework density 19.093772000000001
#
# number of rings (size 3 to 8) (size 9 to 14) (size 15 to 20)
#    0.000    2.125    0.000    4.125    0.000    7.750 
#    0.000    0.625    0.000    0.750    0.000    0.000 
#    0.000    0.000    0.000    0.000    0.000    0.000 
#
# Total GULP energy -793455.169227 kJ/mol
# GULP energy per Si atom -12397.737019 kJ/mol
# Density = 1.905031 g / cm^3
# Si number density = 19.093772 Si / 1000 Ang^3
#
#
#
# Elastic Constant Matrix: (Units=GPa)
#
#
# Indices 1 2 3 4 5 6 
#
# 1 141.0245 35.1789 44.3491 0.0000 0.0000 0.0000
# 2 35.1789 62.5346 25.4833 0.0000 0.0000 0.0000
# 3 44.3491 25.4833 55.1106 0.0000 0.0000 0.0000
# 4 0.0000 0.0000 0.0000 30.8535 0.0000 0.0000
# 5 0.0000 0.0000 0.0000 0.0000 21.8946 0.0000
# 6 0.0000 0.0000 0.0000 0.0000 0.0000 26.5287
#
#
#
# Elastic Compliance Matrix: (Units=1/GPa)
#
#
# Indices 1 2 3 4 5 6 
#
# 1 0.009892 -0.002860 -0.006638 0.000000 0.000000 0.000000
# 2 -0.002860 0.020531 -0.007192 0.000000 0.000000 0.000000
# 3 -0.006638 -0.007192 0.026813 0.000000 0.000000 0.000000
# 4 0.000000 0.000000 0.000000 0.032411 0.000000 0.000000
# 5 0.000000 0.000000 0.000000 0.000000 0.045673 0.000000
# 6 0.000000 0.000000 0.000000 0.000000 0.000000 0.037695
#
#
# Mechanical properties :
#
#
# Convention : Reuss Voigt Hill
#
# Bulk Modulus (GPa) = 41.91868 52.07692 46.99780
# Shear Modulus (GPa) = 23.32674 26.09926 24.71300
#
# Velocity S-wave (km/s) = 3.49907 3.70117 3.60154
# Velocity P-wave (km/s) = 6.19083 6.75266 6.47784
#
# Compressibility (1/GPa) = 0.02385571
#
# Stress axis : x y z
#
# Youngs Moduli (GPa) = 101.09399 48.70747 37.29570
#
# Poissons Ratio (x) = 0.13929 0.24756
# Poissons Ratio (y) = 0.28909 0.26824
# Poissons Ratio (z) = 0.67105 0.35032
#
# Static dielectric constant tensor:
#      x y z
#    x 3.903990 0.000000 0.000000 
#    y 0.000000 3.441520 0.000000 
#    z 0.000000 0.000000 3.319250 
# 
# 
# High freq. dielectric constant tensor:
#      x y z
#    x 1.755690 0.000000 0.000000 
#    y 0.000000 1.736870 0.000000 
#    z 0.000000 0.000000 1.725160 
# 
# From -- ./inp_files/32184.got.cif
#   From: 2010.03.12/outbox.cif.g09.slc.cpg/sg59_17_cif.got.tgz:32184.got - 2010.04.16 16:29:54.
