data_PCOD8243753
_publ_section_title
;
Structure prediction by ZEFSAII (Michael W. Deem and Ramdas Pophale) SiO2 
 PCOD8243753
Probable space group: P M M N
;
_chemical_formula_sum "Si O2"
_cell_formula_units_Z 64
_cell_length_a 8.703323
_cell_length_b 22.068840
_cell_length_c 16.806388
_cell_angle_alpha 90.000000
_cell_angle_beta 90.000000
_cell_angle_gamma 90.000000
_cell_volume 3228.040636
_symmetry_space_group_name_H-M "P M M N"
_symmetry_group_IT_number 59
_space_group.IT_coordinate_system_code '2'
_symmetry_cell_setting 'orthorhombic'
loop_
_space_group_symop_operation_xyz
x,y,z
1/2-x,1/2-y,z
1/2+x,-y,-z
-x,1/2+y,-z
-x,-y,-z
1/2+x,1/2+y,-z
1/2-x,y,z
x,1/2-y,z
loop_
_atom_site_type_symbol
_atom_site_label
_atom_site_fract_x
_atom_site_fract_y
_atom_site_fract_z
Si Si1 0.931126 0.890921 0.881166
Si Si2 0.930813 0.980788 0.124440
Si Si3 0.570282 0.127945 0.962623
Si Si4 0.429360 0.423019 0.714398
Si Si5 0.432268 0.183225 0.268333
Si Si6 0.924292 0.318794 0.799064
Si Si7 0.066496 0.060729 0.538746
Si Si8 0.432363 0.180981 0.446465
O O1 0.750000 0.903306 0.877249
O O2 0.994744 0.861186 0.799970
O O3 0.028681 0.950987 0.894433
O O4 0.974978 0.851057 0.958969
O O5 0.750000 0.968188 0.114633
O O6 0.987656 0.966739 0.214847
O O7 0.023924 0.940070 0.062316
O O8 0.750000 0.131571 0.981806
O O9 0.521733 0.172167 0.890319
O O10 0.250000 0.427477 0.704969
O O11 0.472198 0.354457 0.736507
O O12 0.499097 0.440678 0.628909
O O13 0.250000 0.183248 0.265368
O O14 0.495046 0.250000 0.248388
O O15 0.488080 0.164691 0.356684
O O16 0.750000 0.342333 0.791603
O O17 0.941504 0.250000 0.774115
O O18 0.250000 0.058329 0.532786
O O19 0.006525 0.124871 0.500464
O O20 0.000000 0.000000 0.500000
O O21 0.250000 0.182927 0.450192
O O22 0.491258 0.250000 0.470217
#
# Coordination Sequence:
#
# PCOD8243753 Si02
#       8
#     8   8   8   8   8   8   8   8
#     4  11  21  31  50  77 101 130 172 217 262 314
#     4  10  20  35  52  70 101 139 174 214 260 311
#     4  10  20  35  52  73 103 136 172 214 261 313
#     4   9  20  36  52  77 109 140 176 218 263 316
#     4   8  16  31  49  72 101 131 169 215 254 299
#     4   9  19  36  57  79 104 138 178 218 262 316
#     4  10  21  35  55  85 116 144 179 225 277 327
#     4   8  15  31  54  77 104 141 183 222 260 311
#
# _framework density 19.826267999999999
#
# number of rings (size 3 to 8) (size 9 to 14) (size 15 to 20)
#    0.000    2.625    0.000    2.250    1.750    2.750 
#    0.000    1.250    0.000    1.500    0.000    3.500 
#    0.000    0.000    0.000    0.000    0.000    0.000 
#
# Total GULP energy -793158.235164 kJ/mol
# GULP energy per Si atom -12393.097424 kJ/mol
# Density = 1.978114 g / cm^3
# Si number density = 19.826268 Si / 1000 Ang^3
#
#
#
# Elastic Constant Matrix: (Units=GPa)
#
#
# Indices 1 2 3 4 5 6 
#
# 1 17.2806 9.4720 17.9147 0.0000 0.0000 0.0000
# 2 9.4720 74.5357 35.0215 0.0000 0.0000 0.0000
# 3 17.9147 35.0215 127.3283 0.0000 0.0000 0.0000
# 4 0.0000 0.0000 0.0000 20.7402 0.0000 0.0000
# 5 0.0000 0.0000 0.0000 0.0000 18.0793 0.0000
# 6 0.0000 0.0000 0.0000 0.0000 0.0000 22.8949
#
#
#
# Elastic Compliance Matrix: (Units=1/GPa)
#
#
# Indices 1 2 3 4 5 6 
#
# 1 0.069243 -0.004848 -0.008409 0.000000 0.000000 0.000000
# 2 -0.004848 0.015747 -0.003649 0.000000 0.000000 0.000000
# 3 -0.008409 -0.003649 0.010040 0.000000 0.000000 0.000000
# 4 0.000000 0.000000 0.000000 0.048216 0.000000 0.000000
# 5 0.000000 0.000000 0.000000 0.000000 0.055312 0.000000
# 6 0.000000 0.000000 0.000000 0.000000 0.000000 0.043678
#
#
# Mechanical properties :
#
#
# Convention : Reuss Voigt Hill
#
# Bulk Modulus (GPa) = 16.33498 38.21789 27.27643
# Shear Modulus (GPa) = 16.86597 22.79197 19.82897
#
# Velocity S-wave (km/s) = 2.91982 3.39423 3.16592
# Velocity P-wave (km/s) = 4.42991 5.88891 5.21073
#
# Compressibility (1/GPa) = 0.06121833
#
# Stress axis : x y z
#
# Youngs Moduli (GPa) = 14.44183 63.50376 99.59701
#
# Poissons Ratio (x) = 0.30790 0.83748
# Poissons Ratio (y) = 0.07002 0.36344
# Poissons Ratio (z) = 0.12144 0.23173
#
# Static dielectric constant tensor:
#      x y z
#    x 3.250990 0.000000 0.000000 
#    y 0.000000 3.629520 0.000000 
#    z 0.000000 0.000000 4.103430 
# 
# 
# High freq. dielectric constant tensor:
#      x y z
#    x 1.739290 0.000000 0.000000 
#    y 0.000000 1.766130 0.000000 
#    z 0.000000 0.000000 1.786560 
# 
# From -- ./inp_files/21451.got.cif
#   From: 2010.03.12/outbox.cif.g09.slc.cpg/sg59_11_cif.got.tgz:21451.got - 2010.04.16 16:29:54.
