data_PCOD8243840
_publ_section_title
;
Structure prediction by ZEFSAII (Michael W. Deem and Ramdas Pophale) SiO2 
 PCOD8243840
Probable space group: P M M N
;
_chemical_formula_sum "Si O2"
_cell_formula_units_Z 56
_cell_length_a 9.065043
_cell_length_b 14.162340
_cell_length_c 22.762210
_cell_angle_alpha 90.000000
_cell_angle_beta 90.000000
_cell_angle_gamma 90.000000
_cell_volume 2922.263077
_symmetry_space_group_name_H-M "P M M N"
_symmetry_group_IT_number 59
_space_group.IT_coordinate_system_code '2'
_symmetry_cell_setting 'orthorhombic'
loop_
_space_group_symop_operation_xyz
x,y,z
1/2-x,1/2-y,z
1/2+x,-y,-z
-x,1/2+y,-z
-x,-y,-z
1/2+x,1/2+y,-z
1/2-x,y,z
x,1/2-y,z
loop_
_atom_site_type_symbol
_atom_site_label
_atom_site_fract_x
_atom_site_fract_y
_atom_site_fract_z
Si Si1 0.078687 0.644995 0.588165
Si Si2 0.576818 0.360010 0.753910
Si Si3 0.579727 0.641076 0.471324
Si Si4 0.424820 0.146359 0.970445
Si Si5 0.421898 0.459410 0.647315
Si Si6 0.077235 0.358334 0.102058
Si Si7 0.574915 0.966747 0.141240
O O1 0.250000 0.649102 0.573923
O O2 0.018939 0.750000 0.605161
O O3 0.049131 0.572344 0.641739
O O4 0.004983 0.605284 0.528936
O O5 0.750000 0.375901 0.762625
O O6 0.537962 0.250000 0.745624
O O7 0.523645 0.417999 0.697727
O O8 0.491176 0.398770 0.809957
O O9 0.750000 0.621997 0.483436
O O10 0.544456 0.750000 0.459622
O O11 0.526697 0.585911 0.413881
O O12 0.250000 0.150598 0.971645
O O13 0.486510 0.250000 0.953471
O O14 0.479651 0.072484 0.921927
O O15 0.479662 0.119781 0.035784
O O16 0.250000 0.437388 0.660911
O O17 0.250000 0.379096 0.108503
O O18 0.042280 0.250000 0.118921
O O19 0.988293 0.426869 0.146222
O O20 0.750000 0.968234 0.148348
#
# Coordination Sequence:
#
# PCOD8243840 Si02
#       7
#     8   8   8   8   8   8   8
#     4   9  18  32  51  78 110 140 172 212 258 309
#     4  11  25  42  58  78 104 135 175 222 269 321
#     4   9  17  29  48  76 107 138 174 216 263 316
#     4   8  15  29  51  80 111 143 178 216 264 320
#     4  10  20  35  55  77 104 141 180 219 265 312
#     4   9  18  34  55  79 111 147 180 219 266 315
#     4  11  21  34  56  82 109 143 181 222 267 317
#
# _framework density 19.163232000000001
#
# number of rings (size 3 to 8) (size 9 to 14) (size 15 to 20)
#    0.000    2.429    0.000    3.429    0.000    3.714 
#    0.000    2.857    0.000    4.286    0.000    0.000 
#    0.000    0.000    0.000    0.000    0.000    0.000 
#
# Total GULP energy -694279.411317 kJ/mol
# GULP energy per Si atom -12397.846631 kJ/mol
# Density = 1.911962 g / cm^3
# Si number density = 19.163232 Si / 1000 Ang^3
#
#
#
# Elastic Constant Matrix: (Units=GPa)
#
#
# Indices 1 2 3 4 5 6 
#
# 1 60.9700 40.5942 33.8284 0.0000 0.0000 0.0000
# 2 40.5942 98.1700 47.9509 0.0000 0.0000 0.0000
# 3 33.8284 47.9509 64.1458 0.0000 0.0000 0.0000
# 4 0.0000 0.0000 0.0000 30.2838 0.0000 0.0000
# 5 0.0000 0.0000 0.0000 0.0000 29.3043 0.0000
# 6 0.0000 0.0000 0.0000 0.0000 0.0000 28.1389
#
#
#
# Elastic Compliance Matrix: (Units=1/GPa)
#
#
# Indices 1 2 3 4 5 6 
#
# 1 0.025399 -0.006238 -0.008732 0.000000 0.000000 0.000000
# 2 -0.006238 0.017577 -0.009850 0.000000 0.000000 0.000000
# 3 -0.008732 -0.009850 0.027557 0.000000 0.000000 0.000000
# 4 0.000000 0.000000 0.000000 0.033021 0.000000 0.000000
# 5 0.000000 0.000000 0.000000 0.000000 0.034125 0.000000
# 6 0.000000 0.000000 0.000000 0.000000 0.000000 0.035538
#
#
# Mechanical properties :
#
#
# Convention : Reuss Voigt Hill
#
# Bulk Modulus (GPa) = 47.85845 52.00366 49.93106
# Shear Modulus (GPa) = 21.75611 24.27290 23.01451
#
# Velocity S-wave (km/s) = 3.37308 3.56285 3.46926
# Velocity P-wave (km/s) = 6.34023 6.64239 6.49307
#
# Compressibility (1/GPa) = 0.02089495
#
# Stress axis : x y z
#
# Youngs Moduli (GPa) = 39.37092 56.89314 36.28817
#
# Poissons Ratio (x) = 0.35489 0.31686
# Poissons Ratio (y) = 0.24559 0.35742
# Poissons Ratio (z) = 0.34378 0.56037
#
# Static dielectric constant tensor:
#      x y z
#    x 3.287910 0.000000 0.000000 
#    y 0.000000 3.827280 0.000000 
#    z 0.000000 0.000000 3.525320 
# 
# 
# High freq. dielectric constant tensor:
#      x y z
#    x 1.728140 0.000000 0.000000 
#    y 0.000000 1.762720 0.000000 
#    z 0.000000 0.000000 1.726560 
# 
# From -- ./inp_files/28988.got.cif
#   From: 2010.03.12/outbox.cif.g09.slc.cpg/sg59_15_cif.got.tgz:28988.got - 2010.04.16 16:29:54.
