data_PCOD8243216
_publ_section_title
;
Structure prediction by ZEFSAII (Michael W. Deem and Ramdas Pophale) SiO2 
 PCOD8243216
Probable space group: P M M N
;
_chemical_formula_sum "Si O2"
_cell_formula_units_Z 64
_cell_length_a 15.398148
_cell_length_b 23.513499
_cell_length_c 8.955955
_cell_angle_alpha 90.000000
_cell_angle_beta 90.000000
_cell_angle_gamma 90.000000
_cell_volume 3242.631915
_symmetry_space_group_name_H-M "P M M N"
_symmetry_group_IT_number 59
_space_group.IT_coordinate_system_code '2'
_symmetry_cell_setting 'orthorhombic'
loop_
_space_group_symop_operation_xyz
x,y,z
1/2-x,1/2-y,z
1/2+x,-y,-z
-x,1/2+y,-z
-x,-y,-z
1/2+x,1/2+y,-z
1/2-x,y,z
x,1/2-y,z
loop_
_atom_site_type_symbol
_atom_site_label
_atom_site_fract_x
_atom_site_fract_y
_atom_site_fract_z
Si Si1 0.514643 0.188308 0.687300
Si Si2 0.585868 0.071345 0.696521
Si Si3 0.650724 0.873437 0.683823
Si Si4 0.148905 0.588880 0.636988
Si Si5 0.905455 0.523338 0.205357
Si Si6 0.843370 0.868096 0.339458
Si Si7 0.346286 0.020274 0.111026
Si Si8 0.521034 0.312651 0.333753
O O1 0.540728 0.250000 0.756572
O O2 0.574286 0.137153 0.750476
O O3 0.414291 0.175216 0.726211
O O4 0.522016 0.190881 0.510952
O O5 0.615744 0.070586 0.525940
O O6 0.496994 0.035559 0.714744
O O7 0.654351 0.040406 0.803244
O O8 0.750000 0.851605 0.717129
O O9 0.638039 0.886557 0.509560
O O10 0.629412 0.931118 0.770735
O O11 0.575611 0.828362 0.728445
O O12 0.250000 0.606530 0.629959
O O13 0.135633 0.535834 0.744715
O O14 0.094206 0.641082 0.709260
O O15 0.840342 0.574046 0.245880
O O16 0.914371 0.521631 0.025134
O O17 0.750000 0.837563 0.325165
O O18 0.250000 0.029443 0.046365
O O19 0.544072 0.250000 0.268138
#
# Coordination Sequence:
#
# PCOD8243216 Si02
#       8
#     8   8   8   8   8   8   8   8
#     4   8  16  30  48  71  97 127 166 212 255 298
#     4  10  20  34  53  75 103 138 174 217 264 318
#     4   9  18  32  53  80 109 140 173 213 262 319
#     4  11  21  34  54  78 106 141 180 221 267 318
#     4  11  21  34  52  76 105 137 172 215 268 322
#     4   9  16  28  48  74 102 131 163 203 256 314
#     4  11  21  33  51  77 107 135 170 216 267 323
#     4   9  18  33  52  76 105 135 174 221 263 305
#
# _framework density 19.737053
#
# number of rings (size 3 to 8) (size 9 to 14) (size 15 to 20)
#    0.000    2.250    0.000    4.500    0.000    1.750 
#    0.000    2.500    0.000    7.875    0.000    3.500 
#    0.000    0.000    0.000    0.000    0.000    0.000 
#
# Total GULP energy -793126.925065 kJ/mol
# GULP energy per Si atom -12392.608204 kJ/mol
# Density = 1.969213 g / cm^3
# Si number density = 19.737053 Si / 1000 Ang^3
#
#
#
# Elastic Constant Matrix: (Units=GPa)
#
#
# Indices 1 2 3 4 5 6 
#
# 1 87.0908 29.1798 12.6493 0.0000 0.0000 0.0000
# 2 29.1798 126.4836 23.5292 0.0000 0.0000 0.0000
# 3 12.6493 23.5292 52.6095 0.0000 0.0000 0.0000
# 4 0.0000 0.0000 0.0000 1.2918 0.0000 0.0000
# 5 0.0000 0.0000 0.0000 0.0000 14.3912 0.0000
# 6 0.0000 0.0000 0.0000 0.0000 0.0000 17.7235
#
#
#
# Elastic Compliance Matrix: (Units=1/GPa)
#
#
# Indices 1 2 3 4 5 6 
#
# 1 0.012614 -0.002559 -0.001888 0.000000 0.000000 0.000000
# 2 -0.002559 0.009143 -0.003474 0.000000 0.000000 0.000000
# 3 -0.001888 -0.003474 0.021016 0.000000 0.000000 0.000000
# 4 0.000000 0.000000 0.000000 0.774097 0.000000 0.000000
# 5 0.000000 0.000000 0.000000 0.000000 0.069487 0.000000
# 6 0.000000 0.000000 0.000000 0.000000 0.000000 0.056422
#
#
# Mechanical properties :
#
#
# Convention : Reuss Voigt Hill
#
# Bulk Modulus (GPa) = 37.13297 44.10006 40.61651
# Shear Modulus (GPa) = 5.16744 20.06968 12.61856
#
# Velocity S-wave (km/s) = 1.61982 3.19227 2.53125
# Velocity P-wave (km/s) = 4.72791 5.99831 5.40060
#
# Compressibility (1/GPa) = 0.02693024
#
# Stress axis : x y z
#
# Youngs Moduli (GPa) = 79.27793 109.37720 47.58354
#
# Poissons Ratio (x) = 0.27986 0.08986
# Poissons Ratio (y) = 0.20285 0.16529
# Poissons Ratio (z) = 0.14971 0.37995
#
# Static dielectric constant tensor:
#      x y z
#    x 3.701580 0.000000 0.000000 
#    y 0.000000 3.925350 0.000000 
#    z 0.000000 0.000000 3.253600 
# 
# 
# High freq. dielectric constant tensor:
#      x y z
#    x 1.772090 0.000000 0.000000 
#    y 0.000000 1.763420 0.000000 
#    z 0.000000 0.000000 1.734200 
# 
# From -- ./inp_files/9619.got.cif
#   From: 2010.03.12/outbox.cif.g09.slc.cpg/sg59_5_cif.got.tgz:9619.got - 2010.04.16 16:29:54.
