data_PCOD8243559
_publ_section_title
;
Structure prediction by ZEFSAII (Michael W. Deem and Ramdas Pophale) SiO2 
 PCOD8243559
Probable space group: P M M N
;
_chemical_formula_sum "Si O2"
_cell_formula_units_Z 64
_cell_length_a 13.240753
_cell_length_b 22.555316
_cell_length_c 11.779739
_cell_angle_alpha 90.000000
_cell_angle_beta 90.000000
_cell_angle_gamma 90.000000
_cell_volume 3518.011607
_symmetry_space_group_name_H-M "P M M N"
_symmetry_group_IT_number 59
_space_group.IT_coordinate_system_code '2'
_symmetry_cell_setting 'orthorhombic'
loop_
_space_group_symop_operation_xyz
x,y,z
1/2-x,1/2-y,z
1/2+x,-y,-z
-x,1/2+y,-z
-x,-y,-z
1/2+x,1/2+y,-z
1/2-x,y,z
x,1/2-y,z
loop_
_atom_site_type_symbol
_atom_site_label
_atom_site_fract_x
_atom_site_fract_y
_atom_site_fract_z
Si Si1 0.567615 0.594425 0.672131
Si Si2 0.865932 0.319406 0.626443
Si Si3 0.137621 0.909837 0.577733
Si Si4 0.868939 0.685509 0.835206
Si Si5 0.495618 0.404119 0.761753
Si Si6 0.134809 0.455823 0.560471
Si Si7 0.134077 0.002020 0.142933
Si Si8 0.631415 0.900064 0.026188
O O1 0.445105 0.594630 0.677202
O O2 0.603970 0.658648 0.712603
O O3 0.605299 0.585440 0.544272
O O4 0.617122 0.546002 0.752482
O O5 0.750000 0.325594 0.668835
O O6 0.892301 0.250000 0.604629
O O7 0.880388 0.357856 0.512805
O O8 0.943035 0.346633 0.718465
O O9 0.250000 0.904242 0.630896
O O10 0.123848 0.975335 0.521891
O O11 0.750000 0.688986 0.847976
O O12 0.918924 0.750000 0.842525
O O13 0.915618 0.646406 0.936575
O O14 0.442551 0.441348 0.661819
O O15 0.569178 0.443890 0.837886
O O16 0.410327 0.384491 0.850055
O O17 0.250000 0.442417 0.598559
O O18 0.250000 0.982359 0.143054
O O19 0.106404 0.034040 0.023153
O O20 0.750000 0.891697 0.033999
#
# Coordination Sequence:
#
# PCOD8243559 Si02
#       8
#     8   8   8   8   8   8   8   8
#     4  11  18  34  53  80 109 140 175 221 267 319
#     4  10  22  38  54  75 106 147 194 230 259 313
#     4  10  20  35  54  78 111 149 182 216 264 325
#     4   9  19  36  58  79 101 140 190 230 266 316
#     4  12  20  34  56  81 111 144 179 221 277 332
#     4  11  21  32  51  84 118 143 171 217 279 339
#     4  10  20  34  55  81 108 140 180 224 267 321
#     4   9  20  36  54  80 110 140 177 225 278 327
#
# _framework density 18.192094000000001
#
# number of rings (size 3 to 8) (size 9 to 14) (size 15 to 20)
#    0.000    1.750    2.500    4.125    0.000    2.000 
#    0.000    0.000    0.000    4.125    0.000    0.000 
#    0.000    0.000    0.000    0.000    0.000    0.000 
#
# Total GULP energy -793331.627287 kJ/mol
# GULP energy per Si atom -12395.806676 kJ/mol
# Density = 1.815069 g / cm^3
# Si number density = 18.192094 Si / 1000 Ang^3
#
#
#
# Elastic Constant Matrix: (Units=GPa)
#
#
# Indices 1 2 3 4 5 6 
#
# 1 54.2944 32.4376 14.9600 0.0000 0.0000 0.0000
# 2 32.4376 116.2821 32.6401 0.0000 0.0000 0.0000
# 3 14.9600 32.6401 71.3901 0.0000 0.0000 0.0000
# 4 0.0000 0.0000 0.0000 13.9710 0.0000 0.0000
# 5 0.0000 0.0000 0.0000 0.0000 30.9822 0.0000
# 6 0.0000 0.0000 0.0000 0.0000 0.0000 23.4853
#
#
#
# Elastic Compliance Matrix: (Units=1/GPa)
#
#
# Indices 1 2 3 4 5 6 
#
# 1 0.022374 -0.005650 -0.002105 0.000000 0.000000 0.000000
# 2 -0.005650 0.011293 -0.003979 0.000000 0.000000 0.000000
# 3 -0.002105 -0.003979 0.016268 0.000000 0.000000 0.000000
# 4 0.000000 0.000000 0.000000 0.071577 0.000000 0.000000
# 5 0.000000 0.000000 0.000000 0.000000 0.032277 0.000000
# 6 0.000000 0.000000 0.000000 0.000000 0.000000 0.042580
#
#
# Mechanical properties :
#
#
# Convention : Reuss Voigt Hill
#
# Bulk Modulus (GPa) = 37.78512 44.67135 41.22824
# Shear Modulus (GPa) = 21.86658 24.48295 23.17476
#
# Velocity S-wave (km/s) = 3.47072 3.67250 3.57303
# Velocity P-wave (km/s) = 6.07259 6.52623 6.30349
#
# Compressibility (1/GPa) = 0.02646544
#
# Stress axis : x y z
#
# Youngs Moduli (GPa) = 44.69492 88.55097 61.47047
#
# Poissons Ratio (x) = 0.50035 0.12940
# Poissons Ratio (y) = 0.25255 0.24460
# Poissons Ratio (z) = 0.09409 0.35236
#
# Static dielectric constant tensor:
#      x y z
#    x 3.573500 0.000000 0.000000 
#    y 0.000000 3.489400 0.000000 
#    z 0.000000 0.000000 3.245210 
# 
# 
# High freq. dielectric constant tensor:
#      x y z
#    x 1.712950 0.000000 0.000000 
#    y 0.000000 1.694260 0.000000 
#    z 0.000000 0.000000 1.687500 
# 
# From -- ./inp_files/16254.got.cif
#   From: 2010.03.12/outbox.cif.g09.slc.cpg/sg59_9_cif.got.tgz:16254.got - 2010.04.16 16:29:54.
