data_PCOD8243428
_publ_section_title
;
Structure prediction by ZEFSAII (Michael W. Deem and Ramdas Pophale) SiO2 
 PCOD8243428
Probable space group: P M M N
;
_chemical_formula_sum "Si O2"
_cell_formula_units_Z 64
_cell_length_a 9.210412
_cell_length_b 24.716630
_cell_length_c 15.512941
_cell_angle_alpha 90.000000
_cell_angle_beta 90.000000
_cell_angle_gamma 90.000000
_cell_volume 3531.526379
_symmetry_space_group_name_H-M "P M M N"
_symmetry_group_IT_number 59
_space_group.IT_coordinate_system_code '2'
_symmetry_cell_setting 'orthorhombic'
loop_
_space_group_symop_operation_xyz
x,y,z
1/2-x,1/2-y,z
1/2+x,-y,-z
-x,1/2+y,-z
-x,-y,-z
1/2+x,1/2+y,-z
1/2-x,y,z
x,1/2-y,z
loop_
_atom_site_type_symbol
_atom_site_label
_atom_site_fract_x
_atom_site_fract_y
_atom_site_fract_z
Si Si1 0.909309 0.552702 0.984877
Si Si2 0.082084 0.688687 0.112339
Si Si3 0.580904 0.552010 0.465786
Si Si4 0.419996 0.810284 0.741447
Si Si5 0.082299 0.647170 0.925174
Si Si6 0.577544 0.473419 0.694758
Si Si7 0.088994 0.406128 0.825504
Si Si8 0.915866 0.904701 0.644654
O O1 0.750000 0.538483 0.947113
O O2 0.990461 0.591883 0.917894
O O3 0.893733 0.582660 0.074580
O O4 0.000000 0.500000 0.000000
O O5 0.250000 0.674769 0.127565
O O6 0.045280 0.750000 0.136543
O O7 0.990332 0.652002 0.178881
O O8 0.043142 0.680080 0.011545
O O9 0.500000 0.500000 0.500000
O O10 0.750000 0.539367 0.448324
O O11 0.498544 0.566046 0.376691
O O12 0.565412 0.597488 0.540319
O O13 0.250000 0.816044 0.726045
O O14 0.473045 0.750000 0.714240
O O15 0.457926 0.817023 0.842359
O O16 0.492743 0.856180 0.683872
O O17 0.250000 0.630147 0.924506
O O18 0.750000 0.465236 0.691539
O O19 0.510647 0.453266 0.784674
O O20 0.534834 0.536368 0.680819
O O21 0.250000 0.403709 0.782504
O O22 0.750000 0.895054 0.670791
#
# Coordination Sequence:
#
# PCOD8243428 Si02
#       8
#     8   8   8   8   8   8   8   8
#     4  10  21  34  48  69 100 137 175 213 258 310
#     4   9  17  32  54  74  96 131 173 216 261 306
#     4   9  17  32  53  78 105 132 165 203 248 304
#     4  10  21  35  52  76 105 138 179 222 260 306
#     4   9  18  33  51  72  98 132 175 219 261 304
#     4  10  20  34  54  80 108 136 170 213 261 315
#     4  10  21  34  49  74 104 135 170 209 258 309
#     4   9  20  35  52  77 105 136 170 208 259 311
#
# _framework density 18.122475999999999
#
# number of rings (size 3 to 8) (size 9 to 14) (size 15 to 20)
#    0.000    2.500    0.000    2.625    1.750    7.000 
#    0.000    0.000    0.000    3.000    0.000    3.500 
#    0.000    0.000    0.000    0.000    0.000    0.000 
#
# Total GULP energy -793251.464137 kJ/mol
# GULP energy per Si atom -12394.554127 kJ/mol
# Density = 1.808123 g / cm^3
# Si number density = 18.122476 Si / 1000 Ang^3
#
#
#
# Elastic Constant Matrix: (Units=GPa)
#
#
# Indices 1 2 3 4 5 6 
#
# 1 105.6479 61.0362 33.3847 0.0000 0.0000 0.0000
# 2 61.0362 120.8149 32.7820 0.0000 0.0000 0.0000
# 3 33.3847 32.7820 52.5476 0.0000 0.0000 0.0000
# 4 0.0000 0.0000 0.0000 21.2332 0.0000 0.0000
# 5 0.0000 0.0000 0.0000 0.0000 29.7040 0.0000
# 6 0.0000 0.0000 0.0000 0.0000 0.0000 31.1433
#
#
#
# Elastic Compliance Matrix: (Units=1/GPa)
#
#
# Indices 1 2 3 4 5 6 
#
# 1 0.014635 -0.005863 -0.005640 0.000000 0.000000 0.000000
# 2 -0.005863 0.012313 -0.003956 0.000000 0.000000 0.000000
# 3 -0.005640 -0.003956 0.025082 0.000000 0.000000 0.000000
# 4 0.000000 0.000000 0.000000 0.047096 0.000000 0.000000
# 5 0.000000 0.000000 0.000000 0.000000 0.033666 0.000000
# 6 0.000000 0.000000 0.000000 0.000000 0.000000 0.032110
#
#
# Mechanical properties :
#
#
# Convention : Reuss Voigt Hill
#
# Bulk Modulus (GPa) = 47.37045 59.26845 53.31945
# Shear Modulus (GPa) = 24.64788 26.53659 25.59224
#
# Velocity S-wave (km/s) = 3.69192 3.83076 3.76198
# Velocity P-wave (km/s) = 6.66104 7.23475 6.95382
#
# Compressibility (1/GPa) = 0.02111020
#
# Stress axis : x y z
#
# Youngs Moduli (GPa) = 68.32876 81.21626 39.86955
#
# Poissons Ratio (x) = 0.47620 0.22487
# Poissons Ratio (y) = 0.40063 0.15773
# Poissons Ratio (z) = 0.38539 0.32131
#
# Static dielectric constant tensor:
#      x y z
#    x 3.632090 0.000000 0.000000 
#    y 0.000000 3.275660 0.000000 
#    z 0.000000 0.000000 3.150310 
# 
# 
# High freq. dielectric constant tensor:
#      x y z
#    x 1.710940 0.000000 0.000000 
#    y 0.000000 1.683140 0.000000 
#    z 0.000000 0.000000 1.687170 
# 
# From -- ./inp_files/21508.got.cif
#   From: 2010.03.12/outbox.cif.g09.slc.cpg/sg59_11_cif.got.tgz:21508.got - 2010.04.16 16:29:54.
