data_PCOD8243253
_publ_section_title
;
Structure prediction by ZEFSAII (Michael W. Deem and Ramdas Pophale) SiO2 
 PCOD8243253
Probable space group: P M M N
;
_chemical_formula_sum "Si O2"
_cell_formula_units_Z 56
_cell_length_a 8.816443
_cell_length_b 15.454301
_cell_length_c 21.109527
_cell_angle_alpha 90.000000
_cell_angle_beta 90.000000
_cell_angle_gamma 90.000000
_cell_volume 2876.214510
_symmetry_space_group_name_H-M "P M M N"
_symmetry_group_IT_number 59
_space_group.IT_coordinate_system_code '2'
_symmetry_cell_setting 'orthorhombic'
loop_
_space_group_symop_operation_xyz
x,y,z
1/2-x,1/2-y,z
1/2+x,-y,-z
-x,1/2+y,-z
-x,-y,-z
1/2+x,1/2+y,-z
1/2-x,y,z
x,1/2-y,z
loop_
_atom_site_type_symbol
_atom_site_label
_atom_site_fract_x
_atom_site_fract_y
_atom_site_fract_z
Si Si1 0.428511 0.498700 0.290867
Si Si2 0.076136 0.920869 0.967154
Si Si3 0.925580 0.345633 0.907285
Si Si4 0.074150 0.151563 0.635086
Si Si5 0.924308 0.653793 0.616147
Si Si6 0.428717 0.906355 0.493181
Si Si7 0.072442 0.993432 0.841974
O O1 0.250000 0.513538 0.294705
O O2 0.509832 0.586884 0.311996
O O3 0.480650 0.418370 0.334425
O O4 0.475711 0.474622 0.220085
O O5 0.250000 0.944875 0.962465
O O6 0.023807 0.917624 0.893109
O O7 0.045809 0.841572 0.015481
O O8 0.000000 0.000000 0.000000
O O9 0.750000 0.370719 0.894521
O O10 0.962054 0.250000 0.881226
O O11 0.032810 0.412453 0.870904
O O12 0.250000 0.130539 0.623836
O O13 0.050834 0.250000 0.659115
O O14 0.986893 0.140314 0.569488
O O15 0.750000 0.636233 0.597262
O O16 0.943117 0.750000 0.645892
O O17 0.025891 0.650584 0.553438
O O18 0.250000 0.915680 0.488410
O O19 0.500000 0.000000 0.500000
O O20 0.250000 0.991472 0.824751
#
# Coordination Sequence:
#
# PCOD8243253 Si02
#       7
#     8   8   8   8   8   8   8
#     4  11  23  39  60  83 112 154 197 238 281 339
#     4   8  15  29  49  73  99 131 169 211 261 312
#     4   9  17  31  53  80 108 138 178 226 274 330
#     4  11  24  41  61  86 118 153 189 237 294 347
#     4  10  22  41  63  86 113 147 189 240 296 346
#     4  12  23  37  61  90 119 151 189 236 289 344
#     4  10  20  34  53  76 108 146 183 226 275 331
#
# _framework density 19.470034999999999
#
# number of rings (size 3 to 8) (size 9 to 14) (size 15 to 20)
#    0.000    1.857    1.429    3.000    0.000    5.143 
#    0.000    0.714    0.000    0.857    0.000    0.000 
#    0.000    0.000    0.000    0.000    0.000    0.000 
#
# Total GULP energy -694002.607222 kJ/mol
# GULP energy per Si atom -12392.903700 kJ/mol
# Density = 1.942572 g / cm^3
# Si number density = 19.470035 Si / 1000 Ang^3
#
#
#
# Elastic Constant Matrix: (Units=GPa)
#
#
# Indices 1 2 3 4 5 6 
#
# 1 80.4335 24.0378 28.9703 0.0000 0.0000 0.0000
# 2 24.0378 72.4083 15.2581 0.0000 0.0000 0.0000
# 3 28.9703 15.2581 106.6077 0.0000 0.0000 0.0000
# 4 0.0000 0.0000 0.0000 18.4780 0.0000 0.0000
# 5 0.0000 0.0000 0.0000 0.0000 30.8966 0.0000
# 6 0.0000 0.0000 0.0000 0.0000 0.0000 23.2951
#
#
#
# Elastic Compliance Matrix: (Units=1/GPa)
#
#
# Indices 1 2 3 4 5 6 
#
# 1 0.014942 -0.004232 -0.003455 0.000000 0.000000 0.000000
# 2 -0.004232 0.015439 -0.001060 0.000000 0.000000 0.000000
# 3 -0.003455 -0.001060 0.010471 0.000000 0.000000 0.000000
# 4 0.000000 0.000000 0.000000 0.054118 0.000000 0.000000
# 5 0.000000 0.000000 0.000000 0.000000 0.032366 0.000000
# 6 0.000000 0.000000 0.000000 0.000000 0.000000 0.042927
#
#
# Mechanical properties :
#
#
# Convention : Reuss Voigt Hill
#
# Bulk Modulus (GPa) = 42.81148 43.99800 43.40474
# Shear Modulus (GPa) = 25.56993 27.27950 26.42471
#
# Velocity S-wave (km/s) = 3.62788 3.74719 3.68801
# Velocity P-wave (km/s) = 6.29164 6.43186 6.36214
#
# Compressibility (1/GPa) = 0.02335822
#
# Stress axis : x y z
#
# Youngs Moduli (GPa) = 66.92655 64.77158 95.50535
#
# Poissons Ratio (x) = 0.27414 0.32994
# Poissons Ratio (y) = 0.28326 0.10119
# Poissons Ratio (z) = 0.23121 0.06863
#
# Static dielectric constant tensor:
#      x y z
#    x 3.653370 0.000000 0.000000 
#    y 0.000000 4.154400 0.000000 
#    z 0.000000 0.000000 3.844010 
# 
# 
# High freq. dielectric constant tensor:
#      x y z
#    x 1.761940 0.000000 0.000000 
#    y 0.000000 1.747130 0.000000 
#    z 0.000000 0.000000 1.759290 
# 
# From -- ./inp_files/28976.got.cif
#   From: 2010.03.12/outbox.cif.g09.slc.cpg/sg59_15_cif.got.tgz:28976.got - 2010.04.16 16:29:54.
