data_PCOD8243047
_publ_section_title
;
Structure prediction by ZEFSAII (Michael W. Deem and Ramdas Pophale) SiO2 
 PCOD8243047
Probable space group: P M M N
;
_chemical_formula_sum "Si O2"
_cell_formula_units_Z 64
_cell_length_a 8.838712
_cell_length_b 18.288153
_cell_length_c 21.408927
_cell_angle_alpha 90.000000
_cell_angle_beta 90.000000
_cell_angle_gamma 90.000000
_cell_volume 3460.618545
_symmetry_space_group_name_H-M "P M M N"
_symmetry_group_IT_number 59
_space_group.IT_coordinate_system_code '2'
_symmetry_cell_setting 'orthorhombic'
loop_
_space_group_symop_operation_xyz
x,y,z
1/2-x,1/2-y,z
1/2+x,-y,-z
-x,1/2+y,-z
-x,-y,-z
1/2+x,1/2+y,-z
1/2-x,y,z
x,1/2-y,z
loop_
_atom_site_type_symbol
_atom_site_label
_atom_site_fract_x
_atom_site_fract_y
_atom_site_fract_z
Si Si1 0.071884 0.167185 0.268247
Si Si2 0.578887 0.335569 0.398330
Si Si3 0.572465 0.115602 0.755796
Si Si4 0.429865 0.532487 0.061907
Si Si5 0.074336 0.165407 0.629124
Si Si6 0.927861 0.921432 0.492846
Si Si7 0.424767 0.332920 0.878776
Si Si8 0.072682 0.464730 0.188431
O O1 0.250000 0.157268 0.280465
O O2 0.033868 0.250000 0.247414
O O3 0.010217 0.112398 0.214562
O O4 0.985018 0.144992 0.330613
O O5 0.750000 0.365390 0.403303
O O6 0.572431 0.250000 0.410578
O O7 0.473723 0.372506 0.449016
O O8 0.750000 0.128917 0.764710
O O9 0.523402 0.142051 0.688164
O O10 0.487181 0.162045 0.808420
O O11 0.530871 0.029958 0.763744
O O12 0.250000 0.532317 0.057062
O O13 0.484488 0.615411 0.073318
O O14 0.491358 0.482907 0.119596
O O15 0.500000 0.500000 0.000000
O O16 0.250000 0.151119 0.643789
O O17 0.044847 0.250000 0.613015
O O18 0.017062 0.117423 0.570750
O O19 0.750000 0.930229 0.492434
O O20 0.000000 0.000000 0.500000
O O21 0.250000 0.356327 0.878719
O O22 0.445098 0.250000 0.902451
O O23 0.250000 0.457998 0.181573
#
# Coordination Sequence:
#
# PCOD8243047 Si02
#       8
#     8   8   8   8   8   8   8   8
#     4   9  17  32  56  81 104 137 181 226 273 324
#     4  10  21  37  56  79 107 139 178 225 276 330
#     4  10  20  33  53  81 112 144 179 222 275 331
#     4  10  20  36  57  81 113 151 190 230 275 327
#     4  10  22  39  56  76 105 139 177 222 271 328
#     4  11  24  40  57  78 105 140 183 228 278 332
#     4  10  20  35  56  82 112 146 187 232 277 327
#     4   8  17  33  52  78 109 141 178 222 267 316
#
# _framework density 18.493801999999999
#
# number of rings (size 3 to 8) (size 9 to 14) (size 15 to 20)
#    0.000    2.250    0.000    3.375    1.750    5.000 
#    0.000    3.750    0.000    2.250    0.000    0.000 
#    0.000    0.000    0.000    0.000    0.000    0.000 
#
# Total GULP energy -793618.131336 kJ/mol
# GULP energy per Si atom -12400.283302 kJ/mol
# Density = 1.845171 g / cm^3
# Si number density = 18.493802 Si / 1000 Ang^3
#
#
#
# Elastic Constant Matrix: (Units=GPa)
#
#
# Indices 1 2 3 4 5 6 
#
# 1 71.3151 45.3099 43.9867 0.0000 0.0000 0.0000
# 2 45.3099 94.9082 80.0919 0.0000 0.0000 0.0000
# 3 43.9867 80.0919 118.5467 0.0000 0.0000 0.0000
# 4 0.0000 0.0000 0.0000 29.2368 0.0000 0.0000
# 5 0.0000 0.0000 0.0000 0.0000 28.5161 0.0000
# 6 0.0000 0.0000 0.0000 0.0000 0.0000 28.7094
#
#
#
# Elastic Compliance Matrix: (Units=1/GPa)
#
#
# Indices 1 2 3 4 5 6 
#
# 1 0.020394 -0.007794 -0.002301 0.000000 0.000000 0.000000
# 2 -0.007794 0.027490 -0.015681 0.000000 0.000000 0.000000
# 3 -0.002301 -0.015681 0.019884 0.000000 0.000000 0.000000
# 4 0.000000 0.000000 0.000000 0.034204 0.000000 0.000000
# 5 0.000000 0.000000 0.000000 0.000000 0.035068 0.000000
# 6 0.000000 0.000000 0.000000 0.000000 0.000000 0.034832
#
#
# Mechanical properties :
#
#
# Convention : Reuss Voigt Hill
#
# Bulk Modulus (GPa) = 61.67073 69.28299 65.47686
# Shear Modulus (GPa) = 21.85044 24.98456 23.41750
#
# Velocity S-wave (km/s) = 3.44103 3.67954 3.56228
# Velocity P-wave (km/s) = 7.01474 7.45628 7.23888
#
# Compressibility (1/GPa) = 0.01621515
#
# Stress axis : x y z
#
# Youngs Moduli (GPa) = 49.03498 36.37637 50.29265
#
# Poissons Ratio (x) = 0.28352 0.11574
# Poissons Ratio (y) = 0.38218 0.78863
# Poissons Ratio (z) = 0.11284 0.57041
#
# Static dielectric constant tensor:
#      x y z
#    x 3.185770 0.000000 0.000000 
#    y 0.000000 3.563390 0.000000 
#    z 0.000000 0.000000 3.965300 
# 
# 
# High freq. dielectric constant tensor:
#      x y z
#    x 1.715770 0.000000 0.000000 
#    y 0.000000 1.724970 0.000000 
#    z 0.000000 0.000000 1.711180 
# 
# From -- ./inp_files/29453.got.cif
#   From: 2010.03.12/outbox.cif.g09.slc.cpg/sg59_15_cif.got.tgz:29453.got - 2010.04.16 16:29:54.
