data_PCOD8243063
_publ_section_title
;
Structure prediction by ZEFSAII (Michael W. Deem and Ramdas Pophale) SiO2 
 PCOD8243063
Probable space group: P M M N
;
_chemical_formula_sum "Si O2"
_cell_formula_units_Z 64
_cell_length_a 32.747382
_cell_length_b 8.919736
_cell_length_c 11.363813
_cell_angle_alpha 90.000000
_cell_angle_beta 90.000000
_cell_angle_gamma 90.000000
_cell_volume 3319.347074
_symmetry_space_group_name_H-M "P M M N"
_symmetry_group_IT_number 59
_space_group.IT_coordinate_system_code '2'
_symmetry_cell_setting 'orthorhombic'
loop_
_space_group_symop_operation_xyz
x,y,z
1/2-x,1/2-y,z
1/2+x,-y,-z
-x,1/2+y,-z
-x,-y,-z
1/2+x,1/2+y,-z
1/2-x,y,z
x,1/2-y,z
loop_
_atom_site_type_symbol
_atom_site_label
_atom_site_fract_x
_atom_site_fract_y
_atom_site_fract_z
Si Si1 0.870194 0.927078 0.631243
Si Si2 0.971650 0.922422 0.267373
Si Si3 0.297007 0.926260 0.244654
Si Si4 0.599810 0.073757 0.393794
Si Si5 0.702772 0.919883 0.996006
Si Si6 0.940097 0.419611 0.045963
Si Si7 0.938507 0.422930 0.779656
Si Si8 0.854757 0.082147 0.158759
O O1 0.866809 0.750000 0.626908
O O2 0.825635 0.993501 0.660080
O O3 0.884589 0.987319 0.506417
O O4 0.902996 0.973963 0.728959
O O5 0.958633 0.750000 0.281635
O O6 0.019755 0.944325 0.294769
O O7 0.945784 0.021568 0.358732
O O8 0.964013 0.970010 0.132526
O O9 0.250000 0.971715 0.270524
O O10 0.303557 0.750000 0.254248
O O11 0.309924 0.977280 0.114024
O O12 0.598004 0.250000 0.419760
O O13 0.630692 0.033772 0.288419
O O14 0.750000 0.936549 0.025304
O O15 0.690931 0.750000 0.964137
O O16 0.679949 0.970128 0.114320
O O17 0.955873 0.250000 0.067432
O O18 0.891968 0.427649 0.068451
O O19 0.947635 0.472835 0.913106
O O20 0.923953 0.250000 0.775542
O O21 0.836776 0.250000 0.162449
#
# Coordination Sequence:
#
# PCOD8243063 Si02
#       8
#     8   8   8   8   8   8   8   8
#     4  12  25  39  59  85 111 142 185 236 281 323
#     4  10  20  34  55  83 112 145 186 232 280 326
#     4  10  21  39  63  87 114 149 183 217 265 327
#     4  10  22  41  60  76 104 147 190 233 278 329
#     4  10  20  33  53  85 120 147 175 219 273 323
#     4   9  18  33  53  78 109 145 183 225 276 333
#     4  10  21  36  55  81 115 151 186 226 273 332
#     4   9  18  33  55  79 103 141 187 225 270 328
#
# _framework density 19.280901
#
# number of rings (size 3 to 8) (size 9 to 14) (size 15 to 20)
#    0.000    2.000    0.000    4.500    0.000    7.000 
#    0.000    0.625    0.000    0.750    0.000    0.000 
#    0.000    0.000    0.000    0.000    0.000    0.000 
#
# Total GULP energy -793792.525766 kJ/mol
# GULP energy per Si atom -12403.008215 kJ/mol
# Density = 1.923702 g / cm^3
# Si number density = 19.280901 Si / 1000 Ang^3
#
#
#
# Elastic Constant Matrix: (Units=GPa)
#
#
# Indices 1 2 3 4 5 6 
#
# 1 86.8048 49.6748 38.5075 0.0000 0.0000 0.0000
# 2 49.6748 106.6670 33.9426 0.0000 0.0000 0.0000
# 3 38.5075 33.9426 56.2128 0.0000 0.0000 0.0000
# 4 0.0000 0.0000 0.0000 31.9920 0.0000 0.0000
# 5 0.0000 0.0000 0.0000 0.0000 22.1613 0.0000
# 6 0.0000 0.0000 0.0000 0.0000 0.0000 32.7468
#
#
#
# Elastic Compliance Matrix: (Units=1/GPa)
#
#
# Indices 1 2 3 4 5 6 
#
# 1 0.019112 -0.005860 -0.009554 0.000000 0.000000 0.000000
# 2 -0.005860 0.013402 -0.004078 0.000000 0.000000 0.000000
# 3 -0.009554 -0.004078 0.026796 0.000000 0.000000 0.000000
# 4 0.000000 0.000000 0.000000 0.031258 0.000000 0.000000
# 5 0.000000 0.000000 0.000000 0.000000 0.045124 0.000000
# 6 0.000000 0.000000 0.000000 0.000000 0.000000 0.030537
#
#
# Mechanical properties :
#
#
# Convention : Reuss Voigt Hill
#
# Bulk Modulus (GPa) = 49.19691 54.88160 52.03925
# Shear Modulus (GPa) = 23.58631 25.88401 24.73516
#
# Velocity S-wave (km/s) = 3.50136 3.66795 3.58562
# Velocity P-wave (km/s) = 6.47436 6.81648 6.64762
#
# Compressibility (1/GPa) = 0.02032648
#
# Stress axis : x y z
#
# Youngs Moduli (GPa) = 52.32377 74.61737 37.31854
#
# Poissons Ratio (x) = 0.43728 0.35653
# Poissons Ratio (y) = 0.30663 0.15218
# Poissons Ratio (z) = 0.49988 0.30427
#
# Static dielectric constant tensor:
#      x y z
#    x 3.512100 0.000000 0.000000 
#    y 0.000000 3.548160 0.000000 
#    z 0.000000 0.000000 3.401820 
# 
# 
# High freq. dielectric constant tensor:
#      x y z
#    x 1.750670 0.000000 0.000000 
#    y 0.000000 1.755930 0.000000 
#    z 0.000000 0.000000 1.740480 
# 
# From -- ./inp_files/19350.got.cif
#   From: 2010.03.12/outbox.cif.g09.slc.cpg/sg59_10_cif.got.tgz:19350.got - 2010.04.16 16:29:54.
