data_PCOD8243744
_publ_section_title
;
Structure prediction by ZEFSAII (Michael W. Deem and Ramdas Pophale) SiO2 
 PCOD8243744
Probable space group: P M M N
;
_chemical_formula_sum "Si O2"
_cell_formula_units_Z 40
_cell_length_a 9.629052
_cell_length_b 10.971516
_cell_length_c 19.489011
_cell_angle_alpha 90.000000
_cell_angle_beta 90.000000
_cell_angle_gamma 90.000000
_cell_volume 2058.922376
_symmetry_space_group_name_H-M "P M M N"
_symmetry_group_IT_number 59
_space_group.IT_coordinate_system_code '2'
_symmetry_cell_setting 'orthorhombic'
loop_
_space_group_symop_operation_xyz
x,y,z
1/2-x,1/2-y,z
1/2+x,-y,-z
-x,1/2+y,-z
-x,-y,-z
1/2+x,1/2+y,-z
1/2-x,y,z
x,1/2-y,z
loop_
_atom_site_type_symbol
_atom_site_label
_atom_site_fract_x
_atom_site_fract_y
_atom_site_fract_z
Si Si1 0.911454 0.250000 0.848555
Si Si2 0.592634 0.487879 0.317815
Si Si3 0.093625 0.111132 0.201210
Si Si4 0.410178 0.513601 0.067215
Si Si5 0.094218 0.250000 0.714260
Si Si6 0.914440 0.108505 0.462922
O O1 0.750000 0.250000 0.830125
O O2 0.954412 0.364761 0.893720
O O3 0.990163 0.250000 0.777228
O O4 0.750000 0.455771 0.298470
O O5 0.503700 0.464878 0.250463
O O6 0.572927 0.631777 0.334380
O O7 0.547358 0.407216 0.382741
O O8 0.250000 0.062368 0.212691
O O9 0.078366 0.250000 0.222047
O O10 0.056173 0.095030 0.120860
O O11 0.250000 0.514831 0.044540
O O12 0.500000 0.500000 0.000000
O O13 0.250000 0.250000 0.745069
O O14 0.750000 0.086238 0.475592
O O15 0.953533 0.250000 0.483639
O O16 0.000000 0.000000 0.500000
#
# Coordination Sequence:
#
# PCOD8243744 Si02
#       6
#     4   8   8   8   4   8
#     4  10  20  38  58  78 108 145 188 235 286 343
#     4  10  21  38  61  88 118 151 192 241 291 344
#     4  10  21  37  57  82 111 146 189 234 286 346
#     4  10  22  37  54  77 107 144 185 233 285 339
#     4  10  20  34  58  90 114 145 192 239 292 349
#     4  10  23  42  64  93 127 163 204 248 297 355
#
# _framework density 19.427638999999999
#
# number of rings (size 3 to 8) (size 9 to 14) (size 15 to 20)
#    0.000    2.000    2.000    0.600    2.800    4.000 
#    0.000    0.000    0.000    0.000    0.000    0.000 
#    0.000    0.000    0.000    0.000    0.000    0.000 
#
# Total GULP energy -495771.719552 kJ/mol
# GULP energy per Si atom -12394.292989 kJ/mol
# Density = 1.938342 g / cm^3
# Si number density = 19.427639 Si / 1000 Ang^3
#
#
#
# Elastic Constant Matrix: (Units=GPa)
#
#
# Indices 1 2 3 4 5 6 
#
# 1 70.3663 43.3746 48.5319 0.0000 0.0000 0.0000
# 2 43.3746 110.6252 39.5798 0.0000 0.0000 0.0000
# 3 48.5319 39.5798 82.6891 0.0000 0.0000 0.0000
# 4 0.0000 0.0000 0.0000 29.0700 0.0000 0.0000
# 5 0.0000 0.0000 0.0000 0.0000 36.5660 0.0000
# 6 0.0000 0.0000 0.0000 0.0000 0.0000 23.1892
#
#
#
# Elastic Compliance Matrix: (Units=1/GPa)
#
#
# Indices 1 2 3 4 5 6 
#
# 1 0.026698 -0.005866 -0.012862 0.000000 0.000000 0.000000
# 2 -0.005866 0.012196 -0.002395 0.000000 0.000000 0.000000
# 3 -0.012862 -0.002395 0.020789 0.000000 0.000000 0.000000
# 4 0.000000 0.000000 0.000000 0.034400 0.000000 0.000000
# 5 0.000000 0.000000 0.000000 0.000000 0.027348 0.000000
# 6 0.000000 0.000000 0.000000 0.000000 0.000000 0.043124
#
#
# Mechanical properties :
#
#
# Convention : Reuss Voigt Hill
#
# Bulk Modulus (GPa) = 57.34787 58.51701 57.93244
# Shear Modulus (GPa) = 23.51693 26.57799 25.04746
#
# Velocity S-wave (km/s) = 3.48298 3.70273 3.59453
# Velocity P-wave (km/s) = 6.76444 6.96176 6.86381
#
# Compressibility (1/GPa) = 0.01743744
#
# Stress axis : x y z
#
# Youngs Moduli (GPa) = 37.45573 81.99094 48.10308
#
# Poissons Ratio (x) = 0.48098 0.61869
# Poissons Ratio (y) = 0.21972 0.11520
# Poissons Ratio (z) = 0.48175 0.19636
#
# Static dielectric constant tensor:
#      x y z
#    x 3.511020 0.000000 0.000000 
#    y 0.000000 5.968190 0.000000 
#    z 0.000000 0.000000 3.390320 
# 
# 
# High freq. dielectric constant tensor:
#      x y z
#    x 1.749720 0.000000 0.000000 
#    y 0.000000 1.776630 0.000000 
#    z 0.000000 0.000000 1.745410 
# 
# From -- ./inp_files/28792.got.cif
#   From: 2010.03.12/outbox.cif.g09.slc.cpg/sg59_15_cif.got.tgz:28792.got - 2010.04.16 16:29:54.
