data_PCOD8243458
_publ_section_title
;
Structure prediction by ZEFSAII (Michael W. Deem and Ramdas Pophale) SiO2 
 PCOD8243458
Probable space group: P M M N
;
_chemical_formula_sum "Si O2"
_cell_formula_units_Z 64
_cell_length_a 8.745297
_cell_length_b 19.318629
_cell_length_c 20.789336
_cell_angle_alpha 90.000000
_cell_angle_beta 90.000000
_cell_angle_gamma 90.000000
_cell_volume 3512.299031
_symmetry_space_group_name_H-M "P M M N"
_symmetry_group_IT_number 59
_space_group.IT_coordinate_system_code '2'
_symmetry_cell_setting 'orthorhombic'
loop_
_space_group_symop_operation_xyz
x,y,z
1/2-x,1/2-y,z
1/2+x,-y,-z
-x,1/2+y,-z
-x,-y,-z
1/2+x,1/2+y,-z
1/2-x,y,z
x,1/2-y,z
loop_
_atom_site_type_symbol
_atom_site_label
_atom_site_fract_x
_atom_site_fract_y
_atom_site_fract_z
Si Si1 0.070232 0.671946 0.984482
Si Si2 0.072263 0.671461 0.370276
Si Si3 0.076266 0.173156 0.496198
Si Si4 0.427457 0.466901 0.436917
Si Si5 0.069624 0.546421 0.184554
Si Si6 0.429777 0.459902 0.683973
Si Si7 0.429789 0.039358 0.060356
Si Si8 0.427351 0.328668 0.878722
O O1 0.250000 0.661505 0.979701
O O2 0.021321 0.750000 0.965362
O O3 0.020574 0.654868 0.056853
O O4 0.988516 0.618484 0.936492
O O5 0.250000 0.656666 0.358563
O O6 0.027915 0.750000 0.351828
O O7 0.036304 0.657088 0.444914
O O8 0.974475 0.620211 0.326318
O O9 0.250000 0.167772 0.522621
O O10 0.044376 0.250000 0.467724
O O11 0.050467 0.116374 0.440615
O O12 0.500000 0.500000 0.500000
O O13 0.250000 0.487972 0.432775
O O14 0.513019 0.492543 0.373945
O O15 0.250000 0.556020 0.187972
O O16 0.018794 0.496770 0.126360
O O17 0.007998 0.513175 0.250534
O O18 0.991213 0.621502 0.176534
O O19 0.250000 0.467146 0.690187
O O20 0.250000 0.038353 0.052239
O O21 0.500000 0.000000 0.000000
O O22 0.250000 0.343439 0.892372
O O23 0.454368 0.250000 0.855884
#
# Coordination Sequence:
#
# PCOD8243458 Si02
#       8
#     8   8   8   8   8   8   8   8
#     4  10  20  34  55  84 116 149 186 230 279 330
#     4  10  20  34  54  80 111 147 186 229 275 327
#     4   9  18  33  55  83 112 143 181 226 276 328
#     4  11  21  35  58  85 114 147 186 232 279 332
#     4  11  24  40  57  80 111 149 189 234 284 337
#     4  12  25  39  56  79 111 152 191 233 280 333
#     4  11  22  36  59  86 113 146 187 235 287 337
#     4  10  20  34  54  81 113 150 190 229 273 330
#
# _framework density 18.221682999999999
#
# number of rings (size 3 to 8) (size 9 to 14) (size 15 to 20)
#    0.000    1.500    2.500    3.375    0.000    4.750 
#    0.000    0.000    0.000    0.750    0.000    1.750 
#    0.000    0.000    0.000    0.000    0.000    0.000 
#
# Total GULP energy -793777.845554 kJ/mol
# GULP energy per Si atom -12402.778837 kJ/mol
# Density = 1.818021 g / cm^3
# Si number density = 18.221683 Si / 1000 Ang^3
#
#
#
# Elastic Constant Matrix: (Units=GPa)
#
#
# Indices 1 2 3 4 5 6 
#
# 1 73.1664 37.2427 37.5378 0.0000 0.0000 0.0000
# 2 37.2427 104.0339 59.2747 0.0000 0.0000 0.0000
# 3 37.5378 59.2747 113.9617 0.0000 0.0000 0.0000
# 4 0.0000 0.0000 0.0000 22.9516 0.0000 0.0000
# 5 0.0000 0.0000 0.0000 0.0000 30.4547 0.0000
# 6 0.0000 0.0000 0.0000 0.0000 0.0000 30.9983
#
#
#
# Elastic Compliance Matrix: (Units=1/GPa)
#
#
# Indices 1 2 3 4 5 6 
#
# 1 0.017695 -0.004283 -0.003601 0.000000 0.000000 0.000000
# 2 -0.004283 0.014697 -0.006234 0.000000 0.000000 0.000000
# 3 -0.003601 -0.006234 0.013203 0.000000 0.000000 0.000000
# 4 0.000000 0.000000 0.000000 0.043570 0.000000 0.000000
# 5 0.000000 0.000000 0.000000 0.000000 0.032836 0.000000
# 6 0.000000 0.000000 0.000000 0.000000 0.000000 0.032260
#
#
# Mechanical properties :
#
#
# Convention : Reuss Voigt Hill
#
# Bulk Modulus (GPa) = 57.60198 62.14137 59.87168
# Shear Modulus (GPa) = 26.55584 27.35472 26.95528
#
# Velocity S-wave (km/s) = 3.82170 3.87876 3.85034
# Velocity P-wave (km/s) = 7.15222 7.36456 7.25917
#
# Compressibility (1/GPa) = 0.01736051
#
# Stress axis : x y z
#
# Youngs Moduli (GPa) = 56.51331 68.04025 75.73878
#
# Poissons Ratio (x) = 0.29141 0.27273
# Poissons Ratio (y) = 0.24204 0.47213
# Poissons Ratio (z) = 0.20350 0.42414
#
# Static dielectric constant tensor:
#      x y z
#    x 3.470130 0.000000 0.000000 
#    y 0.000000 3.685100 0.000000 
#    z 0.000000 0.000000 3.170960 
# 
# 
# High freq. dielectric constant tensor:
#      x y z
#    x 1.722090 0.000000 0.000000 
#    y 0.000000 1.711710 0.000000 
#    z 0.000000 0.000000 1.677640 
# 
# From -- ./inp_files/26245.got.cif
#   From: 2010.03.12/outbox.cif.g09.slc.cpg/sg59_14_cif.got.tgz:26245.got - 2010.04.16 16:29:54.
