data_PCOD8243363
_publ_section_title
;
Structure prediction by ZEFSAII (Michael W. Deem and Ramdas Pophale) SiO2 
 PCOD8243363
Probable space group: P M M N
;
_chemical_formula_sum "Si O2"
_cell_formula_units_Z 40
_cell_length_a 8.913330
_cell_length_b 14.880465
_cell_length_c 14.461714
_cell_angle_alpha 90.000000
_cell_angle_beta 90.000000
_cell_angle_gamma 90.000000
_cell_volume 1918.122135
_symmetry_space_group_name_H-M "P M M N"
_symmetry_group_IT_number 59
_space_group.IT_coordinate_system_code '2'
_symmetry_cell_setting 'orthorhombic'
loop_
_space_group_symop_operation_xyz
x,y,z
1/2-x,1/2-y,z
1/2+x,-y,-z
-x,1/2+y,-z
-x,-y,-z
1/2+x,1/2+y,-z
1/2-x,y,z
x,1/2-y,z
loop_
_atom_site_type_symbol
_atom_site_label
_atom_site_fract_x
_atom_site_fract_y
_atom_site_fract_z
Si Si1 0.072130 0.852604 0.246360
Si Si2 0.927780 0.086311 0.551456
Si Si3 0.412310 0.348256 0.392998
Si Si4 0.921278 0.356798 0.217630
Si Si5 0.927611 0.500556 0.900347
O O1 0.250000 0.847852 0.245665
O O2 0.008574 0.750000 0.236668
O O3 0.019725 0.898387 0.343014
O O4 0.015138 0.915794 0.162051
O O5 0.750000 0.087396 0.542585
O O6 0.000407 0.164579 0.489705
O O7 0.000000 0.000000 0.500000
O O8 0.250000 0.400538 0.401206
O O9 0.375487 0.250000 0.355764
O O10 0.517876 0.394193 0.316236
O O11 0.750000 0.388138 0.207777
O O12 0.934590 0.250000 0.205557
O O13 0.022754 0.404374 0.141429
O O14 0.750000 0.497436 0.909230
O O15 0.000000 0.500000 0.000000
#
# Coordination Sequence:
#
# PCOD8243363 Si02
#       5
#     8   8   8   8   8
#     4   9  20  39  61  85 116 159 208 252 298 359
#     4  11  21  34  56  84 116 155 200 247 294 351
#     4  10  20  34  53  80 115 151 186 228 282 346
#     4  10  21  38  61  88 118 155 200 250 305 367
#     4  11  23  40  63  89 118 153 197 254 317 379
#
# _framework density 20.853729000000001
#
# number of rings (size 3 to 8) (size 9 to 14) (size 15 to 20)
#    0.000    1.800    0.000    4.200    0.000    5.600 
#    0.000    5.000    0.000    6.600    0.000    0.000 
#    0.000    0.000    0.000    0.000    0.000    0.000 
#
# Total GULP energy -495541.276479 kJ/mol
# GULP energy per Si atom -12388.531912 kJ/mol
# Density = 2.080627 g / cm^3
# Si number density = 20.853729 Si / 1000 Ang^3
#
#
#
# Elastic Constant Matrix: (Units=GPa)
#
#
# Indices 1 2 3 4 5 6 
#
# 1 102.3834 37.4022 60.9187 0.0000 0.0000 0.0000
# 2 37.4022 99.8090 60.7824 0.0000 0.0000 0.0000
# 3 60.9187 60.7824 193.0419 0.0000 0.0000 0.0000
# 4 0.0000 0.0000 0.0000 26.4268 0.0000 0.0000
# 5 0.0000 0.0000 0.0000 0.0000 36.4142 0.0000
# 6 0.0000 0.0000 0.0000 0.0000 0.0000 26.4547
#
#
#
# Elastic Compliance Matrix: (Units=1/GPa)
#
#
# Indices 1 2 3 4 5 6 
#
# 1 0.012651 -0.002858 -0.003093 0.000000 0.000000 0.000000
# 2 -0.002858 0.013042 -0.003205 0.000000 0.000000 0.000000
# 3 -0.003093 -0.003205 0.007165 0.000000 0.000000 0.000000
# 4 0.000000 0.000000 0.000000 0.037840 0.000000 0.000000
# 5 0.000000 0.000000 0.000000 0.000000 0.027462 0.000000
# 6 0.000000 0.000000 0.000000 0.000000 0.000000 0.037801
#
#
# Mechanical properties :
#
#
# Convention : Reuss Voigt Hill
#
# Bulk Modulus (GPa) = 68.73583 79.27123 74.00353
# Shear Modulus (GPa) = 31.42288 33.60118 32.51203
#
# Velocity S-wave (km/s) = 3.88599 4.01843 3.95277
# Velocity P-wave (km/s) = 7.29158 7.72178 7.50976
#
# Compressibility (1/GPa) = 0.01454845
#
# Stress axis : x y z
#
# Youngs Moduli (GPa) = 79.04356 76.67823 139.56363
#
# Poissons Ratio (x) = 0.21911 0.43162
# Poissons Ratio (y) = 0.22587 0.44724
# Poissons Ratio (z) = 0.24445 0.24572
#
# Static dielectric constant tensor:
#      x y z
#    x 4.109750 0.000000 0.000000 
#    y 0.000000 4.958770 0.000000 
#    z 0.000000 0.000000 4.414960 
# 
# 
# High freq. dielectric constant tensor:
#      x y z
#    x 1.809050 0.000000 0.000000 
#    y 0.000000 1.825250 0.000000 
#    z 0.000000 0.000000 1.815580 
# 
# From -- ./inp_files/17458.got.cif
#   From: 2010.03.12/outbox.cif.g09.slc.cpg/sg59_9_cif.got.tgz:17458.got - 2010.04.16 16:29:54.
