data_PCOD8243106
_publ_section_title
;
Structure prediction by ZEFSAII (Michael W. Deem and Ramdas Pophale) SiO2 
 PCOD8243106
Probable space group: P M M N
;
_chemical_formula_sum "Si O2"
_cell_formula_units_Z 64
_cell_length_a 13.906127
_cell_length_b 8.756763
_cell_length_c 31.992586
_cell_angle_alpha 90.000000
_cell_angle_beta 90.000000
_cell_angle_gamma 90.000000
_cell_volume 3895.822246
_symmetry_space_group_name_H-M "P M M N"
_symmetry_group_IT_number 59
_space_group.IT_coordinate_system_code '2'
_symmetry_cell_setting 'orthorhombic'
loop_
_space_group_symop_operation_xyz
x,y,z
1/2-x,1/2-y,z
1/2+x,-y,-z
-x,1/2+y,-z
-x,-y,-z
1/2+x,1/2+y,-z
1/2-x,y,z
x,1/2-y,z
loop_
_atom_site_type_symbol
_atom_site_label
_atom_site_fract_x
_atom_site_fract_y
_atom_site_fract_z
Si Si1 0.640272 0.431539 0.855551
Si Si2 0.642323 0.929428 0.015407
Si Si3 0.138230 0.574624 0.478940
Si Si4 0.135476 0.926356 0.324665
Si Si5 0.464971 0.072111 0.401297
Si Si6 0.359971 0.428942 0.564968
Si Si7 0.143642 0.930852 0.234246
Si Si8 0.956349 0.069299 0.938046
O O1 0.750000 0.491171 0.860774
O O2 0.641016 0.250000 0.858020
O O3 0.595417 0.482984 0.810024
O O4 0.573053 0.497931 0.892582
O O5 0.750000 0.975029 0.030092
O O6 0.633493 0.750000 0.008061
O O7 0.619846 0.009183 0.971620
O O8 0.565072 0.983837 0.050420
O O9 0.250000 0.550164 0.470141
O O10 0.113484 0.750000 0.488864
O O11 0.085237 0.524050 0.437393
O O12 0.104755 0.473489 0.518356
O O13 0.250000 0.949833 0.327322
O O14 0.109607 0.750000 0.334011
O O15 0.095383 0.978770 0.278496
O O16 0.082532 0.034892 0.357110
O O17 0.454257 0.250000 0.410467
O O18 0.576739 0.020767 0.401101
O O19 0.250000 0.479908 0.571650
O O20 0.373762 0.250000 0.571502
O O21 0.250000 0.001488 0.233458
O O22 0.151617 0.750000 0.235123
O O23 0.949189 0.250000 0.937943
#
# Coordination Sequence:
#
# PCOD8243106 Si02
#       8
#     8   8   8   8   8   8   8   8
#     4   8  12  19  35  60  83 100 128 173 215 247
#     4   9  17  27  36  50  79 114 141 170 212 254
#     4  10  20  34  51  70  94 122 150 180 213 251
#     4   9  17  30  47  66  89 116 145 175 209 255
#     4  12  23  32  46  68  94 121 148 178 212 254
#     4  10  21  37  54  69  87 113 147 186 222 254
#     4   7  11  21  38  60  84 107 131 166 213 256
#     4   9  16  25  39  58  77 103 143 181 209 247
#
# _framework density 16.427855000000001
#
# number of rings (size 3 to 8) (size 9 to 14) (size 15 to 20)
#    0.000    2.750    0.000    4.500    0.000    4.000 
#    0.000    0.000    0.000    0.750    0.000    2.625 
#    0.000    5.000    0.000    0.125    0.000    0.625 
#
# Total GULP energy -793008.328178 kJ/mol
# GULP energy per Si atom -12390.755128 kJ/mol
# Density = 1.639046 g / cm^3
# Si number density = 16.427855 Si / 1000 Ang^3
#
#
#
# Elastic Constant Matrix: (Units=GPa)
#
#
# Indices 1 2 3 4 5 6 
#
# 1 70.8998 16.2987 50.4721 0.0000 0.0000 0.0000
# 2 16.2987 26.3559 10.4180 0.0000 0.0000 0.0000
# 3 50.4721 10.4180 111.2731 0.0000 0.0000 0.0000
# 4 0.0000 0.0000 0.0000 17.7139 0.0000 0.0000
# 5 0.0000 0.0000 0.0000 0.0000 21.8632 0.0000
# 6 0.0000 0.0000 0.0000 0.0000 0.0000 17.6625
#
#
#
# Elastic Compliance Matrix: (Units=1/GPa)
#
#
# Indices 1 2 3 4 5 6 
#
# 1 0.023403 -0.010672 -0.009616 0.000000 0.000000 0.000000
# 2 -0.010672 0.044266 0.000696 0.000000 0.000000 0.000000
# 3 -0.009616 0.000696 0.013284 0.000000 0.000000 0.000000
# 4 0.000000 0.000000 0.000000 0.056453 0.000000 0.000000
# 5 0.000000 0.000000 0.000000 0.000000 0.045739 0.000000
# 6 0.000000 0.000000 0.000000 0.000000 0.000000 0.056617
#
#
# Mechanical properties :
#
#
# Convention : Reuss Voigt Hill
#
# Bulk Modulus (GPa) = 23.94091 40.32294 32.13192
# Shear Modulus (GPa) = 17.07247 20.20392 18.63820
#
# Velocity S-wave (km/s) = 3.22722 3.51074 3.37196
# Velocity P-wave (km/s) = 5.33775 6.40566 5.89593
#
# Compressibility (1/GPa) = 0.04176951
#
# Stress axis : x y z
#
# Youngs Moduli (GPa) = 42.72904 22.59048 75.28101
#
# Poissons Ratio (x) = 0.24108 0.72392
# Poissons Ratio (y) = 0.45599 -0.05240
# Poissons Ratio (z) = 0.41090 -0.01572
#
# Static dielectric constant tensor:
#      x y z
#    x 3.184490 0.000000 0.000000 
#    y 0.000000 2.882720 0.000000 
#    z 0.000000 0.000000 3.493690 
# 
# 
# High freq. dielectric constant tensor:
#      x y z
#    x 1.609460 0.000000 0.000000 
#    y 0.000000 1.612200 0.000000 
#    z 0.000000 0.000000 1.629200 
# 
# From -- ./inp_files/33313.got.cif
#   From: 2010.03.12/outbox.cif.g09.slc.cpg/sg59_17_cif.got.tgz:33313.got - 2010.04.16 16:29:54.
