data_PCOD8243989
_publ_section_title
;
Structure prediction by ZEFSAII (Michael W. Deem and Ramdas Pophale) SiO2 
 PCOD8243989
Probable space group: P M M N
;
_chemical_formula_sum "Si O2"
_cell_formula_units_Z 56
_cell_length_a 8.889652
_cell_length_b 13.434892
_cell_length_c 23.231949
_cell_angle_alpha 90.000000
_cell_angle_beta 90.000000
_cell_angle_gamma 90.000000
_cell_volume 2774.626855
_symmetry_space_group_name_H-M "P M M N"
_symmetry_group_IT_number 59
_space_group.IT_coordinate_system_code '2'
_symmetry_cell_setting 'orthorhombic'
loop_
_space_group_symop_operation_xyz
x,y,z
1/2-x,1/2-y,z
1/2+x,-y,-z
-x,1/2+y,-z
-x,-y,-z
1/2+x,1/2+y,-z
1/2-x,y,z
x,1/2-y,z
loop_
_atom_site_type_symbol
_atom_site_label
_atom_site_fract_x
_atom_site_fract_y
_atom_site_fract_z
Si Si1 0.424425 0.952436 0.411122
Si Si2 0.921505 0.861464 0.516468
Si Si3 0.572414 0.104935 0.000800
Si Si4 0.587770 0.859279 0.885279
Si Si5 0.927207 0.937415 0.291033
Si Si6 0.926356 0.135589 0.226464
Si Si7 0.430302 0.750000 0.226441
Si Si8 0.072920 0.750000 0.096490
O O1 0.250000 0.937136 0.395495
O O2 0.468329 0.878927 0.462891
O O3 0.525360 0.924926 0.356879
O O4 0.460123 0.065394 0.430777
O O5 0.750000 0.879796 0.495856
O O6 0.945638 0.750000 0.539659
O O7 0.750000 0.104432 0.006135
O O8 0.519790 0.155502 0.941213
O O9 0.507844 0.156307 0.057249
O O10 0.500000 0.000000 0.000000
O O11 0.750000 0.914826 0.895846
O O12 0.623671 0.750000 0.862412
O O13 0.496335 0.908297 0.832909
O O14 0.750000 0.920293 0.284521
O O15 0.010077 0.851261 0.255127
O O16 0.973104 0.050756 0.272726
O O17 0.750000 0.136517 0.216962
O O18 0.977363 0.250000 0.243524
O O19 0.250000 0.750000 0.229415
O O20 0.494117 0.750000 0.160619
O O21 0.250000 0.750000 0.102174
#
# Coordination Sequence:
#
# PCOD8243989 Si02
#       8
#     8   8   8   8   8   8   4   4
#     4  10  21  37  59  90 123 160 206 252 302 361
#     4   9  19  37  61  89 124 163 201 251 305 354
#     4  11  22  38  59  86 115 151 191 238 302 366
#     4  10  20  35  56  84 114 147 189 238 294 359
#     4  11  24  42  63  90 123 164 211 259 310 367
#     4   9  20  39  62  87 118 158 201 251 311 375
#     4  11  25  45  65  87 119 167 216 261 308 361
#     4   9  22  43  63  85 119 157 196 247 306 365
#
# _framework density 20.182894999999998
#
# number of rings (size 3 to 8) (size 9 to 14) (size 15 to 20)
#    0.000    2.000    0.714    1.929    3.000    3.143 
#    0.000    2.143    0.000    0.000    0.000    0.000 
#    0.000    0.000    0.000    0.000    0.000    0.000 
#
# Total GULP energy -693911.371328 kJ/mol
# GULP energy per Si atom -12391.274488 kJ/mol
# Density = 2.013696 g / cm^3
# Si number density = 20.182895 Si / 1000 Ang^3
#
#
#
# Elastic Constant Matrix: (Units=GPa)
#
#
# Indices 1 2 3 4 5 6 
#
# 1 74.7781 37.3143 36.3351 0.0000 0.0000 0.0000
# 2 37.3143 122.0652 38.3230 0.0000 0.0000 0.0000
# 3 36.3351 38.3230 111.9623 0.0000 0.0000 0.0000
# 4 0.0000 0.0000 0.0000 22.2759 0.0000 0.0000
# 5 0.0000 0.0000 0.0000 0.0000 26.9658 0.0000
# 6 0.0000 0.0000 0.0000 0.0000 0.0000 26.5296
#
#
#
# Elastic Compliance Matrix: (Units=1/GPa)
#
#
# Indices 1 2 3 4 5 6 
#
# 1 0.017450 -0.003985 -0.004299 0.000000 0.000000 0.000000
# 2 -0.003985 0.010089 -0.002160 0.000000 0.000000 0.000000
# 3 -0.004299 -0.002160 0.011066 0.000000 0.000000 0.000000
# 4 0.000000 0.000000 0.000000 0.044892 0.000000 0.000000
# 5 0.000000 0.000000 0.000000 0.000000 0.037084 0.000000
# 6 0.000000 0.000000 0.000000 0.000000 0.000000 0.037694
#
#
# Mechanical properties :
#
#
# Convention : Reuss Voigt Hill
#
# Bulk Modulus (GPa) = 56.44245 59.19449 57.81847
# Shear Modulus (GPa) = 27.01714 28.27649 27.64681
#
# Velocity S-wave (km/s) = 3.66268 3.74707 3.70512
# Velocity P-wave (km/s) = 6.77592 6.93638 6.85662
#
# Compressibility (1/GPa) = 0.01771716
#
# Stress axis : x y z
#
# Youngs Moduli (GPa) = 57.30580 99.12216 90.36563
#
# Poissons Ratio (x) = 0.39496 0.38850
# Poissons Ratio (y) = 0.22834 0.19519
# Poissons Ratio (z) = 0.24637 0.21411
#
# Static dielectric constant tensor:
#      x y z
#    x 3.636400 0.000000 0.000000 
#    y 0.000000 3.822110 0.000000 
#    z 0.000000 0.000000 3.791030 
# 
# 
# High freq. dielectric constant tensor:
#      x y z
#    x 1.788220 0.000000 0.000000 
#    y 0.000000 1.792780 0.000000 
#    z 0.000000 0.000000 1.783660 
# 
# From -- ./inp_files/29202.got.cif
#   From: 2010.03.12/outbox.cif.g09.slc.cpg/sg59_15_cif.got.tgz:29202.got - 2010.04.16 16:29:54.
