data_PCOD8243039
_publ_section_title
;
Structure prediction by ZEFSAII (Michael W. Deem and Ramdas Pophale) SiO2 
 PCOD8243039
Probable space group: P M M N
;
_chemical_formula_sum "Si O2"
_cell_formula_units_Z 48
_cell_length_a 9.120116
_cell_length_b 14.627318
_cell_length_c 19.560162
_cell_angle_alpha 90.000000
_cell_angle_beta 90.000000
_cell_angle_gamma 90.000000
_cell_volume 2609.381102
_symmetry_space_group_name_H-M "P M M N"
_symmetry_group_IT_number 59
_space_group.IT_coordinate_system_code '2'
_symmetry_cell_setting 'orthorhombic'
loop_
_space_group_symop_operation_xyz
x,y,z
1/2-x,1/2-y,z
1/2+x,-y,-z
-x,1/2+y,-z
-x,-y,-z
1/2+x,1/2+y,-z
1/2-x,y,z
x,1/2-y,z
loop_
_atom_site_type_symbol
_atom_site_label
_atom_site_fract_x
_atom_site_fract_y
_atom_site_fract_z
Si Si1 0.914608 0.250000 0.789397
Si Si2 0.079403 0.750000 0.488960
Si Si3 0.422011 0.250000 0.366446
Si Si4 0.913977 0.250000 0.951278
Si Si5 0.579398 0.927771 0.046053
Si Si6 0.077743 0.444677 0.307700
Si Si7 0.579147 0.053915 0.559137
Si Si8 0.421035 0.067485 0.794058
O O1 0.750000 0.250000 0.757511
O O2 0.905090 0.250000 0.870232
O O3 0.999651 0.341102 0.765499
O O4 0.250000 0.750000 0.507326
O O5 0.036972 0.838847 0.444131
O O6 0.995734 0.750000 0.560105
O O7 0.250000 0.250000 0.380495
O O8 0.468594 0.159608 0.324439
O O9 0.750000 0.250000 0.982572
O O10 0.005495 0.165220 0.978167
O O11 0.750000 0.924757 0.028702
O O12 0.551385 0.946707 0.125749
O O13 0.500000 0.000000 0.000000
O O14 0.250000 0.451434 0.292226
O O15 0.029790 0.512064 0.368848
O O16 0.988362 0.477855 0.241650
O O17 0.750000 0.038019 0.547867
O O18 0.500000 0.000000 0.500000
O O19 0.250000 0.076925 0.777331
#
# Coordination Sequence:
#
# PCOD8243039 Si02
#       8
#     4   4   4   4   8   8   8   8
#     4   9  17  32  56  80 107 143 178 216 270 330
#     4  10  20  33  53  81 108 136 175 224 276 326
#     4  10  20  36  56  78 104 141 186 225 266 325
#     4   9  17  31  53  81 109 142 181 221 272 333
#     4  10  20  35  56  82 112 147 187 232 278 331
#     4  10  21  36  55  78 107 144 186 229 276 331
#     4  10  20  34  53  78 106 137 178 224 270 323
#     4  10  21  36  55  82 114 145 183 229 276 328
#
# _framework density 18.395166
#
# number of rings (size 3 to 8) (size 9 to 14) (size 15 to 20)
#    0.000    2.167    1.667    1.500    0.000    6.000 
#    0.000    2.500    0.000    4.000    0.000    0.000 
#    0.000    0.000    0.000    0.000    0.000    0.000 
#
# Total GULP energy -595214.678448 kJ/mol
# GULP energy per Si atom -12400.305801 kJ/mol
# Density = 1.835330 g / cm^3
# Si number density = 18.395166 Si / 1000 Ang^3
#
#
#
# Elastic Constant Matrix: (Units=GPa)
#
#
# Indices 1 2 3 4 5 6 
#
# 1 105.5547 71.7137 52.9922 0.0000 0.0000 0.0000
# 2 71.7137 179.7412 63.7210 0.0000 0.0000 0.0000
# 3 52.9922 63.7210 62.4952 0.0000 0.0000 0.0000
# 4 0.0000 0.0000 0.0000 33.8323 0.0000 0.0000
# 5 0.0000 0.0000 0.0000 0.0000 30.5267 0.0000
# 6 0.0000 0.0000 0.0000 0.0000 0.0000 33.7918
#
#
#
# Elastic Compliance Matrix: (Units=1/GPa)
#
#
# Indices 1 2 3 4 5 6 
#
# 1 0.017272 -0.002661 -0.011933 0.000000 0.000000 0.000000
# 2 -0.002661 0.009123 -0.007046 0.000000 0.000000 0.000000
# 3 -0.011933 -0.007046 0.033303 0.000000 0.000000 0.000000
# 4 0.000000 0.000000 0.000000 0.029558 0.000000 0.000000
# 5 0.000000 0.000000 0.000000 0.000000 0.032758 0.000000
# 6 0.000000 0.000000 0.000000 0.000000 0.000000 0.029593
#
#
# Mechanical properties :
#
#
# Convention : Reuss Voigt Hill
#
# Bulk Modulus (GPa) = 60.90140 80.51609 70.70874
# Shear Modulus (GPa) = 24.95522 30.25443 27.60482
#
# Velocity S-wave (km/s) = 3.68723 4.05988 3.87803
# Velocity P-wave (km/s) = 7.16287 8.11432 7.65339
#
# Compressibility (1/GPa) = 0.01641998
#
# Stress axis : x y z
#
# Youngs Moduli (GPa) = 57.89633 109.61277 30.02724
#
# Poissons Ratio (x) = 0.29169 0.35830
# Poissons Ratio (y) = 0.15407 0.21156
# Poissons Ratio (z) = 0.69085 0.77228
#
# Static dielectric constant tensor:
#      x y z
#    x 3.511170 0.000000 0.000000 
#    y 0.000000 3.591250 0.000000 
#    z 0.000000 0.000000 3.807730 
# 
# 
# High freq. dielectric constant tensor:
#      x y z
#    x 1.719600 0.000000 0.000000 
#    y 0.000000 1.726290 0.000000 
#    z 0.000000 0.000000 1.690410 
# 
# From -- ./inp_files/25639.got.cif
#   From: 2010.03.12/outbox.cif.g09.slc.cpg/sg59_13_cif.got.tgz:25639.got - 2010.04.16 16:29:54.
