data_PCOD8243757
_publ_section_title
;
Structure prediction by ZEFSAII (Michael W. Deem and Ramdas Pophale) SiO2 
 PCOD8243757
Probable space group: P M M N
;
_chemical_formula_sum "Si O2"
_cell_formula_units_Z 64
_cell_length_a 10.033529
_cell_length_b 31.225798
_cell_length_c 11.236251
_cell_angle_alpha 90.000000
_cell_angle_beta 90.000000
_cell_angle_gamma 90.000000
_cell_volume 3520.373055
_symmetry_space_group_name_H-M "P M M N"
_symmetry_group_IT_number 59
_space_group.IT_coordinate_system_code '2'
_symmetry_cell_setting 'orthorhombic'
loop_
_space_group_symop_operation_xyz
x,y,z
1/2-x,1/2-y,z
1/2+x,-y,-z
-x,1/2+y,-z
-x,-y,-z
1/2+x,1/2+y,-z
1/2-x,y,z
x,1/2-y,z
loop_
_atom_site_type_symbol
_atom_site_label
_atom_site_fract_x
_atom_site_fract_y
_atom_site_fract_z
Si Si1 0.403569 0.020899 0.663791
Si Si2 0.098019 0.408456 0.847989
Si Si3 0.104527 0.162736 0.651405
Si Si4 0.106256 0.702806 0.216229
Si Si5 0.596181 0.947938 0.595970
Si Si6 0.594087 0.300200 0.220143
Si Si7 0.596568 0.140763 0.996611
Si Si8 0.099660 0.352175 0.377742
O O1 0.250000 0.005487 0.662341
O O2 0.433858 0.045950 0.786877
O O3 0.431734 0.049883 0.546366
O O4 0.500038 0.980153 0.665641
O O5 0.250000 0.406457 0.895010
O O6 0.074645 0.376140 0.739565
O O7 0.001000 0.399093 0.962163
O O8 0.250000 0.182181 0.675990
O O9 0.091191 0.147135 0.518736
O O10 0.998104 0.199839 0.676407
O O11 0.250000 0.689917 0.269209
O O12 0.108071 0.750000 0.162954
O O13 0.068194 0.673969 0.106488
O O14 0.750000 0.960106 0.620678
O O15 0.563999 0.901375 0.653092
O O16 0.750000 0.304307 0.252694
O O17 0.560780 0.250000 0.191994
O O18 0.503683 0.317146 0.328303
O O19 0.556490 0.332948 0.114193
O O20 0.750000 0.124939 0.002328
O O21 0.250000 0.340496 0.334893
#
# Coordination Sequence:
#
# PCOD8243757 Si02
#       8
#     8   8   8   8   8   8   8   8
#     4   9  16  28  48  76 108 138 167 200 243 297
#     4   9  16  29  50  75 104 133 160 198 249 300
#     4   9  17  30  46  66  96 130 159 191 240 299
#     4   9  17  29  46  68  93 120 152 196 249 302
#     4   9  17  30  48  73 106 141 171 202 242 292
#     4  10  22  39  56  73  96 130 173 220 264 303
#     4   9  18  33  52  72  94 124 164 209 257 303
#     4  10  20  35  53  72 101 138 172 208 249 297
#
# _framework density 18.179891000000001
#
# number of rings (size 3 to 8) (size 9 to 14) (size 15 to 20)
#    0.000    2.750    1.250    0.375    0.000    4.500 
#    0.000    2.500    0.000    3.000    0.000    0.000 
#    0.000    0.000    0.000    0.000    0.000    0.000 
#
# Total GULP energy -792936.328328 kJ/mol
# GULP energy per Si atom -12389.630130 kJ/mol
# Density = 1.813851 g / cm^3
# Si number density = 18.179891 Si / 1000 Ang^3
#
#
#
# Elastic Constant Matrix: (Units=GPa)
#
#
# Indices 1 2 3 4 5 6 
#
# 1 79.8824 33.1042 33.5904 0.0000 0.0000 0.0000
# 2 33.1042 52.8469 14.4789 0.0000 0.0000 0.0000
# 3 33.5904 14.4789 29.2389 0.0000 0.0000 0.0000
# 4 0.0000 0.0000 0.0000 3.1118 0.0000 0.0000
# 5 0.0000 0.0000 0.0000 0.0000 25.3383 0.0000
# 6 0.0000 0.0000 0.0000 0.0000 0.0000 27.8851
#
#
#
# Elastic Compliance Matrix: (Units=1/GPa)
#
#
# Indices 1 2 3 4 5 6 
#
# 1 0.028285 -0.010199 -0.027444 0.000000 0.000000 0.000000
# 2 -0.010199 0.025571 -0.000945 0.000000 0.000000 0.000000
# 3 -0.027444 -0.000945 0.066198 0.000000 0.000000 0.000000
# 4 0.000000 0.000000 0.000000 0.321358 0.000000 0.000000
# 5 0.000000 0.000000 0.000000 0.000000 0.039466 0.000000
# 6 0.000000 0.000000 0.000000 0.000000 0.000000 0.035861
#
#
# Mechanical properties :
#
#
# Convention : Reuss Voigt Hill
#
# Bulk Modulus (GPa) = 23.32302 36.03502 29.67902
# Shear Modulus (GPa) = 8.22086 16.65334 12.43710
#
# Velocity S-wave (km/s) = 2.12880 3.02988 2.61839
# Velocity P-wave (km/s) = 4.34732 5.66610 5.04994
#
# Compressibility (1/GPa) = 0.04287610
#
# Stress axis : x y z
#
# Youngs Moduli (GPa) = 35.35393 39.10739 15.10630
#
# Poissons Ratio (x) = 0.39887 0.41458
# Poissons Ratio (y) = 0.36059 0.01428
# Poissons Ratio (z) = 0.97026 0.03696
#
# Static dielectric constant tensor:
#      x y z
#    x 3.608050 0.000000 0.000000 
#    y 0.000000 3.442190 0.000000 
#    z 0.000000 0.000000 3.254950 
# 
# 
# High freq. dielectric constant tensor:
#      x y z
#    x 1.709820 0.000000 0.000000 
#    y 0.000000 1.692010 0.000000 
#    z 0.000000 0.000000 1.679200 
# 
# From -- ./inp_files/8035.got.cif
#   From: 2010.03.12/outbox.cif.g09.slc.cpg/sg59_5_cif.got.tgz:8035.got - 2010.04.16 16:29:54.
