data_PCOD8243929
_publ_section_title
;
Structure prediction by ZEFSAII (Michael W. Deem and Ramdas Pophale) SiO2 
 PCOD8243929
Probable space group: P M M N
;
_chemical_formula_sum "Si O2"
_cell_formula_units_Z 56
_cell_length_a 8.619825
_cell_length_b 19.636668
_cell_length_c 17.444501
_cell_angle_alpha 90.000000
_cell_angle_beta 90.000000
_cell_angle_gamma 90.000000
_cell_volume 2952.737212
_symmetry_space_group_name_H-M "P M M N"
_symmetry_group_IT_number 59
_space_group.IT_coordinate_system_code '2'
_symmetry_cell_setting 'orthorhombic'
loop_
_space_group_symop_operation_xyz
x,y,z
1/2-x,1/2-y,z
1/2+x,-y,-z
-x,1/2+y,-z
-x,-y,-z
1/2+x,1/2+y,-z
1/2-x,y,z
x,1/2-y,z
loop_
_atom_site_type_symbol
_atom_site_label
_atom_site_fract_x
_atom_site_fract_y
_atom_site_fract_z
Si Si1 0.571598 0.171336 0.318559
Si Si2 0.065716 0.326021 0.883401
Si Si3 0.069686 0.401683 0.451557
Si Si4 0.930988 0.052234 0.601663
Si Si5 0.434344 0.174125 0.054149
Si Si6 0.933168 0.939046 0.233517
Si Si7 0.932134 0.919206 0.809440
O O1 0.750000 0.151561 0.304245
O O2 0.541148 0.250000 0.301086
O O3 0.526141 0.155793 0.406429
O O4 0.461152 0.127118 0.264535
O O5 0.250000 0.327120 0.883093
O O6 0.006574 0.250000 0.862033
O O7 0.001457 0.380222 0.822520
O O8 0.007301 0.345950 0.968940
O O9 0.250000 0.384951 0.445656
O O10 0.026530 0.473708 0.412837
O O11 0.019700 0.400769 0.540311
O O12 0.750000 0.065333 0.591986
O O13 0.984341 0.072994 0.685812
O O14 0.250000 0.174478 0.057387
O O15 0.495541 0.250000 0.075053
O O16 0.497614 0.119820 0.115570
O O17 0.750000 0.934317 0.245356
O O18 0.975027 0.010892 0.195997
O O19 0.750000 0.935149 0.814231
#
# Coordination Sequence:
#
# PCOD8243929 Si02
#       7
#     8   8   8   8   8   8   8
#     4  11  23  37  54  79 114 151 184 226 277 324
#     4   8  16  33  55  78 104 138 182 229 277 328
#     4  10  20  35  57  81 105 141 183 222 266 321
#     4  10  20  35  56  80 108 141 178 222 269 322
#     4   8  15  30  52  76 104 141 185 228 269 320
#     4  11  21  33  54  82 111 142 180 229 280 328
#     4  11  21  33  52  80 111 146 186 226 271 327
#
# _framework density 18.965453
#
# number of rings (size 3 to 8) (size 9 to 14) (size 15 to 20)
#    0.000    2.143    1.429    3.429    0.000    3.429 
#    0.000    0.714    0.000    6.857    0.000    8.000 
#    0.000    0.000    0.000    0.000    0.000    0.000 
#
# Total GULP energy -694460.013772 kJ/mol
# GULP energy per Si atom -12401.071675 kJ/mol
# Density = 1.892229 g / cm^3
# Si number density = 18.965453 Si / 1000 Ang^3
#
#
#
# Elastic Constant Matrix: (Units=GPa)
#
#
# Indices 1 2 3 4 5 6 
#
# 1 31.4644 13.6715 6.4759 0.0000 0.0000 0.0000
# 2 13.6715 89.7730 60.3203 0.0000 0.0000 0.0000
# 3 6.4759 60.3203 132.9171 0.0000 0.0000 0.0000
# 4 0.0000 0.0000 0.0000 28.9085 0.0000 0.0000
# 5 0.0000 0.0000 0.0000 0.0000 21.9439 0.0000
# 6 0.0000 0.0000 0.0000 0.0000 0.0000 17.0839
#
#
#
# Elastic Compliance Matrix: (Units=1/GPa)
#
#
# Indices 1 2 3 4 5 6 
#
# 1 0.034126 -0.005870 0.001001 0.000000 0.000000 0.000000
# 2 -0.005870 0.017036 -0.007445 0.000000 0.000000 0.000000
# 3 0.001001 -0.007445 0.010853 0.000000 0.000000 0.000000
# 4 0.000000 0.000000 0.000000 0.034592 0.000000 0.000000
# 5 0.000000 0.000000 0.000000 0.000000 0.045571 0.000000
# 6 0.000000 0.000000 0.000000 0.000000 0.000000 0.058535
#
#
# Mechanical properties :
#
#
# Convention : Reuss Voigt Hill
#
# Bulk Modulus (GPa) = 26.74660 46.12113 36.43387
# Shear Modulus (GPa) = 21.02581 25.16637 23.09609
#
# Velocity S-wave (km/s) = 3.33323 3.64670 3.49348
# Velocity P-wave (km/s) = 5.38027 6.48864 5.96028
#
# Compressibility (1/GPa) = 0.03738792
#
# Stress axis : x y z
#
# Youngs Moduli (GPa) = 29.30285 58.70053 92.13672
#
# Poissons Ratio (x) = 0.34456 -0.09224
# Poissons Ratio (y) = 0.17200 0.68597
# Poissons Ratio (z) = -0.02934 0.43703
#
# Static dielectric constant tensor:
#      x y z
#    x 3.217040 0.000000 0.000000 
#    y 0.000000 3.556470 0.000000 
#    z 0.000000 0.000000 3.712790 
# 
# 
# High freq. dielectric constant tensor:
#      x y z
#    x 1.719820 0.000000 0.000000 
#    y 0.000000 1.723610 0.000000 
#    z 0.000000 0.000000 1.747240 
# 
# From -- ./inp_files/20993.got.cif
#   From: 2010.03.12/outbox.cif.g09.slc.cpg/sg59_11_cif.got.tgz:20993.got - 2010.04.16 16:29:54.
