data_PCOD8243257
_publ_section_title
;
Structure prediction by ZEFSAII (Michael W. Deem and Ramdas Pophale) SiO2 
 PCOD8243257
Probable space group: P M M N
;
_chemical_formula_sum "Si O2"
_cell_formula_units_Z 64
_cell_length_a 17.968715
_cell_length_b 9.255349
_cell_length_c 21.555541
_cell_angle_alpha 90.000000
_cell_angle_beta 90.000000
_cell_angle_gamma 90.000000
_cell_volume 3584.831503
_symmetry_space_group_name_H-M "P M M N"
_symmetry_group_IT_number 59
_space_group.IT_coordinate_system_code '2'
_symmetry_cell_setting 'orthorhombic'
loop_
_space_group_symop_operation_xyz
x,y,z
1/2-x,1/2-y,z
1/2+x,-y,-z
-x,1/2+y,-z
-x,-y,-z
1/2+x,1/2+y,-z
1/2-x,y,z
x,1/2-y,z
loop_
_atom_site_type_symbol
_atom_site_label
_atom_site_fract_x
_atom_site_fract_y
_atom_site_fract_z
Si Si1 0.161218 0.911952 0.491067
Si Si2 0.338348 0.410170 0.606189
Si Si3 0.480493 0.578684 0.063109
Si Si4 0.167329 0.915908 0.130340
Si Si5 0.104520 0.416583 0.241569
Si Si6 0.336686 0.417500 0.371738
Si Si7 0.337142 0.416827 0.744949
Si Si8 0.047792 0.581474 0.823313
O O1 0.250000 0.915919 0.492493
O O2 0.130404 0.750000 0.488194
O O3 0.128668 0.983926 0.553789
O O4 0.131805 0.996015 0.430712
O O5 0.250000 0.404191 0.601415
O O6 0.370502 0.250000 0.594171
O O7 0.360436 0.463282 0.675090
O O8 0.494527 0.750000 0.057771
O O9 0.394325 0.541664 0.079100
O O10 0.533638 0.511584 0.115251
O O11 0.500000 0.500000 0.000000
O O12 0.250000 0.946425 0.103039
O O13 0.157011 0.750000 0.148743
O O14 0.157786 0.003168 0.193559
O O15 0.127087 0.250000 0.237136
O O16 0.119268 0.473178 0.311097
O O17 0.018566 0.443300 0.225491
O O18 0.250000 0.448872 0.360782
O O19 0.351508 0.250000 0.385069
O O20 0.250000 0.438317 0.755526
O O21 0.359589 0.250000 0.756660
O O22 0.377273 0.522791 0.792715
O O23 0.056592 0.750000 0.840860
#
# Coordination Sequence:
#
# PCOD8243257 Si02
#       8
#     8   8   8   8   8   8   8   8
#     4   9  16  24  36  59  90 120 153 197 245 290
#     4   8  14  26  44  64  87 118 155 195 242 295
#     4  10  20  36  57  78 104 138 172 205 243 292
#     4   9  18  32  51  76 103 130 163 205 249 288
#     4   9  18  31  47  69  97 130 166 201 239 288
#     4   9  16  26  41  61  88 124 162 198 238 284
#     4   9  18  33  53  76 100 126 160 203 249 298
#     4  10  20  34  53  77 103 130 161 198 242 293
#
# _framework density 17.853000999999999
#
# number of rings (size 3 to 8) (size 9 to 14) (size 15 to 20)
#    0.000    2.875    0.000    2.250    0.000    4.500 
#    0.000    3.125    0.000    3.000    0.000    0.000 
#    0.000    0.000    0.000    0.000    0.000    0.000 
#
# Total GULP energy -793479.456861 kJ/mol
# GULP energy per Si atom -12398.116513 kJ/mol
# Density = 1.781237 g / cm^3
# Si number density = 17.853001 Si / 1000 Ang^3
#
#
#
# Elastic Constant Matrix: (Units=GPa)
#
#
# Indices 1 2 3 4 5 6 
#
# 1 55.2803 38.7088 51.3396 0.0000 0.0000 0.0000
# 2 38.7088 100.7748 75.8813 0.0000 0.0000 0.0000
# 3 51.3396 75.8813 147.0515 0.0000 0.0000 0.0000
# 4 0.0000 0.0000 0.0000 32.7601 0.0000 0.0000
# 5 0.0000 0.0000 0.0000 0.0000 21.4676 0.0000
# 6 0.0000 0.0000 0.0000 0.0000 0.0000 20.5602
#
#
#
# Elastic Compliance Matrix: (Units=1/GPa)
#
#
# Indices 1 2 3 4 5 6 
#
# 1 0.028625 -0.005675 -0.007065 0.000000 0.000000 0.000000
# 2 -0.005675 0.017354 -0.006974 0.000000 0.000000 0.000000
# 3 -0.007065 -0.006974 0.012866 0.000000 0.000000 0.000000
# 4 0.000000 0.000000 0.000000 0.030525 0.000000 0.000000
# 5 0.000000 0.000000 0.000000 0.000000 0.046582 0.000000
# 6 0.000000 0.000000 0.000000 0.000000 0.000000 0.048638
#
#
# Mechanical properties :
#
#
# Convention : Reuss Voigt Hill
#
# Bulk Modulus (GPa) = 51.50272 70.55178 61.02725
# Shear Modulus (GPa) = 21.69293 24.10271 22.89782
#
# Velocity S-wave (km/s) = 3.48959 3.67831 3.58519
# Velocity P-wave (km/s) = 6.71916 7.59236 7.16907
#
# Compressibility (1/GPa) = 0.01941645
#
# Stress axis : x y z
#
# Youngs Moduli (GPa) = 34.93418 57.62346 77.72707
#
# Poissons Ratio (x) = 0.32703 0.54916
# Poissons Ratio (y) = 0.19826 0.54204
# Poissons Ratio (z) = 0.24682 0.40184
#
# Static dielectric constant tensor:
#      x y z
#    x 3.045490 0.000000 0.000000 
#    y 0.000000 3.402210 0.000000 
#    z 0.000000 0.000000 3.365850 
# 
# 
# High freq. dielectric constant tensor:
#      x y z
#    x 1.658640 0.000000 0.000000 
#    y 0.000000 1.694730 0.000000 
#    z 0.000000 0.000000 1.689990 
# 
# From -- ./inp_files/30800.got.cif
#   From: 2010.03.12/outbox.cif.g09.slc.cpg/sg59_16_cif.got.tgz:30800.got - 2010.04.16 16:29:54.
