data_PCOD8243248
_publ_section_title
;
Structure prediction by ZEFSAII (Michael W. Deem and Ramdas Pophale) SiO2 
 PCOD8243248
Probable space group: P M M N
;
_chemical_formula_sum "Si O2"
_cell_formula_units_Z 64
_cell_length_a 9.319663
_cell_length_b 14.376768
_cell_length_c 25.077230
_cell_angle_alpha 90.000000
_cell_angle_beta 90.000000
_cell_angle_gamma 90.000000
_cell_volume 3360.013607
_symmetry_space_group_name_H-M "P M M N"
_symmetry_group_IT_number 59
_space_group.IT_coordinate_system_code '2'
_symmetry_cell_setting 'orthorhombic'
loop_
_space_group_symop_operation_xyz
x,y,z
1/2-x,1/2-y,z
1/2+x,-y,-z
-x,1/2+y,-z
-x,-y,-z
1/2+x,1/2+y,-z
1/2-x,y,z
x,1/2-y,z
loop_
_atom_site_type_symbol
_atom_site_label
_atom_site_fract_x
_atom_site_fract_y
_atom_site_fract_z
Si Si1 0.087122 0.349796 0.363960
Si Si2 0.089521 0.406189 0.562456
Si Si3 0.583653 0.354067 0.078811
Si Si4 0.417730 0.948845 0.333859
Si Si5 0.580873 0.143080 0.776612
Si Si6 0.084993 0.357327 0.974276
Si Si7 0.090495 0.881405 0.533899
Si Si8 0.583239 0.961439 0.131542
O O1 0.250000 0.363092 0.384265
O O2 0.071880 0.250000 0.332524
O O3 0.046685 0.440107 0.328341
O O4 0.987054 0.340007 0.414934
O O5 0.250000 0.364001 0.569286
O O6 0.101353 0.508790 0.539318
O O7 0.008369 0.402939 0.618847
O O8 0.997221 0.349581 0.518831
O O9 0.750000 0.354809 0.063791
O O10 0.534030 0.250000 0.096551
O O11 0.553561 0.427398 0.126470
O O12 0.503050 0.388280 0.025973
O O13 0.250000 0.932234 0.345553
O O14 0.466401 0.897886 0.280225
O O15 0.750000 0.135273 0.784505
O O16 0.529482 0.250000 0.781049
O O17 0.507360 0.079772 0.820659
O O18 0.250000 0.378399 0.986855
O O19 0.057684 0.250000 0.960829
O O20 0.031646 0.414725 0.923373
O O21 0.250000 0.838815 0.529843
O O22 0.750000 0.940068 0.142345
#
# Coordination Sequence:
#
# PCOD8243248 Si02
#       8
#     8   8   8   8   8   8   8   8
#     4   9  17  30  49  72  98 128 162 201 245 296
#     4   9  16  27  46  71  97 127 165 204 242 290
#     4   9  18  32  50  75 108 143 176 209 248 298
#     4   9  18  34  53  71  95 128 164 205 255 304
#     4  10  22  39  57  77 100 127 165 215 265 310
#     4   9  17  29  47  74 106 138 174 215 256 298
#     4   9  16  26  43  69 100 132 163 197 240 289
#     4  10  20  34  53  76 104 139 175 212 256 303
#
# _framework density 19.047542
#
# number of rings (size 3 to 8) (size 9 to 14) (size 15 to 20)
#    0.000    2.750    0.000    1.500    0.000    5.500 
#    0.000    2.500    0.000    3.000    0.000    0.000 
#    0.000    0.000    0.000    0.000    0.000    0.000 
#
# Total GULP energy -793252.710387 kJ/mol
# GULP energy per Si atom -12394.573600 kJ/mol
# Density = 1.900419 g / cm^3
# Si number density = 19.047542 Si / 1000 Ang^3
#
#
#
# Elastic Constant Matrix: (Units=GPa)
#
#
# Indices 1 2 3 4 5 6 
#
# 1 77.3321 32.4434 54.9637 0.0000 0.0000 0.0000
# 2 32.4434 89.5148 58.2373 0.0000 0.0000 0.0000
# 3 54.9637 58.2373 116.6402 0.0000 0.0000 0.0000
# 4 0.0000 0.0000 0.0000 12.8999 0.0000 0.0000
# 5 0.0000 0.0000 0.0000 0.0000 33.2528 0.0000
# 6 0.0000 0.0000 0.0000 0.0000 0.0000 14.4320
#
#
#
# Elastic Compliance Matrix: (Units=1/GPa)
#
#
# Indices 1 2 3 4 5 6 
#
# 1 0.019601 -0.001622 -0.008427 0.000000 0.000000 0.000000
# 2 -0.001622 0.016680 -0.007564 0.000000 0.000000 0.000000
# 3 -0.008427 -0.007564 0.016321 0.000000 0.000000 0.000000
# 4 0.000000 0.000000 0.000000 0.077520 0.000000 0.000000
# 5 0.000000 0.000000 0.000000 0.000000 0.030073 0.000000
# 6 0.000000 0.000000 0.000000 0.000000 0.000000 0.069291
#
#
# Mechanical properties :
#
#
# Convention : Reuss Voigt Hill
#
# Bulk Modulus (GPa) = 57.54738 63.86398 60.70568
# Shear Modulus (GPa) = 18.48411 21.30645 19.89528
#
# Velocity S-wave (km/s) = 3.11854 3.34817 3.23539
# Velocity P-wave (km/s) = 6.57610 6.96767 6.77472
#
# Compressibility (1/GPa) = 0.01737699
#
# Stress axis : x y z
#
# Youngs Moduli (GPa) = 51.01809 59.95138 61.27125
#
# Poissons Ratio (x) = 0.09723 0.51631
# Poissons Ratio (y) = 0.08274 0.46346
# Poissons Ratio (z) = 0.42991 0.45347
#
# Static dielectric constant tensor:
#      x y z
#    x 3.570930 0.000000 0.000000 
#    y 0.000000 3.700280 0.000000 
#    z 0.000000 0.000000 3.236540 
# 
# 
# High freq. dielectric constant tensor:
#      x y z
#    x 1.739660 0.000000 0.000000 
#    y 0.000000 1.751160 0.000000 
#    z 0.000000 0.000000 1.709130 
# 
# From -- ./inp_files/31537.got.cif
#   From: 2010.03.12/outbox.cif.g09.slc.cpg/sg59_16_cif.got.tgz:31537.got - 2010.04.16 16:29:54.
