data_PCOD8243368
_publ_section_title
;
Structure prediction by ZEFSAII (Michael W. Deem and Ramdas Pophale) SiO2 
 PCOD8243368
Probable space group: P M M N
;
_chemical_formula_sum "Si O2"
_cell_formula_units_Z 56
_cell_length_a 8.639087
_cell_length_b 21.008689
_cell_length_c 15.979852
_cell_angle_alpha 90.000000
_cell_angle_beta 90.000000
_cell_angle_gamma 90.000000
_cell_volume 2900.277493
_symmetry_space_group_name_H-M "P M M N"
_symmetry_group_IT_number 59
_space_group.IT_coordinate_system_code '2'
_symmetry_cell_setting 'orthorhombic'
loop_
_space_group_symop_operation_xyz
x,y,z
1/2-x,1/2-y,z
1/2+x,-y,-z
-x,1/2+y,-z
-x,-y,-z
1/2+x,1/2+y,-z
1/2-x,y,z
x,1/2-y,z
loop_
_atom_site_type_symbol
_atom_site_label
_atom_site_fract_x
_atom_site_fract_y
_atom_site_fract_z
Si Si1 0.928181 0.042512 0.339465
Si Si2 0.929255 0.137555 0.478073
Si Si3 0.070127 0.750000 0.796179
Si Si4 0.072633 0.121351 0.197652
Si Si5 0.425453 0.001387 0.089739
Si Si6 0.427821 0.250000 0.381060
Si Si7 0.567897 0.823964 0.353786
Si Si8 0.567058 0.427296 0.750443
O O1 0.750000 0.023768 0.325787
O O2 0.956552 0.068806 0.433908
O O3 0.972019 0.100138 0.277300
O O4 0.030742 0.980422 0.320590
O O5 0.750000 0.157799 0.468692
O O6 0.041774 0.188703 0.436861
O O7 0.976618 0.136553 0.575111
O O8 0.250000 0.750000 0.817035
O O9 0.991106 0.688101 0.836813
O O10 0.041885 0.750000 0.697146
O O11 0.250000 0.127231 0.227316
O O12 0.055480 0.072948 0.121635
O O13 0.250000 0.981417 0.077708
O O14 0.495780 0.952983 0.159489
O O15 0.500000 0.000000 0.000000
O O16 0.250000 0.250000 0.350958
O O17 0.750000 0.828997 0.368711
O O18 0.515875 0.750000 0.349200
O O19 0.519064 0.860591 0.268658
O O20 0.750000 0.416677 0.752040
#
# Coordination Sequence:
#
# PCOD8243368 Si02
#       8
#     8   8   4   8   8   4   8   8
#     4  10  20  34  54  82 115 150 192 237 283 336
#     4  11  22  35  54  80 113 153 200 243 285 332
#     4  12  22  32  50  80 115 154 193 232 282 336
#     4  10  20  34  53  81 116 152 188 227 277 336
#     4   9  20  38  63  91 114 141 180 225 280 344
#     4  12  22  32  50  76 111 154 197 242 282 324
#     4  11  24  40  59  83 111 149 199 245 291 338
#     4  10  22  40  61  86 115 148 187 232 290 347
#
# _framework density 19.308498
#
# number of rings (size 3 to 8) (size 9 to 14) (size 15 to 20)
#    0.000    1.571    2.143    4.286    0.000    6.571 
#    0.000    0.000    1.571    0.000    0.000    0.000 
#    0.000    0.000    0.000    0.000    0.000    0.000 
#
# Total GULP energy -694363.094109 kJ/mol
# GULP energy per Si atom -12399.340966 kJ/mol
# Density = 1.926455 g / cm^3
# Si number density = 19.308498 Si / 1000 Ang^3
#
#
#
# Elastic Constant Matrix: (Units=GPa)
#
#
# Indices 1 2 3 4 5 6 
#
# 1 65.7659 32.3088 32.1777 0.0000 0.0000 0.0000
# 2 32.3088 97.5848 51.7698 0.0000 0.0000 0.0000
# 3 32.1777 51.7698 102.1826 0.0000 0.0000 0.0000
# 4 0.0000 0.0000 0.0000 16.4966 0.0000 0.0000
# 5 0.0000 0.0000 0.0000 0.0000 30.4727 0.0000
# 6 0.0000 0.0000 0.0000 0.0000 0.0000 32.5076
#
#
#
# Elastic Compliance Matrix: (Units=1/GPa)
#
#
# Indices 1 2 3 4 5 6 
#
# 1 0.019215 -0.004310 -0.003867 0.000000 0.000000 0.000000
# 2 -0.004310 0.014981 -0.006233 0.000000 0.000000 0.000000
# 3 -0.003867 -0.006233 0.014162 0.000000 0.000000 0.000000
# 4 0.000000 0.000000 0.000000 0.060618 0.000000 0.000000
# 5 0.000000 0.000000 0.000000 0.000000 0.032816 0.000000
# 6 0.000000 0.000000 0.000000 0.000000 0.000000 0.030762
#
#
# Mechanical properties :
#
#
# Convention : Reuss Voigt Hill
#
# Bulk Modulus (GPa) = 51.18269 55.33843 53.26056
# Shear Modulus (GPa) = 24.05147 25.84720 24.94934
#
# Velocity S-wave (km/s) = 3.53319 3.66272 3.59854
# Velocity P-wave (km/s) = 6.57343 6.82713 6.70148
#
# Compressibility (1/GPa) = 0.01953785
#
# Stress axis : x y z
#
# Youngs Moduli (GPa) = 52.04259 66.75096 70.61186
#
# Poissons Ratio (x) = 0.28771 0.27307
# Poissons Ratio (y) = 0.22431 0.44010
# Poissons Ratio (z) = 0.20126 0.41604
#
# Static dielectric constant tensor:
#      x y z
#    x 3.554390 0.000000 0.000000 
#    y 0.000000 3.379160 0.000000 
#    z 0.000000 0.000000 2.588520 
# 
# 
# High freq. dielectric constant tensor:
#      x y z
#    x 1.759850 0.000000 0.000000 
#    y 0.000000 1.753140 0.000000 
#    z 0.000000 0.000000 1.722130 
# 
# From -- ./inp_files/21230.got.cif
#   From: 2010.03.12/outbox.cif.g09.slc.cpg/sg59_11_cif.got.tgz:21230.got - 2010.04.16 16:29:54.
