data_PCOD8243622
_publ_section_title
;
Structure prediction by ZEFSAII (Michael W. Deem and Ramdas Pophale) SiO2 
 PCOD8243622
Probable space group: P M M N
;
_chemical_formula_sum "Si O2"
_cell_formula_units_Z 56
_cell_length_a 8.698584
_cell_length_b 14.405573
_cell_length_c 23.806742
_cell_angle_alpha 90.000000
_cell_angle_beta 90.000000
_cell_angle_gamma 90.000000
_cell_volume 2983.177293
_symmetry_space_group_name_H-M "P M M N"
_symmetry_group_IT_number 59
_space_group.IT_coordinate_system_code '2'
_symmetry_cell_setting 'orthorhombic'
loop_
_space_group_symop_operation_xyz
x,y,z
1/2-x,1/2-y,z
1/2+x,-y,-z
-x,1/2+y,-z
-x,-y,-z
1/2+x,1/2+y,-z
1/2-x,y,z
x,1/2-y,z
loop_
_atom_site_type_symbol
_atom_site_label
_atom_site_fract_x
_atom_site_fract_y
_atom_site_fract_z
Si Si1 0.423781 0.140850 0.931804
Si Si2 0.068432 0.353459 0.649453
Si Si3 0.569081 0.491322 0.266427
Si Si4 0.570236 0.498587 0.854731
Si Si5 0.568792 0.642877 0.646687
Si Si6 0.431840 0.996557 0.561400
Si Si7 0.932801 0.852441 0.943772
O O1 0.250000 0.103453 0.923177
O O2 0.426988 0.250000 0.923345
O O3 0.536491 0.098338 0.885294
O O4 0.486624 0.115087 0.994139
O O5 0.250000 0.342972 0.648807
O O6 0.993271 0.250000 0.650204
O O7 0.016947 0.411814 0.704385
O O8 0.014306 0.410543 0.594460
O O9 0.750000 0.476908 0.273882
O O10 0.524837 0.494584 0.201909
O O11 0.485559 0.404634 0.295584
O O12 0.750000 0.508503 0.841614
O O13 0.506554 0.578571 0.896112
O O14 0.750000 0.632353 0.640953
O O15 0.518015 0.750000 0.648004
O O16 0.491099 0.594815 0.593041
O O17 0.250000 0.991090 0.558275
O O18 0.500000 0.000000 0.500000
O O19 0.750000 0.849387 0.944386
O O20 0.998346 0.750000 0.930175
#
# Coordination Sequence:
#
# PCOD8243622 Si02
#       7
#     8   8   8   8   8   8   8
#     4   9  18  34  54  73  97 133 174 214 260 317
#     4   8  16  33  55  75  97 132 176 216 255 300
#     4  10  21  36  54  77 105 138 178 223 267 316
#     4  11  21  32  51  78 106 135 169 215 268 319
#     4  10  21  38  59  80 106 144 185 226 275 322
#     4  10  20  34  55  84 116 146 178 220 265 314
#     4   8  16  32  52  73  98 131 171 212 259 319
#
# _framework density 18.771933000000001
#
# number of rings (size 3 to 8) (size 9 to 14) (size 15 to 20)
#    0.000    2.571    0.000    3.857    0.000    3.143 
#    0.000    5.000    0.000   17.571    0.000    0.000 
#    0.000    0.000    0.000    0.000    0.000    0.000 
#
# Total GULP energy -694310.295793 kJ/mol
# GULP energy per Si atom -12398.398139 kJ/mol
# Density = 1.872921 g / cm^3
# Si number density = 18.771933 Si / 1000 Ang^3
#
#
#
# Elastic Constant Matrix: (Units=GPa)
#
#
# Indices 1 2 3 4 5 6 
#
# 1 45.2765 33.3445 24.6653 0.0000 0.0000 0.0000
# 2 33.3445 135.9385 70.1496 0.0000 0.0000 0.0000
# 3 24.6653 70.1496 152.0242 0.0000 0.0000 0.0000
# 4 0.0000 0.0000 0.0000 6.8699 0.0000 0.0000
# 5 0.0000 0.0000 0.0000 0.0000 31.7073 0.0000
# 6 0.0000 0.0000 0.0000 0.0000 0.0000 25.7373
#
#
#
# Elastic Compliance Matrix: (Units=1/GPa)
#
#
# Indices 1 2 3 4 5 6 
#
# 1 0.027310 -0.005791 -0.001759 0.000000 0.000000 0.000000
# 2 -0.005791 0.010884 -0.004082 0.000000 0.000000 0.000000
# 3 -0.001759 -0.004082 0.008747 0.000000 0.000000 0.000000
# 4 0.000000 0.000000 0.000000 0.145563 0.000000 0.000000
# 5 0.000000 0.000000 0.000000 0.000000 0.031538 0.000000
# 6 0.000000 0.000000 0.000000 0.000000 0.000000 0.038854
#
#
# Mechanical properties :
#
#
# Convention : Reuss Voigt Hill
#
# Bulk Modulus (GPa) = 42.23769 65.50645 53.87207
# Shear Modulus (GPa) = 17.00377 26.53487 21.76932
#
# Velocity S-wave (km/s) = 3.01293 3.76379 3.40909
# Velocity P-wave (km/s) = 5.88668 7.33893 6.65255
#
# Compressibility (1/GPa) = 0.02367554
#
# Stress axis : x y z
#
# Youngs Moduli (GPa) = 36.61710 91.88189 114.32475
#
# Poissons Ratio (x) = 0.53212 0.20105
# Poissons Ratio (y) = 0.21206 0.46672
# Poissons Ratio (z) = 0.06439 0.37510
#
# Static dielectric constant tensor:
#      x y z
#    x 3.257780 0.000000 0.000000 
#    y 0.000000 3.724050 0.000000 
#    z 0.000000 0.000000 3.493260 
# 
# 
# High freq. dielectric constant tensor:
#      x y z
#    x 1.710400 0.000000 0.000000 
#    y 0.000000 1.734540 0.000000 
#    z 0.000000 0.000000 1.732330 
# 
# From -- ./inp_files/28995.got.cif
#   From: 2010.03.12/outbox.cif.g09.slc.cpg/sg59_15_cif.got.tgz:28995.got - 2010.04.16 16:29:54.
