data_PCOD8243135
_publ_section_title
;
Structure prediction by ZEFSAII (Michael W. Deem and Ramdas Pophale) SiO2 
 PCOD8243135
Probable space group: P M M N
;
_chemical_formula_sum "Si O2"
_cell_formula_units_Z 56
_cell_length_a 19.561551
_cell_length_b 9.520671
_cell_length_c 16.351300
_cell_angle_alpha 90.000000
_cell_angle_beta 90.000000
_cell_angle_gamma 90.000000
_cell_volume 3045.251254
_symmetry_space_group_name_H-M "P M M N"
_symmetry_group_IT_number 59
_space_group.IT_coordinate_system_code '2'
_symmetry_cell_setting 'orthorhombic'
loop_
_space_group_symop_operation_xyz
x,y,z
1/2-x,1/2-y,z
1/2+x,-y,-z
-x,1/2+y,-z
-x,-y,-z
1/2+x,1/2+y,-z
1/2-x,y,z
x,1/2-y,z
loop_
_atom_site_type_symbol
_atom_site_label
_atom_site_fract_x
_atom_site_fract_y
_atom_site_fract_z
Si Si1 0.829825 0.589601 0.175356
Si Si2 0.409958 0.083684 0.670037
Si Si3 0.326414 0.590903 0.976877
Si Si4 0.040524 0.587922 0.067344
Si Si5 0.672580 0.085786 0.646908
Si Si6 0.328513 0.086919 0.514807
Si Si7 0.046560 0.583901 0.249805
O O1 0.750000 0.574352 0.190156
O O2 0.852324 0.750000 0.160967
O O3 0.866289 0.524076 0.254352
O O4 0.854255 0.504962 0.096381
O O5 0.401798 0.250000 0.668133
O O6 0.378914 0.026098 0.585152
O O7 0.488516 0.036745 0.684818
O O8 0.250000 0.544970 0.005001
O O9 0.325458 0.750000 0.944334
O O10 0.377981 0.574388 0.052319
O O11 0.016813 0.750000 0.060607
O O12 0.029552 0.525265 0.158867
O O13 0.000000 0.500000 0.000000
O O14 0.750000 0.054757 0.676649
O O15 0.662140 0.250000 0.627904
O O16 0.620283 0.032875 0.717030
O O17 0.655100 0.001783 0.565260
O O18 0.250000 0.066239 0.543154
O O19 0.343160 0.250000 0.495766
O O20 0.047324 0.750000 0.240906
#
# Coordination Sequence:
#
# PCOD8243135 Si02
#       7
#     8   8   8   8   8   8   8
#     4   9  16  27  46  70  94 122 156 192 230 275
#     4   9  16  27  45  69  95 121 153 190 225 271
#     4   9  18  31  46  67  95 124 155 194 240 286
#     4  10  20  34  52  72  96 127 161 198 240 285
#     4   9  18  33  51  70  93 121 156 196 232 269
#     4   9  17  30  49  71  94 121 151 184 227 276
#     4   9  18  31  48  70  93 121 156 192 231 272
#
# _framework density 18.389286999999999
#
# number of rings (size 3 to 8) (size 9 to 14) (size 15 to 20)
#    0.000    2.857    0.000    1.286    0.000    4.571 
#    0.000    4.286    0.000    5.143    0.000    4.000 
#    0.000    0.000    0.000    0.000    0.000    0.000 
#
# Total GULP energy -694156.254116 kJ/mol
# GULP energy per Si atom -12395.647395 kJ/mol
# Density = 1.834743 g / cm^3
# Si number density = 18.389287 Si / 1000 Ang^3
#
#
#
# Elastic Constant Matrix: (Units=GPa)
#
#
# Indices 1 2 3 4 5 6 
#
# 1 99.9545 23.7502 70.5063 0.0000 0.0000 0.0000
# 2 23.7502 36.0071 31.8126 0.0000 0.0000 0.0000
# 3 70.5063 31.8126 123.1992 0.0000 0.0000 0.0000
# 4 0.0000 0.0000 0.0000 24.9311 0.0000 0.0000
# 5 0.0000 0.0000 0.0000 0.0000 37.0798 0.0000
# 6 0.0000 0.0000 0.0000 0.0000 0.0000 16.7988
#
#
#
# Elastic Compliance Matrix: (Units=1/GPa)
#
#
# Indices 1 2 3 4 5 6 
#
# 1 0.017095 -0.003410 -0.008903 0.000000 0.000000 0.000000
# 2 -0.003410 0.036661 -0.007515 0.000000 0.000000 0.000000
# 3 -0.008903 -0.007515 0.015152 0.000000 0.000000 0.000000
# 4 0.000000 0.000000 0.000000 0.040110 0.000000 0.000000
# 5 0.000000 0.000000 0.000000 0.000000 0.026969 0.000000
# 6 0.000000 0.000000 0.000000 0.000000 0.000000 0.059528
#
#
# Mechanical properties :
#
#
# Convention : Reuss Voigt Hill
#
# Bulk Modulus (GPa) = 34.18492 56.81102 45.49797
# Shear Modulus (GPa) = 20.41465 24.63473 22.52469
#
# Velocity S-wave (km/s) = 3.33549 3.66406 3.50363
# Velocity P-wave (km/s) = 5.78480 6.99007 6.41580
#
# Compressibility (1/GPa) = 0.02925266
#
# Stress axis : x y z
#
# Youngs Moduli (GPa) = 58.49815 27.27677 65.99609
#
# Poissons Ratio (x) = 0.09301 0.58754
# Poissons Ratio (y) = 0.19948 0.49597
# Poissons Ratio (z) = 0.52079 0.20499
#
# Static dielectric constant tensor:
#      x y z
#    x 3.597930 0.000000 0.000000 
#    y 0.000000 3.079120 0.000000 
#    z 0.000000 0.000000 3.439150 
# 
# 
# High freq. dielectric constant tensor:
#      x y z
#    x 1.726830 0.000000 0.000000 
#    y 0.000000 1.671860 0.000000 
#    z 0.000000 0.000000 1.707720 
# 
# From -- ./inp_files/20980.got.cif
#   From: 2010.03.12/outbox.cif.g09.slc.cpg/sg59_11_cif.got.tgz:20980.got - 2010.04.16 16:29:54.
