data_PCOD8243908
_publ_section_title
;
Structure prediction by ZEFSAII (Michael W. Deem and Ramdas Pophale) SiO2 
 PCOD8243908
Probable space group: P M M N
;
_chemical_formula_sum "Si O2"
_cell_formula_units_Z 48
_cell_length_a 15.158735
_cell_length_b 12.615723
_cell_length_c 11.848948
_cell_angle_alpha 90.000000
_cell_angle_beta 90.000000
_cell_angle_gamma 90.000000
_cell_volume 2265.973878
_symmetry_space_group_name_H-M "P M M N"
_symmetry_group_IT_number 59
_space_group.IT_coordinate_system_code '2'
_symmetry_cell_setting 'orthorhombic'
loop_
_space_group_symop_operation_xyz
x,y,z
1/2-x,1/2-y,z
1/2+x,-y,-z
-x,1/2+y,-z
-x,-y,-z
1/2+x,1/2+y,-z
1/2-x,y,z
x,1/2-y,z
loop_
_atom_site_type_symbol
_atom_site_label
_atom_site_fract_x
_atom_site_fract_y
_atom_site_fract_z
Si Si1 0.502601 0.867298 0.782967
Si Si2 0.651150 0.364664 0.813644
Si Si3 0.850206 0.523974 0.191064
Si Si4 0.586468 0.019137 0.607275
Si Si5 0.851900 0.933698 0.940195
Si Si6 0.089879 0.372959 0.582135
O O1 0.475595 0.750000 0.746580
O O2 0.413111 0.923189 0.824114
O O3 0.537162 0.926494 0.673742
O O4 0.579378 0.857113 0.878011
O O5 0.750000 0.341083 0.848026
O O6 0.600301 0.250000 0.816470
O O7 0.651536 0.416559 0.688672
O O8 0.612959 0.447470 0.905267
O O9 0.750000 0.485092 0.211557
O O10 0.879901 0.603097 0.290320
O O11 0.856636 0.587663 0.073329
O O12 0.636938 0.957113 0.504749
O O13 0.514284 0.104636 0.564649
O O14 0.750000 0.917117 0.897792
O O15 0.112057 0.250000 0.554575
#
# Coordination Sequence:
#
# PCOD8243908 Si02
#       6
#     8   8   8   8   8   8
#     4  10  20  35  57  82 109 146 188 232 288 342
#     4   9  17  31  54  80 104 135 174 219 276 333
#     4  10  22  38  54  79 116 153 192 236 279 334
#     4   9  19  35  54  79 109 136 177 235 280 323
#     4   9  19  36  56  82 115 145 183 239 292 341
#     4  10  20  35  56  77 103 146 189 225 276 337
#
# _framework density 21.182946000000001
#
# number of rings (size 3 to 8) (size 9 to 14) (size 15 to 20)
#    0.000    2.500    0.000    1.500    0.000    3.000 
#    0.000    4.167    0.000    3.000    0.000    0.000 
#    0.000    0.000    0.000    0.000    0.000    0.000 
#
# Total GULP energy -594676.397196 kJ/mol
# GULP energy per Si atom -12389.091608 kJ/mol
# Density = 2.113473 g / cm^3
# Si number density = 21.182946 Si / 1000 Ang^3
#
#
#
# Elastic Constant Matrix: (Units=GPa)
#
#
# Indices 1 2 3 4 5 6 
#
# 1 68.4029 16.7234 5.8212 0.0000 0.0000 0.0000
# 2 16.7234 100.4369 21.0226 0.0000 0.0000 0.0000
# 3 5.8212 21.0226 109.0368 0.0000 0.0000 0.0000
# 4 0.0000 0.0000 0.0000 15.1137 0.0000 0.0000
# 5 0.0000 0.0000 0.0000 0.0000 26.6945 0.0000
# 6 0.0000 0.0000 0.0000 0.0000 0.0000 8.7688
#
#
#
# Elastic Compliance Matrix: (Units=1/GPa)
#
#
# Indices 1 2 3 4 5 6 
#
# 1 0.015252 -0.002469 -0.000338 0.000000 0.000000 0.000000
# 2 -0.002469 0.010775 -0.001946 0.000000 0.000000 0.000000
# 3 -0.000338 -0.001946 0.009564 0.000000 0.000000 0.000000
# 4 0.000000 0.000000 0.000000 0.066165 0.000000 0.000000
# 5 0.000000 0.000000 0.000000 0.000000 0.037461 0.000000
# 6 0.000000 0.000000 0.000000 0.000000 0.000000 0.114041
#
#
# Mechanical properties :
#
#
# Convention : Reuss Voigt Hill
#
# Bulk Modulus (GPa) = 38.33525 40.55676 39.44600
# Shear Modulus (GPa) = 18.41907 25.73604 22.07755
#
# Velocity S-wave (km/s) = 2.95197 3.48938 3.23186
# Velocity P-wave (km/s) = 5.45484 5.95163 5.70864
#
# Compressibility (1/GPa) = 0.02608566
#
# Stress axis : x y z
#
# Youngs Moduli (GPa) = 65.56690 92.80925 104.55444
#
# Poissons Ratio (x) = 0.22912 0.03537
# Poissons Ratio (y) = 0.16186 0.20342
# Poissons Ratio (z) = 0.02218 0.18057
#
# Static dielectric constant tensor:
#      x y z
#    x 3.683080 0.000000 0.000000 
#    y 0.000000 4.075450 0.000000 
#    z 0.000000 0.000000 3.915510 
# 
# 
# High freq. dielectric constant tensor:
#      x y z
#    x 1.808540 0.000000 0.000000 
#    y 0.000000 1.821500 0.000000 
#    z 0.000000 0.000000 1.833990 
# 
# From -- ./inp_files/17616.got.cif
#   From: 2010.03.12/outbox.cif.g09.slc.cpg/sg59_9_cif.got.tgz:17616.got - 2010.04.16 16:29:54.
