data_PCOD8243598
_publ_section_title
;
Structure prediction by ZEFSAII (Michael W. Deem and Ramdas Pophale) SiO2 
 PCOD8243598
Probable space group: P M M N
;
_chemical_formula_sum "Si O2"
_cell_formula_units_Z 64
_cell_length_a 28.756669
_cell_length_b 9.047041
_cell_length_c 12.405501
_cell_angle_alpha 90.000000
_cell_angle_beta 90.000000
_cell_angle_gamma 90.000000
_cell_volume 3227.449422
_symmetry_space_group_name_H-M "P M M N"
_symmetry_group_IT_number 59
_space_group.IT_coordinate_system_code '2'
_symmetry_cell_setting 'orthorhombic'
loop_
_space_group_symop_operation_xyz
x,y,z
1/2-x,1/2-y,z
1/2+x,-y,-z
-x,1/2+y,-z
-x,-y,-z
1/2+x,1/2+y,-z
1/2-x,y,z
x,1/2-y,z
loop_
_atom_site_type_symbol
_atom_site_label
_atom_site_fract_x
_atom_site_fract_y
_atom_site_fract_z
Si Si1 0.332736 0.915653 0.498900
Si Si2 0.801473 0.573752 0.941324
Si Si3 0.198339 0.079372 0.699176
Si Si4 0.522239 0.572441 0.106267
Si Si5 0.561897 0.083180 0.505382
Si Si6 0.990815 0.924515 0.677065
Si Si7 0.195859 0.415496 0.298161
Si Si8 0.870561 0.925749 0.120260
O O1 0.313756 0.750000 0.496631
O O2 0.385815 0.925308 0.535489
O O3 0.301618 0.003613 0.583177
O O4 0.330543 0.979353 0.379505
O O5 0.750000 0.515993 0.976268
O O6 0.800278 0.750000 0.943436
O O7 0.842094 0.511177 0.017792
O O8 0.813210 0.519855 0.820942
O O9 0.250000 0.056799 0.750432
O O10 0.188218 0.250000 0.679070
O O11 0.157861 0.013356 0.775994
O O12 0.518066 0.750000 0.100242
O O13 0.494958 0.511043 0.210168
O O14 0.576168 0.520026 0.116374
O O15 0.500000 0.500000 0.000000
O O16 0.547338 0.250000 0.537383
O O17 0.533392 0.030005 0.400669
O O18 0.554425 0.979483 0.610537
O O19 0.987635 0.750000 0.700696
O O20 0.250000 0.414834 0.325676
O O21 0.175620 0.250000 0.308374
O O22 0.868869 0.750000 0.119862
#
# Coordination Sequence:
#
# PCOD8243598 Si02
#       8
#     8   8   8   8   8   8   8   8
#     4  11  22  34  50  75 109 145 178 214 261 316
#     4   8  14  28  52  79 104 130 168 221 272 315
#     4  10  20  34  55  83 113 144 180 223 268 317
#     4  11  23  38  56  80 113 148 184 229 280 335
#     4   9  20  37  56  80 108 138 175 223 275 326
#     4  10  20  37  60  81 103 136 179 223 272 329
#     4   9  18  32  50  73 102 137 176 218 261 305
#     4   9  18  33  55  82 108 137 176 221 270 324
#
# _framework density 19.829901
#
# number of rings (size 3 to 8) (size 9 to 14) (size 15 to 20)
#    0.000    2.375    0.000    3.375    0.000    6.000 
#    0.000    1.875    0.000    1.500    0.000    1.750 
#    0.000    0.000    0.000    0.000    0.000    0.000 
#
# Total GULP energy -793390.932387 kJ/mol
# GULP energy per Si atom -12396.733319 kJ/mol
# Density = 1.978477 g / cm^3
# Si number density = 19.829901 Si / 1000 Ang^3
#
#
#
# Elastic Constant Matrix: (Units=GPa)
#
#
# Indices 1 2 3 4 5 6 
#
# 1 68.0393 27.1353 34.0876 0.0000 0.0000 0.0000
# 2 27.1353 68.3152 41.1392 0.0000 0.0000 0.0000
# 3 34.0876 41.1392 127.7780 0.0000 0.0000 0.0000
# 4 0.0000 0.0000 0.0000 19.1060 0.0000 0.0000
# 5 0.0000 0.0000 0.0000 0.0000 28.4696 0.0000
# 6 0.0000 0.0000 0.0000 0.0000 0.0000 19.7259
#
#
#
# Elastic Compliance Matrix: (Units=1/GPa)
#
#
# Indices 1 2 3 4 5 6 
#
# 1 0.018449 -0.005414 -0.003179 0.000000 0.000000 0.000000
# 2 -0.005414 0.019747 -0.004914 0.000000 0.000000 0.000000
# 3 -0.003179 -0.004914 0.010256 0.000000 0.000000 0.000000
# 4 0.000000 0.000000 0.000000 0.052340 0.000000 0.000000
# 5 0.000000 0.000000 0.000000 0.000000 0.035125 0.000000
# 6 0.000000 0.000000 0.000000 0.000000 0.000000 0.050695
#
#
# Mechanical properties :
#
#
# Convention : Reuss Voigt Hill
#
# Bulk Modulus (GPa) = 46.64130 52.09519 49.36825
# Shear Modulus (GPa) = 22.64790 24.24500 23.44645
#
# Velocity S-wave (km/s) = 3.38318 3.50043 3.44230
# Velocity P-wave (km/s) = 6.23161 6.53188 6.38351
#
# Compressibility (1/GPa) = 0.02144023
#
# Stress axis : x y z
#
# Youngs Moduli (GPa) = 54.20336 50.63949 97.50380
#
# Poissons Ratio (x) = 0.27416 0.30993
# Poissons Ratio (y) = 0.29345 0.47909
# Poissons Ratio (z) = 0.17229 0.24882
#
# Static dielectric constant tensor:
#      x y z
#    x 3.689510 0.000000 0.000000 
#    y 0.000000 3.340050 0.000000 
#    z 0.000000 0.000000 3.685670 
# 
# 
# High freq. dielectric constant tensor:
#      x y z
#    x 1.773220 0.000000 0.000000 
#    y 0.000000 1.742440 0.000000 
#    z 0.000000 0.000000 1.780710 
# 
# From -- ./inp_files/19364.got.cif
#   From: 2010.03.12/outbox.cif.g09.slc.cpg/sg59_10_cif.got.tgz:19364.got - 2010.04.16 16:29:54.
