data_PCOD8243692
_publ_section_title
;
Structure prediction by ZEFSAII (Michael W. Deem and Ramdas Pophale) SiO2 
 PCOD8243692
Probable space group: P M M N
;
_chemical_formula_sum "Si O2"
_cell_formula_units_Z 64
_cell_length_a 8.715910
_cell_length_b 18.307298
_cell_length_c 21.378965
_cell_angle_alpha 90.000000
_cell_angle_beta 90.000000
_cell_angle_gamma 90.000000
_cell_volume 3411.329456
_symmetry_space_group_name_H-M "P M M N"
_symmetry_group_IT_number 59
_space_group.IT_coordinate_system_code '2'
_symmetry_cell_setting 'orthorhombic'
loop_
_space_group_symop_operation_xyz
x,y,z
1/2-x,1/2-y,z
1/2+x,-y,-z
-x,1/2+y,-z
-x,-y,-z
1/2+x,1/2+y,-z
1/2-x,y,z
x,1/2-y,z
loop_
_atom_site_type_symbol
_atom_site_label
_atom_site_fract_x
_atom_site_fract_y
_atom_site_fract_z
Si Si1 0.430988 0.419993 0.498541
Si Si2 0.930105 0.038526 0.813248
Si Si3 0.569403 0.405684 0.251969
Si Si4 0.068291 0.525945 0.935372
Si Si5 0.931480 0.329503 0.126670
Si Si6 0.574543 0.164782 0.612705
Si Si7 0.929300 0.665290 0.626814
Si Si8 0.571477 0.665498 0.256902
O O1 0.500000 0.500000 0.500000
O O2 0.250000 0.424268 0.506519
O O3 0.501525 0.375831 0.555013
O O4 0.476846 0.378325 0.435169
O O5 0.750000 0.031012 0.822220
O O6 0.974311 0.120208 0.793292
O O7 0.986942 0.983161 0.759245
O O8 0.010832 0.024798 0.879425
O O9 0.750000 0.420107 0.250600
O O10 0.517329 0.351158 0.196654
O O11 0.523082 0.370386 0.317098
O O12 0.250000 0.521041 0.938027
O O13 0.011974 0.609314 0.922503
O O14 0.000000 0.500000 0.000000
O O15 0.750000 0.324779 0.124251
O O16 0.003218 0.250000 0.110096
O O17 0.750000 0.140109 0.622246
O O18 0.561649 0.250000 0.598767
O O19 0.480042 0.142641 0.673872
O O20 0.750000 0.657311 0.641156
O O21 0.975866 0.750000 0.618803
O O22 0.750000 0.647763 0.249333
O O23 0.534438 0.750000 0.244172
#
# Coordination Sequence:
#
# PCOD8243692 Si02
#       8
#     8   8   8   8   8   8   8   8
#     4  11  24  40  57  78 109 148 192 240 289 342
#     4  11  22  37  59  85 117 153 189 233 282 334
#     4  10  20  34  56  85 115 147 185 229 282 342
#     4  10  20  36  58  84 116 154 195 236 283 337
#     4   8  15  30  53  81 110 141 182 231 277 324
#     4  10  21  38  60  84 110 143 185 233 288 351
#     4  10  22  39  57  79 110 147 186 232 288 344
#     4  10  21  38  61  87 114 146 187 237 291 343
#
# _framework density 18.761015
#
# number of rings (size 3 to 8) (size 9 to 14) (size 15 to 20)
#    0.000    2.000    0.000    4.500    1.750    3.750 
#    0.000    0.625    0.000    9.750    0.000    0.000 
#    0.000    0.000    0.000    0.000    0.000    0.000 
#
# Total GULP energy -793709.876741 kJ/mol
# GULP energy per Si atom -12401.716824 kJ/mol
# Density = 1.871831 g / cm^3
# Si number density = 18.761015 Si / 1000 Ang^3
#
#
#
# Elastic Constant Matrix: (Units=GPa)
#
#
# Indices 1 2 3 4 5 6 
#
# 1 71.4327 47.1315 26.6837 0.0000 0.0000 0.0000
# 2 47.1315 111.3761 82.7341 0.0000 0.0000 0.0000
# 3 26.6837 82.7341 92.5837 0.0000 0.0000 0.0000
# 4 0.0000 0.0000 0.0000 27.7966 0.0000 0.0000
# 5 0.0000 0.0000 0.0000 0.0000 35.5883 0.0000
# 6 0.0000 0.0000 0.0000 0.0000 0.0000 29.4916
#
#
#
# Elastic Compliance Matrix: (Units=1/GPa)
#
#
# Indices 1 2 3 4 5 6 
#
# 1 0.020300 -0.012625 0.005431 0.000000 0.000000 0.000000
# 2 -0.012625 0.034558 -0.027243 0.000000 0.000000 0.000000
# 3 0.005431 -0.027243 0.033581 0.000000 0.000000 0.000000
# 4 0.000000 0.000000 0.000000 0.035976 0.000000 0.000000
# 5 0.000000 0.000000 0.000000 0.000000 0.028099 0.000000
# 6 0.000000 0.000000 0.000000 0.000000 0.000000 0.033908
#
#
# Mechanical properties :
#
#
# Convention : Reuss Voigt Hill
#
# Bulk Modulus (GPa) = 51.11120 65.38791 58.24956
# Shear Modulus (GPa) = 19.09722 26.49817 22.79770
#
# Velocity S-wave (km/s) = 3.19395 3.76228 3.48970
# Velocity P-wave (km/s) = 6.39564 7.33496 6.88135
#
# Compressibility (1/GPa) = 0.01956518
#
# Stress axis : x y z
#
# Youngs Moduli (GPa) = 49.26005 28.93654 29.77905
#
# Poissons Ratio (x) = 0.36532 -0.16173
# Poissons Ratio (y) = 0.62191 0.81128
# Poissons Ratio (z) = -0.26753 0.78832
#
# Static dielectric constant tensor:
#      x y z
#    x 3.457990 0.000000 0.000000 
#    y 0.000000 3.658730 0.000000 
#    z 0.000000 0.000000 3.397090 
# 
# 
# High freq. dielectric constant tensor:
#      x y z
#    x 1.730480 0.000000 0.000000 
#    y 0.000000 1.738730 0.000000 
#    z 0.000000 0.000000 1.724270 
# 
# From -- ./inp_files/29483.got.cif
#   From: 2010.03.12/outbox.cif.g09.slc.cpg/sg59_15_cif.got.tgz:29483.got - 2010.04.16 16:29:54.
