data_PCOD8243293
_publ_section_title
;
Structure prediction by ZEFSAII (Michael W. Deem and Ramdas Pophale) SiO2 
 PCOD8243293
Probable space group: P M M N
;
_chemical_formula_sum "Si O2"
_cell_formula_units_Z 64
_cell_length_a 9.047917
_cell_length_b 14.472568
_cell_length_c 25.189872
_cell_angle_alpha 90.000000
_cell_angle_beta 90.000000
_cell_angle_gamma 90.000000
_cell_volume 3298.527943
_symmetry_space_group_name_H-M "P M M N"
_symmetry_group_IT_number 59
_space_group.IT_coordinate_system_code '2'
_symmetry_cell_setting 'orthorhombic'
loop_
_space_group_symop_operation_xyz
x,y,z
1/2-x,1/2-y,z
1/2+x,-y,-z
-x,1/2+y,-z
-x,-y,-z
1/2+x,1/2+y,-z
1/2-x,y,z
x,1/2-y,z
loop_
_atom_site_type_symbol
_atom_site_label
_atom_site_fract_x
_atom_site_fract_y
_atom_site_fract_z
Si Si1 0.416817 0.149963 0.582611
Si Si2 0.574829 0.143676 0.774623
Si Si3 0.581771 0.647096 0.621712
Si Si4 0.920516 0.039153 0.670329
Si Si5 0.425727 0.904158 0.515258
Si Si6 0.922878 0.540755 0.129444
Si Si7 0.576817 0.352776 0.083719
Si Si8 0.079748 0.355706 0.975808
O O1 0.250000 0.116571 0.569693
O O2 0.414921 0.250000 0.611196
O O3 0.490447 0.075133 0.620102
O O4 0.510162 0.164882 0.528835
O O5 0.750000 0.140988 0.777943
O O6 0.518666 0.250000 0.771452
O O7 0.516991 0.085527 0.723853
O O8 0.512529 0.092283 0.825490
O O9 0.750000 0.638032 0.600450
O O10 0.552905 0.750000 0.644956
O O11 0.557170 0.572319 0.669217
O O12 0.470909 0.629470 0.573458
O O13 0.750000 0.067236 0.663289
O O14 0.250000 0.909398 0.511936
O O15 0.500000 0.000000 0.500000
O O16 0.750000 0.558129 0.139647
O O17 0.961473 0.430624 0.128037
O O18 0.973365 0.582559 0.073276
O O19 0.750000 0.350308 0.074372
O O20 0.519467 0.250000 0.101187
O O21 0.508975 0.384356 0.027995
O O22 0.250000 0.373166 0.988806
O O23 0.048578 0.250000 0.960163
#
# Coordination Sequence:
#
# PCOD8243293 Si02
#       8
#     8   8   8   8   8   8   8   8
#     4  11  23  37  56  84 115 146 182 224 271 327
#     4  10  22  39  58  82 110 139 178 228 278 328
#     4  10  21  38  60  85 113 146 184 226 273 327
#     4  10  21  39  61  81 107 144 181 224 276 326
#     4  12  23  36  56  83 116 152 187 225 271 324
#     4  10  20  34  53  77 107 145 184 224 274 329
#     4   9  18  32  50  75 108 145 184 224 268 319
#     4   9  17  29  47  74 107 141 180 225 272 326
#
# _framework density 19.402593
#
# number of rings (size 3 to 8) (size 9 to 14) (size 15 to 20)
#    0.000    1.875    1.250    3.000    0.000    5.500 
#    0.000    1.875    0.000    0.750    0.000    0.000 
#    0.000    0.000    0.000    0.000    0.000    0.000 
#
# Total GULP energy -793373.085883 kJ/mol
# GULP energy per Si atom -12396.454467 kJ/mol
# Density = 1.935843 g / cm^3
# Si number density = 19.402593 Si / 1000 Ang^3
#
#
#
# Elastic Constant Matrix: (Units=GPa)
#
#
# Indices 1 2 3 4 5 6 
#
# 1 67.8324 38.2677 32.0186 0.0000 0.0000 0.0000
# 2 38.2677 148.6123 68.6582 0.0000 0.0000 0.0000
# 3 32.0186 68.6582 91.8636 0.0000 0.0000 0.0000
# 4 0.0000 0.0000 0.0000 30.7996 0.0000 0.0000
# 5 0.0000 0.0000 0.0000 0.0000 26.9589 0.0000
# 6 0.0000 0.0000 0.0000 0.0000 0.0000 23.0105
#
#
#
# Elastic Compliance Matrix: (Units=1/GPa)
#
#
# Indices 1 2 3 4 5 6 
#
# 1 0.018328 -0.002701 -0.004370 0.000000 0.000000 0.000000
# 2 -0.002701 0.010676 -0.007038 0.000000 0.000000 0.000000
# 3 -0.004370 -0.007038 0.017669 0.000000 0.000000 0.000000
# 4 0.000000 0.000000 0.000000 0.032468 0.000000 0.000000
# 5 0.000000 0.000000 0.000000 0.000000 0.037093 0.000000
# 6 0.000000 0.000000 0.000000 0.000000 0.000000 0.043458
#
#
# Mechanical properties :
#
#
# Convention : Reuss Voigt Hill
#
# Bulk Modulus (GPa) = 54.18137 65.13303 59.65720
# Shear Modulus (GPa) = 25.76509 27.44474 26.60491
#
# Velocity S-wave (km/s) = 3.64802 3.76505 3.70699
# Velocity P-wave (km/s) = 6.76236 7.24865 7.00972
#
# Compressibility (1/GPa) = 0.01845653
#
# Stress axis : x y z
#
# Youngs Moduli (GPa) = 54.55986 93.67059 56.59747
#
# Poissons Ratio (x) = 0.25298 0.24732
# Poissons Ratio (y) = 0.14735 0.39831
# Poissons Ratio (z) = 0.23841 0.65922
#
# Static dielectric constant tensor:
#      x y z
#    x 3.493650 0.000000 0.000000 
#    y 0.000000 4.036970 0.000000 
#    z 0.000000 0.000000 3.424930 
# 
# 
# High freq. dielectric constant tensor:
#      x y z
#    x 1.748920 0.000000 0.000000 
#    y 0.000000 1.778790 0.000000 
#    z 0.000000 0.000000 1.725340 
# 
# From -- ./inp_files/31451.got.cif
#   From: 2010.03.12/outbox.cif.g09.slc.cpg/sg59_16_cif.got.tgz:31451.got - 2010.04.16 16:29:54.
