data_PCOD8243227
_publ_section_title
;
Structure prediction by ZEFSAII (Michael W. Deem and Ramdas Pophale) SiO2 
 PCOD8243227
Probable space group: P M M N
;
_chemical_formula_sum "Si O2"
_cell_formula_units_Z 56
_cell_length_a 17.877195
_cell_length_b 9.038570
_cell_length_c 18.187704
_cell_angle_alpha 90.000000
_cell_angle_beta 90.000000
_cell_angle_gamma 90.000000
_cell_volume 2938.847027
_symmetry_space_group_name_H-M "P M M N"
_symmetry_group_IT_number 59
_space_group.IT_coordinate_system_code '2'
_symmetry_cell_setting 'orthorhombic'
loop_
_space_group_symop_operation_xyz
x,y,z
1/2-x,1/2-y,z
1/2+x,-y,-z
-x,1/2+y,-z
-x,-y,-z
1/2+x,1/2+y,-z
1/2-x,y,z
x,1/2-y,z
loop_
_atom_site_type_symbol
_atom_site_label
_atom_site_fract_x
_atom_site_fract_y
_atom_site_fract_z
Si Si1 0.339238 0.083020 0.559423
Si Si2 0.664348 0.577762 0.152076
Si Si3 0.160797 0.582864 0.415189
Si Si4 0.339133 0.417200 0.271004
Si Si5 0.420314 0.075154 0.995585
Si Si6 0.338812 0.917835 0.126152
Si Si7 0.339106 0.916793 0.702794
O O1 0.250000 0.081351 0.559718
O O2 0.369699 0.250000 0.556831
O O3 0.369930 0.996197 0.488390
O O4 0.370980 0.004976 0.632635
O O5 0.750000 0.532865 0.135684
O O6 0.658227 0.750000 0.170256
O O7 0.631687 0.490919 0.222213
O O8 0.615443 0.532314 0.082298
O O9 0.250000 0.582578 0.414924
O O10 0.130117 0.750000 0.413002
O O11 0.129869 0.495279 0.344422
O O12 0.250000 0.416319 0.271674
O O13 0.370172 0.250000 0.267451
O O14 0.369147 0.508449 0.201051
O O15 0.427708 0.250000 0.005322
O O16 0.366947 0.013136 0.058308
O O17 0.500000 0.000000 0.000000
O O18 0.250000 0.919306 0.124693
O O19 0.369502 0.750000 0.121715
O O20 0.250000 0.921418 0.701397
O O21 0.369391 0.750000 0.699072
#
# Coordination Sequence:
#
# PCOD8243227 Si02
#       7
#     8   8   8   8   8   8   8
#     4   9  15  22  33  51  80 119 158 193 233 283
#     4   9  18  33  52  72  95 126 163 201 243 293
#     4   9  15  22  33  52  82 119 157 196 238 283
#     4   9  16  26  41  62  89 122 160 199 240 288
#     4  11  23  38  55  75 101 131 164 204 251 302
#     4  10  20  34  53  76 101 130 166 207 250 297
#     4   9  16  25  39  61  88 118 154 196 239 283
#
# _framework density 19.055091000000001
#
# number of rings (size 3 to 8) (size 9 to 14) (size 15 to 20)
#    0.000    2.571    0.000    3.000    0.000    9.429 
#    0.000    1.429    0.000    0.000    0.000    0.000 
#    0.000    1.143    0.000    4.286    0.000    9.714 
#
# Total GULP energy -694426.778723 kJ/mol
# GULP energy per Si atom -12400.478191 kJ/mol
# Density = 1.901172 g / cm^3
# Si number density = 19.055091 Si / 1000 Ang^3
#
#
#
# Elastic Constant Matrix: (Units=GPa)
#
#
# Indices 1 2 3 4 5 6 
#
# 1 11.0680 17.0211 12.4649 0.0000 0.0000 0.0000
# 2 17.0211 156.4860 98.7068 0.0000 0.0000 0.0000
# 3 12.4649 98.7068 182.2361 0.0000 0.0000 0.0000
# 4 0.0000 0.0000 0.0000 43.1683 0.0000 0.0000
# 5 0.0000 0.0000 0.0000 0.0000 -1.3655 0.0000
# 6 0.0000 0.0000 0.0000 0.0000 0.0000 15.0277
#
#
#
# Elastic Compliance Matrix: (Units=1/GPa)
#
#
# Indices 1 2 3 4 5 6 
#
# 1 0.108793 -0.010845 -0.001567 0.000000 0.000000 0.000000
# 2 -0.010845 0.010788 -0.005101 0.000000 0.000000 0.000000
# 3 -0.001567 -0.005101 0.008358 0.000000 0.000000 0.000000
# 4 0.000000 0.000000 0.000000 0.023165 0.000000 0.000000
# 5 0.000000 0.000000 0.000000 0.000000 -0.732334 0.000000
# 6 0.000000 0.000000 0.000000 0.000000 0.000000 0.066544
#
#
# Mechanical properties :
#
#
# Convention : Reuss Voigt Hill
#
# Bulk Modulus (GPa) = 10.76291 67.35287 39.05789
# Shear Modulus (GPa) = -11.14359 26.13925 7.49783
#
# Velocity S-wave (km/s) = -2.42091 3.70776 1.98579
# Velocity P-wave (km/s) = 1.46759 7.33165 5.07934
#
# Compressibility (1/GPa) = 0.09291166
#
# Stress axis : x y z
#
# Youngs Moduli (GPa) = 9.19173 92.69829 119.65061
#
# Poissons Ratio (x) = 1.00530 0.18755
# Poissons Ratio (y) = 0.09968 0.61037
# Poissons Ratio (z) = 0.01441 0.47288
#
# Static dielectric constant tensor:
#      x y z
#    x 2.812010 0.000000 0.000000 
#    y 0.000000 3.755970 0.000000 
#    z 0.000000 0.000000 3.775760 
# 
# 
# High freq. dielectric constant tensor:
#      x y z
#    x 1.664720 0.000000 0.000000 
#    y 0.000000 1.758350 0.000000 
#    z 0.000000 0.000000 1.761250 
# 
# From -- ./inp_files/28071.got.cif
#   From: 2010.03.12/outbox.cif.g09.slc.cpg/sg59_15_cif.got.tgz:28071.got - 2010.04.16 16:29:54.
