data_PCOD8243786
_publ_section_title
;
Structure prediction by ZEFSAII (Michael W. Deem and Ramdas Pophale) SiO2 
 PCOD8243786
Probable space group: P M M N
;
_chemical_formula_sum "Si O2"
_cell_formula_units_Z 40
_cell_length_a 8.983349
_cell_length_b 20.122795
_cell_length_c 12.772326
_cell_angle_alpha 90.000000
_cell_angle_beta 90.000000
_cell_angle_gamma 90.000000
_cell_volume 2308.854525
_symmetry_space_group_name_H-M "P M M N"
_symmetry_group_IT_number 59
_space_group.IT_coordinate_system_code '2'
_symmetry_cell_setting 'orthorhombic'
loop_
_space_group_symop_operation_xyz
x,y,z
1/2-x,1/2-y,z
1/2+x,-y,-z
-x,1/2+y,-z
-x,-y,-z
1/2+x,1/2+y,-z
1/2-x,y,z
x,1/2-y,z
loop_
_atom_site_type_symbol
_atom_site_label
_atom_site_fract_x
_atom_site_fract_y
_atom_site_fract_z
Si Si1 0.924170 0.403430 0.194067
Si Si2 0.426606 0.825796 0.609267
Si Si3 0.423199 0.051267 0.772396
Si Si4 0.575379 0.069029 0.971541
Si Si5 0.424667 0.432059 0.535982
O O1 0.750000 0.408638 0.212014
O O2 0.985283 0.348926 0.275768
O O3 0.989141 0.476179 0.223119
O O4 0.958649 0.383384 0.072581
O O5 0.250000 0.834446 0.597923
O O6 0.475751 0.750000 0.593619
O O7 0.506313 0.869218 0.521689
O O8 0.250000 0.052167 0.799915
O O9 0.505626 0.095528 0.862298
O O10 0.455705 0.081115 0.658578
O O11 0.750000 0.059163 0.956643
O O12 0.500000 0.000000 0.000000
O O13 0.500000 0.500000 0.500000
O O14 0.250000 0.437835 0.512864
#
# Coordination Sequence:
#
# PCOD8243786 Si02
#       5
#     8   8   8   8   8
#     4   8  14  28  46  68  99 129 160 201 251 303
#     4  10  20  35  54  75 103 139 175 211 261 322
#     4   9  17  30  47  69 100 131 163 208 258 307
#     4   9  16  26  43  68  99 128 161 203 247 302
#     4  11  21  34  53  76 105 137 176 222 265 315
#
# _framework density 17.324607
#
# number of rings (size 3 to 8) (size 9 to 14) (size 15 to 20)
#    0.000    2.600    2.000    2.400    0.000    2.000 
#    0.000    1.000    0.000    1.200    0.000    2.800 
#    0.000    0.000    0.000    0.000    0.000    0.000 
#
# Total GULP energy -495608.613790 kJ/mol
# GULP energy per Si atom -12390.215345 kJ/mol
# Density = 1.728518 g / cm^3
# Si number density = 17.324607 Si / 1000 Ang^3
#
#
#
# Elastic Constant Matrix: (Units=GPa)
#
#
# Indices 1 2 3 4 5 6 
#
# 1 67.5611 36.2129 64.0121 0.0000 0.0000 0.0000
# 2 36.2129 88.9750 71.1034 0.0000 0.0000 0.0000
# 3 64.0121 71.1034 172.0538 0.0000 0.0000 0.0000
# 4 0.0000 0.0000 0.0000 20.4201 0.0000 0.0000
# 5 0.0000 0.0000 0.0000 0.0000 33.3250 0.0000
# 6 0.0000 0.0000 0.0000 0.0000 0.0000 18.2031
#
#
#
# Elastic Compliance Matrix: (Units=1/GPa)
#
#
# Indices 1 2 3 4 5 6 
#
# 1 0.023726 -0.003886 -0.007221 0.000000 0.000000 0.000000
# 2 -0.003886 0.017417 -0.005752 0.000000 0.000000 0.000000
# 3 -0.007221 -0.005752 0.010876 0.000000 0.000000 0.000000
# 4 0.000000 0.000000 0.000000 0.048971 0.000000 0.000000
# 5 0.000000 0.000000 0.000000 0.000000 0.030007 0.000000
# 6 0.000000 0.000000 0.000000 0.000000 0.000000 0.054936
#
#
# Mechanical properties :
#
#
# Convention : Reuss Voigt Hill
#
# Bulk Modulus (GPa) = 54.64213 74.58294 64.61254
# Shear Modulus (GPa) = 22.14805 24.87376 23.51090
#
# Velocity S-wave (km/s) = 3.57937 3.79324 3.68786
# Velocity P-wave (km/s) = 6.97791 7.89485 7.45050
#
# Compressibility (1/GPa) = 0.01830090
#
# Stress axis : x y z
#
# Youngs Moduli (GPa) = 42.14741 57.41354 91.94462
#
# Poissons Ratio (x) = 0.22309 0.66398
# Poissons Ratio (y) = 0.16377 0.52890
# Poissons Ratio (z) = 0.30437 0.33026
#
# Static dielectric constant tensor:
#      x y z
#    x 3.211340 0.000000 0.000000 
#    y 0.000000 2.983460 0.000000 
#    z 0.000000 0.000000 3.902830 
# 
# 
# High freq. dielectric constant tensor:
#      x y z
#    x 1.657140 0.000000 0.000000 
#    y 0.000000 1.613250 0.000000 
#    z 0.000000 0.000000 1.695060 
# 
# From -- ./inp_files/14074.got.cif
#   From: 2010.03.12/outbox.cif.g09.slc.cpg/sg59_8_cif.got.tgz:14074.got - 2010.04.16 16:29:54.
