data_PCOD8243331
_publ_section_title
;
Structure prediction by ZEFSAII (Michael W. Deem and Ramdas Pophale) SiO2 
 PCOD8243331
Probable space group: P M M N
;
_chemical_formula_sum "Si O2"
_cell_formula_units_Z 56
_cell_length_a 20.743015
_cell_length_b 9.322494
_cell_length_c 14.072370
_cell_angle_alpha 90.000000
_cell_angle_beta 90.000000
_cell_angle_gamma 90.000000
_cell_volume 2721.267527
_symmetry_space_group_name_H-M "P M M N"
_symmetry_group_IT_number 59
_space_group.IT_coordinate_system_code '2'
_symmetry_cell_setting 'orthorhombic'
loop_
_space_group_symop_operation_xyz
x,y,z
1/2-x,1/2-y,z
1/2+x,-y,-z
-x,1/2+y,-z
-x,-y,-z
1/2+x,1/2+y,-z
1/2-x,y,z
x,1/2-y,z
loop_
_atom_site_type_symbol
_atom_site_label
_atom_site_fract_x
_atom_site_fract_y
_atom_site_fract_z
Si Si1 0.099176 0.916723 0.755323
Si Si2 0.562512 0.416561 0.035101
Si Si3 0.494782 0.084436 0.401764
Si Si4 0.325322 0.091915 0.629009
Si Si5 0.325363 0.583541 0.111121
Si Si6 0.861740 0.581336 0.702846
Si Si7 0.321402 0.593592 0.461553
O O1 0.117664 0.750000 0.756429
O O2 0.072865 0.965585 0.856787
O O3 0.049454 0.958373 0.672904
O O4 0.162049 0.010253 0.728629
O O5 0.545035 0.250000 0.028482
O O6 0.500000 0.500000 0.000000
O O7 0.629068 0.449539 0.979277
O O8 0.497881 0.250000 0.428737
O O9 0.430512 0.047365 0.343353
O O10 0.500000 0.000000 0.500000
O O11 0.250000 0.108406 0.613035
O O12 0.357228 0.250000 0.629048
O O13 0.357647 0.001236 0.541795
O O14 0.250000 0.547054 0.088345
O O15 0.331346 0.750000 0.141686
O O16 0.354029 0.481364 0.192150
O O17 0.845644 0.750000 0.705152
O O18 0.813095 0.494064 0.636095
O O19 0.250000 0.623332 0.499683
O O20 0.356049 0.750000 0.449078
#
# Coordination Sequence:
#
# PCOD8243331 Si02
#       7
#     8   8   8   8   8   8   8
#     4  10  21  38  59  82 109 145 189 232 280 342
#     4  10  22  41  65  90 117 153 198 250 305 362
#     4  10  22  37  54  81 116 151 190 237 286 344
#     4  10  21  36  54  80 113 145 181 228 280 335
#     4  10  22  40  61  88 121 157 202 255 311 374
#     4  11  22  36  56  83 116 153 194 242 297 353
#     4  10  20  34  53  78 110 149 190 230 275 333
#
# _framework density 20.578645999999999
#
# number of rings (size 3 to 8) (size 9 to 14) (size 15 to 20)
#    0.000    1.857    0.000    3.429    0.000   10.571 
#    0.000    1.429    0.000    0.000    0.000    0.000 
#    0.000    0.000    0.000    0.000    0.000    0.000 
#
# Total GULP energy -694121.545109 kJ/mol
# GULP energy per Si atom -12395.027591 kJ/mol
# Density = 2.053181 g / cm^3
# Si number density = 20.578646 Si / 1000 Ang^3
#
#
#
# Elastic Constant Matrix: (Units=GPa)
#
#
# Indices 1 2 3 4 5 6 
#
# 1 77.5640 39.4346 50.4619 0.0000 0.0000 0.0000
# 2 39.4346 128.2548 79.5961 0.0000 0.0000 0.0000
# 3 50.4619 79.5961 160.4895 0.0000 0.0000 0.0000
# 4 0.0000 0.0000 0.0000 36.0559 0.0000 0.0000
# 5 0.0000 0.0000 0.0000 0.0000 28.8381 0.0000
# 6 0.0000 0.0000 0.0000 0.0000 0.0000 25.7181
#
#
#
# Elastic Compliance Matrix: (Units=1/GPa)
#
#
# Indices 1 2 3 4 5 6 
#
# 1 0.016847 -0.002734 -0.003941 0.000000 0.000000 0.000000
# 2 -0.002734 0.011708 -0.004947 0.000000 0.000000 0.000000
# 3 -0.003941 -0.004947 0.009924 0.000000 0.000000 0.000000
# 4 0.000000 0.000000 0.000000 0.027735 0.000000 0.000000
# 5 0.000000 0.000000 0.000000 0.000000 0.034676 0.000000
# 6 0.000000 0.000000 0.000000 0.000000 0.000000 0.038883
#
#
# Mechanical properties :
#
#
# Convention : Reuss Voigt Hill
#
# Bulk Modulus (GPa) = 65.64276 78.36593 72.00435
# Shear Modulus (GPa) = 29.74529 31.24345 30.49437
#
# Velocity S-wave (km/s) = 3.80602 3.90069 3.85365
# Velocity P-wave (km/s) = 7.16116 7.64533 7.40720
#
# Compressibility (1/GPa) = 0.01523397
#
# Stress axis : x y z
#
# Youngs Moduli (GPa) = 59.35929 85.41398 100.77040
#
# Poissons Ratio (x) = 0.23352 0.39714
# Poissons Ratio (y) = 0.16229 0.49850
# Poissons Ratio (z) = 0.23394 0.42253
#
# Static dielectric constant tensor:
#      x y z
#    x 3.806270 0.000000 0.000000 
#    y 0.000000 3.952910 0.000000 
#    z 0.000000 0.000000 3.792110 
# 
# 
# High freq. dielectric constant tensor:
#      x y z
#    x 1.806220 0.000000 0.000000 
#    y 0.000000 1.810340 0.000000 
#    z 0.000000 0.000000 1.803340 
# 
# From -- ./inp_files/24243.got.cif
#   From: 2010.03.12/outbox.cif.g09.slc.cpg/sg59_13_cif.got.tgz:24243.got - 2010.04.16 16:29:54.
