data_PCOD8243198
_publ_section_title
;
Structure prediction by ZEFSAII (Michael W. Deem and Ramdas Pophale) SiO2 
 PCOD8243198
Probable space group: P M M N
;
_chemical_formula_sum "Si O2"
_cell_formula_units_Z 48
_cell_length_a 15.023996
_cell_length_b 16.726514
_cell_length_c 9.598499
_cell_angle_alpha 90.000000
_cell_angle_beta 90.000000
_cell_angle_gamma 90.000000
_cell_volume 2412.093963
_symmetry_space_group_name_H-M "P M M N"
_symmetry_group_IT_number 59
_space_group.IT_coordinate_system_code '2'
_symmetry_cell_setting 'orthorhombic'
loop_
_space_group_symop_operation_xyz
x,y,z
1/2-x,1/2-y,z
1/2+x,-y,-z
-x,1/2+y,-z
-x,-y,-z
1/2+x,1/2+y,-z
1/2-x,y,z
x,1/2-y,z
loop_
_atom_site_type_symbol
_atom_site_label
_atom_site_fract_x
_atom_site_fract_y
_atom_site_fract_z
Si Si1 0.348887 0.656531 0.706988
Si Si2 0.503678 0.843988 0.515336
Si Si3 0.847692 0.112607 0.986943
Si Si4 0.089565 0.051523 0.009406
Si Si5 0.009809 0.157058 0.796385
Si Si6 0.353287 0.343227 0.263750
O O1 0.250000 0.618644 0.685180
O O2 0.343721 0.750000 0.680052
O O3 0.420100 0.617836 0.600017
O O4 0.383784 0.641681 0.863557
O O5 0.488636 0.750000 0.506401
O O6 0.505390 0.879240 0.359436
O O7 0.596799 0.863440 0.591810
O O8 0.750000 0.149423 0.956657
O O9 0.914351 0.143631 0.868857
O O10 0.834624 0.016017 0.991387
O O11 0.098612 0.105456 0.145642
O O12 0.089260 0.110753 0.876500
O O13 0.000000 0.000000 0.000000
O O14 0.034915 0.250000 0.795030
O O15 0.250000 0.366542 0.279899
O O16 0.364439 0.250000 0.225034
#
# Coordination Sequence:
#
# PCOD8243198 Si02
#       6
#     8   8   8   8   8   8
#     4   9  17  31  53  78 105 143 186 224 269 329
#     4   9  18  33  53  78 108 138 175 227 278 322
#     4  10  20  34  52  77 110 143 177 220 269 323
#     4  10  20  35  54  76 105 139 177 222 269 319
#     4  10  20  34  55  81 106 136 175 224 278 322
#     4  10  20  36  58  79 103 144 193 231 266 318
#
# _framework density 19.899723000000002
#
# number of rings (size 3 to 8) (size 9 to 14) (size 15 to 20)
#    0.000    2.333    0.000    3.500    0.000    3.000 
#    0.000   10.833    0.000    8.000    0.000    0.000 
#    0.000    0.000    0.000    0.000    0.000    0.000 
#
# Total GULP energy -594890.216276 kJ/mol
# GULP energy per Si atom -12393.546172 kJ/mol
# Density = 1.985443 g / cm^3
# Si number density = 19.899723 Si / 1000 Ang^3
#
#
#
# Elastic Constant Matrix: (Units=GPa)
#
#
# Indices 1 2 3 4 5 6 
#
# 1 87.7450 22.8872 56.7251 0.0000 0.0000 0.0000
# 2 22.8872 51.4473 28.9268 0.0000 0.0000 0.0000
# 3 56.7251 28.9268 162.6963 0.0000 0.0000 0.0000
# 4 0.0000 0.0000 0.0000 2.3336 0.0000 0.0000
# 5 0.0000 0.0000 0.0000 0.0000 13.3816 0.0000
# 6 0.0000 0.0000 0.0000 0.0000 0.0000 19.2875
#
#
#
# Elastic Compliance Matrix: (Units=1/GPa)
#
#
# Indices 1 2 3 4 5 6 
#
# 1 0.015521 -0.004291 -0.004649 0.000000 0.000000 0.000000
# 2 -0.004291 0.022783 -0.002555 0.000000 0.000000 0.000000
# 3 -0.004649 -0.002555 0.008221 0.000000 0.000000 0.000000
# 4 0.000000 0.000000 0.000000 0.428524 0.000000 0.000000
# 5 0.000000 0.000000 0.000000 0.000000 0.074729 0.000000
# 6 0.000000 0.000000 0.000000 0.000000 0.000000 0.051847
#
#
# Mechanical properties :
#
#
# Convention : Reuss Voigt Hill
#
# Bulk Modulus (GPa) = 42.48693 57.66299 50.07496
# Shear Modulus (GPa) = 7.90564 19.89050 13.89807
#
# Velocity S-wave (km/s) = 1.99534 3.16497 2.64560
# Velocity P-wave (km/s) = 5.16772 6.51120 5.87797
#
# Compressibility (1/GPa) = 0.02353665
#
# Stress axis : x y z
#
# Youngs Moduli (GPa) = 64.42810 43.89301 121.63404
#
# Poissons Ratio (x) = 0.18835 0.56543
# Poissons Ratio (y) = 0.27647 0.31072
# Poissons Ratio (z) = 0.29950 0.11213
#
# Static dielectric constant tensor:
#      x y z
#    x 3.840430 0.000000 0.000000 
#    y 0.000000 3.801590 0.000000 
#    z 0.000000 0.000000 3.743560 
# 
# 
# High freq. dielectric constant tensor:
#      x y z
#    x 1.774960 0.000000 0.000000 
#    y 0.000000 1.761540 0.000000 
#    z 0.000000 0.000000 1.772070 
# 
# From -- ./inp_files/9048.got.cif
#   From: 2010.03.12/outbox.cif.g09.slc.cpg/sg59_5_cif.got.tgz:9048.got - 2010.04.16 16:29:54.
