data_PCOD8243001
_publ_section_title
;
Structure prediction by ZEFSAII (Michael W. Deem and Ramdas Pophale) SiO2 
 PCOD8243001
Probable space group: P M M N
;
_chemical_formula_sum "Si O2"
_cell_formula_units_Z 48
_cell_length_a 9.764091
_cell_length_b 8.635996
_cell_length_c 28.953905
_cell_angle_alpha 90.000000
_cell_angle_beta 90.000000
_cell_angle_gamma 90.000000
_cell_volume 2441.470021
_symmetry_space_group_name_H-M "P M M N"
_symmetry_group_IT_number 59
_space_group.IT_coordinate_system_code '2'
_symmetry_cell_setting 'orthorhombic'
loop_
_space_group_symop_operation_xyz
x,y,z
1/2-x,1/2-y,z
1/2+x,-y,-z
-x,1/2+y,-z
-x,-y,-z
1/2+x,1/2+y,-z
1/2-x,y,z
x,1/2-y,z
loop_
_atom_site_type_symbol
_atom_site_label
_atom_site_fract_x
_atom_site_fract_y
_atom_site_fract_z
Si Si1 0.750000 0.432643 0.962147
Si Si2 0.407920 0.934214 0.459191
Si Si3 0.404134 0.433918 0.623005
Si Si4 0.406349 0.425491 0.201121
Si Si5 0.516142 0.932924 0.901214
Si Si6 0.750000 0.930346 0.061563
Si Si7 0.099711 0.431986 0.725160
O O1 0.750000 0.250000 0.952294
O O2 0.882829 0.513076 0.941234
O O3 0.750000 0.462512 0.016528
O O4 0.250000 0.994637 0.461328
O O5 0.409517 0.750000 0.461712
O O6 0.480661 0.996172 0.412313
O O7 0.500000 0.000000 0.500000
O O8 0.250000 0.491507 0.609551
O O9 0.405108 0.250000 0.622069
O O10 0.442703 0.495920 0.674403
O O11 0.250000 0.445301 0.215732
O O12 0.456607 0.250000 0.206108
O O13 0.423036 0.479488 0.148366
O O14 0.493012 0.527617 0.235595
O O15 0.491024 0.750000 0.905863
O O16 0.378070 0.028516 0.906664
O O17 0.750000 0.750000 0.047842
O O18 0.250000 0.497951 0.738473
O O19 0.107740 0.250000 0.721458
#
# Coordination Sequence:
#
# PCOD8243001 Si02
#       7
#     4   8   8   8   8   4   8
#     4  12  24  42  66  92 120 154 194 238 289 344
#     4  10  20  33  52  79 109 145 190 237 284 339
#     4   8  15  31  53  76 107 145 183 226 281 336
#     4  10  22  40  59  81 112 151 188 227 279 335
#     4  11  23  43  64  86 118 158 196 236 287 347
#     4  12  26  42  62  92 122 152 192 242 289 342
#     4   9  19  35  57  86 114 142 181 231 280 334
#
# _framework density 19.660287
#
# number of rings (size 3 to 8) (size 9 to 14) (size 15 to 20)
#    0.000    2.000    0.833    4.000    1.167    3.667 
#    0.000    2.500    0.000    1.000    0.000    0.000 
#    0.000    0.000    0.000    0.000    0.000    0.000 
#
# Total GULP energy -595117.321862 kJ/mol
# GULP energy per Si atom -12398.277539 kJ/mol
# Density = 1.961554 g / cm^3
# Si number density = 19.660287 Si / 1000 Ang^3
#
#
#
# Elastic Constant Matrix: (Units=GPa)
#
#
# Indices 1 2 3 4 5 6 
#
# 1 116.4536 24.8880 40.0409 0.0000 0.0000 0.0000
# 2 24.8880 40.9701 22.6178 0.0000 0.0000 0.0000
# 3 40.0409 22.6178 97.3439 0.0000 0.0000 0.0000
# 4 0.0000 0.0000 0.0000 29.5947 0.0000 0.0000
# 5 0.0000 0.0000 0.0000 0.0000 42.1365 0.0000
# 6 0.0000 0.0000 0.0000 0.0000 0.0000 31.6860
#
#
#
# Elastic Compliance Matrix: (Units=1/GPa)
#
#
# Indices 1 2 3 4 5 6 
#
# 1 0.010732 -0.004683 -0.003326 0.000000 0.000000 0.000000
# 2 -0.004683 0.030043 -0.005054 0.000000 0.000000 0.000000
# 3 -0.003326 -0.005054 0.012815 0.000000 0.000000 0.000000
# 4 0.000000 0.000000 0.000000 0.033790 0.000000 0.000000
# 5 0.000000 0.000000 0.000000 0.000000 0.023732 0.000000
# 6 0.000000 0.000000 0.000000 0.000000 0.000000 0.031560
#
#
# Mechanical properties :
#
#
# Convention : Reuss Voigt Hill
#
# Bulk Modulus (GPa) = 36.41218 47.76233 42.08725
# Shear Modulus (GPa) = 28.09732 31.83149 29.96440
#
# Velocity S-wave (km/s) = 3.78450 4.02814 3.90822
# Velocity P-wave (km/s) = 6.13657 6.78094 6.46678
#
# Compressibility (1/GPa) = 0.02746334
#
# Stress axis : x y z
#
# Youngs Moduli (GPa) = 93.18285 33.28567 78.03113
#
# Poissons Ratio (x) = 0.15587 0.25955
# Poissons Ratio (y) = 0.43636 0.39439
# Poissons Ratio (z) = 0.30995 0.16823
#
# Static dielectric constant tensor:
#      x y z
#    x 3.757590 0.000000 0.000000 
#    y 0.000000 3.317940 0.000000 
#    z 0.000000 0.000000 3.747820 
# 
# 
# High freq. dielectric constant tensor:
#      x y z
#    x 1.776990 0.000000 0.000000 
#    y 0.000000 1.742220 0.000000 
#    z 0.000000 0.000000 1.775670 
# 
# From -- ./inp_files/33093.got.cif
#   From: 2010.03.12/outbox.cif.g09.slc.cpg/sg59_17_cif.got.tgz:33093.got - 2010.04.16 16:29:54.
