data_PCOD8243565
_publ_section_title
;
Structure prediction by ZEFSAII (Michael W. Deem and Ramdas Pophale) SiO2 
 PCOD8243565
Probable space group: P M M N
;
_chemical_formula_sum "Si O2"
_cell_formula_units_Z 64
_cell_length_a 8.674073
_cell_length_b 18.041220
_cell_length_c 21.565150
_cell_angle_alpha 90.000000
_cell_angle_beta 90.000000
_cell_angle_gamma 90.000000
_cell_volume 3374.748854
_symmetry_space_group_name_H-M "P M M N"
_symmetry_group_IT_number 59
_space_group.IT_coordinate_system_code '2'
_symmetry_cell_setting 'orthorhombic'
loop_
_space_group_symop_operation_xyz
x,y,z
1/2-x,1/2-y,z
1/2+x,-y,-z
-x,1/2+y,-z
-x,-y,-z
1/2+x,1/2+y,-z
1/2-x,y,z
x,1/2-y,z
loop_
_atom_site_type_symbol
_atom_site_label
_atom_site_fract_x
_atom_site_fract_y
_atom_site_fract_z
Si Si1 0.928625 0.911328 0.114186
Si Si2 0.428933 0.835857 0.001140
Si Si3 0.566342 0.667516 0.776140
Si Si4 0.568821 0.927499 0.892980
Si Si5 0.929958 0.666677 0.376474
Si Si6 0.932086 0.472508 0.563824
Si Si7 0.926484 0.586797 0.253189
Si Si8 0.069488 0.452681 0.314165
O O1 0.750000 0.903393 0.096007
O O2 0.958704 0.882760 0.184380
O O3 0.031030 0.858719 0.071205
O O4 0.975680 0.996559 0.106911
O O5 0.250000 0.852012 0.988066
O O6 0.468877 0.750000 0.991246
O O7 0.534719 0.884190 0.956111
O O8 0.750000 0.671440 0.777324
O O9 0.494646 0.750000 0.776199
O O10 0.508551 0.623279 0.836395
O O11 0.508424 0.625419 0.713508
O O12 0.750000 0.944375 0.888146
O O13 0.750000 0.658112 0.390724
O O14 0.986845 0.750000 0.389996
O O15 0.965856 0.649224 0.304278
O O16 0.020298 0.612021 0.422485
O O17 0.750000 0.477316 0.560435
O O18 0.000956 0.525551 0.618667
O O19 0.000000 0.500000 0.500000
O O20 0.750000 0.560746 0.259934
O O21 0.032583 0.515402 0.263706
O O22 0.250000 0.448192 0.322218
#
# Coordination Sequence:
#
# PCOD8243565 Si02
#       8
#     8   8   8   8   8   8   8   8
#     4  11  22  36  57  83 110 142 182 225 271 329
#     4  11  25  42  56  74 105 142 181 229 281 330
#     4   9  17  30  52  81 107 133 170 219 272 323
#     4  11  21  36  59  81 106 140 180 225 274 331
#     4   9  18  34  56  82 112 145 183 227 276 327
#     4  10  20  34  55  81 111 149 190 229 270 318
#     4   9  18  32  53  80 108 139 174 218 269 323
#     4   9  17  32  53  77 106 139 177 221 265 318
#
# _framework density 18.964373999999999
#
# number of rings (size 3 to 8) (size 9 to 14) (size 15 to 20)
#    0.000    2.125    1.250    2.250    0.000    3.250 
#    0.000    1.875    0.000    3.375    0.000    0.000 
#    0.000    0.000    0.000    0.000    0.000    0.000 
#
# Total GULP energy -793540.231443 kJ/mol
# GULP energy per Si atom -12399.066116 kJ/mol
# Density = 1.892121 g / cm^3
# Si number density = 18.964374 Si / 1000 Ang^3
#
#
#
# Elastic Constant Matrix: (Units=GPa)
#
#
# Indices 1 2 3 4 5 6 
#
# 1 29.8253 22.0319 21.2255 0.0000 0.0000 0.0000
# 2 22.0319 81.3885 40.6125 0.0000 0.0000 0.0000
# 3 21.2255 40.6125 116.0615 0.0000 0.0000 0.0000
# 4 0.0000 0.0000 0.0000 26.1173 0.0000 0.0000
# 5 0.0000 0.0000 0.0000 0.0000 24.0367 0.0000
# 6 0.0000 0.0000 0.0000 0.0000 0.0000 22.7846
#
#
#
# Elastic Compliance Matrix: (Units=1/GPa)
#
#
# Indices 1 2 3 4 5 6 
#
# 1 0.043920 -0.009548 -0.004691 0.000000 0.000000 0.000000
# 2 -0.009548 0.016962 -0.004189 0.000000 0.000000 0.000000
# 3 -0.004691 -0.004189 0.010940 0.000000 0.000000 0.000000
# 4 0.000000 0.000000 0.000000 0.038289 0.000000 0.000000
# 5 0.000000 0.000000 0.000000 0.000000 0.041603 0.000000
# 6 0.000000 0.000000 0.000000 0.000000 0.000000 0.043889
#
#
# Mechanical properties :
#
#
# Convention : Reuss Voigt Hill
#
# Bulk Modulus (GPa) = 28.60003 43.89055 36.24529
# Shear Modulus (GPa) = 20.48210 24.14806 22.31508
#
# Velocity S-wave (km/s) = 3.28995 3.57226 3.43400
# Velocity P-wave (km/s) = 5.43556 6.34103 5.90567
#
# Compressibility (1/GPa) = 0.03496500
#
# Stress axis : x y z
#
# Youngs Moduli (GPa) = 22.76848 58.95577 91.40866
#
# Poissons Ratio (x) = 0.56294 0.42880
# Poissons Ratio (y) = 0.21740 0.38292
# Poissons Ratio (z) = 0.10681 0.24697
#
# Static dielectric constant tensor:
#      x y z
#    x 3.337840 0.000000 0.000000 
#    y 0.000000 3.620920 0.000000 
#    z 0.000000 0.000000 3.756990 
# 
# 
# High freq. dielectric constant tensor:
#      x y z
#    x 1.724550 0.000000 0.000000 
#    y 0.000000 1.732140 0.000000 
#    z 0.000000 0.000000 1.739530 
# 
# From -- ./inp_files/29474.got.cif
#   From: 2010.03.12/outbox.cif.g09.slc.cpg/sg59_15_cif.got.tgz:29474.got - 2010.04.16 16:29:54.
