data_PCOD8243371
_publ_section_title
;
Structure prediction by ZEFSAII (Michael W. Deem and Ramdas Pophale) SiO2 
 PCOD8243371
Probable space group: P M M N
;
_chemical_formula_sum "Si O2"
_cell_formula_units_Z 64
_cell_length_a 9.049064
_cell_length_b 14.538618
_cell_length_c 25.859181
_cell_angle_alpha 90.000000
_cell_angle_beta 90.000000
_cell_angle_gamma 90.000000
_cell_volume 3402.056731
_symmetry_space_group_name_H-M "P M M N"
_symmetry_group_IT_number 59
_space_group.IT_coordinate_system_code '2'
_symmetry_cell_setting 'orthorhombic'
loop_
_space_group_symop_operation_xyz
x,y,z
1/2-x,1/2-y,z
1/2+x,-y,-z
-x,1/2+y,-z
-x,-y,-z
1/2+x,1/2+y,-z
1/2-x,y,z
x,1/2-y,z
loop_
_atom_site_type_symbol
_atom_site_label
_atom_site_fract_x
_atom_site_fract_y
_atom_site_fract_z
Si Si1 0.577200 0.643703 0.870899
Si Si2 0.577694 0.008809 0.789613
Si Si3 0.584476 0.352778 0.388695
Si Si4 0.423372 0.504026 0.328110
Si Si5 0.424276 0.508044 0.945160
Si Si6 0.584877 0.852127 0.396871
Si Si7 0.076484 0.144648 0.862967
Si Si8 0.078364 0.903518 0.496491
O O1 0.750000 0.636545 0.884398
O O2 0.529909 0.750000 0.862735
O O3 0.538455 0.585982 0.819293
O O4 0.485784 0.599828 0.917893
O O5 0.750000 0.029965 0.792958
O O6 0.524310 0.995301 0.731000
O O7 0.497295 0.097820 0.813143
O O8 0.750000 0.391276 0.378509
O O9 0.569268 0.250000 0.367376
O O10 0.464827 0.412034 0.358553
O O11 0.553120 0.350835 0.449893
O O12 0.250000 0.519683 0.332459
O O13 0.504420 0.589328 0.353571
O O14 0.250000 0.518667 0.951850
O O15 0.465662 0.415761 0.913261
O O16 0.500000 0.500000 0.000000
O O17 0.750000 0.891722 0.406820
O O18 0.593315 0.750000 0.374192
O O19 0.496410 0.847540 0.450426
O O20 0.250000 0.143398 0.853511
O O21 0.020089 0.250000 0.870125
O O22 0.250000 0.916338 0.483372
O O23 0.000000 0.000000 0.500000
#
# Coordination Sequence:
#
# PCOD8243371 Si02
#       8
#     8   8   8   8   8   8   8   8
#     4   9  18  35  58  80 107 146 187 227 275 328
#     4   9  20  37  56  81 109 139 180 229 279 328
#     4  10  22  39  58  81 111 145 179 219 270 329
#     4  11  23  38  58  83 112 145 181 228 281 331
#     4  10  20  34  53  81 117 151 186 229 272 320
#     4  11  24  40  58  81 110 146 187 228 273 330
#     4   9  19  36  57  80 107 144 187 227 272 325
#     4  11  21  36  60  85 111 144 180 220 272 330
#
# _framework density 18.812149000000002
#
# number of rings (size 3 to 8) (size 9 to 14) (size 15 to 20)
#    0.000    2.000    1.250    1.875    0.000    5.750 
#    0.000    5.000    0.000    0.000    0.000    0.000 
#    0.000    0.000    0.000    0.000    0.000    0.000 
#
# Total GULP energy -793663.022843 kJ/mol
# GULP energy per Si atom -12400.984732 kJ/mol
# Density = 1.876933 g / cm^3
# Si number density = 18.812149 Si / 1000 Ang^3
#
#
#
# Elastic Constant Matrix: (Units=GPa)
#
#
# Indices 1 2 3 4 5 6 
#
# 1 89.7045 48.2406 62.7778 0.0000 0.0000 0.0000
# 2 48.2406 140.3556 57.1469 0.0000 0.0000 0.0000
# 3 62.7778 57.1469 142.4968 0.0000 0.0000 0.0000
# 4 0.0000 0.0000 0.0000 105.8734 0.0000 0.0000
# 5 0.0000 0.0000 0.0000 0.0000 31.3987 0.0000
# 6 0.0000 0.0000 0.0000 0.0000 0.0000 25.2564
#
#
#
# Elastic Compliance Matrix: (Units=1/GPa)
#
#
# Indices 1 2 3 4 5 6 
#
# 1 0.017386 -0.003415 -0.006290 0.000000 0.000000 0.000000
# 2 -0.003415 0.009186 -0.002180 0.000000 0.000000 0.000000
# 3 -0.006290 -0.002180 0.010663 0.000000 0.000000 0.000000
# 4 0.000000 0.000000 0.000000 0.009445 0.000000 0.000000
# 5 0.000000 0.000000 0.000000 0.000000 0.031848 0.000000
# 6 0.000000 0.000000 0.000000 0.000000 0.000000 0.039594
#
#
# Mechanical properties :
#
#
# Convention : Reuss Voigt Hill
#
# Bulk Modulus (GPa) = 74.25983 78.76528 76.51256
# Shear Modulus (GPa) = 34.15777 46.13179 40.14478
#
# Velocity S-wave (km/s) = 4.26576 4.95738 4.62452
# Velocity P-wave (km/s) = 7.98889 8.64452 8.32316
#
# Compressibility (1/GPa) = 0.01346623
#
# Stress axis : x y z
#
# Youngs Moduli (GPa) = 57.51768 108.86394 93.78276
#
# Poissons Ratio (x) = 0.37172 0.58990
# Poissons Ratio (y) = 0.19640 0.20441
# Poissons Ratio (z) = 0.36179 0.23728
#
# Static dielectric constant tensor:
#      x y z
#    x 8.639470 0.000000 0.000000 
#    y 0.000000 3.545610 0.000000 
#    z 0.000000 0.000000 3.650620 
# 
# 
# High freq. dielectric constant tensor:
#      x y z
#    x 1.735400 0.000000 0.000000 
#    y 0.000000 1.738020 0.000000 
#    z 0.000000 0.000000 1.726160 
# 
# From -- ./inp_files/31565.got.cif
#   From: 2010.03.12/outbox.cif.g09.slc.cpg/sg59_16_cif.got.tgz:31565.got - 2010.04.16 16:29:54.
