data_PCOD8243172
_publ_section_title
;
Structure prediction by ZEFSAII (Michael W. Deem and Ramdas Pophale) SiO2 
 PCOD8243172
Probable space group: P M M N
;
_chemical_formula_sum "Si O2"
_cell_formula_units_Z 64
_cell_length_a 8.895225
_cell_length_b 13.592259
_cell_length_c 26.552250
_cell_angle_alpha 90.000000
_cell_angle_beta 90.000000
_cell_angle_gamma 90.000000
_cell_volume 3210.331704
_symmetry_space_group_name_H-M "P M M N"
_symmetry_group_IT_number 59
_space_group.IT_coordinate_system_code '2'
_symmetry_cell_setting 'orthorhombic'
loop_
_space_group_symop_operation_xyz
x,y,z
1/2-x,1/2-y,z
1/2+x,-y,-z
-x,1/2+y,-z
-x,-y,-z
1/2+x,1/2+y,-z
1/2-x,y,z
x,1/2-y,z
loop_
_atom_site_type_symbol
_atom_site_label
_atom_site_fract_x
_atom_site_fract_y
_atom_site_fract_z
Si Si1 0.421035 0.632383 0.975711
Si Si2 0.579753 0.866706 0.875314
Si Si3 0.071124 0.639086 0.677519
Si Si4 0.572509 0.449745 0.425511
Si Si5 0.427255 0.861868 0.177105
Si Si6 0.919822 0.632953 0.075397
Si Si7 0.575050 0.859293 0.480950
Si Si8 0.571487 0.039678 0.220279
O O1 0.250000 0.595435 0.978572
O O2 0.428091 0.750000 0.976127
O O3 0.495541 0.589961 0.924624
O O4 0.512009 0.589392 0.023720
O O5 0.750000 0.907820 0.873494
O O6 0.580505 0.750000 0.878731
O O7 0.491805 0.896869 0.825498
O O8 0.250000 0.640315 0.677362
O O9 0.007847 0.750000 0.675492
O O10 0.008589 0.578781 0.629374
O O11 0.012117 0.587305 0.728050
O O12 0.750000 0.438817 0.425673
O O13 0.510039 0.374296 0.466635
O O14 0.521828 0.561317 0.439185
O O15 0.250000 0.872098 0.181031
O O16 0.480176 0.750000 0.185769
O O17 0.479970 0.902415 0.122605
O O18 0.507467 0.928577 0.219082
O O19 0.750000 0.594250 0.082283
O O20 0.923833 0.750000 0.072761
O O21 0.750000 0.873263 0.492378
O O22 0.539241 0.750000 0.460257
O O23 0.750000 0.038039 0.217359
#
# Coordination Sequence:
#
# PCOD8243172 Si02
#       8
#     8   8   8   8   8   8   8   8
#     4   9  16  27  46  73 104 137 171 207 254 313
#     4  10  20  34  52  75 105 140 176 214 260 316
#     4   9  18  33  54  80 108 138 175 219 263 308
#     4   9  17  31  52  77 106 145 190 227 263 315
#     4  10  21  38  58  77 100 132 169 211 262 319
#     4   9  16  28  49  76 103 131 166 208 255 311
#     4   9  17  29  47  76 114 149 181 223 273 317
#     4  11  22  36  55  78 103 132 172 221 269 316
#
# _framework density 19.935635000000001
#
# number of rings (size 3 to 8) (size 9 to 14) (size 15 to 20)
#    0.000    2.500    0.000    2.625    0.000    5.750 
#    0.000    2.500    0.000    5.250    0.000    0.000 
#    0.000    0.000    0.000    0.000    0.000    0.000 
#
# Total GULP energy -793683.942431 kJ/mol
# GULP energy per Si atom -12401.311600 kJ/mol
# Density = 1.989026 g / cm^3
# Si number density = 19.935635 Si / 1000 Ang^3
#
#
#
# Elastic Constant Matrix: (Units=GPa)
#
#
# Indices 1 2 3 4 5 6 
#
# 1 83.1816 23.0077 45.9885 0.0000 0.0000 0.0000
# 2 23.0077 86.5757 68.4313 0.0000 0.0000 0.0000
# 3 45.9885 68.4313 166.9030 0.0000 0.0000 0.0000
# 4 0.0000 0.0000 0.0000 29.1076 0.0000 0.0000
# 5 0.0000 0.0000 0.0000 0.0000 25.7352 0.0000
# 6 0.0000 0.0000 0.0000 0.0000 0.0000 23.3909
#
#
#
# Elastic Compliance Matrix: (Units=1/GPa)
#
#
# Indices 1 2 3 4 5 6 
#
# 1 0.014242 -0.001011 -0.003510 0.000000 0.000000 0.000000
# 2 -0.001011 0.017160 -0.006757 0.000000 0.000000 0.000000
# 3 -0.003510 -0.006757 0.009729 0.000000 0.000000 0.000000
# 4 0.000000 0.000000 0.000000 0.034355 0.000000 0.000000
# 5 0.000000 0.000000 0.000000 0.000000 0.038857 0.000000
# 6 0.000000 0.000000 0.000000 0.000000 0.000000 0.042752
#
#
# Mechanical properties :
#
#
# Convention : Reuss Voigt Hill
#
# Bulk Modulus (GPa) = 53.83349 67.94613 60.88981
# Shear Modulus (GPa) = 26.90439 28.92893 27.91666
#
# Velocity S-wave (km/s) = 3.67762 3.81349 3.74617
# Velocity P-wave (km/s) = 6.71532 7.31758 7.02291
#
# Compressibility (1/GPa) = 0.01857580
#
# Stress axis : x y z
#
# Youngs Moduli (GPa) = 70.21531 58.27387 102.78325
#
# Poissons Ratio (x) = 0.05889 0.36076
# Poissons Ratio (y) = 0.07095 0.69455
# Poissons Ratio (z) = 0.24645 0.39378
#
# Static dielectric constant tensor:
#      x y z
#    x 3.545500 0.000000 0.000000 
#    y 0.000000 3.788350 0.000000 
#    z 0.000000 0.000000 3.699610 
# 
# 
# High freq. dielectric constant tensor:
#      x y z
#    x 1.768310 0.000000 0.000000 
#    y 0.000000 1.791600 0.000000 
#    z 0.000000 0.000000 1.761610 
# 
# From -- ./inp_files/31688.got.cif
#   From: 2010.03.12/outbox.cif.g09.slc.cpg/sg59_16_cif.got.tgz:31688.got - 2010.04.16 16:29:54.
