data_PCOD8243630
_publ_section_title
;
Structure prediction by ZEFSAII (Michael W. Deem and Ramdas Pophale) SiO2 
 PCOD8243630
Probable space group: P M M N
;
_chemical_formula_sum "Si O2"
_cell_formula_units_Z 56
_cell_length_a 13.631966
_cell_length_b 21.718714
_cell_length_c 10.120783
_cell_angle_alpha 90.000000
_cell_angle_beta 90.000000
_cell_angle_gamma 90.000000
_cell_volume 2996.447782
_symmetry_space_group_name_H-M "P M M N"
_symmetry_group_IT_number 59
_space_group.IT_coordinate_system_code '2'
_symmetry_cell_setting 'orthorhombic'
loop_
_space_group_symop_operation_xyz
x,y,z
1/2-x,1/2-y,z
1/2+x,-y,-z
-x,1/2+y,-z
-x,-y,-z
1/2+x,1/2+y,-z
1/2-x,y,z
x,1/2-y,z
loop_
_atom_site_type_symbol
_atom_site_label
_atom_site_fract_x
_atom_site_fract_y
_atom_site_fract_z
Si Si1 0.140750 0.470122 0.216305
Si Si2 0.477654 0.821505 0.593471
Si Si3 0.452720 0.906144 0.131041
Si Si4 0.360712 0.083929 0.489517
Si Si5 0.451889 0.597380 0.836588
Si Si6 0.863359 0.531209 0.228581
Si Si7 0.859871 0.321213 0.663557
O O1 0.250000 0.451274 0.170986
O O2 0.119348 0.538460 0.168092
O O3 0.129887 0.467463 0.375259
O O4 0.065627 0.422014 0.153333
O O5 0.504991 0.750000 0.609542
O O6 0.573481 0.857024 0.542622
O O7 0.438616 0.846672 0.734235
O O8 0.391871 0.831977 0.487394
O O9 0.566117 0.928963 0.133248
O O10 0.435607 0.852229 0.235494
O O11 0.423752 0.881971 0.984933
O O12 0.250000 0.109006 0.501273
O O13 0.392553 0.049496 0.622635
O O14 0.384209 0.540971 0.788915
O O15 0.750000 0.545398 0.194749
O O16 0.750000 0.348104 0.679835
O O17 0.862014 0.250000 0.699460
#
# Coordination Sequence:
#
# PCOD8243630 Si02
#       7
#     8   8   8   8   8   8   8
#     4   9  18  32  53  81 113 144 178 221 270 327
#     4  10  21  39  59  79 107 143 185 231 270 318
#     4  11  21  35  55  82 112 148 186 223 270 331
#     4   9  18  33  56  87 112 139 178 224 277 324
#     4  10  23  34  53  84 113 147 183 221 275 330
#     4  10  20  34  55  84 118 147 177 225 278 329
#     4  10  22  39  58  78 103 141 187 232 277 323
#
# _framework density 18.688796
#
# number of rings (size 3 to 8) (size 9 to 14) (size 15 to 20)
#    0.000    2.143    1.429    2.143    2.000    6.000 
#    0.000    0.000    0.000    2.143    0.000    2.000 
#    0.000    0.000    0.000    0.000    0.000    0.000 
#
# Total GULP energy -694350.597390 kJ/mol
# GULP energy per Si atom -12399.117811 kJ/mol
# Density = 1.864626 g / cm^3
# Si number density = 18.688796 Si / 1000 Ang^3
#
#
#
# Elastic Constant Matrix: (Units=GPa)
#
#
# Indices 1 2 3 4 5 6 
#
# 1 89.9540 35.3309 23.5685 0.0000 0.0000 0.0000
# 2 35.3309 71.4691 59.3162 0.0000 0.0000 0.0000
# 3 23.5685 59.3162 133.1497 0.0000 0.0000 0.0000
# 4 0.0000 0.0000 0.0000 15.1714 0.0000 0.0000
# 5 0.0000 0.0000 0.0000 0.0000 19.4843 0.0000
# 6 0.0000 0.0000 0.0000 0.0000 0.0000 18.9220
#
#
#
# Elastic Compliance Matrix: (Units=1/GPa)
#
#
# Indices 1 2 3 4 5 6 
#
# 1 0.013871 -0.007647 0.000951 0.000000 0.000000 0.000000
# 2 -0.007647 0.026415 -0.010414 0.000000 0.000000 0.000000
# 3 0.000951 -0.010414 0.011981 0.000000 0.000000 0.000000
# 4 0.000000 0.000000 0.000000 0.065914 0.000000 0.000000
# 5 0.000000 0.000000 0.000000 0.000000 0.051323 0.000000
# 6 0.000000 0.000000 0.000000 0.000000 0.000000 0.052849
#
#
# Mechanical properties :
#
#
# Convention : Reuss Voigt Hill
#
# Bulk Modulus (GPa) = 55.40605 59.00046 57.20325
# Shear Modulus (GPa) = 19.04118 22.47266 20.75692
#
# Velocity S-wave (km/s) = 3.19541 3.47142 3.33627
# Velocity P-wave (km/s) = 6.58219 6.90697 6.74653
#
# Compressibility (1/GPa) = 0.01804857
#
# Stress axis : x y z
#
# Youngs Moduli (GPa) = 72.09343 37.85657 83.46297
#
# Poissons Ratio (x) = 0.28947 -0.07939
# Poissons Ratio (y) = 0.55126 0.86920
# Poissons Ratio (z) = -0.06857 0.39425
#
# Static dielectric constant tensor:
#      x y z
#    x 3.527240 0.000000 0.000000 
#    y 0.000000 3.196450 0.000000 
#    z 0.000000 0.000000 3.566040 
# 
# 
# High freq. dielectric constant tensor:
#      x y z
#    x 1.730990 0.000000 0.000000 
#    y 0.000000 1.697760 0.000000 
#    z 0.000000 0.000000 1.736850 
# 
# From -- ./inp_files/9376.got.cif
#   From: 2010.03.12/outbox.cif.g09.slc.cpg/sg59_5_cif.got.tgz:9376.got - 2010.04.16 16:29:54.
