data_PCOD8243091
_publ_section_title
;
Structure prediction by ZEFSAII (Michael W. Deem and Ramdas Pophale) SiO2 
 PCOD8243091
Probable space group: P M M N
;
_chemical_formula_sum "Si O2"
_cell_formula_units_Z 56
_cell_length_a 22.161354
_cell_length_b 14.747267
_cell_length_c 8.856139
_cell_angle_alpha 90.000000
_cell_angle_beta 90.000000
_cell_angle_gamma 90.000000
_cell_volume 2894.358074
_symmetry_space_group_name_H-M "P M M N"
_symmetry_group_IT_number 59
_space_group.IT_coordinate_system_code '2'
_symmetry_cell_setting 'orthorhombic'
loop_
_space_group_symop_operation_xyz
x,y,z
1/2-x,1/2-y,z
1/2+x,-y,-z
-x,1/2+y,-z
-x,-y,-z
1/2+x,1/2+y,-z
1/2-x,y,z
x,1/2-y,z
loop_
_atom_site_type_symbol
_atom_site_label
_atom_site_fract_x
_atom_site_fract_y
_atom_site_fract_z
Si Si1 0.393712 0.006799 0.285977
Si Si2 0.127333 0.350130 0.861101
Si Si3 0.319050 0.979373 0.997077
Si Si4 0.521237 0.595152 0.940117
Si Si5 0.046452 0.643866 0.480585
Si Si6 0.595006 0.645799 0.479849
Si Si7 0.597134 0.350273 0.196178
O O1 0.440654 0.075316 0.208877
O O2 0.368131 0.073126 0.417550
O O3 0.342895 0.973228 0.168643
O O4 0.424241 0.915410 0.348012
O O5 0.153894 0.250000 0.886403
O O6 0.120368 0.371318 0.685814
O O7 0.174189 0.418174 0.938578
O O8 0.060888 0.354894 0.934269
O O9 0.250000 0.948655 0.995789
O O10 0.355611 0.916640 0.881632
O O11 0.463934 0.656567 0.901801
O O12 0.500000 0.500000 0.000000
O O13 0.056367 0.750000 0.444055
O O14 0.079839 0.615822 0.636186
O O15 0.975782 0.621127 0.488580
O O16 0.606027 0.750000 0.531651
O O17 0.625809 0.250000 0.202134
#
# Coordination Sequence:
#
# PCOD8243091 Si02
#       7
#     8   8   8   8   8   8   8
#     4  11  21  34  60  82 122 152 187 238 295 346
#     4  10  21  37  61  90 122 155 190 236 293 354
#     4  11  26  44  59  80 110 157 215 254 285 326
#     4  11  19  33  55  93 123 153 183 227 294 358
#     4  10  21  34  55  92 126 153 180 224 295 369
#     4  10  20  33  56  92 126 150 176 221 296 374
#     4  11  22  38  61  87 120 156 193 238 291 348
#
# _framework density 19.347987
#
# number of rings (size 3 to 8) (size 9 to 14) (size 15 to 20)
#    0.000    1.429    4.286    2.571    0.000    3.429 
#    0.000    2.857    0.000    1.714    0.000    0.000 
#    0.000    0.000    0.000    0.000    0.000    0.000 
#
# Total GULP energy -694309.475964 kJ/mol
# GULP energy per Si atom -12398.383499 kJ/mol
# Density = 1.930395 g / cm^3
# Si number density = 19.347987 Si / 1000 Ang^3
#
#
#
# Elastic Constant Matrix: (Units=GPa)
#
#
# Indices 1 2 3 4 5 6 
#
# 1 70.0034 2.7975 7.0518 0.0000 0.0000 0.0000
# 2 2.7975 60.8292 21.5708 0.0000 0.0000 0.0000
# 3 7.0518 21.5708 66.5409 0.0000 0.0000 0.0000
# 4 0.0000 0.0000 0.0000 23.5090 0.0000 0.0000
# 5 0.0000 0.0000 0.0000 0.0000 14.9020 0.0000
# 6 0.0000 0.0000 0.0000 0.0000 0.0000 10.6524
#
#
#
# Elastic Compliance Matrix: (Units=1/GPa)
#
#
# Indices 1 2 3 4 5 6 
#
# 1 0.014440 -0.000137 -0.001486 0.000000 0.000000 0.000000
# 2 -0.000137 0.018576 -0.006007 0.000000 0.000000 0.000000
# 3 -0.001486 -0.006007 0.017133 0.000000 0.000000 0.000000
# 4 0.000000 0.000000 0.000000 0.042537 0.000000 0.000000
# 5 0.000000 0.000000 0.000000 0.000000 0.067105 0.000000
# 6 0.000000 0.000000 0.000000 0.000000 0.000000 0.093875
#
#
# Mechanical properties :
#
#
# Convention : Reuss Voigt Hill
#
# Bulk Modulus (GPa) = 28.66255 28.91263 28.78759
# Shear Modulus (GPa) = 17.82169 20.87625 19.34897
#
# Velocity S-wave (km/s) = 3.03828 3.28836 3.16579
# Velocity P-wave (km/s) = 5.21100 5.42159 5.31734
#
# Compressibility (1/GPa) = 0.03488873
#
# Stress axis : x y z
#
# Youngs Moduli (GPa) = 69.25120 53.83274 58.36607
#
# Poissons Ratio (x) = 0.00739 0.08672
# Poissons Ratio (y) = 0.00950 0.35062
# Poissons Ratio (z) = 0.10290 0.32339
#
# Static dielectric constant tensor:
#      x y z
#    x 2.946360 0.000000 0.000000 
#    y 0.000000 3.377970 0.000000 
#    z 0.000000 0.000000 3.683590 
# 
# 
# High freq. dielectric constant tensor:
#      x y z
#    x 1.701960 0.000000 0.000000 
#    y 0.000000 1.766990 0.000000 
#    z 0.000000 0.000000 1.770020 
# 
# From -- ./inp_files/11432.got.cif
#   From: 2010.03.12/outbox.cif.g09.slc.cpg/sg59_6_cif.got.tgz:11432.got - 2010.04.16 16:29:54.
