data_PCOD8243223
_publ_section_title
;
Structure prediction by ZEFSAII (Michael W. Deem and Ramdas Pophale) SiO2 
 PCOD8243223
Probable space group: P M M N
;
_chemical_formula_sum "Si O2"
_cell_formula_units_Z 48
_cell_length_a 9.696450
_cell_length_b 9.003193
_cell_length_c 31.512529
_cell_angle_alpha 90.000000
_cell_angle_beta 90.000000
_cell_angle_gamma 90.000000
_cell_volume 2751.012608
_symmetry_space_group_name_H-M "P M M N"
_symmetry_group_IT_number 59
_space_group.IT_coordinate_system_code '2'
_symmetry_cell_setting 'orthorhombic'
loop_
_space_group_symop_operation_xyz
x,y,z
1/2-x,1/2-y,z
1/2+x,-y,-z
-x,1/2+y,-z
-x,-y,-z
1/2+x,1/2+y,-z
1/2-x,y,z
x,1/2-y,z
loop_
_atom_site_type_symbol
_atom_site_label
_atom_site_fract_x
_atom_site_fract_y
_atom_site_fract_z
Si Si1 0.910802 0.924455 0.036129
Si Si2 0.413678 0.582921 0.878738
Si Si3 0.907312 0.426741 0.535286
Si Si4 0.595030 0.072320 0.717733
Si Si5 0.909649 0.924175 0.205531
Si Si6 0.413425 0.587565 0.373212
O O1 0.750000 0.961429 0.028602
O O2 0.938147 0.750000 0.036134
O O3 0.964027 0.989600 0.080779
O O4 0.000000 0.000000 0.000000
O O5 0.250000 0.583334 0.877403
O O6 0.472468 0.750000 0.881837
O O7 0.469204 0.505912 0.836008
O O8 0.750000 0.471961 0.525959
O O9 0.924501 0.250000 0.534631
O O10 0.954366 0.490640 0.582034
O O11 0.000000 0.500000 0.500000
O O12 0.750000 0.018209 0.728501
O O13 0.591221 0.250000 0.715084
O O14 0.492842 0.013519 0.754019
O O15 0.545770 0.006859 0.671414
O O16 0.750000 0.961491 0.213289
O O17 0.933431 0.750000 0.198776
O O18 0.250000 0.606999 0.373090
O O19 0.483241 0.750000 0.373220
#
# Coordination Sequence:
#
# PCOD8243223 Si02
#       6
#     8   8   8   8   8   8
#     4  10  20  34  53  76 100 126 158 196 236 277
#     4   9  17  30  48  67  89 122 159 187 217 266
#     4   9  17  29  45  65  89 117 150 188 229 273
#     4   8  13  23  41  63  85 110 141 177 219 266
#     4   9  16  26  42  65  89 110 138 180 223 260
#     4   7  11  22  40  60  82 110 143 177 215 263
#
# _framework density 17.448118999999998
#
# number of rings (size 3 to 8) (size 9 to 14) (size 15 to 20)
#    0.000    3.333    0.000    3.000    0.000    3.333 
#    0.000    1.667    0.000    7.500    0.000    4.667 
#    0.000    0.000    0.000    0.000    0.000    0.000 
#
# Total GULP energy -594650.690190 kJ/mol
# GULP energy per Si atom -12388.556046 kJ/mol
# Density = 1.740841 g / cm^3
# Si number density = 17.448119 Si / 1000 Ang^3
#
#
#
# Elastic Constant Matrix: (Units=GPa)
#
#
# Indices 1 2 3 4 5 6 
#
# 1 56.0512 29.5271 72.3654 0.0000 0.0000 0.0000
# 2 29.5271 55.5762 57.7076 0.0000 0.0000 0.0000
# 3 72.3654 57.7076 218.5452 0.0000 0.0000 0.0000
# 4 0.0000 0.0000 0.0000 23.5721 0.0000 0.0000
# 5 0.0000 0.0000 0.0000 0.0000 33.3254 0.0000
# 6 0.0000 0.0000 0.0000 0.0000 0.0000 16.8197
#
#
#
# Elastic Compliance Matrix: (Units=1/GPa)
#
#
# Indices 1 2 3 4 5 6 
#
# 1 0.034015 -0.008786 -0.008943 0.000000 0.000000 0.000000
# 2 -0.008786 0.027060 -0.004236 0.000000 0.000000 0.000000
# 3 -0.008943 -0.004236 0.008656 0.000000 0.000000 0.000000
# 4 0.000000 0.000000 0.000000 0.042423 0.000000 0.000000
# 5 0.000000 0.000000 0.000000 0.000000 0.030007 0.000000
# 6 0.000000 0.000000 0.000000 0.000000 0.000000 0.059454
#
#
# Mechanical properties :
#
#
# Convention : Reuss Voigt Hill
#
# Bulk Modulus (GPa) = 38.75908 72.15254 55.45581
# Shear Modulus (GPa) = 19.67380 26.11496 22.89438
#
# Velocity S-wave (km/s) = 3.36156 3.87294 3.62628
# Velocity P-wave (km/s) = 6.10974 7.83849 7.02748
#
# Compressibility (1/GPa) = 0.02580041
#
# Stress axis : x y z
#
# Youngs Moduli (GPa) = 29.39838 36.95558 115.53176
#
# Poissons Ratio (x) = 0.32468 1.03325
# Poissons Ratio (y) = 0.25828 0.48940
# Poissons Ratio (z) = 0.26292 0.15654
#
# Static dielectric constant tensor:
#      x y z
#    x 2.857280 0.000000 0.000000 
#    y 0.000000 2.965570 0.000000 
#    z 0.000000 0.000000 3.881660 
# 
# 
# High freq. dielectric constant tensor:
#      x y z
#    x 1.633150 0.000000 0.000000 
#    y 0.000000 1.637150 0.000000 
#    z 0.000000 0.000000 1.701000 
# 
# From -- ./inp_files/31219.got.cif
#   From: 2010.03.12/outbox.cif.g09.slc.cpg/sg59_16_cif.got.tgz:31219.got - 2010.04.16 16:29:54.
