data_PCOD8243030
_publ_section_title
;
Structure prediction by ZEFSAII (Michael W. Deem and Ramdas Pophale) SiO2 
 PCOD8243030
Probable space group: P M M N
;
_chemical_formula_sum "Si O2"
_cell_formula_units_Z 64
_cell_length_a 14.613032
_cell_length_b 9.557514
_cell_length_c 24.264200
_cell_angle_alpha 90.000000
_cell_angle_beta 90.000000
_cell_angle_gamma 90.000000
_cell_volume 3388.841487
_symmetry_space_group_name_H-M "P M M N"
_symmetry_group_IT_number 59
_space_group.IT_coordinate_system_code '2'
_symmetry_cell_setting 'orthorhombic'
loop_
_space_group_symop_operation_xyz
x,y,z
1/2-x,1/2-y,z
1/2+x,-y,-z
-x,1/2+y,-z
-x,-y,-z
1/2+x,1/2+y,-z
1/2-x,y,z
x,1/2-y,z
loop_
_atom_site_type_symbol
_atom_site_label
_atom_site_fract_x
_atom_site_fract_y
_atom_site_fract_z
Si Si1 0.146097 0.911496 0.339506
Si Si2 0.641249 0.593242 0.438716
Si Si3 0.641408 0.593097 0.560343
Si Si4 0.482784 0.087963 0.739018
Si Si5 0.993763 0.085751 0.865745
Si Si6 0.858385 0.088263 0.337356
Si Si7 0.357417 0.091878 0.070244
Si Si8 0.350890 0.416236 0.947334
O O1 0.250000 0.960371 0.325298
O O2 0.145084 0.750000 0.355569
O O3 0.082245 0.943502 0.287196
O O4 0.103376 0.991317 0.392312
O O5 0.750000 0.593841 0.439081
O O6 0.606177 0.750000 0.423926
O O7 0.605401 0.548308 0.499542
O O8 0.605046 0.482785 0.393837
O O9 0.750000 0.584186 0.560346
O O10 0.608676 0.750000 0.573903
O O11 0.455238 0.250000 0.730274
O O12 0.487158 0.048334 0.802783
O O13 0.404854 0.990297 0.713543
O O14 0.978778 0.250000 0.874242
O O15 0.078101 0.027463 0.902155
O O16 0.902598 0.008124 0.884805
O O17 0.750000 0.071053 0.330842
O O18 0.887662 0.250000 0.338181
O O19 0.250000 0.086228 0.080311
O O20 0.393721 0.250000 0.078069
O O21 0.381089 0.036437 0.008660
O O22 0.250000 0.476843 0.933218
O O23 0.345958 0.250000 0.946206
#
# Coordination Sequence:
#
# PCOD8243030 Si02
#       8
#     8   8   8   8   8   8   8   8
#     4   9  18  33  51  70  97 133 169 209 257 304
#     4   8  14  27  49  75 101 128 159 201 256 313
#     4   8  14  26  47  75 101 125 159 204 255 310
#     4  10  22  37  52  74 103 137 177 214 252 301
#     4  10  20  33  53  79 103 133 175 220 257 291
#     4  10  21  36  54  76 102 133 170 213 257 300
#     4   9  18  33  53  77 107 141 170 201 252 313
#     4   8  15  30  52  78 107 136 168 208 255 308
#
# _framework density 18.885511000000001
#
# number of rings (size 3 to 8) (size 9 to 14) (size 15 to 20)
#    0.000    3.000    0.000    2.250    0.000    3.500 
#    0.000    5.625    0.000    2.625    0.000    0.000 
#    0.000    0.000    0.000    0.000    0.000    0.000 
#
# Total GULP energy -793432.998112 kJ/mol
# GULP energy per Si atom -12397.390595 kJ/mol
# Density = 1.884253 g / cm^3
# Si number density = 18.885511 Si / 1000 Ang^3
#
#
#
# Elastic Constant Matrix: (Units=GPa)
#
#
# Indices 1 2 3 4 5 6 
#
# 1 48.5237 34.2291 31.7082 0.0000 0.0000 0.0000
# 2 34.2291 75.8261 55.9065 0.0000 0.0000 0.0000
# 3 31.7082 55.9065 101.3221 0.0000 0.0000 0.0000
# 4 0.0000 0.0000 0.0000 27.1631 0.0000 0.0000
# 5 0.0000 0.0000 0.0000 0.0000 15.7041 0.0000
# 6 0.0000 0.0000 0.0000 0.0000 0.0000 24.4660
#
#
#
# Elastic Compliance Matrix: (Units=1/GPa)
#
#
# Indices 1 2 3 4 5 6 
#
# 1 0.030888 -0.011491 -0.003326 0.000000 0.000000 0.000000
# 2 -0.011491 0.026508 -0.011030 0.000000 0.000000 0.000000
# 3 -0.003326 -0.011030 0.016996 0.000000 0.000000 0.000000
# 4 0.000000 0.000000 0.000000 0.036815 0.000000 0.000000
# 5 0.000000 0.000000 0.000000 0.000000 0.063678 0.000000
# 6 0.000000 0.000000 0.000000 0.000000 0.000000 0.040873
#
#
# Mechanical properties :
#
#
# Convention : Reuss Voigt Hill
#
# Bulk Modulus (GPa) = 44.05685 52.15105 48.10395
# Shear Modulus (GPa) = 18.18068 20.38851 19.28460
#
# Velocity S-wave (km/s) = 3.10607 3.28927 3.19898
# Velocity P-wave (km/s) = 6.02018 6.48845 6.25870
#
# Compressibility (1/GPa) = 0.02269795
#
# Stress axis : x y z
#
# Youngs Moduli (GPa) = 32.37544 37.72459 58.83608
#
# Poissons Ratio (x) = 0.43350 0.19567
# Poissons Ratio (y) = 0.37203 0.64897
# Poissons Ratio (z) = 0.10767 0.41611
#
# Static dielectric constant tensor:
#      x y z
#    x 3.369130 0.000000 0.000000 
#    y 0.000000 3.367290 0.000000 
#    z 0.000000 0.000000 3.598530 
# 
# 
# High freq. dielectric constant tensor:
#      x y z
#    x 1.725850 0.000000 0.000000 
#    y 0.000000 1.716050 0.000000 
#    z 0.000000 0.000000 1.732680 
# 
# From -- ./inp_files/32241.got.cif
#   From: 2010.03.12/outbox.cif.g09.slc.cpg/sg59_17_cif.got.tgz:32241.got - 2010.04.16 16:29:54.
