data_PCOD8243416
_publ_section_title
;
Structure prediction by ZEFSAII (Michael W. Deem and Ramdas Pophale) SiO2 
 PCOD8243416
Probable space group: P M M N
;
_chemical_formula_sum "Si O2"
_cell_formula_units_Z 64
_cell_length_a 19.496921
_cell_length_b 8.904472
_cell_length_c 20.092672
_cell_angle_alpha 90.000000
_cell_angle_beta 90.000000
_cell_angle_gamma 90.000000
_cell_volume 3488.284509
_symmetry_space_group_name_H-M "P M M N"
_symmetry_group_IT_number 59
_space_group.IT_coordinate_system_code '2'
_symmetry_cell_setting 'orthorhombic'
loop_
_space_group_symop_operation_xyz
x,y,z
1/2-x,1/2-y,z
1/2+x,-y,-z
-x,1/2+y,-z
-x,-y,-z
1/2+x,1/2+y,-z
1/2-x,y,z
x,1/2-y,z
loop_
_atom_site_type_symbol
_atom_site_label
_atom_site_fract_x
_atom_site_fract_y
_atom_site_fract_z
Si Si1 0.670540 0.920777 0.433240
Si Si2 0.548584 0.576499 0.665051
Si Si3 0.110286 0.923466 0.688826
Si Si4 0.672015 0.073117 0.913117
Si Si5 0.412458 0.075102 0.823730
Si Si6 0.932193 0.072406 0.529752
Si Si7 0.431428 0.925049 0.199460
Si Si8 0.828246 0.926219 0.049312
O O1 0.750000 0.927739 0.451035
O O2 0.642934 0.750000 0.437496
O O3 0.659462 0.982052 0.358898
O O4 0.632396 0.025645 0.485805
O O5 0.567947 0.750000 0.656598
O O6 0.467235 0.551312 0.664599
O O7 0.580916 0.483450 0.604598
O O8 0.581396 0.516425 0.733111
O O9 0.131373 0.750000 0.686157
O O10 0.120411 0.982767 0.763362
O O11 0.750000 0.022465 0.897870
O O12 0.665926 0.250000 0.920455
O O13 0.623844 0.015250 0.853615
O O14 0.645490 0.002799 0.981849
O O15 0.397540 0.250000 0.811040
O O16 0.493283 0.042822 0.830075
O O17 0.376244 0.017352 0.890771
O O18 0.940415 0.250000 0.528303
O O19 0.000000 0.000000 0.500000
O O20 0.421464 0.750000 0.215356
O O21 0.750000 0.973287 0.065025
O O22 0.835239 0.750000 0.039313
#
# Coordination Sequence:
#
# PCOD8243416 Si02
#       8
#     8   8   8   8   8   8   8   8
#     4  11  24  40  58  82 114 150 187 229 277 329
#     4  10  20  35  56  83 110 139 179 225 270 323
#     4  10  20  34  54  79 108 142 179 222 270 324
#     4   9  18  33  52  73  99 133 174 219 268 322
#     4   9  18  32  50  73 104 138 174 216 263 320
#     4  12  23  37  61  87 112 147 188 230 275 328
#     4   9  18  33  52  75 103 136 173 218 269 321
#     4   9  18  32  49  70  98 134 174 214 261 320
#
# _framework density 18.347128000000001
#
# number of rings (size 3 to 8) (size 9 to 14) (size 15 to 20)
#    0.000    2.125    1.250    2.250    0.000    4.000 
#    0.000    1.875    0.000    2.250    0.000    0.000 
#    0.000    0.000    0.000    0.000    0.000    0.000 
#
# Total GULP energy -793867.877744 kJ/mol
# GULP energy per Si atom -12404.185590 kJ/mol
# Density = 1.830537 g / cm^3
# Si number density = 18.347128 Si / 1000 Ang^3
#
#
#
# Elastic Constant Matrix: (Units=GPa)
#
#
# Indices 1 2 3 4 5 6 
#
# 1 70.4548 38.6832 64.6647 0.0000 0.0000 0.0000
# 2 38.6832 96.9545 65.1501 0.0000 0.0000 0.0000
# 3 64.6647 65.1501 155.2848 0.0000 0.0000 0.0000
# 4 0.0000 0.0000 0.0000 38.7109 0.0000 0.0000
# 5 0.0000 0.0000 0.0000 0.0000 32.5124 0.0000
# 6 0.0000 0.0000 0.0000 0.0000 0.0000 20.8492
#
#
#
# Elastic Compliance Matrix: (Units=1/GPa)
#
#
# Indices 1 2 3 4 5 6 
#
# 1 0.024033 -0.003988 -0.008335 0.000000 0.000000 0.000000
# 2 -0.003988 0.015025 -0.004643 0.000000 0.000000 0.000000
# 3 -0.008335 -0.004643 0.011859 0.000000 0.000000 0.000000
# 4 0.000000 0.000000 0.000000 0.025833 0.000000 0.000000
# 5 0.000000 0.000000 0.000000 0.000000 0.030758 0.000000
# 6 0.000000 0.000000 0.000000 0.000000 0.000000 0.047963
#
#
# Mechanical properties :
#
#
# Convention : Reuss Voigt Hill
#
# Bulk Modulus (GPa) = 58.87574 73.29891 66.08733
# Shear Modulus (GPa) = 25.63262 28.69424 27.16343
#
# Velocity S-wave (km/s) = 3.74182 3.95899 3.85194
# Velocity P-wave (km/s) = 7.12937 7.80615 7.47542
#
# Compressibility (1/GPa) = 0.01698492
#
# Stress axis : x y z
#
# Youngs Moduli (GPa) = 41.60962 66.55424 84.32676
#
# Poissons Ratio (x) = 0.26542 0.70284
# Poissons Ratio (y) = 0.16594 0.39154
# Poissons Ratio (z) = 0.34680 0.30902
#
# Static dielectric constant tensor:
#      x y z
#    x 3.311550 0.000000 0.000000 
#    y 0.000000 3.417660 0.000000 
#    z 0.000000 0.000000 3.509000 
# 
# 
# High freq. dielectric constant tensor:
#      x y z
#    x 1.693920 0.000000 0.000000 
#    y 0.000000 1.714780 0.000000 
#    z 0.000000 0.000000 1.720530 
# 
# From -- ./inp_files/30694.got.cif
#   From: 2010.03.12/outbox.cif.g09.slc.cpg/sg59_16_cif.got.tgz:30694.got - 2010.04.16 16:29:54.
