data_PCOD8243042
_publ_section_title
;
Structure prediction by ZEFSAII (Michael W. Deem and Ramdas Pophale) SiO2 
 PCOD8243042
Probable space group: P M M N
;
_chemical_formula_sum "Si O2"
_cell_formula_units_Z 48
_cell_length_a 18.007670
_cell_length_b 8.983221
_cell_length_c 16.362649
_cell_angle_alpha 90.000000
_cell_angle_beta 90.000000
_cell_angle_gamma 90.000000
_cell_volume 2646.934666
_symmetry_space_group_name_H-M "P M M N"
_symmetry_group_IT_number 59
_space_group.IT_coordinate_system_code '2'
_symmetry_cell_setting 'orthorhombic'
loop_
_space_group_symop_operation_xyz
x,y,z
1/2-x,1/2-y,z
1/2+x,-y,-z
-x,1/2+y,-z
-x,-y,-z
1/2+x,1/2+y,-z
1/2-x,y,z
x,1/2-y,z
loop_
_atom_site_type_symbol
_atom_site_label
_atom_site_fract_x
_atom_site_fract_y
_atom_site_fract_z
Si Si1 0.163061 0.577277 0.644561
Si Si2 0.524636 0.077243 0.918043
Si Si3 0.578836 0.578781 0.499339
Si Si4 0.449387 0.074964 0.751865
Si Si5 0.833299 0.077005 0.822773
Si Si6 0.089722 0.420583 0.317037
O O1 0.250000 0.551164 0.652604
O O2 0.141765 0.750000 0.640260
O O3 0.134608 0.499199 0.562763
O O4 0.126372 0.505257 0.725312
O O5 0.524908 0.250000 0.936678
O O6 0.466793 0.036632 0.846184
O O7 0.607429 0.024527 0.891204
O O8 0.500000 0.000000 0.000000
O O9 0.500000 0.500000 0.500000
O O10 0.568059 0.750000 0.473242
O O11 0.615387 0.566767 0.589174
O O12 0.442071 0.250000 0.738094
O O13 0.514815 0.015058 0.694147
O O14 0.750000 0.048514 0.855647
O O15 0.847240 0.250000 0.802195
O O16 0.844885 0.985504 0.739467
O O17 0.073782 0.250000 0.292596
#
# Coordination Sequence:
#
# PCOD8243042 Si02
#       6
#     8   8   8   8   8   8
#     4  11  24  39  55  79 111 147 190 236 281 327
#     4   9  19  35  57  85 110 139 179 221 270 332
#     4  11  22  35  55  80 110 148 190 234 276 325
#     4  10  20  36  58  80 106 142 182 223 271 329
#     4   9  19  36  56  79 110 145 181 224 275 329
#     4  10  20  33  53  81 109 140 181 226 270 323
#
# _framework density 18.134183
#
# number of rings (size 3 to 8) (size 9 to 14) (size 15 to 20)
#    0.000    2.000    1.667    3.000    0.000    7.667 
#    0.000    4.167    0.000    3.000    0.000    0.000 
#    0.000    0.000    0.000    0.000    0.000    0.000 
#
# Total GULP energy -595245.172790 kJ/mol
# GULP energy per Si atom -12400.941100 kJ/mol
# Density = 1.809291 g / cm^3
# Si number density = 18.134183 Si / 1000 Ang^3
#
#
#
# Elastic Constant Matrix: (Units=GPa)
#
#
# Indices 1 2 3 4 5 6 
#
# 1 114.8781 65.3604 68.6842 0.0000 0.0000 0.0000
# 2 65.3604 114.8194 66.0516 0.0000 0.0000 0.0000
# 3 68.6842 66.0516 136.7717 0.0000 0.0000 0.0000
# 4 0.0000 0.0000 0.0000 34.1423 0.0000 0.0000
# 5 0.0000 0.0000 0.0000 0.0000 23.3303 0.0000
# 6 0.0000 0.0000 0.0000 0.0000 0.0000 29.8581
#
#
#
# Elastic Compliance Matrix: (Units=1/GPa)
#
#
# Indices 1 2 3 4 5 6 
#
# 1 0.014730 -0.005718 -0.004636 0.000000 0.000000 0.000000
# 2 -0.005718 0.014280 -0.004024 0.000000 0.000000 0.000000
# 3 -0.004636 -0.004024 0.011583 0.000000 0.000000 0.000000
# 4 0.000000 0.000000 0.000000 0.029289 0.000000 0.000000
# 5 0.000000 0.000000 0.000000 0.000000 0.042863 0.000000
# 6 0.000000 0.000000 0.000000 0.000000 0.000000 0.033492
#
#
# Mechanical properties :
#
#
# Convention : Reuss Voigt Hill
#
# Bulk Modulus (GPa) = 84.48949 85.18462 84.83705
# Shear Modulus (GPa) = 27.94270 28.55767 28.25018
#
# Velocity S-wave (km/s) = 3.92967 3.97268 3.95123
# Velocity P-wave (km/s) = 8.20257 8.25345 8.22805
#
# Compressibility (1/GPa) = 0.01183579
#
# Stress axis : x y z
#
# Youngs Moduli (GPa) = 67.88960 70.03023 86.33436
#
# Poissons Ratio (x) = 0.40045 0.40020
# Poissons Ratio (y) = 0.38821 0.34745
# Poissons Ratio (z) = 0.31470 0.28184
#
# Static dielectric constant tensor:
#      x y z
#    x 3.370080 0.000000 0.000000 
#    y 0.000000 3.659580 0.000000 
#    z 0.000000 0.000000 18.031310 
# 
# 
# High freq. dielectric constant tensor:
#      x y z
#    x 1.692080 0.000000 0.000000 
#    y 0.000000 1.715450 0.000000 
#    z 0.000000 0.000000 1.696580 
# 
# From -- ./inp_files/23650.got.cif
#   From: 2010.03.12/outbox.cif.g09.slc.cpg/sg59_12_cif.got.tgz:23650.got - 2010.04.16 16:29:54.
