data_PCOD8243828
_publ_section_title
;
Structure prediction by ZEFSAII (Michael W. Deem and Ramdas Pophale) SiO2 
 PCOD8243828
Probable space group: P M M N
;
_chemical_formula_sum "Si O2"
_cell_formula_units_Z 64
_cell_length_a 9.255773
_cell_length_b 18.095131
_cell_length_c 21.527298
_cell_angle_alpha 90.000000
_cell_angle_beta 90.000000
_cell_angle_gamma 90.000000
_cell_volume 3605.487126
_symmetry_space_group_name_H-M "P M M N"
_symmetry_group_IT_number 59
_space_group.IT_coordinate_system_code '2'
_symmetry_cell_setting 'orthorhombic'
loop_
_space_group_symop_operation_xyz
x,y,z
1/2-x,1/2-y,z
1/2+x,-y,-z
-x,1/2+y,-z
-x,-y,-z
1/2+x,1/2+y,-z
1/2-x,y,z
x,1/2-y,z
loop_
_atom_site_type_symbol
_atom_site_label
_atom_site_fract_x
_atom_site_fract_y
_atom_site_fract_z
Si Si1 0.583641 0.667984 0.370740
Si Si2 0.079453 0.479016 0.562562
Si Si3 0.083266 0.836540 0.127592
Si Si4 0.916217 0.392245 0.741139
Si Si5 0.586707 0.661904 0.007645
Si Si6 0.086926 0.662002 0.889493
Si Si7 0.915505 0.541992 0.674430
Si Si8 0.416991 0.334633 0.230815
O O1 0.750000 0.656486 0.353769
O O2 0.554611 0.750000 0.398666
O O3 0.537315 0.605855 0.420811
O O4 0.498530 0.660281 0.306701
O O5 0.250000 0.490033 0.554672
O O6 0.000000 0.500000 0.500000
O O7 0.022338 0.533109 0.616454
O O8 0.250000 0.854020 0.112947
O O9 0.058705 0.750000 0.138215
O O10 0.027680 0.878698 0.189076
O O11 0.989629 0.866832 0.070198
O O12 0.750000 0.368731 0.736910
O O13 0.941308 0.477672 0.724684
O O14 0.750000 0.631740 0.005531
O O15 0.584183 0.750000 0.006080
O O16 0.500360 0.630029 0.948376
O O17 0.250000 0.631328 0.891366
O O18 0.085587 0.750000 0.891878
O O19 0.010953 0.634918 0.826378
O O20 0.750000 0.540744 0.650392
O O21 0.953566 0.618972 0.707596
O O22 0.250000 0.343979 0.211799
O O23 0.454760 0.250000 0.246468
#
# Coordination Sequence:
#
# PCOD8243828 Si02
#       8
#     8   8   8   8   8   8   8   8
#     4   9  18  32  50  73  99 126 159 198 235 272
#     4  10  20  35  55  76 100 131 163 194 230 275
#     4   9  16  25  38  59  88 119 150 186 229 275
#     4   9  17  29  46  68  94 125 158 192 233 280
#     4   9  16  25  38  58  85 117 153 192 233 278
#     4   9  16  26  42  64  89 117 150 192 241 286
#     4   9  18  33  52  73  97 125 156 190 230 278
#     4   9  17  30  49  72  96 122 154 193 237 284
#
# _framework density 17.750722
#
# number of rings (size 3 to 8) (size 9 to 14) (size 15 to 20)
#    0.000    2.875    0.000    1.500    0.000    5.250 
#    0.000    1.875    0.000    4.500    0.000    0.000 
#    0.000    0.000    0.000    0.000    0.000    0.000 
#
# Total GULP energy -793571.538809 kJ/mol
# GULP energy per Si atom -12399.555294 kJ/mol
# Density = 1.771032 g / cm^3
# Si number density = 17.750722 Si / 1000 Ang^3
#
#
#
# Elastic Constant Matrix: (Units=GPa)
#
#
# Indices 1 2 3 4 5 6 
#
# 1 103.2392 36.8717 78.6611 0.0000 0.0000 0.0000
# 2 36.8717 62.4320 55.8663 0.0000 0.0000 0.0000
# 3 78.6611 55.8663 148.2960 0.0000 0.0000 0.0000
# 4 0.0000 0.0000 0.0000 20.5480 0.0000 0.0000
# 5 0.0000 0.0000 0.0000 0.0000 37.0284 0.0000
# 6 0.0000 0.0000 0.0000 0.0000 0.0000 17.2400
#
#
#
# Elastic Compliance Matrix: (Units=1/GPa)
#
#
# Indices 1 2 3 4 5 6 
#
# 1 0.016598 -0.002903 -0.007710 0.000000 0.000000 0.000000
# 2 -0.002903 0.024671 -0.007754 0.000000 0.000000 0.000000
# 3 -0.007710 -0.007754 0.013754 0.000000 0.000000 0.000000
# 4 0.000000 0.000000 0.000000 0.048667 0.000000 0.000000
# 5 0.000000 0.000000 0.000000 0.000000 0.027006 0.000000
# 6 0.000000 0.000000 0.000000 0.000000 0.000000 0.058005
#
#
# Mechanical properties :
#
#
# Convention : Reuss Voigt Hill
#
# Bulk Modulus (GPa) = 54.68166 72.97393 63.82780
# Shear Modulus (GPa) = 21.59538 24.46781 23.03159
#
# Velocity S-wave (km/s) = 3.49175 3.71672 3.60599
# Velocity P-wave (km/s) = 6.86503 7.72129 7.30572
#
# Compressibility (1/GPa) = 0.01828767
#
# Stress axis : x y z
#
# Youngs Moduli (GPa) = 60.24868 40.53420 72.70461
#
# Poissons Ratio (x) = 0.11767 0.56059
# Poissons Ratio (y) = 0.17490 0.56376
# Poissons Ratio (z) = 0.46454 0.31431
#
# Static dielectric constant tensor:
#      x y z
#    x 3.384370 0.000000 0.000000 
#    y 0.000000 3.097080 0.000000 
#    z 0.000000 0.000000 3.272630 
# 
# 
# High freq. dielectric constant tensor:
#      x y z
#    x 1.690300 0.000000 0.000000 
#    y 0.000000 1.655270 0.000000 
#    z 0.000000 0.000000 1.682570 
# 
# From -- ./inp_files/29727.got.cif
#   From: 2010.03.12/outbox.cif.g09.slc.cpg/sg59_15_cif.got.tgz:29727.got - 2010.04.16 16:29:54.
