data_PCOD8243548
_publ_section_title
;
Structure prediction by ZEFSAII (Michael W. Deem and Ramdas Pophale) SiO2 
 PCOD8243548
Probable space group: P M M N
;
_chemical_formula_sum "Si O2"
_cell_formula_units_Z 40
_cell_length_a 8.685700
_cell_length_b 14.586103
_cell_length_c 16.384810
_cell_angle_alpha 90.000000
_cell_angle_beta 90.000000
_cell_angle_gamma 90.000000
_cell_volume 2075.800014
_symmetry_space_group_name_H-M "P M M N"
_symmetry_group_IT_number 59
_space_group.IT_coordinate_system_code '2'
_symmetry_cell_setting 'orthorhombic'
loop_
_space_group_symop_operation_xyz
x,y,z
1/2-x,1/2-y,z
1/2+x,-y,-z
-x,1/2+y,-z
-x,-y,-z
1/2+x,1/2+y,-z
1/2-x,y,z
x,1/2-y,z
loop_
_atom_site_type_symbol
_atom_site_label
_atom_site_fract_x
_atom_site_fract_y
_atom_site_fract_z
Si Si1 0.425261 0.895875 0.407945
Si Si2 0.928586 0.088421 0.407742
Si Si3 0.573537 0.750000 0.875832
Si Si4 0.930562 0.250000 0.877495
Si Si5 0.930125 0.250000 0.297349
Si Si6 0.927324 0.750000 0.297185
Si Si7 0.569679 0.600962 0.008661
O O1 0.250000 0.876733 0.381078
O O2 0.449234 0.868064 0.502353
O O3 0.538665 0.838921 0.351143
O O4 0.462690 0.001871 0.396135
O O5 0.750000 0.061411 0.393485
O O6 0.994538 0.159711 0.341571
O O7 0.750000 0.750000 0.847899
O O8 0.466930 0.750000 0.797472
O O9 0.535177 0.658627 0.926916
O O10 0.750000 0.250000 0.892845
O O11 0.966717 0.250000 0.782276
O O12 0.998755 0.343353 0.915730
O O13 0.750000 0.250000 0.311528
O O14 0.750000 0.750000 0.270337
O O15 0.750000 0.591988 0.024825
O O16 0.500000 0.500000 0.000000
#
# Coordination Sequence:
#
# PCOD8243548 Si02
#       7
#     8   8   4   4   4   4   8
#     4  10  20  36  57  80 109 147 191 236 281 332
#     4   9  19  36  55  79 112 149 189 233 280 329
#     4   9  21  38  55  81 115 143 177 224 269 322
#     4  11  23  40  61  87 115 145 187 236 285 340
#     4  10  20  34  55  80 110 147 184 225 272 321
#     4  12  24  38  57  82 114 149 186 233 288 343
#     4  10  21  40  63  86 114 149 185 226 279 338
#
# _framework density 19.269677999999999
#
# number of rings (size 3 to 8) (size 9 to 14) (size 15 to 20)
#    0.000    2.000    0.000    4.200    0.000    7.200 
#    0.000    5.000    0.000    0.000    0.000    0.000 
#    0.000    0.000    0.000    0.000    0.000    0.000 
#
# Total GULP energy -496090.383856 kJ/mol
# GULP energy per Si atom -12402.259596 kJ/mol
# Density = 1.922582 g / cm^3
# Si number density = 19.269678 Si / 1000 Ang^3
#
#
#
# Elastic Constant Matrix: (Units=GPa)
#
#
# Indices 1 2 3 4 5 6 
#
# 1 83.8804 42.8798 33.4044 0.0000 0.0000 0.0000
# 2 42.8798 124.9115 54.0071 0.0000 0.0000 0.0000
# 3 33.4044 54.0071 106.0316 0.0000 0.0000 0.0000
# 4 0.0000 0.0000 0.0000 46.6209 0.0000 0.0000
# 5 0.0000 0.0000 0.0000 0.0000 32.3942 0.0000
# 6 0.0000 0.0000 0.0000 0.0000 0.0000 -38.0358
#
#
#
# Elastic Compliance Matrix: (Units=1/GPa)
#
#
# Indices 1 2 3 4 5 6 
#
# 1 0.015040 -0.003994 -0.002704 0.000000 0.000000 0.000000
# 2 -0.003994 0.011327 -0.004511 0.000000 0.000000 0.000000
# 3 -0.002704 -0.004511 0.012581 0.000000 0.000000 0.000000
# 4 0.000000 0.000000 0.000000 0.021450 0.000000 0.000000
# 5 0.000000 0.000000 0.000000 0.000000 0.030870 0.000000
# 6 0.000000 0.000000 0.000000 0.000000 0.000000 -0.026291
#
#
# Mechanical properties :
#
#
# Convention : Reuss Voigt Hill
#
# Bulk Modulus (GPa) = 60.49633 63.93401 62.21517
# Shear Modulus (GPa) = 53.81843 20.49801 37.15822
#
# Velocity S-wave (km/s) = 5.29053 3.26505 4.39603
# Velocity P-wave (km/s) = 8.29351 6.88946 7.62388
#
# Compressibility (1/GPa) = 0.01652993
#
# Stress axis : x y z
#
# Youngs Moduli (GPa) = 66.48811 88.28300 79.48600
#
# Poissons Ratio (x) = 0.35260 0.21493
# Poissons Ratio (y) = 0.26555 0.35858
# Poissons Ratio (z) = 0.17978 0.39827
#
# Static dielectric constant tensor:
#      x y z
#    x 3.455650 0.000000 0.000000 
#    y 0.000000 3.444450 0.000000 
#    z 0.000000 0.000000 3.454660 
# 
# 
# High freq. dielectric constant tensor:
#      x y z
#    x 1.753070 0.000000 0.000000 
#    y 0.000000 1.757180 0.000000 
#    z 0.000000 0.000000 1.747640 
# 
# From -- ./inp_files/20045.got.cif
#   From: 2010.03.12/outbox.cif.g09.slc.cpg/sg59_11_cif.got.tgz:20045.got - 2010.04.16 16:29:54.
