data_PCOD8243013
_publ_section_title
;
Structure prediction by ZEFSAII (Michael W. Deem and Ramdas Pophale) SiO2 
 PCOD8243013
Probable space group: P M M N
;
_chemical_formula_sum "Si O2"
_cell_formula_units_Z 64
_cell_length_a 13.928274
_cell_length_b 9.197345
_cell_length_c 25.515387
_cell_angle_alpha 90.000000
_cell_angle_beta 90.000000
_cell_angle_gamma 90.000000
_cell_volume 3268.601224
_symmetry_space_group_name_H-M "P M M N"
_symmetry_group_IT_number 59
_space_group.IT_coordinate_system_code '2'
_symmetry_cell_setting 'orthorhombic'
loop_
_space_group_symop_operation_xyz
x,y,z
1/2-x,1/2-y,z
1/2+x,-y,-z
-x,1/2+y,-z
-x,-y,-z
1/2+x,1/2+y,-z
1/2-x,y,z
x,1/2-y,z
loop_
_atom_site_type_symbol
_atom_site_label
_atom_site_fract_x
_atom_site_fract_y
_atom_site_fract_z
Si Si1 0.861597 0.082571 0.718898
Si Si2 0.635540 0.088617 0.017254
Si Si3 0.859376 0.420545 0.134701
Si Si4 0.355637 0.077482 0.472139
Si Si5 0.860939 0.580905 0.410877
Si Si6 0.364239 0.085939 0.081251
Si Si7 0.469170 0.077685 0.371877
Si Si8 0.033935 0.579716 0.173175
O O1 0.750000 0.047069 0.727379
O O2 0.877142 0.250000 0.702874
O O3 0.917143 0.044496 0.771818
O O4 0.902362 0.979547 0.674118
O O5 0.750000 0.088248 0.018011
O O6 0.598877 0.250000 0.002620
O O7 0.595331 0.975613 0.974182
O O8 0.601557 0.045909 0.075843
O O9 0.750000 0.474619 0.142303
O O10 0.866181 0.250000 0.146778
O O11 0.927744 0.509183 0.173943
O O12 0.250000 0.015251 0.459059
O O13 0.351105 0.250000 0.472499
O O14 0.386228 0.025267 0.530207
O O15 0.426644 0.021373 0.427291
O O16 0.750000 0.550889 0.397998
O O17 0.885356 0.750000 0.404324
O O18 0.924104 0.489983 0.369303
O O19 0.250000 0.080693 0.081064
O O20 0.402838 0.250000 0.087632
O O21 0.399975 0.989073 0.128733
O O22 0.474573 0.250000 0.367708
O O23 0.025380 0.750000 0.162689
#
# Coordination Sequence:
#
# PCOD8243013 Si02
#       8
#     8   8   8   8   8   8   8   8
#     4  10  23  43  62  80 106 141 182 225 268 321
#     4   8  15  30  52  77 107 143 178 213 259 317
#     4   9  19  37  59  82 110 142 176 219 270 321
#     4   8  15  29  50  79 114 149 184 222 268 323
#     4   9  18  34  55  78 111 155 193 224 263 316
#     4  10  20  33  52  80 112 144 179 221 269 322
#     4  11  21  33  55  85 114 144 181 229 281 327
#     4  11  23  38  58  81 105 139 182 226 272 322
#
# _framework density 19.580241000000001
#
# number of rings (size 3 to 8) (size 9 to 14) (size 15 to 20)
#    0.000    2.500    0.000    3.750    0.000    4.500 
#    0.000    2.500    0.000    2.250    0.000    0.000 
#    0.000    0.000    0.000    0.000    0.000    0.000 
#
# Total GULP energy -793569.845524 kJ/mol
# GULP energy per Si atom -12399.528836 kJ/mol
# Density = 1.953568 g / cm^3
# Si number density = 19.580241 Si / 1000 Ang^3
#
#
#
# Elastic Constant Matrix: (Units=GPa)
#
#
# Indices 1 2 3 4 5 6 
#
# 1 93.3088 57.0804 55.3700 0.0000 0.0000 0.0000
# 2 57.0804 87.6312 50.1608 0.0000 0.0000 0.0000
# 3 55.3700 50.1608 74.8202 0.0000 0.0000 0.0000
# 4 0.0000 0.0000 0.0000 30.3159 0.0000 0.0000
# 5 0.0000 0.0000 0.0000 0.0000 33.1600 0.0000
# 6 0.0000 0.0000 0.0000 0.0000 0.0000 31.6220
#
#
#
# Elastic Compliance Matrix: (Units=1/GPa)
#
#
# Indices 1 2 3 4 5 6 
#
# 1 0.022244 -0.008221 -0.010950 0.000000 0.000000 0.000000
# 2 -0.008221 0.021556 -0.008368 0.000000 0.000000 0.000000
# 3 -0.010950 -0.008368 0.027078 0.000000 0.000000 0.000000
# 4 0.000000 0.000000 0.000000 0.032986 0.000000 0.000000
# 5 0.000000 0.000000 0.000000 0.000000 0.030157 0.000000
# 6 0.000000 0.000000 0.000000 0.000000 0.000000 0.031624
#
#
# Mechanical properties :
#
#
# Convention : Reuss Voigt Hill
#
# Bulk Modulus (GPa) = 63.28572 64.55362 63.91967
# Shear Modulus (GPa) = 22.12491 25.22951 23.67721
#
# Velocity S-wave (km/s) = 3.36514 3.59349 3.48119
# Velocity P-wave (km/s) = 6.89132 7.08928 6.99100
#
# Compressibility (1/GPa) = 0.01580135
#
# Stress axis : x y z
#
# Youngs Moduli (GPa) = 44.95569 46.39014 36.92988
#
# Poissons Ratio (x) = 0.38139 0.40437
# Poissons Ratio (y) = 0.36960 0.30901
# Poissons Ratio (z) = 0.49225 0.38817
#
# Static dielectric constant tensor:
#      x y z
#    x 3.629000 0.000000 0.000000 
#    y 0.000000 3.441960 0.000000 
#    z 0.000000 0.000000 3.523710 
# 
# 
# High freq. dielectric constant tensor:
#      x y z
#    x 1.776010 0.000000 0.000000 
#    y 0.000000 1.750810 0.000000 
#    z 0.000000 0.000000 1.746920 
# 
# From -- ./inp_files/32132.got.cif
#   From: 2010.03.12/outbox.cif.g09.slc.cpg/sg59_17_cif.got.tgz:32132.got - 2010.04.16 16:29:54.
