data_PCOD8243390
_publ_section_title
;
Structure prediction by ZEFSAII (Michael W. Deem and Ramdas Pophale) SiO2 
 PCOD8243390
Probable space group: P M M N
;
_chemical_formula_sum "Si O2"
_cell_formula_units_Z 64
_cell_length_a 9.318602
_cell_length_b 15.028273
_cell_length_c 23.999546
_cell_angle_alpha 90.000000
_cell_angle_beta 90.000000
_cell_angle_gamma 90.000000
_cell_volume 3360.956297
_symmetry_space_group_name_H-M "P M M N"
_symmetry_group_IT_number 59
_space_group.IT_coordinate_system_code '2'
_symmetry_cell_setting 'orthorhombic'
loop_
_space_group_symop_operation_xyz
x,y,z
1/2-x,1/2-y,z
1/2+x,-y,-z
-x,1/2+y,-z
-x,-y,-z
1/2+x,1/2+y,-z
1/2-x,y,z
x,1/2-y,z
loop_
_atom_site_type_symbol
_atom_site_label
_atom_site_fract_x
_atom_site_fract_y
_atom_site_fract_z
Si Si1 0.581860 0.645162 0.507835
Si Si2 0.418656 0.994884 0.579862
Si Si3 0.587309 0.848997 0.210805
Si Si4 0.911685 0.093295 0.891094
Si Si5 0.420483 0.494911 0.704769
Si Si6 0.910894 0.610557 0.883251
Si Si7 0.587882 0.152574 0.220891
Si Si8 0.413005 0.147259 0.993766
O O1 0.750000 0.641625 0.521843
O O2 0.533901 0.750000 0.501740
O O3 0.547933 0.587693 0.452104
O O4 0.496655 0.593396 0.556312
O O5 0.250000 0.973835 0.578557
O O6 0.480102 0.009579 0.642090
O O7 0.750000 0.878035 0.195727
O O8 0.583518 0.750000 0.235548
O O9 0.496455 0.849522 0.154236
O O10 0.522275 0.911927 0.258878
O O11 0.750000 0.130452 0.896787
O O12 0.911930 0.993159 0.869651
O O13 0.986976 0.094733 0.951092
O O14 0.250000 0.493302 0.701615
O O15 0.478996 0.584113 0.734689
O O16 0.750000 0.649533 0.880421
O O17 0.974812 0.631796 0.944257
O O18 0.004527 0.658389 0.836999
O O19 0.750000 0.123286 0.206754
O O20 0.582681 0.250000 0.248804
O O21 0.250000 0.110238 0.990111
O O22 0.417970 0.250000 0.977252
#
# Coordination Sequence:
#
# PCOD8243390 Si02
#       8
#     8   8   8   8   8   8   8   8
#     4   9  18  33  53  80 115 149 181 223 272 316
#     4   9  18  33  55  81 109 146 187 225 266 314
#     4  10  20  35  56  78 102 138 178 215 263 319
#     4  11  22  35  53  77 103 133 171 215 265 318
#     4   9  18  34  54  79 109 138 176 224 262 303
#     4  10  21  37  55  75 100 134 173 213 262 320
#     4  10  20  34  54  78 104 136 172 215 268 317
#     4  10  21  36  53  73  98 130 169 214 265 321
#
# _framework density 19.042199
#
# number of rings (size 3 to 8) (size 9 to 14) (size 15 to 20)
#    0.000    2.250    1.250    1.500    0.000    5.000 
#    0.000    5.000    0.000    0.000    0.000    1.750 
#    0.000    0.000    0.000    0.000    0.000    0.000 
#
# Total GULP energy -793461.871414 kJ/mol
# GULP energy per Si atom -12397.841741 kJ/mol
# Density = 1.899886 g / cm^3
# Si number density = 19.042199 Si / 1000 Ang^3
#
#
#
# Elastic Constant Matrix: (Units=GPa)
#
#
# Indices 1 2 3 4 5 6 
#
# 1 58.5441 28.2953 42.3712 0.0000 0.0000 0.0000
# 2 28.2953 118.4149 49.1119 0.0000 0.0000 0.0000
# 3 42.3712 49.1119 147.0433 0.0000 0.0000 0.0000
# 4 0.0000 0.0000 0.0000 15.9951 0.0000 0.0000
# 5 0.0000 0.0000 0.0000 0.0000 25.1411 0.0000
# 6 0.0000 0.0000 0.0000 0.0000 0.0000 16.2563
#
#
#
# Elastic Compliance Matrix: (Units=1/GPa)
#
#
# Indices 1 2 3 4 5 6 
#
# 1 0.022536 -0.003124 -0.005450 0.000000 0.000000 0.000000
# 2 -0.003124 0.010236 -0.002518 0.000000 0.000000 0.000000
# 3 -0.005450 -0.002518 0.009212 0.000000 0.000000 0.000000
# 4 0.000000 0.000000 0.000000 0.062519 0.000000 0.000000
# 5 0.000000 0.000000 0.000000 0.000000 0.039776 0.000000
# 6 0.000000 0.000000 0.000000 0.000000 0.000000 0.061515
#
#
# Mechanical properties :
#
#
# Convention : Reuss Voigt Hill
#
# Bulk Modulus (GPa) = 50.51045 62.61766 56.56405
# Shear Modulus (GPa) = 21.31478 25.09344 23.20411
#
# Velocity S-wave (km/s) = 3.34929 3.63406 3.49458
# Velocity P-wave (km/s) = 6.44516 7.11081 6.78615
#
# Compressibility (1/GPa) = 0.01979788
#
# Stress axis : x y z
#
# Youngs Moduli (GPa) = 44.37371 97.69454 108.54967
#
# Poissons Ratio (x) = 0.30525 0.59162
# Poissons Ratio (y) = 0.13865 0.27338
# Poissons Ratio (z) = 0.24185 0.24604
#
# Static dielectric constant tensor:
#      x y z
#    x 3.348740 0.000000 0.000000 
#    y 0.000000 3.573510 0.000000 
#    z 0.000000 0.000000 3.482720 
# 
# 
# High freq. dielectric constant tensor:
#      x y z
#    x 1.716770 0.000000 0.000000 
#    y 0.000000 1.751640 0.000000 
#    z 0.000000 0.000000 1.732980 
# 
# From -- ./inp_files/31460.got.cif
#   From: 2010.03.12/outbox.cif.g09.slc.cpg/sg59_16_cif.got.tgz:31460.got - 2010.04.16 16:29:54.
