data_PCOD8243582
_publ_section_title
;
Structure prediction by ZEFSAII (Michael W. Deem and Ramdas Pophale) SiO2 
 PCOD8243582
Probable space group: P M M N
;
_chemical_formula_sum "Si O2"
_cell_formula_units_Z 64
_cell_length_a 9.314277
_cell_length_b 27.452464
_cell_length_c 12.873809
_cell_angle_alpha 90.000000
_cell_angle_beta 90.000000
_cell_angle_gamma 90.000000
_cell_volume 3291.831082
_symmetry_space_group_name_H-M "P M M N"
_symmetry_group_IT_number 59
_space_group.IT_coordinate_system_code '2'
_symmetry_cell_setting 'orthorhombic'
loop_
_space_group_symop_operation_xyz
x,y,z
1/2-x,1/2-y,z
1/2+x,-y,-z
-x,1/2+y,-z
-x,-y,-z
1/2+x,1/2+y,-z
1/2-x,y,z
x,1/2-y,z
loop_
_atom_site_type_symbol
_atom_site_label
_atom_site_fract_x
_atom_site_fract_y
_atom_site_fract_z
Si Si1 0.420340 0.695791 0.630623
Si Si2 0.085613 0.541036 0.728212
Si Si3 0.583468 0.694568 0.000739
Si Si4 0.082319 0.558674 0.277718
Si Si5 0.918238 0.138405 0.172034
Si Si6 0.411449 0.951895 0.502417
Si Si7 0.089315 0.807906 0.403100
Si Si8 0.417119 0.147679 0.780953
O O1 0.250000 0.697869 0.638200
O O2 0.485741 0.750000 0.641312
O O3 0.483113 0.664475 0.725695
O O4 0.459112 0.672509 0.517568
O O5 0.250000 0.522315 0.736366
O O6 0.052237 0.580424 0.817653
O O7 0.065815 0.570863 0.617459
O O8 0.979633 0.495484 0.739367
O O9 0.750000 0.688849 0.973514
O O10 0.531634 0.750000 0.982632
O O11 0.495821 0.657726 0.929642
O O12 0.553356 0.681040 0.119678
O O13 0.250000 0.557675 0.249057
O O14 0.052470 0.578668 0.397152
O O15 0.000213 0.596464 0.203666
O O16 0.750000 0.149085 0.160671
O O17 0.250000 0.969553 0.488365
O O18 0.500000 0.000000 0.500000
O O19 0.250000 0.827847 0.375386
O O20 0.095196 0.750000 0.410263
O O21 0.975006 0.823508 0.318088
O O22 0.250000 0.136667 0.765295
#
# Coordination Sequence:
#
# PCOD8243582 Si02
#       8
#     8   8   8   8   8   8   8   8
#     4   8  15  29  51  81 115 146 175 216 276 337
#     4   9  18  33  53  81 117 152 184 224 275 332
#     4  10  23  43  62  80 108 146 186 234 290 339
#     4  10  20  34  55  82 112 149 191 234 276 328
#     4  10  20  34  59  88 112 144 188 231 275 332
#     4   8  15  28  48  74 107 146 181 217 263 317
#     4   9  18  33  55  83 114 146 180 223 277 339
#     4  11  23  38  57  80 109 148 191 235 287 340
#
# _framework density 19.442067999999999
#
# number of rings (size 3 to 8) (size 9 to 14) (size 15 to 20)
#    0.000    2.625    0.000    2.250    1.750    3.500 
#    0.000    1.250    0.000    0.750    0.000    0.000 
#    0.000    0.000    0.000    0.000    0.000    0.000 
#
# Total GULP energy -793093.700877 kJ/mol
# GULP energy per Si atom -12392.089076 kJ/mol
# Density = 1.939782 g / cm^3
# Si number density = 19.442068 Si / 1000 Ang^3
#
#
#
# Elastic Constant Matrix: (Units=GPa)
#
#
# Indices 1 2 3 4 5 6 
#
# 1 77.6613 34.5556 39.6334 0.0000 0.0000 0.0000
# 2 34.5556 54.1844 25.5775 0.0000 0.0000 0.0000
# 3 39.6334 25.5775 73.3411 0.0000 0.0000 0.0000
# 4 0.0000 0.0000 0.0000 31.9873 0.0000 0.0000
# 5 0.0000 0.0000 0.0000 0.0000 24.4635 0.0000
# 6 0.0000 0.0000 0.0000 0.0000 0.0000 28.2916
#
#
#
# Elastic Compliance Matrix: (Units=1/GPa)
#
#
# Indices 1 2 3 4 5 6 
#
# 1 0.021392 -0.009799 -0.008143 0.000000 0.000000 0.000000
# 2 -0.009799 0.026581 -0.003975 0.000000 0.000000 0.000000
# 3 -0.008143 -0.003975 0.019422 0.000000 0.000000 0.000000
# 4 0.000000 0.000000 0.000000 0.031262 0.000000 0.000000
# 5 0.000000 0.000000 0.000000 0.000000 0.040877 0.000000
# 6 0.000000 0.000000 0.000000 0.000000 0.000000 0.035346
#
#
# Mechanical properties :
#
#
# Convention : Reuss Voigt Hill
#
# Bulk Modulus (GPa) = 42.44211 44.96886 43.70548
# Shear Modulus (GPa) = 22.06854 23.97650 23.02252
#
# Velocity S-wave (km/s) = 3.37277 3.51554 3.44490
# Velocity P-wave (km/s) = 6.08645 6.29751 6.19288
#
# Compressibility (1/GPa) = 0.02356151
#
# Stress axis : x y z
#
# Youngs Moduli (GPa) = 46.74635 37.62116 51.48920
#
# Poissons Ratio (x) = 0.36864 0.41927
# Poissons Ratio (y) = 0.45805 0.20466
# Poissons Ratio (z) = 0.38065 0.14954
#
# Static dielectric constant tensor:
#      x y z
#    x 3.354340 0.000000 0.000000 
#    y 0.000000 3.486310 0.000000 
#    z 0.000000 0.000000 3.741250 
# 
# 
# High freq. dielectric constant tensor:
#      x y z
#    x 1.736530 0.000000 0.000000 
#    y 0.000000 1.759240 0.000000 
#    z 0.000000 0.000000 1.750040 
# 
# From -- ./inp_files/15034.got.cif
#   From: 2010.03.12/outbox.cif.g09.slc.cpg/sg59_8_cif.got.tgz:15034.got - 2010.04.16 16:29:54.
