data_PCOD8243479
_publ_section_title
;
Structure prediction by ZEFSAII (Michael W. Deem and Ramdas Pophale) SiO2 
 PCOD8243479
Probable space group: P M M N
;
_chemical_formula_sum "Si O2"
_cell_formula_units_Z 64
_cell_length_a 23.999671
_cell_length_b 8.927099
_cell_length_c 15.100175
_cell_angle_alpha 90.000000
_cell_angle_beta 90.000000
_cell_angle_gamma 90.000000
_cell_volume 3235.173822
_symmetry_space_group_name_H-M "P M M N"
_symmetry_group_IT_number 59
_space_group.IT_coordinate_system_code '2'
_symmetry_cell_setting 'orthorhombic'
loop_
_space_group_symop_operation_xyz
x,y,z
1/2-x,1/2-y,z
1/2+x,-y,-z
-x,1/2+y,-z
-x,-y,-z
1/2+x,1/2+y,-z
1/2-x,y,z
x,1/2-y,z
loop_
_atom_site_type_symbol
_atom_site_label
_atom_site_fract_x
_atom_site_fract_y
_atom_site_fract_z
Si Si1 0.873581 0.581463 0.639853
Si Si2 0.506988 0.572268 0.212231
Si Si3 0.382385 0.928293 0.845596
Si Si4 0.393720 0.421200 0.163988
Si Si5 0.315121 0.426462 0.003562
Si Si6 0.688256 0.072606 0.316971
Si Si7 0.018350 0.575660 0.408985
Si Si8 0.686061 0.413133 0.507027
O O1 0.893260 0.750000 0.618750
O O2 0.861246 0.561609 0.743117
O O3 0.917215 0.462187 0.602327
O O4 0.819192 0.537313 0.583850
O O5 0.510322 0.750000 0.205221
O O6 0.556081 0.499315 0.154381
O O7 0.449330 0.521034 0.166162
O O8 0.510555 0.520221 0.316282
O O9 0.387955 0.750000 0.849283
O O10 0.352622 0.990820 0.757634
O O11 0.344665 0.982624 0.926209
O O12 0.412364 0.250000 0.147812
O O13 0.348874 0.473855 0.091686
O O14 0.250000 0.473233 0.012541
O O15 0.320132 0.250000 0.985598
O O16 0.750000 0.002009 0.303232
O O17 0.692301 0.250000 0.307508
O O18 0.660862 0.030707 0.412595
O O19 0.008615 0.750000 0.420895
O O20 0.000000 0.500000 0.500000
O O21 0.750000 0.390955 0.484552
O O22 0.661163 0.250000 0.534641
#
# Coordination Sequence:
#
# PCOD8243479 Si02
#       8
#     8   8   8   8   8   8   8   8
#     4  10  20  34  54  81 111 144 187 237 284 336
#     4  10  22  39  58  85 119 154 194 241 292 343
#     4  11  22  36  59  88 117 151 193 241 289 350
#     4   9  20  40  62  83 113 152 194 238 289 352
#     4  10  22  41  64  89 116 149 190 240 298 352
#     4   8  16  32  52  75 106 145 187 230 279 339
#     4  10  21  36  55  80 113 151 192 236 281 333
#     4   9  18  33  52  76 108 148 191 231 280 342
#
# _framework density 19.782553
#
# number of rings (size 3 to 8) (size 9 to 14) (size 15 to 20)
#    0.000    2.375    0.000    2.625    1.750    4.500 
#    0.000    1.875    0.000    1.500    0.000    0.000 
#    0.000    0.000    0.000    0.000    0.000    0.000 
#
# Total GULP energy -793140.054851 kJ/mol
# GULP energy per Si atom -12392.813357 kJ/mol
# Density = 1.973753 g / cm^3
# Si number density = 19.782553 Si / 1000 Ang^3
#
#
#
# Elastic Constant Matrix: (Units=GPa)
#
#
# Indices 1 2 3 4 5 6 
#
# 1 105.7626 44.3069 72.9772 0.0000 0.0000 0.0000
# 2 44.3069 67.8178 55.2857 0.0000 0.0000 0.0000
# 3 72.9772 55.2857 130.7476 0.0000 0.0000 0.0000
# 4 0.0000 0.0000 0.0000 32.4023 0.0000 0.0000
# 5 0.0000 0.0000 0.0000 0.0000 36.7226 0.0000
# 6 0.0000 0.0000 0.0000 0.0000 0.0000 26.9418
#
#
#
# Elastic Compliance Matrix: (Units=1/GPa)
#
#
# Indices 1 2 3 4 5 6 
#
# 1 0.016404 -0.004964 -0.007057 0.000000 0.000000 0.000000
# 2 -0.004964 0.024004 -0.007379 0.000000 0.000000 0.000000
# 3 -0.007057 -0.007379 0.014707 0.000000 0.000000 0.000000
# 4 0.000000 0.000000 0.000000 0.030862 0.000000 0.000000
# 5 0.000000 0.000000 0.000000 0.000000 0.027231 0.000000
# 6 0.000000 0.000000 0.000000 0.000000 0.000000 0.037117
#
#
# Mechanical properties :
#
#
# Convention : Reuss Voigt Hill
#
# Bulk Modulus (GPa) = 61.29336 72.16307 66.72822
# Shear Modulus (GPa) = 25.69832 27.99722 26.84777
#
# Velocity S-wave (km/s) = 3.60813 3.76606 3.68794
# Velocity P-wave (km/s) = 6.95765 7.44770 7.20684
#
# Compressibility (1/GPa) = 0.01631498
#
# Stress axis : x y z
#
# Youngs Moduli (GPa) = 60.96010 41.65923 67.99308
#
# Poissons Ratio (x) = 0.20681 0.47982
# Poissons Ratio (y) = 0.30263 0.50173
# Poissons Ratio (z) = 0.43019 0.30741
#
# Static dielectric constant tensor:
#      x y z
#    x 3.565650 0.000000 0.000000 
#    y 0.000000 3.556300 0.000000 
#    z 0.000000 0.000000 3.839510 
# 
# 
# High freq. dielectric constant tensor:
#      x y z
#    x 1.764860 0.000000 0.000000 
#    y 0.000000 1.758280 0.000000 
#    z 0.000000 0.000000 1.779950 
# 
# From -- ./inp_files/24724.got.cif
#   From: 2010.03.12/outbox.cif.g09.slc.cpg/sg59_13_cif.got.tgz:24724.got - 2010.04.16 16:29:54.
