data_PCOD8243336
_publ_section_title
;
Structure prediction by ZEFSAII (Michael W. Deem and Ramdas Pophale) SiO2 
 PCOD8243336
Probable space group: P M M N
;
_chemical_formula_sum "Si O2"
_cell_formula_units_Z 32
_cell_length_a 8.914338
_cell_length_b 18.464882
_cell_length_c 10.367774
_cell_angle_alpha 90.000000
_cell_angle_beta 90.000000
_cell_angle_gamma 90.000000
_cell_volume 1706.558402
_symmetry_space_group_name_H-M "P M M N"
_symmetry_group_IT_number 59
_space_group.IT_coordinate_system_code '2'
_symmetry_cell_setting 'orthorhombic'
loop_
_space_group_symop_operation_xyz
x,y,z
1/2-x,1/2-y,z
1/2+x,-y,-z
-x,1/2+y,-z
-x,-y,-z
1/2+x,1/2+y,-z
1/2-x,y,z
x,1/2-y,z
loop_
_atom_site_type_symbol
_atom_site_label
_atom_site_fract_x
_atom_site_fract_y
_atom_site_fract_z
Si Si1 0.428482 0.169281 0.248767
Si Si2 0.421495 0.835598 0.215448
Si Si3 0.083244 0.336035 0.530729
Si Si4 0.927608 0.922086 0.991550
O O1 0.250000 0.173557 0.244703
O O2 0.494561 0.250000 0.224408
O O3 0.477752 0.138830 0.389875
O O4 0.489435 0.115911 0.138475
O O5 0.250000 0.859013 0.194055
O O6 0.443384 0.750000 0.201473
O O7 0.471225 0.862604 0.357529
O O8 0.526751 0.873509 0.112209
O O9 0.250000 0.367563 0.557415
O O10 0.092507 0.250000 0.527721
O O11 0.750000 0.929919 0.988908
O O12 0.000000 0.000000 0.000000
#
# Coordination Sequence:
#
# PCOD8243336 Si02
#       4
#     8   8   8   8
#     4   8  15  30  54  80 101 126 166 213 257 304
#     4  10  20  34  53  79 108 135 167 208 253 304
#     4   8  14  28  52  79 102 125 160 207 256 304
#     4  11  22  36  53  74 104 140 177 215 258 306
#
# _framework density 18.751190000000001
#
# number of rings (size 3 to 8) (size 9 to 14) (size 15 to 20)
#    0.000    2.750    0.000    3.750    0.000    2.500 
#    0.000    3.750    0.000    6.000    0.000    0.000 
#    0.000    0.000    0.000    0.000    0.000    0.000 
#
# Total GULP energy -396681.255651 kJ/mol
# GULP energy per Si atom -12396.289239 kJ/mol
# Density = 1.870851 g / cm^3
# Si number density = 18.751190 Si / 1000 Ang^3
#
#
#
# Elastic Constant Matrix: (Units=GPa)
#
#
# Indices 1 2 3 4 5 6 
#
# 1 62.3739 31.2557 39.6188 0.0000 0.0000 0.0000
# 2 31.2557 54.9458 48.3512 0.0000 0.0000 0.0000
# 3 39.6188 48.3512 159.8197 0.0000 0.0000 0.0000
# 4 0.0000 0.0000 0.0000 1.5884 0.0000 0.0000
# 5 0.0000 0.0000 0.0000 0.0000 18.8913 0.0000
# 6 0.0000 0.0000 0.0000 0.0000 0.0000 25.4220
#
#
#
# Elastic Compliance Matrix: (Units=1/GPa)
#
#
# Indices 1 2 3 4 5 6 
#
# 1 0.023072 -0.011027 -0.002383 0.000000 0.000000 0.000000
# 2 -0.011027 0.030073 -0.006365 0.000000 0.000000 0.000000
# 3 -0.002383 -0.006365 0.008773 0.000000 0.000000 0.000000
# 4 0.000000 0.000000 0.000000 0.629565 0.000000 0.000000
# 5 0.000000 0.000000 0.000000 0.000000 0.052934 0.000000
# 6 0.000000 0.000000 0.000000 0.000000 0.000000 0.039336
#
#
# Mechanical properties :
#
#
# Convention : Reuss Voigt Hill
#
# Bulk Modulus (GPa) = 44.70593 57.28786 50.99689
# Shear Modulus (GPa) = 6.01858 19.70791 12.86325
#
# Velocity S-wave (km/s) = 1.79351 3.24546 2.62199
# Velocity P-wave (km/s) = 5.30870 6.68296 6.03508
#
# Compressibility (1/GPa) = 0.02236840
#
# Stress axis : x y z
#
# Youngs Moduli (GPa) = 43.34278 33.25218 113.98058
#
# Poissons Ratio (x) = 0.36667 0.27166
# Poissons Ratio (y) = 0.47794 0.72545
# Poissons Ratio (z) = 0.10330 0.21164
#
# Static dielectric constant tensor:
#      x y z
#    x 3.261170 0.000000 0.000000 
#    y 0.000000 3.083830 0.000000 
#    z 0.000000 0.000000 3.977070 
# 
# 
# High freq. dielectric constant tensor:
#      x y z
#    x 1.706820 0.000000 0.000000 
#    y 0.000000 1.693820 0.000000 
#    z 0.000000 0.000000 1.749590 
# 
# From -- ./inp_files/5338.got.cif
#   From: 2010.03.12/outbox.cif.g09.slc.cpg/sg59_3_cif.got.tgz:5338.got - 2010.04.16 16:29:54.
