data_PCOD8243379
_publ_section_title
;
Structure prediction by ZEFSAII (Michael W. Deem and Ramdas Pophale) SiO2 
 PCOD8243379
Probable space group: P M M N
;
_chemical_formula_sum "Si O2"
_cell_formula_units_Z 64
_cell_length_a 22.139823
_cell_length_b 9.646480
_cell_length_c 16.491985
_cell_angle_alpha 90.000000
_cell_angle_beta 90.000000
_cell_angle_gamma 90.000000
_cell_volume 3522.215662
_symmetry_space_group_name_H-M "P M M N"
_symmetry_group_IT_number 59
_space_group.IT_coordinate_system_code '2'
_symmetry_cell_setting 'orthorhombic'
loop_
_space_group_symop_operation_xyz
x,y,z
1/2-x,1/2-y,z
1/2+x,-y,-z
-x,1/2+y,-z
-x,-y,-z
1/2+x,1/2+y,-z
1/2-x,y,z
x,1/2-y,z
loop_
_atom_site_type_symbol
_atom_site_label
_atom_site_fract_x
_atom_site_fract_y
_atom_site_fract_z
Si Si1 0.818242 0.401626 0.305022
Si Si2 0.917346 0.908985 0.034058
Si Si3 0.353160 0.095114 0.559688
Si Si4 0.179699 0.091841 0.836667
Si Si5 0.583781 0.086774 0.711841
Si Si6 0.455776 0.910804 0.108798
Si Si7 0.179276 0.411106 0.377714
Si Si8 0.990497 0.904698 0.424112
O O1 0.750000 0.376590 0.278882
O O2 0.850500 0.250000 0.312011
O O3 0.816566 0.481204 0.390569
O O4 0.847688 0.495827 0.234733
O O5 0.920133 0.750000 0.005659
O O6 0.855982 0.942668 0.081532
O O7 0.973725 0.943394 0.093032
O O8 0.915770 0.003269 0.954464
O O9 0.325319 0.250000 0.570568
O O10 0.349719 0.054217 0.465255
O O11 0.420071 0.091692 0.596981
O O12 0.250000 0.065299 0.854177
O O13 0.167974 0.250000 0.809239
O O14 0.597713 0.250000 0.706910
O O15 0.562469 0.042234 0.801144
O O16 0.529048 0.043069 0.652425
O O17 0.644414 0.003539 0.688505
O O18 0.441293 0.750000 0.095388
O O19 0.250000 0.450485 0.377098
O O20 0.169902 0.250000 0.356155
O O21 0.010965 0.750000 0.448208
O O22 0.000000 0.000000 0.500000
#
# Coordination Sequence:
#
# PCOD8243379 Si02
#       8
#     8   8   8   8   8   8   8   8
#     4  10  21  34  48  73 108 141 176 217 257 303
#     4   9  18  34  57  81 106 135 171 213 259 313
#     4  10  20  34  54  76 102 140 181 218 262 314
#     4   9  18  33  54  78 105 139 174 209 257 319
#     4  10  21  36  55  80 109 141 176 216 265 317
#     4   9  19  35  55  78 106 137 171 214 262 315
#     4  10  21  37  56  77 103 139 183 228 269 310
#     4  10  20  34  54  78 106 138 173 214 261 312
#
# _framework density 18.170380000000002
#
# number of rings (size 3 to 8) (size 9 to 14) (size 15 to 20)
#    0.000    2.375    1.250    0.750    1.750    3.500 
#    0.000    0.625    0.000    2.250    0.000    0.000 
#    0.000    0.000    0.000    0.000    0.000    0.000 
#
# Total GULP energy -793512.204773 kJ/mol
# GULP energy per Si atom -12398.628200 kJ/mol
# Density = 1.812902 g / cm^3
# Si number density = 18.170380 Si / 1000 Ang^3
#
#
#
# Elastic Constant Matrix: (Units=GPa)
#
#
# Indices 1 2 3 4 5 6 
#
# 1 73.5812 36.0970 48.4354 0.0000 0.0000 0.0000
# 2 36.0970 92.4608 74.3191 0.0000 0.0000 0.0000
# 3 48.4354 74.3191 141.9120 0.0000 0.0000 0.0000
# 4 0.0000 0.0000 0.0000 34.1993 0.0000 0.0000
# 5 0.0000 0.0000 0.0000 0.0000 27.1229 0.0000
# 6 0.0000 0.0000 0.0000 0.0000 0.0000 25.1433
#
#
#
# Elastic Compliance Matrix: (Units=1/GPa)
#
#
# Indices 1 2 3 4 5 6 
#
# 1 0.018215 -0.003651 -0.004305 0.000000 0.000000 0.000000
# 2 -0.003651 0.019409 -0.008919 0.000000 0.000000 0.000000
# 3 -0.004305 -0.008919 0.013187 0.000000 0.000000 0.000000
# 4 0.000000 0.000000 0.000000 0.029240 0.000000 0.000000
# 5 0.000000 0.000000 0.000000 0.000000 0.036869 0.000000
# 6 0.000000 0.000000 0.000000 0.000000 0.000000 0.039772
#
#
# Mechanical properties :
#
#
# Convention : Reuss Voigt Hill
#
# Bulk Modulus (GPa) = 58.60911 69.51743 64.06327
# Shear Modulus (GPa) = 25.49336 27.23326 26.36331
#
# Velocity S-wave (km/s) = 3.74975 3.87560 3.81319
# Velocity P-wave (km/s) = 7.14653 7.63994 7.39735
#
# Compressibility (1/GPa) = 0.01706219
#
# Stress axis : x y z
#
# Youngs Moduli (GPa) = 54.89897 51.52130 75.83470
#
# Poissons Ratio (x) = 0.18811 0.32646
# Poissons Ratio (y) = 0.20044 0.67634
# Poissons Ratio (z) = 0.23634 0.45950
#
# Static dielectric constant tensor:
#      x y z
#    x 3.357460 0.000000 0.000000 
#    y 0.000000 3.508480 0.000000 
#    z 0.000000 0.000000 3.242940 
# 
# 
# High freq. dielectric constant tensor:
#      x y z
#    x 1.694230 0.000000 0.000000 
#    y 0.000000 1.706290 0.000000 
#    z 0.000000 0.000000 1.694390 
# 
# From -- ./inp_files/24709.got.cif
#   From: 2010.03.12/outbox.cif.g09.slc.cpg/sg59_13_cif.got.tgz:24709.got - 2010.04.16 16:29:54.
