data_PCOD8243645
_publ_section_title
;
Structure prediction by ZEFSAII (Michael W. Deem and Ramdas Pophale) SiO2 
 PCOD8243645
Probable space group: P M M N
;
_chemical_formula_sum "Si O2"
_cell_formula_units_Z 64
_cell_length_a 8.903072
_cell_length_b 13.949995
_cell_length_c 25.676610
_cell_angle_alpha 90.000000
_cell_angle_beta 90.000000
_cell_angle_gamma 90.000000
_cell_volume 3188.978727
_symmetry_space_group_name_H-M "P M M N"
_symmetry_group_IT_number 59
_space_group.IT_coordinate_system_code '2'
_symmetry_cell_setting 'orthorhombic'
loop_
_space_group_symop_operation_xyz
x,y,z
1/2-x,1/2-y,z
1/2+x,-y,-z
-x,1/2+y,-z
-x,-y,-z
1/2+x,1/2+y,-z
1/2-x,y,z
x,1/2-y,z
loop_
_atom_site_type_symbol
_atom_site_label
_atom_site_fract_x
_atom_site_fract_y
_atom_site_fract_z
Si Si1 0.425616 0.963647 0.880470
Si Si2 0.080083 0.635909 0.475578
Si Si3 0.922851 0.861041 0.976260
Si Si4 0.573039 0.972855 0.680421
Si Si5 0.573730 0.640460 0.578722
Si Si6 0.073104 0.140151 0.630149
Si Si7 0.424255 0.638744 0.772849
Si Si8 0.926744 0.359586 0.915847
O O1 0.250000 0.961823 0.893174
O O2 0.518224 0.918213 0.927153
O O3 0.462453 0.904832 0.828800
O O4 0.485287 0.073058 0.874608
O O5 0.250000 0.598243 0.472088
O O6 0.071001 0.750000 0.478406
O O7 0.003365 0.593409 0.527708
O O8 0.994910 0.600511 0.424005
O O9 0.750000 0.887730 0.987392
O O10 0.942585 0.750000 0.963128
O O11 0.020989 0.889322 0.026332
O O12 0.750000 0.987463 0.681799
O O13 0.519049 0.913087 0.630305
O O14 0.523839 0.917138 0.731529
O O15 0.494004 0.076935 0.677288
O O16 0.750000 0.631978 0.570393
O O17 0.522645 0.750000 0.585613
O O18 0.250000 0.128646 0.627678
O O19 0.025718 0.250000 0.640296
O O20 0.250000 0.625171 0.758857
O O21 0.470209 0.750000 0.772911
O O22 0.750000 0.375787 0.910983
O O23 0.971526 0.250000 0.903528
#
# Coordination Sequence:
#
# PCOD8243645 Si02
#       8
#     8   8   8   8   8   8   8   8
#     4  11  22  37  59  85 115 152 194 238 284 336
#     4   9  17  30  51  80 111 143 181 225 272 324
#     4  10  20  34  55  85 120 157 196 237 283 337
#     4  11  23  38  59  85 111 143 185 234 285 333
#     4   9  18  33  52  77 111 147 181 219 270 333
#     4  10  21  38  59  81 109 146 185 227 277 334
#     4  10  23  43  64  86 114 148 186 229 278 333
#     4  10  21  37  57  83 118 157 195 237 284 334
#
# _framework density 20.069120999999999
#
# number of rings (size 3 to 8) (size 9 to 14) (size 15 to 20)
#    0.000    2.000    0.000    3.375    0.000    7.500 
#    0.000    1.875    0.000    0.750    0.000    0.000 
#    0.000    0.000    0.000    0.000    0.000    0.000 
#
# Total GULP energy -793842.515115 kJ/mol
# GULP energy per Si atom -12403.789299 kJ/mol
# Density = 2.002344 g / cm^3
# Si number density = 20.069121 Si / 1000 Ang^3
#
#
#
# Elastic Constant Matrix: (Units=GPa)
#
#
# Indices 1 2 3 4 5 6 
#
# 1 68.4677 39.7873 28.8427 0.0000 0.0000 0.0000
# 2 39.7873 89.1286 50.4796 0.0000 0.0000 0.0000
# 3 28.8427 50.4796 59.5618 0.0000 0.0000 0.0000
# 4 0.0000 0.0000 0.0000 35.8651 0.0000 0.0000
# 5 0.0000 0.0000 0.0000 0.0000 35.7783 0.0000
# 6 0.0000 0.0000 0.0000 0.0000 0.0000 31.3354
#
#
#
# Elastic Compliance Matrix: (Units=1/GPa)
#
#
# Indices 1 2 3 4 5 6 
#
# 1 0.020234 -0.006698 -0.004121 0.000000 0.000000 0.000000
# 2 -0.006698 0.023794 -0.016922 0.000000 0.000000 0.000000
# 3 -0.004121 -0.016922 0.033127 0.000000 0.000000 0.000000
# 4 0.000000 0.000000 0.000000 0.027882 0.000000 0.000000
# 5 0.000000 0.000000 0.000000 0.000000 0.027950 0.000000
# 6 0.000000 0.000000 0.000000 0.000000 0.000000 0.031913
#
#
# Mechanical properties :
#
#
# Convention : Reuss Voigt Hill
#
# Bulk Modulus (GPa) = 46.14413 50.59747 48.37080
# Shear Modulus (GPa) = 21.96762 27.13234 24.54998
#
# Velocity S-wave (km/s) = 3.31206 3.68087 3.50132
# Velocity P-wave (km/s) = 6.13749 6.58266 6.36397
#
# Compressibility (1/GPa) = 0.02167123
#
# Stress axis : x y z
#
# Youngs Moduli (GPa) = 49.42156 42.02713 30.18690
#
# Poissons Ratio (x) = 0.28151 0.12441
# Poissons Ratio (y) = 0.33104 0.51083
# Poissons Ratio (z) = 0.20368 0.71119
#
# Static dielectric constant tensor:
#      x y z
#    x 3.630060 0.000000 0.000000 
#    y 0.000000 3.950210 0.000000 
#    z 0.000000 0.000000 3.519310 
# 
# 
# High freq. dielectric constant tensor:
#      x y z
#    x 1.788970 0.000000 0.000000 
#    y 0.000000 1.799440 0.000000 
#    z 0.000000 0.000000 1.764120 
# 
# From -- ./inp_files/31560.got.cif
#   From: 2010.03.12/outbox.cif.g09.slc.cpg/sg59_16_cif.got.tgz:31560.got - 2010.04.16 16:29:54.
