data_PCOD8243874
_publ_section_title
;
Structure prediction by ZEFSAII (Michael W. Deem and Ramdas Pophale) SiO2 
 PCOD8243874
Probable space group: P M M N
;
_chemical_formula_sum "Si O2"
_cell_formula_units_Z 64
_cell_length_a 30.880954
_cell_length_b 8.766887
_cell_length_c 12.022352
_cell_angle_alpha 90.000000
_cell_angle_beta 90.000000
_cell_angle_gamma 90.000000
_cell_volume 3254.809363
_symmetry_space_group_name_H-M "P M M N"
_symmetry_group_IT_number 59
_space_group.IT_coordinate_system_code '2'
_symmetry_cell_setting 'orthorhombic'
loop_
_space_group_symop_operation_xyz
x,y,z
1/2-x,1/2-y,z
1/2+x,-y,-z
-x,1/2+y,-z
-x,-y,-z
1/2+x,1/2+y,-z
1/2-x,y,z
x,1/2-y,z
loop_
_atom_site_type_symbol
_atom_site_label
_atom_site_fract_x
_atom_site_fract_y
_atom_site_fract_z
Si Si1 0.437718 0.427021 0.258040
Si Si2 0.517008 0.074023 0.110598
Si Si3 0.887107 0.069729 0.144751
Si Si4 0.134461 0.072159 0.082964
Si Si5 0.699474 0.422183 0.764646
Si Si6 0.623545 0.929061 0.372540
Si Si7 0.700726 0.573289 0.534602
Si Si8 0.452190 0.930200 0.487281
O O1 0.429512 0.250000 0.286995
O O2 0.486159 0.457139 0.215248
O O3 0.405061 0.482073 0.161784
O O4 0.431013 0.524376 0.369181
O O5 0.520360 0.250000 0.082521
O O6 0.563681 0.008605 0.141491
O O7 0.500000 0.000000 0.000000
O O8 0.883488 0.250000 0.161194
O O9 0.865280 0.985504 0.248671
O O10 0.864140 0.021980 0.030825
O O11 0.130670 0.250000 0.055123
O O12 0.178572 0.035591 0.146471
O O13 0.750000 0.433001 0.785674
O O14 0.682303 0.250000 0.780707
O O15 0.687515 0.474993 0.641097
O O16 0.614547 0.750000 0.375249
O O17 0.666825 0.972610 0.439851
O O18 0.580475 0.012127 0.417651
O O19 0.750000 0.536365 0.495316
O O20 0.696435 0.750000 0.567388
O O21 0.456575 0.750000 0.497986
O O22 0.500000 0.000000 0.500000
#
# Coordination Sequence:
#
# PCOD8243874 Si02
#       8
#     8   8   8   8   8   8   8   8
#     4  10  21  37  57  84 116 149 189 238 287 339
#     4  10  20  35  55  79 110 148 190 237 283 334
#     4  11  23  38  58  84 117 158 200 243 289 345
#     4  11  22  37  59  85 115 152 192 236 284 341
#     4  10  21  37  59  88 120 150 184 234 293 350
#     4  11  23  40  62  87 118 158 201 248 301 356
#     4   9  19  38  64  92 120 152 193 240 292 355
#     4  12  25  40  59  84 117 157 199 245 297 355
#
# _framework density 19.663209999999999
#
# number of rings (size 3 to 8) (size 9 to 14) (size 15 to 20)
#    0.000    1.500    1.250    4.125    0.000    7.750 
#    0.000    0.625    0.000    2.250    0.000    0.000 
#    0.000    0.000    0.000    0.000    0.000    0.000 
#
# Total GULP energy -793864.153356 kJ/mol
# GULP energy per Si atom -12404.127396 kJ/mol
# Density = 1.961846 g / cm^3
# Si number density = 19.663210 Si / 1000 Ang^3
#
#
#
# Elastic Constant Matrix: (Units=GPa)
#
#
# Indices 1 2 3 4 5 6 
#
# 1 88.3487 36.3303 54.5588 0.0000 0.0000 0.0000
# 2 36.3303 77.1571 40.1178 0.0000 0.0000 0.0000
# 3 54.5588 40.1178 119.6271 0.0000 0.0000 0.0000
# 4 0.0000 0.0000 0.0000 38.5805 0.0000 0.0000
# 5 0.0000 0.0000 0.0000 0.0000 31.0662 0.0000
# 6 0.0000 0.0000 0.0000 0.0000 0.0000 27.0727
#
#
#
# Elastic Compliance Matrix: (Units=1/GPa)
#
#
# Indices 1 2 3 4 5 6 
#
# 1 0.017135 -0.004851 -0.006188 0.000000 0.000000 0.000000
# 2 -0.004851 0.017071 -0.003513 0.000000 0.000000 0.000000
# 3 -0.006188 -0.003513 0.012359 0.000000 0.000000 0.000000
# 4 0.000000 0.000000 0.000000 0.025920 0.000000 0.000000
# 5 0.000000 0.000000 0.000000 0.000000 0.032189 0.000000
# 6 0.000000 0.000000 0.000000 0.000000 0.000000 0.036938
#
#
# Mechanical properties :
#
#
# Convention : Reuss Voigt Hill
#
# Bulk Modulus (GPa) = 57.26510 60.79408 59.02959
# Shear Modulus (GPa) = 28.32293 29.61895 28.97094
#
# Velocity S-wave (km/s) = 3.79938 3.88534 3.84260
# Velocity P-wave (km/s) = 6.95940 7.14931 7.05499
#
# Compressibility (1/GPa) = 0.01746264
#
# Stress axis : x y z
#
# Youngs Moduli (GPa) = 58.36079 58.57916 80.90946
#
# Poissons Ratio (x) = 0.28415 0.50067
# Poissons Ratio (y) = 0.28309 0.28420
# Poissons Ratio (z) = 0.36114 0.20577
#
# Static dielectric constant tensor:
#      x y z
#    x 3.656620 0.000000 0.000000 
#    y 0.000000 3.601360 0.000000 
#    z 0.000000 0.000000 3.549940 
# 
# 
# High freq. dielectric constant tensor:
#      x y z
#    x 1.764340 0.000000 0.000000 
#    y 0.000000 1.769010 0.000000 
#    z 0.000000 0.000000 1.770300 
# 
# From -- ./inp_files/19348.got.cif
#   From: 2010.03.12/outbox.cif.g09.slc.cpg/sg59_10_cif.got.tgz:19348.got - 2010.04.16 16:29:54.
