data_PCOD8243169
_publ_section_title
;
Structure prediction by ZEFSAII (Michael W. Deem and Ramdas Pophale) SiO2 
 PCOD8243169
Probable space group: P M M N
;
_chemical_formula_sum "Si O2"
_cell_formula_units_Z 56
_cell_length_a 20.253770
_cell_length_b 9.266478
_cell_length_c 16.007923
_cell_angle_alpha 90.000000
_cell_angle_beta 90.000000
_cell_angle_gamma 90.000000
_cell_volume 3004.384823
_symmetry_space_group_name_H-M "P M M N"
_symmetry_group_IT_number 59
_space_group.IT_coordinate_system_code '2'
_symmetry_cell_setting 'orthorhombic'
loop_
_space_group_symop_operation_xyz
x,y,z
1/2-x,1/2-y,z
1/2+x,-y,-z
-x,1/2+y,-z
-x,-y,-z
1/2+x,1/2+y,-z
1/2-x,y,z
x,1/2-y,z
loop_
_atom_site_type_symbol
_atom_site_label
_atom_site_fract_x
_atom_site_fract_y
_atom_site_fract_z
Si Si1 0.250000 0.914205 0.482196
Si Si2 0.141646 0.585662 0.347221
Si Si3 0.502605 0.916966 0.413782
Si Si4 0.411415 0.582993 0.057644
Si Si5 0.390175 0.421323 0.717224
Si Si6 0.250000 0.079050 0.652346
Si Si7 0.673848 0.588295 0.814026
Si Si8 0.939340 0.917266 0.104229
O O1 0.250000 0.750000 0.514654
O O2 0.315886 0.946246 0.429645
O O3 0.250000 0.020691 0.559308
O O4 0.154281 0.750000 0.316802
O O5 0.065073 0.559652 0.364492
O O6 0.164625 0.474898 0.277751
O O7 0.514597 0.750000 0.434607
O O8 0.561456 0.979826 0.355697
O O9 0.500000 0.000000 0.500000
O O10 0.395095 0.750000 0.045386
O O11 0.359201 0.514289 0.119024
O O12 0.482497 0.559269 0.099457
O O13 0.404133 0.507236 0.968196
O O14 0.395210 0.250000 0.717933
O O15 0.315431 0.475248 0.700848
O O16 0.413882 0.479210 0.807270
O O17 0.250000 0.250000 0.646010
O O18 0.750000 0.593861 0.837094
O O19 0.643621 0.750000 0.817058
O O20 0.920439 0.750000 0.092372
#
# Coordination Sequence:
#
# PCOD8243169 Si02
#       8
#     4   8   8   8   8   4   8   8
#     4  10  20  34  52  75 104 139 176 219 272 329
#     4  10  20  35  55  77 106 144 182 223 276 334
#     4  10  20  34  53  79 109 142 182 228 278 325
#     4  10  20  35  58  84 111 144 177 221 279 331
#     4   9  18  34  54  77 105 140 182 224 266 316
#     4  10  20  34  54  75 100 139 182 221 262 313
#     4  11  23  37  54  81 113 145 183 226 273 328
#     4   9  18  36  59  81 108 142 184 229 271 325
#
# _framework density 18.639424000000002
#
# number of rings (size 3 to 8) (size 9 to 14) (size 15 to 20)
#    0.000    2.143    0.714    2.571    0.000    4.857 
#    1.286    1.429    0.000    0.000    0.000    0.000 
#    0.000    0.000    0.000    0.000    0.000    0.000 
#
# Total GULP energy -694538.278457 kJ/mol
# GULP energy per Si atom -12402.469258 kJ/mol
# Density = 1.859700 g / cm^3
# Si number density = 18.639424 Si / 1000 Ang^3
#
#
#
# Elastic Constant Matrix: (Units=GPa)
#
#
# Indices 1 2 3 4 5 6 
#
# 1 103.2713 29.5718 54.3187 0.0000 0.0000 0.0000
# 2 29.5718 63.1572 45.6189 0.0000 0.0000 0.0000
# 3 54.3187 45.6189 136.7865 0.0000 0.0000 0.0000
# 4 0.0000 0.0000 0.0000 28.7892 0.0000 0.0000
# 5 0.0000 0.0000 0.0000 0.0000 24.7974 0.0000
# 6 0.0000 0.0000 0.0000 0.0000 0.0000 20.9330
#
#
#
# Elastic Compliance Matrix: (Units=1/GPa)
#
#
# Indices 1 2 3 4 5 6 
#
# 1 0.012664 -0.003026 -0.004020 0.000000 0.000000 0.000000
# 2 -0.003026 0.021581 -0.005996 0.000000 0.000000 0.000000
# 3 -0.004020 -0.005996 0.010907 0.000000 0.000000 0.000000
# 4 0.000000 0.000000 0.000000 0.034735 0.000000 0.000000
# 5 0.000000 0.000000 0.000000 0.000000 0.040327 0.000000
# 6 0.000000 0.000000 0.000000 0.000000 0.000000 0.047771
#
#
# Mechanical properties :
#
#
# Convention : Reuss Voigt Hill
#
# Bulk Modulus (GPa) = 52.44237 62.47044 57.45640
# Shear Modulus (GPa) = 24.94704 26.48431 25.71568
#
# Velocity S-wave (km/s) = 3.66239 3.77354 3.71838
# Velocity P-wave (km/s) = 6.78825 7.25080 7.02334
#
# Compressibility (1/GPa) = 0.01906855
#
# Stress axis : x y z
#
# Youngs Moduli (GPa) = 78.96350 46.33668 91.68828
#
# Poissons Ratio (x) = 0.14022 0.36856
# Poissons Ratio (y) = 0.23896 0.54974
# Poissons Ratio (z) = 0.31741 0.27782
#
# Static dielectric constant tensor:
#      x y z
#    x 3.896290 0.000000 0.000000 
#    y 0.000000 3.373670 0.000000 
#    z 0.000000 0.000000 3.456620 
# 
# 
# High freq. dielectric constant tensor:
#      x y z
#    x 1.729160 0.000000 0.000000 
#    y 0.000000 1.709760 0.000000 
#    z 0.000000 0.000000 1.728210 
# 
# From -- ./inp_files/24388.got.cif
#   From: 2010.03.12/outbox.cif.g09.slc.cpg/sg59_13_cif.got.tgz:24388.got - 2010.04.16 16:29:54.
