data_PCOD8243325
_publ_section_title
;
Structure prediction by ZEFSAII (Michael W. Deem and Ramdas Pophale) SiO2 
 PCOD8243325
Probable space group: P M M N
;
_chemical_formula_sum "Si O2"
_cell_formula_units_Z 56
_cell_length_a 8.970376
_cell_length_b 13.414230
_cell_length_c 23.383705
_cell_angle_alpha 90.000000
_cell_angle_beta 90.000000
_cell_angle_gamma 90.000000
_cell_volume 2813.777284
_symmetry_space_group_name_H-M "P M M N"
_symmetry_group_IT_number 59
_space_group.IT_coordinate_system_code '2'
_symmetry_cell_setting 'orthorhombic'
loop_
_space_group_symop_operation_xyz
x,y,z
1/2-x,1/2-y,z
1/2+x,-y,-z
-x,1/2+y,-z
-x,-y,-z
1/2+x,1/2+y,-z
1/2-x,y,z
x,1/2-y,z
loop_
_atom_site_type_symbol
_atom_site_label
_atom_site_fract_x
_atom_site_fract_y
_atom_site_fract_z
Si Si1 0.076843 0.365259 0.695775
Si Si2 0.077086 0.549488 0.412315
Si Si3 0.580404 0.861253 0.516715
Si Si4 0.574172 0.453949 0.805374
Si Si5 0.416346 0.368124 0.912762
Si Si6 0.574971 0.362680 0.150103
Si Si7 0.083677 0.630926 0.977694
O O1 0.250000 0.387601 0.705566
O O2 0.048219 0.250000 0.680863
O O3 0.017836 0.432174 0.644124
O O4 0.990028 0.392289 0.752869
O O5 0.250000 0.568322 0.398856
O O6 0.043917 0.436053 0.431531
O O7 0.027637 0.622857 0.463043
O O8 0.750000 0.878142 0.495341
O O9 0.556488 0.750000 0.540514
O O10 0.750000 0.457841 0.800037
O O11 0.527969 0.397794 0.862880
O O12 0.510330 0.566716 0.805171
O O13 0.250000 0.409727 0.900345
O O14 0.414422 0.250000 0.917114
O O15 0.471265 0.412152 0.974098
O O16 0.750000 0.365378 0.162605
O O17 0.514555 0.250000 0.157186
O O18 0.540966 0.406251 0.086239
O O19 0.250000 0.596025 0.993833
O O20 0.078021 0.750000 0.975585
#
# Coordination Sequence:
#
# PCOD8243325 Si02
#       7
#     8   8   8   8   8   8   8
#     4  11  24  42  62  82 109 147 188 230 278 334
#     4  10  20  34  56  87 119 152 193 237 279 325
#     4   9  18  34  56  84 121 161 194 227 272 324
#     4  12  25  38  56  81 108 141 182 229 278 329
#     4  10  20  34  53  78 109 143 178 221 275 333
#     4   9  19  38  61  81 105 139 178 223 275 331
#     4   8  15  30  53  79 105 135 173 218 270 328
#
# _framework density 19.902073000000001
#
# number of rings (size 3 to 8) (size 9 to 14) (size 15 to 20)
#    0.000    2.143    0.000    4.286    0.000    7.714 
#    0.000    2.143    0.000    2.571    0.000    0.000 
#    0.000    0.000    0.000    0.000    0.000    0.000 
#
# Total GULP energy -694538.701925 kJ/mol
# GULP energy per Si atom -12402.476820 kJ/mol
# Density = 1.985677 g / cm^3
# Si number density = 19.902073 Si / 1000 Ang^3
#
#
#
# Elastic Constant Matrix: (Units=GPa)
#
#
# Indices 1 2 3 4 5 6 
#
# 1 110.7954 39.0233 43.8627 0.0000 0.0000 0.0000
# 2 39.0233 70.7645 34.8077 0.0000 0.0000 0.0000
# 3 43.8627 34.8077 85.3348 0.0000 0.0000 0.0000
# 4 0.0000 0.0000 0.0000 24.0491 0.0000 0.0000
# 5 0.0000 0.0000 0.0000 0.0000 37.9132 0.0000
# 6 0.0000 0.0000 0.0000 0.0000 0.0000 27.5321
#
#
#
# Elastic Compliance Matrix: (Units=1/GPa)
#
#
# Indices 1 2 3 4 5 6 
#
# 1 0.012445 -0.004649 -0.004500 0.000000 0.000000 0.000000
# 2 -0.004649 0.019415 -0.005530 0.000000 0.000000 0.000000
# 3 -0.004500 -0.005530 0.016287 0.000000 0.000000 0.000000
# 4 0.000000 0.000000 0.000000 0.041582 0.000000 0.000000
# 5 0.000000 0.000000 0.000000 0.000000 0.026376 0.000000
# 6 0.000000 0.000000 0.000000 0.000000 0.000000 0.036321
#
#
# Mechanical properties :
#
#
# Convention : Reuss Voigt Hill
#
# Bulk Modulus (GPa) = 53.22285 55.80913 54.51599
# Shear Modulus (GPa) = 26.58907 27.84560 27.21734
#
# Velocity S-wave (km/s) = 3.65909 3.74455 3.70207
# Velocity P-wave (km/s) = 6.68224 6.84093 6.76205
#
# Compressibility (1/GPa) = 0.01878892
#
# Stress axis : x y z
#
# Youngs Moduli (GPa) = 80.35534 51.50642 61.39757
#
# Poissons Ratio (x) = 0.23946 0.27631
# Poissons Ratio (y) = 0.37358 0.33951
# Poissons Ratio (z) = 0.36163 0.28481
#
# Static dielectric constant tensor:
#      x y z
#    x 3.690430 0.000000 0.000000 
#    y 0.000000 3.750860 0.000000 
#    z 0.000000 0.000000 3.508290 
# 
# 
# High freq. dielectric constant tensor:
#      x y z
#    x 1.777910 0.000000 0.000000 
#    y 0.000000 1.791300 0.000000 
#    z 0.000000 0.000000 1.757260 
# 
# From -- ./inp_files/29127.got.cif
#   From: 2010.03.12/outbox.cif.g09.slc.cpg/sg59_15_cif.got.tgz:29127.got - 2010.04.16 16:29:54.
