data_PCOD8243807
_publ_section_title
;
Structure prediction by ZEFSAII (Michael W. Deem and Ramdas Pophale) SiO2 
 PCOD8243807
Probable space group: P M M N
;
_chemical_formula_sum "Si O2"
_cell_formula_units_Z 64
_cell_length_a 31.374991
_cell_length_b 8.931545
_cell_length_c 12.077502
_cell_angle_alpha 90.000000
_cell_angle_beta 90.000000
_cell_angle_gamma 90.000000
_cell_volume 3384.443892
_symmetry_space_group_name_H-M "P M M N"
_symmetry_group_IT_number 59
_space_group.IT_coordinate_system_code '2'
_symmetry_cell_setting 'orthorhombic'
loop_
_space_group_symop_operation_xyz
x,y,z
1/2-x,1/2-y,z
1/2+x,-y,-z
-x,1/2+y,-z
-x,-y,-z
1/2+x,1/2+y,-z
1/2-x,y,z
x,1/2-y,z
loop_
_atom_site_type_symbol
_atom_site_label
_atom_site_fract_x
_atom_site_fract_y
_atom_site_fract_z
Si Si1 0.954137 0.073461 0.484518
Si Si2 0.367845 0.074384 0.910936
Si Si3 0.893553 0.074310 0.867684
Si Si4 0.981195 0.579498 0.894057
Si Si5 0.435983 0.581158 0.761344
Si Si6 0.374806 0.574077 0.377012
Si Si7 0.202885 0.928084 0.518973
Si Si8 0.200683 0.579480 0.769672
O O1 0.961243 0.250000 0.494252
O O2 0.933708 0.030602 0.365873
O O3 0.919736 0.012150 0.574282
O O4 0.000000 0.000000 0.500000
O O5 0.369246 0.250000 0.927363
O O6 0.408390 0.026572 0.838347
O O7 0.324396 0.027814 0.852027
O O8 0.368326 0.000086 0.031795
O O9 0.896865 0.250000 0.890236
O O10 0.869550 0.037709 0.752725
O O11 0.940462 0.009686 0.853638
O O12 0.968902 0.750000 0.924224
O O13 0.014756 0.572924 0.794989
O O14 0.000000 0.500000 0.000000
O O15 0.418352 0.750000 0.776357
O O16 0.374998 0.750000 0.399564
O O17 0.333579 0.503515 0.439070
O O18 0.250000 0.989797 0.485335
O O19 0.204132 0.750000 0.511933
O O20 0.192110 0.975521 0.644588
O O21 0.250000 0.566374 0.800274
O O22 0.184782 0.750000 0.784411
#
# Coordination Sequence:
#
# PCOD8243807 Si02
#       8
#     8   8   8   8   8   8   8   8
#     4  10  20  35  54  78 109 144 179 223 276 332
#     4  12  24  36  54  79 108 143 183 227 272 322
#     4  11  22  36  53  75 109 150 189 231 273 323
#     4  11  21  34  53  77 105 143 186 231 277 321
#     4  10  21  36  56  79 107 141 179 225 276 328
#     4   9  18  32  52  78 109 145 181 225 279 325
#     4   8  14  29  57  89 113 135 172 221 272 329
#     4   9  18  35  61  88 113 141 172 214 272 334
#
# _framework density 18.910049000000001
#
# number of rings (size 3 to 8) (size 9 to 14) (size 15 to 20)
#    0.000    2.000    1.250    4.125    0.000    3.250 
#    0.000    1.250    0.000    3.750    0.000    0.000 
#    0.000    0.000    0.000    0.000    0.000    0.000 
#
# Total GULP energy -793580.341059 kJ/mol
# GULP energy per Si atom -12399.692829 kJ/mol
# Density = 1.886701 g / cm^3
# Si number density = 18.910049 Si / 1000 Ang^3
#
#
#
# Elastic Constant Matrix: (Units=GPa)
#
#
# Indices 1 2 3 4 5 6 
#
# 1 125.3560 38.6948 68.3085 0.0000 0.0000 0.0000
# 2 38.6948 85.4937 55.3542 0.0000 0.0000 0.0000
# 3 68.3085 55.3542 131.3487 0.0000 0.0000 0.0000
# 4 0.0000 0.0000 0.0000 14.5641 0.0000 0.0000
# 5 0.0000 0.0000 0.0000 0.0000 32.1696 0.0000
# 6 0.0000 0.0000 0.0000 0.0000 0.0000 26.3673
#
#
#
# Elastic Compliance Matrix: (Units=1/GPa)
#
#
# Indices 1 2 3 4 5 6 
#
# 1 0.011331 -0.001806 -0.005132 0.000000 0.000000 0.000000
# 2 -0.001806 0.016374 -0.005961 0.000000 0.000000 0.000000
# 3 -0.005132 -0.005961 0.012794 0.000000 0.000000 0.000000
# 4 0.000000 0.000000 0.000000 0.068662 0.000000 0.000000
# 5 0.000000 0.000000 0.000000 0.000000 0.031085 0.000000
# 6 0.000000 0.000000 0.000000 0.000000 0.000000 0.037926
#
#
# Mechanical properties :
#
#
# Convention : Reuss Voigt Hill
#
# Bulk Modulus (GPa) = 68.02015 74.10149 71.06082
# Shear Modulus (GPa) = 23.93828 26.60959 25.27393
#
# Velocity S-wave (km/s) = 3.56181 3.75529 3.65983
# Velocity P-wave (km/s) = 7.27762 7.62065 7.45111
#
# Compressibility (1/GPa) = 0.01470153
#
# Stress axis : x y z
#
# Youngs Moduli (GPa) = 88.25283 61.07304 78.15950
#
# Poissons Ratio (x) = 0.11029 0.40109
# Poissons Ratio (y) = 0.15937 0.46593
# Poissons Ratio (z) = 0.45289 0.36407
#
# Static dielectric constant tensor:
#      x y z
#    x 3.789720 0.000000 0.000000 
#    y 0.000000 6.184410 0.000000 
#    z 0.000000 0.000000 3.538430 
# 
# 
# High freq. dielectric constant tensor:
#      x y z
#    x 1.736610 0.000000 0.000000 
#    y 0.000000 1.706220 0.000000 
#    z 0.000000 0.000000 1.741230 
# 
# From -- ./inp_files/19302.got.cif
#   From: 2010.03.12/outbox.cif.g09.slc.cpg/sg59_10_cif.got.tgz:19302.got - 2010.04.16 16:29:54.
