data_PCOD8243614
_publ_section_title
;
Structure prediction by ZEFSAII (Michael W. Deem and Ramdas Pophale) SiO2 
 PCOD8243614
Probable space group: P M M N
;
_chemical_formula_sum "Si O2"
_cell_formula_units_Z 48
_cell_length_a 9.081880
_cell_length_b 8.833914
_cell_length_c 30.787120
_cell_angle_alpha 90.000000
_cell_angle_beta 90.000000
_cell_angle_gamma 90.000000
_cell_volume 2470.005900
_symmetry_space_group_name_H-M "P M M N"
_symmetry_group_IT_number 59
_space_group.IT_coordinate_system_code '2'
_symmetry_cell_setting 'orthorhombic'
loop_
_space_group_symop_operation_xyz
x,y,z
1/2-x,1/2-y,z
1/2+x,-y,-z
-x,1/2+y,-z
-x,-y,-z
1/2+x,1/2+y,-z
1/2-x,y,z
x,1/2-y,z
loop_
_atom_site_type_symbol
_atom_site_label
_atom_site_fract_x
_atom_site_fract_y
_atom_site_fract_z
Si Si1 0.919895 0.427928 0.459356
Si Si2 0.077196 0.424949 0.801424
Si Si3 0.921377 0.926089 0.879605
Si Si4 0.081534 0.570983 0.379056
Si Si5 0.581817 0.571463 0.040455
Si Si6 0.087600 0.429409 0.704516
O O1 0.750000 0.474263 0.461457
O O2 0.942616 0.250000 0.461396
O O3 0.000000 0.500000 0.500000
O O4 0.985681 0.489410 0.414983
O O5 0.250000 0.447391 0.810529
O O6 0.033429 0.250000 0.808746
O O7 0.036918 0.479707 0.752595
O O8 0.982522 0.530784 0.832541
O O9 0.750000 0.966467 0.881997
O O10 0.949296 0.750000 0.888541
O O11 0.006126 0.023195 0.915117
O O12 0.250000 0.521921 0.384486
O O13 0.061756 0.750000 0.384278
O O14 0.026764 0.514029 0.331836
O O15 0.750000 0.515013 0.040693
O O16 0.573055 0.750000 0.035953
O O17 0.500000 0.500000 0.000000
O O18 0.250000 0.495970 0.694016
O O19 0.097760 0.250000 0.704351
#
# Coordination Sequence:
#
# PCOD8243614 Si02
#       6
#     8   8   8   8   8   8
#     4  11  24  40  58  81 108 140 180 223 269 324
#     4   9  18  34  57  84 111 142 185 232 276 326
#     4  11  24  39  55  80 114 150 189 230 273 325
#     4  10  20  34  55  84 114 144 181 223 269 324
#     4  11  24  41  62  88 115 144 182 226 272 326
#     4   8  15  30  53  80 110 144 182 225 272 322
#
# _framework density 19.433150999999999
#
# number of rings (size 3 to 8) (size 9 to 14) (size 15 to 20)
#    0.000    2.000    0.000    4.500    0.000   12.000 
#    0.000    2.500    0.000    1.000    0.000    0.000 
#    0.000    0.000    0.000    0.000    0.000    0.000 
#
# Total GULP energy -595298.109879 kJ/mol
# GULP energy per Si atom -12402.043956 kJ/mol
# Density = 1.938892 g / cm^3
# Si number density = 19.433151 Si / 1000 Ang^3
#
#
#
# Elastic Constant Matrix: (Units=GPa)
#
#
# Indices 1 2 3 4 5 6 
#
# 1 126.7556 62.8847 83.8450 0.0000 0.0000 0.0000
# 2 62.8847 42.4931 38.2757 0.0000 0.0000 0.0000
# 3 83.8450 38.2757 153.5777 0.0000 0.0000 0.0000
# 4 0.0000 0.0000 0.0000 32.4375 0.0000 0.0000
# 5 0.0000 0.0000 0.0000 0.0000 42.7065 0.0000
# 6 0.0000 0.0000 0.0000 0.0000 0.0000 29.0471
#
#
#
# Elastic Compliance Matrix: (Units=1/GPa)
#
#
# Indices 1 2 3 4 5 6 
#
# 1 0.036389 -0.046365 -0.008311 0.000000 0.000000 0.000000
# 2 -0.046365 0.089422 0.003026 0.000000 0.000000 0.000000
# 3 -0.008311 0.003026 0.010294 0.000000 0.000000 0.000000
# 4 0.000000 0.000000 0.000000 0.030829 0.000000 0.000000
# 5 0.000000 0.000000 0.000000 0.000000 0.023416 0.000000
# 6 0.000000 0.000000 0.000000 0.000000 0.000000 0.034427
#
#
# Mechanical properties :
#
#
# Convention : Reuss Voigt Hill
#
# Bulk Modulus (GPa) = 30.48216 76.98192 53.73204
# Shear Modulus (GPa) = 14.74884 30.02627 22.38756
#
# Velocity S-wave (km/s) = 2.75790 3.93505 3.39784
# Velocity P-wave (km/s) = 5.08538 7.76826 6.56532
#
# Compressibility (1/GPa) = 0.03280607
#
# Stress axis : x y z
#
# Youngs Moduli (GPa) = 27.48111 11.18297 97.14048
#
# Poissons Ratio (x) = 0.51850 0.80732
# Poissons Ratio (y) = 1.27416 -0.29398
# Poissons Ratio (z) = 0.22839 -0.03384
#
# Static dielectric constant tensor:
#      x y z
#    x 3.666900 0.000000 0.000000 
#    y 0.000000 3.376170 0.000000 
#    z 0.000000 0.000000 3.923810 
# 
# 
# High freq. dielectric constant tensor:
#      x y z
#    x 1.765430 0.000000 0.000000 
#    y 0.000000 1.738430 0.000000 
#    z 0.000000 0.000000 1.776050 
# 
# From -- ./inp_files/32794.got.cif
#   From: 2010.03.12/outbox.cif.g09.slc.cpg/sg59_17_cif.got.tgz:32794.got - 2010.04.16 16:29:54.
