data_PCOD8243269
_publ_section_title
;
Structure prediction by ZEFSAII (Michael W. Deem and Ramdas Pophale) SiO2 
 PCOD8243269
Probable space group: P M M N
;
_chemical_formula_sum "Si O2"
_cell_formula_units_Z 56
_cell_length_a 8.743642
_cell_length_b 19.199563
_cell_length_c 17.720882
_cell_angle_alpha 90.000000
_cell_angle_beta 90.000000
_cell_angle_gamma 90.000000
_cell_volume 2974.877213
_symmetry_space_group_name_H-M "P M M N"
_symmetry_group_IT_number 59
_space_group.IT_coordinate_system_code '2'
_symmetry_cell_setting 'orthorhombic'
loop_
_space_group_symop_operation_xyz
x,y,z
1/2-x,1/2-y,z
1/2+x,-y,-z
-x,1/2+y,-z
-x,-y,-z
1/2+x,1/2+y,-z
1/2-x,y,z
x,1/2-y,z
loop_
_atom_site_type_symbol
_atom_site_label
_atom_site_fract_x
_atom_site_fract_y
_atom_site_fract_z
Si Si1 0.569077 0.586921 0.365153
Si Si2 0.070697 0.929415 0.793757
Si Si3 0.070203 0.924843 0.205733
Si Si4 0.425377 0.331711 0.088036
Si Si5 0.069894 0.930815 0.624454
Si Si6 0.431675 0.828929 0.497141
Si Si7 0.927413 0.330137 0.933394
O O1 0.750000 0.593255 0.370247
O O2 0.518008 0.601065 0.279754
O O3 0.512304 0.509766 0.390598
O O4 0.492844 0.644750 0.417290
O O5 0.250000 0.946456 0.797235
O O6 0.022497 0.907539 0.708759
O O7 0.029543 0.866815 0.848736
O O8 0.978358 0.997753 0.818476
O O9 0.250000 0.921739 0.221296
O O10 0.020158 0.874081 0.138507
O O11 0.250000 0.352928 0.100364
O O12 0.452537 0.250000 0.096338
O O13 0.477147 0.356732 0.005349
O O14 0.250000 0.928650 0.615563
O O15 0.997844 0.877335 0.563837
O O16 0.250000 0.832395 0.495986
O O17 0.488120 0.750000 0.510547
O O18 0.750000 0.341773 0.952093
O O19 0.963758 0.250000 0.915268
#
# Coordination Sequence:
#
# PCOD8243269 Si02
#       7
#     8   8   8   8   8   8   8
#     4  10  20  35  54  76 105 139 175 214 259 315
#     4  10  20  35  56  81 108 139 178 221 265 315
#     4  10  20  35  56  81 108 138 175 220 267 314
#     4  10  21  36  54  78 108 141 177 217 264 317
#     4   8  17  34  54  76 101 134 176 216 256 306
#     4  10  20  34  53  77 104 134 172 217 262 309
#     4   9  19  36  56  77 102 136 178 219 261 313
#
# _framework density 18.824307000000001
#
# number of rings (size 3 to 8) (size 9 to 14) (size 15 to 20)
#    0.000    2.429    0.000    3.000    0.000    4.000 
#    0.000    6.429    0.000    0.000    0.000    0.000 
#    0.000    0.000    0.000    0.000    0.000    0.000 
#
# Total GULP energy -694492.011863 kJ/mol
# GULP energy per Si atom -12401.643069 kJ/mol
# Density = 1.878146 g / cm^3
# Si number density = 18.824307 Si / 1000 Ang^3
#
#
#
# Elastic Constant Matrix: (Units=GPa)
#
#
# Indices 1 2 3 4 5 6 
#
# 1 17.1529 29.8815 20.7295 0.0000 0.0000 0.0000
# 2 29.8815 85.1701 65.2548 0.0000 0.0000 0.0000
# 3 20.7295 65.2548 110.0096 0.0000 0.0000 0.0000
# 4 0.0000 0.0000 0.0000 35.8586 0.0000 0.0000
# 5 0.0000 0.0000 0.0000 0.0000 28.1442 0.0000
# 6 0.0000 0.0000 0.0000 0.0000 0.0000 24.9550
#
#
#
# Elastic Compliance Matrix: (Units=1/GPa)
#
#
# Indices 1 2 3 4 5 6 
#
# 1 0.151720 -0.057423 0.005473 0.000000 0.000000 0.000000
# 2 -0.057423 0.043256 -0.014838 0.000000 0.000000 0.000000
# 3 0.005473 -0.014838 0.016860 0.000000 0.000000 0.000000
# 4 0.000000 0.000000 0.000000 0.027887 0.000000 0.000000
# 5 0.000000 0.000000 0.000000 0.000000 0.035531 0.000000
# 6 0.000000 0.000000 0.000000 0.000000 0.000000 0.040072
#
#
# Mechanical properties :
#
#
# Convention : Reuss Voigt Hill
#
# Bulk Modulus (GPa) = 12.77794 49.34046 31.05920
# Shear Modulus (GPa) = 10.52650 24.22268 17.37459
#
# Velocity S-wave (km/s) = 2.36730 3.59106 3.04137
# Velocity P-wave (km/s) = 3.77821 6.59259 5.37295
#
# Compressibility (1/GPa) = 0.07825990
#
# Stress axis : x y z
#
# Youngs Moduli (GPa) = 6.59107 23.11803 59.31070
#
# Poissons Ratio (x) = 1.32751 -0.32459
# Poissons Ratio (y) = 0.37848 0.88005
# Poissons Ratio (z) = -0.03607 0.34302
#
# Static dielectric constant tensor:
#      x y z
#    x 3.310810 0.000000 0.000000 
#    y 0.000000 3.536060 0.000000 
#    z 0.000000 0.000000 3.560740 
# 
# 
# High freq. dielectric constant tensor:
#      x y z
#    x 1.722300 0.000000 0.000000 
#    y 0.000000 1.727460 0.000000 
#    z 0.000000 0.000000 1.739840 
# 
# From -- ./inp_files/20955.got.cif
#   From: 2010.03.12/outbox.cif.g09.slc.cpg/sg59_11_cif.got.tgz:20955.got - 2010.04.16 16:29:54.
