data_PCOD8243113
_publ_section_title
;
Structure prediction by ZEFSAII (Michael W. Deem and Ramdas Pophale) SiO2 
 PCOD8243113
Probable space group: P M M N
;
_chemical_formula_sum "Si O2"
_cell_formula_units_Z 56
_cell_length_a 14.160905
_cell_length_b 9.529835
_cell_length_c 23.012422
_cell_angle_alpha 90.000000
_cell_angle_beta 90.000000
_cell_angle_gamma 90.000000
_cell_volume 3105.551389
_symmetry_space_group_name_H-M "P M M N"
_symmetry_group_IT_number 59
_space_group.IT_coordinate_system_code '2'
_symmetry_cell_setting 'orthorhombic'
loop_
_space_group_symop_operation_xyz
x,y,z
1/2-x,1/2-y,z
1/2+x,-y,-z
-x,1/2+y,-z
-x,-y,-z
1/2+x,1/2+y,-z
1/2-x,y,z
x,1/2-y,z
loop_
_atom_site_type_symbol
_atom_site_label
_atom_site_fract_x
_atom_site_fract_y
_atom_site_fract_z
Si Si1 0.860030 0.583880 0.756492
Si Si2 0.139616 0.410019 0.474378
Si Si3 0.042915 0.413547 0.359175
Si Si4 0.141282 0.910202 0.023924
Si Si5 0.355597 0.912718 0.585833
Si Si6 0.355850 0.088070 0.913471
Si Si7 0.542621 0.411739 0.857010
O O1 0.750000 0.543126 0.754543
O O2 0.873894 0.750000 0.762609
O O3 0.910900 0.521741 0.698738
O O4 0.910731 0.511724 0.810216
O O5 0.250000 0.418670 0.462714
O O6 0.107103 0.250000 0.485950
O O7 0.089677 0.475726 0.417574
O O8 0.110448 0.501747 0.529738
O O9 0.066794 0.250000 0.358065
O O10 0.929701 0.442647 0.361886
O O11 0.250000 0.936844 0.039247
O O12 0.121879 0.750000 0.006430
O O13 0.082883 0.953640 0.080353
O O14 0.109419 0.003868 0.969762
O O15 0.250000 0.957513 0.606079
O O16 0.358242 0.750000 0.568232
O O17 0.250000 0.042237 0.893715
O O18 0.357977 0.250000 0.931862
O O19 0.429168 0.062073 0.860458
O O20 0.566047 0.250000 0.841680
#
# Coordination Sequence:
#
# PCOD8243113 Si02
#       7
#     8   8   8   8   8   8   8
#     4  10  21  36  53  72  93 121 162 206 240 279
#     4   9  16  27  46  70  94 121 152 187 230 279
#     4   9  17  31  49  67  91 124 158 192 233 278
#     4   9  17  29  47  72 100 128 158 195 241 289
#     4   9  17  29  46  69  96 123 151 187 232 281
#     4   9  18  32  50  73 100 129 162 198 235 280
#     4  10  20  34  51  71  99 133 162 194 242 290
#
# _framework density 18.032223999999999
#
# number of rings (size 3 to 8) (size 9 to 14) (size 15 to 20)
#    0.000    2.714    0.000    1.714    0.000    3.714 
#    0.000    3.571    0.000    2.571    0.000    0.000 
#    0.000    0.000    0.000    0.000    0.000    0.000 
#
# Total GULP energy -694221.329095 kJ/mol
# GULP energy per Si atom -12396.809448 kJ/mol
# Density = 1.799118 g / cm^3
# Si number density = 18.032224 Si / 1000 Ang^3
#
#
#
# Elastic Constant Matrix: (Units=GPa)
#
#
# Indices 1 2 3 4 5 6 
#
# 1 114.3288 38.7656 77.4623 0.0000 0.0000 0.0000
# 2 38.7656 45.8454 45.3606 0.0000 0.0000 0.0000
# 3 77.4623 45.3606 97.2152 0.0000 0.0000 0.0000
# 4 0.0000 0.0000 0.0000 16.8184 0.0000 0.0000
# 5 0.0000 0.0000 0.0000 0.0000 30.1012 0.0000
# 6 0.0000 0.0000 0.0000 0.0000 0.0000 21.3032
#
#
#
# Elastic Compliance Matrix: (Units=1/GPa)
#
#
# Indices 1 2 3 4 5 6 
#
# 1 0.019110 -0.002030 -0.014280 0.000000 0.000000 0.000000
# 2 -0.002030 0.040734 -0.017389 0.000000 0.000000 0.000000
# 3 -0.014280 -0.017389 0.029779 0.000000 0.000000 0.000000
# 4 0.000000 0.000000 0.000000 0.059459 0.000000 0.000000
# 5 0.000000 0.000000 0.000000 0.000000 0.033221 0.000000
# 6 0.000000 0.000000 0.000000 0.000000 0.000000 0.046941
#
#
# Mechanical properties :
#
#
# Convention : Reuss Voigt Hill
#
# Bulk Modulus (GPa) = 44.99466 64.50737 54.75102
# Shear Modulus (GPa) = 16.44462 20.03130 18.23796
#
# Velocity S-wave (km/s) = 3.02314 3.33657 3.18372
# Velocity P-wave (km/s) = 6.09855 7.12002 6.62899
#
# Compressibility (1/GPa) = 0.02222486
#
# Stress axis : x y z
#
# Youngs Moduli (GPa) = 52.32741 24.54955 33.58105
#
# Poissons Ratio (x) = 0.04984 0.47954
# Poissons Ratio (y) = 0.10623 0.58393
# Poissons Ratio (z) = 0.74725 0.42689
#
# Static dielectric constant tensor:
#      x y z
#    x 3.668050 0.000000 0.000000 
#    y 0.000000 3.221050 0.000000 
#    z 0.000000 0.000000 3.219970 
# 
# 
# High freq. dielectric constant tensor:
#      x y z
#    x 1.719810 0.000000 0.000000 
#    y 0.000000 1.677440 0.000000 
#    z 0.000000 0.000000 1.673360 
# 
# From -- ./inp_files/29115.got.cif
#   From: 2010.03.12/outbox.cif.g09.slc.cpg/sg59_15_cif.got.tgz:29115.got - 2010.04.16 16:29:54.
