data_PCOD8243167
_publ_section_title
;
Structure prediction by ZEFSAII (Michael W. Deem and Ramdas Pophale) SiO2 
 PCOD8243167
Probable space group: P M M N
;
_chemical_formula_sum "Si O2"
_cell_formula_units_Z 56
_cell_length_a 14.540298
_cell_length_b 8.938214
_cell_length_c 21.218124
_cell_angle_alpha 90.000000
_cell_angle_beta 90.000000
_cell_angle_gamma 90.000000
_cell_volume 2757.598530
_symmetry_space_group_name_H-M "P M M N"
_symmetry_group_IT_number 59
_space_group.IT_coordinate_system_code '2'
_symmetry_cell_setting 'orthorhombic'
loop_
_space_group_symop_operation_xyz
x,y,z
1/2-x,1/2-y,z
1/2+x,-y,-z
-x,1/2+y,-z
-x,-y,-z
1/2+x,1/2+y,-z
1/2-x,y,z
x,1/2-y,z
loop_
_atom_site_type_symbol
_atom_site_label
_atom_site_fract_x
_atom_site_fract_y
_atom_site_fract_z
Si Si1 0.514035 0.075490 0.904550
Si Si2 0.649529 0.411918 0.413242
Si Si3 0.513125 0.572420 0.775487
Si Si4 0.092177 0.427444 0.473720
Si Si5 0.353148 0.427529 0.334845
Si Si6 0.356874 0.924426 0.979005
Si Si7 0.858517 0.922402 0.292698
O O1 0.502508 0.250000 0.890923
O O2 0.595545 0.042868 0.953936
O O3 0.547168 0.991116 0.841939
O O4 0.414516 0.014552 0.926776
O O5 0.750000 0.375136 0.387504
O O6 0.596575 0.250000 0.421230
O O7 0.665151 0.501893 0.478176
O O8 0.602133 0.510749 0.358830
O O9 0.510292 0.750000 0.777925
O O10 0.582374 0.512650 0.721284
O O11 0.410779 0.509692 0.762779
O O12 0.094759 0.250000 0.479278
O O13 0.110103 0.482921 0.402811
O O14 0.000000 0.500000 0.500000
O O15 0.250000 0.490164 0.324606
O O16 0.351662 0.250000 0.334536
O O17 0.250000 0.977404 0.980411
O O18 0.363096 0.750000 0.962039
O O19 0.750000 0.943601 0.282971
O O20 0.886328 0.750000 0.291151
#
# Coordination Sequence:
#
# PCOD8243167 Si02
#       7
#     8   8   8   8   8   8   8
#     4  10  21  37  58  87 121 153 188 231 279 335
#     4  10  20  34  52  75 104 136 174 224 282 345
#     4  11  22  37  59  84 114 153 193 236 285 337
#     4  11  21  34  55  79 105 139 183 238 297 350
#     4   9  20  38  57  79 109 148 195 241 284 336
#     4   9  19  38  63  89 118 152 190 233 280 329
#     4  10  21  37  57  81 110 147 192 241 294 352
#
# _framework density 20.307524999999998
#
# number of rings (size 3 to 8) (size 9 to 14) (size 15 to 20)
#    0.000    2.000    0.000    3.429    0.000    5.429 
#    0.000    2.143    0.000    4.714    0.000    0.000 
#    0.000    0.000    0.000    0.000    0.000    0.000 
#
# Total GULP energy -694117.620326 kJ/mol
# GULP energy per Si atom -12394.957506 kJ/mol
# Density = 2.026130 g / cm^3
# Si number density = 20.307525 Si / 1000 Ang^3
#
#
#
# Elastic Constant Matrix: (Units=GPa)
#
#
# Indices 1 2 3 4 5 6 
#
# 1 108.1557 33.5864 40.6703 0.0000 0.0000 0.0000
# 2 33.5864 96.4369 48.1479 0.0000 0.0000 0.0000
# 3 40.6703 48.1479 123.9855 0.0000 0.0000 0.0000
# 4 0.0000 0.0000 0.0000 36.7748 0.0000 0.0000
# 5 0.0000 0.0000 0.0000 0.0000 23.0063 0.0000
# 6 0.0000 0.0000 0.0000 0.0000 0.0000 25.6284
#
#
#
# Elastic Compliance Matrix: (Units=1/GPa)
#
#
# Indices 1 2 3 4 5 6 
#
# 1 0.011020 -0.002522 -0.002635 0.000000 0.000000 0.000000
# 2 -0.002522 0.013441 -0.004392 0.000000 0.000000 0.000000
# 3 -0.002635 -0.004392 0.010636 0.000000 0.000000 0.000000
# 4 0.000000 0.000000 0.000000 0.027193 0.000000 0.000000
# 5 0.000000 0.000000 0.000000 0.000000 0.043466 0.000000
# 6 0.000000 0.000000 0.000000 0.000000 0.000000 0.039019
#
#
# Mechanical properties :
#
#
# Convention : Reuss Voigt Hill
#
# Bulk Modulus (GPa) = 62.51224 63.70972 63.11098
# Shear Modulus (GPa) = 29.54967 30.82680 30.18824
#
# Velocity S-wave (km/s) = 3.81873 3.90038 3.85977
# Velocity P-wave (km/s) = 7.09177 7.19197 7.14205
#
# Compressibility (1/GPa) = 0.01599687
#
# Stress axis : x y z
#
# Youngs Moduli (GPa) = 90.74248 74.40046 94.02408
#
# Poissons Ratio (x) = 0.18766 0.24779
# Poissons Ratio (y) = 0.22888 0.41297
# Poissons Ratio (z) = 0.23914 0.32678
#
# Static dielectric constant tensor:
#      x y z
#    x 3.568550 0.000000 0.000000 
#    y 0.000000 4.084810 0.000000 
#    z 0.000000 0.000000 0.088390 
# 
# 
# High freq. dielectric constant tensor:
#      x y z
#    x 1.795970 0.000000 0.000000 
#    y 0.000000 1.788640 0.000000 
#    z 0.000000 0.000000 1.792260 
# 
# From -- ./inp_files/30410.got.cif
#   From: 2010.03.12/outbox.cif.g09.slc.cpg/sg59_16_cif.got.tgz:30410.got - 2010.04.16 16:29:54.
