data_PCOD8243314
_publ_section_title
;
Structure prediction by ZEFSAII (Michael W. Deem and Ramdas Pophale) SiO2 
 PCOD8243314
Probable space group: P M M N
;
_chemical_formula_sum "Si O2"
_cell_formula_units_Z 48
_cell_length_a 9.131757
_cell_length_b 8.901777
_cell_length_c 30.965487
_cell_angle_alpha 90.000000
_cell_angle_beta 90.000000
_cell_angle_gamma 90.000000
_cell_volume 2517.149275
_symmetry_space_group_name_H-M "P M M N"
_symmetry_group_IT_number 59
_space_group.IT_coordinate_system_code '2'
_symmetry_cell_setting 'orthorhombic'
loop_
_space_group_symop_operation_xyz
x,y,z
1/2-x,1/2-y,z
1/2+x,-y,-z
-x,1/2+y,-z
-x,-y,-z
1/2+x,1/2+y,-z
1/2-x,y,z
x,1/2-y,z
loop_
_atom_site_type_symbol
_atom_site_label
_atom_site_fract_x
_atom_site_fract_y
_atom_site_fract_z
Si Si1 0.077560 0.076542 0.792114
Si Si2 0.078832 0.075308 0.128790
Si Si3 0.075906 0.919246 0.373772
Si Si4 0.578260 0.077833 0.960394
Si Si5 0.581443 0.926794 0.713123
Si Si6 0.422125 0.076212 0.460113
O O1 0.250000 0.053076 0.793436
O O2 0.033999 0.250000 0.786621
O O3 0.011601 0.015361 0.836198
O O4 0.013991 0.983505 0.752562
O O5 0.250000 0.050047 0.137850
O O6 0.037145 0.250000 0.130828
O O7 0.032600 0.010959 0.082505
O O8 0.250000 0.923337 0.374075
O O9 0.015279 0.750000 0.374296
O O10 0.018386 0.000499 0.330708
O O11 0.016031 0.004197 0.415986
O O12 0.750000 0.067082 0.968491
O O13 0.526647 0.250000 0.956090
O O14 0.500000 0.000000 0.000000
O O15 0.750000 0.973252 0.721025
O O16 0.564993 0.750000 0.708764
O O17 0.250000 0.048714 0.464593
O O18 0.462863 0.250000 0.459390
O O19 0.500000 0.000000 0.500000
#
# Coordination Sequence:
#
# PCOD8243314 Si02
#       6
#     8   8   8   8   8   8
#     4  11  24  39  55  79 111 145 180 220 268 320
#     4  10  21  38  60  84 109 141 183 227 269 317
#     4   9  17  31  53  79 106 138 176 218 264 315
#     4  10  21  37  58  84 113 146 183 223 269 319
#     4  10  20  35  57  83 108 137 176 220 266 318
#     4  10  20  34  53  78 108 141 178 221 267 316
#
# _framework density 19.069189999999999
#
# number of rings (size 3 to 8) (size 9 to 14) (size 15 to 20)
#    0.000    2.000    0.000    3.500    0.000   10.000 
#    0.000    0.833    0.000    5.000    0.000    0.000 
#    0.000    0.000    0.000    0.000    0.000    0.000 
#
# Total GULP energy -595388.228921 kJ/mol
# GULP energy per Si atom -12403.921436 kJ/mol
# Density = 1.902579 g / cm^3
# Si number density = 19.069190 Si / 1000 Ang^3
#
#
#
# Elastic Constant Matrix: (Units=GPa)
#
#
# Indices 1 2 3 4 5 6 
#
# 1 39.0263 34.0321 40.6686 0.0000 0.0000 0.0000
# 2 34.0321 92.9430 39.6209 0.0000 0.0000 0.0000
# 3 40.6686 39.6209 140.2025 0.0000 0.0000 0.0000
# 4 0.0000 0.0000 0.0000 46.8335 0.0000 0.0000
# 5 0.0000 0.0000 0.0000 0.0000 32.8840 0.0000
# 6 0.0000 0.0000 0.0000 0.0000 0.0000 27.8273
#
#
#
# Elastic Compliance Matrix: (Units=1/GPa)
#
#
# Indices 1 2 3 4 5 6 
#
# 1 0.047585 -0.013120 -0.010095 0.000000 0.000000 0.000000
# 2 -0.013120 0.015851 -0.000674 0.000000 0.000000 0.000000
# 3 -0.010095 -0.000674 0.010251 0.000000 0.000000 0.000000
# 4 0.000000 0.000000 0.000000 0.021352 0.000000 0.000000
# 5 0.000000 0.000000 0.000000 0.000000 0.030410 0.000000
# 6 0.000000 0.000000 0.000000 0.000000 0.000000 0.035936
#
#
# Mechanical properties :
#
#
# Convention : Reuss Voigt Hill
#
# Bulk Modulus (GPa) = 38.59701 55.64610 47.12156
# Shear Modulus (GPa) = 22.95690 32.03231 27.49460
#
# Velocity S-wave (km/s) = 3.47345 4.10298 3.80127
# Velocity P-wave (km/s) = 6.03083 7.18960 6.63556
#
# Compressibility (1/GPa) = 0.02590874
#
# Stress axis : x y z
#
# Youngs Moduli (GPa) = 21.01495 63.08932 97.54938
#
# Poissons Ratio (x) = 0.82775 0.98479
# Poissons Ratio (y) = 0.27572 0.06570
# Poissons Ratio (z) = 0.21215 0.04249
#
# Static dielectric constant tensor:
#      x y z
#    x 3.233460 0.000000 0.000000 
#    y 0.000000 3.723880 0.000000 
#    z 0.000000 0.000000 3.638970 
# 
# 
# High freq. dielectric constant tensor:
#      x y z
#    x 1.713470 0.000000 0.000000 
#    y 0.000000 1.762540 0.000000 
#    z 0.000000 0.000000 1.761010 
# 
# From -- ./inp_files/32819.got.cif
#   From: 2010.03.12/outbox.cif.g09.slc.cpg/sg59_17_cif.got.tgz:32819.got - 2010.04.16 16:29:54.
