data_PCOD8243612
_publ_section_title
;
Structure prediction by ZEFSAII (Michael W. Deem and Ramdas Pophale) SiO2 
 PCOD8243612
Probable space group: P M M N
;
_chemical_formula_sum "Si O2"
_cell_formula_units_Z 48
_cell_length_a 9.085268
_cell_length_b 17.748828
_cell_length_c 15.257324
_cell_angle_alpha 90.000000
_cell_angle_beta 90.000000
_cell_angle_gamma 90.000000
_cell_volume 2460.287117
_symmetry_space_group_name_H-M "P M M N"
_symmetry_group_IT_number 59
_space_group.IT_coordinate_system_code '2'
_symmetry_cell_setting 'orthorhombic'
loop_
_space_group_symop_operation_xyz
x,y,z
1/2-x,1/2-y,z
1/2+x,-y,-z
-x,1/2+y,-z
-x,-y,-z
1/2+x,1/2+y,-z
1/2-x,y,z
x,1/2-y,z
loop_
_atom_site_type_symbol
_atom_site_label
_atom_site_fract_x
_atom_site_fract_y
_atom_site_fract_z
Si Si1 0.578614 0.079326 0.684055
Si Si2 0.921640 0.578387 0.984657
Si Si3 0.918973 0.337227 0.168259
Si Si4 0.579944 0.922306 0.483862
Si Si5 0.417163 0.097459 0.323994
Si Si6 0.580013 0.837295 0.161938
O O1 0.750000 0.095935 0.673737
O O2 0.496442 0.117302 0.600042
O O3 0.521270 0.116570 0.772375
O O4 0.544306 0.990633 0.687637
O O5 0.750000 0.563094 0.972258
O O6 0.954396 0.634729 0.064281
O O7 0.000000 0.500000 0.000000
O O8 0.982123 0.614433 0.896388
O O9 0.750000 0.362223 0.158954
O O10 0.939280 0.250000 0.146065
O O11 0.972046 0.352934 0.266990
O O12 0.750000 0.937049 0.461886
O O13 0.563959 0.875710 0.574598
O O14 0.500000 0.000000 0.500000
O O15 0.250000 0.112185 0.293173
O O16 0.750000 0.851011 0.186319
O O17 0.537607 0.750000 0.167177
#
# Coordination Sequence:
#
# PCOD8243612 Si02
#       6
#     8   8   8   8   8   8
#     4  10  20  34  55  84 113 143 183 230 279 330
#     4  11  23  40  63  87 111 143 184 230 278 330
#     4  11  24  39  56  82 115 149 185 227 276 330
#     4   9  17  31  53  81 111 144 184 231 278 324
#     4   9  19  35  56  82 110 144 187 230 274 327
#     4  10  22  39  57  79 109 146 185 223 269 327
#
# _framework density 19.509917000000002
#
# number of rings (size 3 to 8) (size 9 to 14) (size 15 to 20)
#    0.000    2.000    0.000    4.500    0.000   10.333 
#    0.000    0.833    0.000    1.000    0.000    0.000 
#    0.000    0.000    0.000    0.000    0.000    0.000 
#
# Total GULP energy -595244.640947 kJ/mol
# GULP energy per Si atom -12400.930020 kJ/mol
# Density = 1.946551 g / cm^3
# Si number density = 19.509917 Si / 1000 Ang^3
#
#
#
# Elastic Constant Matrix: (Units=GPa)
#
#
# Indices 1 2 3 4 5 6 
#
# 1 119.3631 33.5514 56.0720 0.0000 0.0000 0.0000
# 2 33.5514 44.0448 10.7378 0.0000 0.0000 0.0000
# 3 56.0720 10.7378 96.3441 0.0000 0.0000 0.0000
# 4 0.0000 0.0000 0.0000 10.1193 0.0000 0.0000
# 5 0.0000 0.0000 0.0000 0.0000 39.4425 0.0000
# 6 0.0000 0.0000 0.0000 0.0000 0.0000 28.2159
#
#
#
# Elastic Compliance Matrix: (Units=1/GPa)
#
#
# Indices 1 2 3 4 5 6 
#
# 1 0.014423 -0.009190 -0.007370 0.000000 0.000000 0.000000
# 2 -0.009190 0.029194 0.002095 0.000000 0.000000 0.000000
# 3 -0.007370 0.002095 0.014435 0.000000 0.000000 0.000000
# 4 0.000000 0.000000 0.000000 0.098821 0.000000 0.000000
# 5 0.000000 0.000000 0.000000 0.000000 0.025353 0.000000
# 6 0.000000 0.000000 0.000000 0.000000 0.000000 0.035441
#
#
# Mechanical properties :
#
#
# Convention : Reuss Voigt Hill
#
# Bulk Modulus (GPa) = 34.33826 51.16383 42.75104
# Shear Modulus (GPa) = 19.50794 26.18159 22.84477
#
# Velocity S-wave (km/s) = 3.16555 3.66726 3.42560
# Velocity P-wave (km/s) = 5.56772 6.64930 6.13240
#
# Compressibility (1/GPa) = 0.02912204
#
# Stress axis : x y z
#
# Youngs Moduli (GPa) = 69.33293 34.25349 69.27472
#
# Poissons Ratio (x) = 0.31480 0.51055
# Poissons Ratio (y) = 0.63718 -0.14512
# Poissons Ratio (z) = 0.51098 -0.07176
#
# Static dielectric constant tensor:
#      x y z
#    x 4.976470 0.000000 0.000000 
#    y 0.000000 3.319140 0.000000 
#    z 0.000000 0.000000 3.770250 
# 
# 
# High freq. dielectric constant tensor:
#      x y z
#    x 1.771220 0.000000 0.000000 
#    y 0.000000 1.732970 0.000000 
#    z 0.000000 0.000000 1.778850 
# 
# From -- ./inp_files/20288.got.cif
#   From: 2010.03.12/outbox.cif.g09.slc.cpg/sg59_11_cif.got.tgz:20288.got - 2010.04.16 16:29:54.
