data_PCOD8243434
_publ_section_title
;
Structure prediction by ZEFSAII (Michael W. Deem and Ramdas Pophale) SiO2 
 PCOD8243434
Probable space group: P M M N
;
_chemical_formula_sum "Si O2"
_cell_formula_units_Z 48
_cell_length_a 9.289597
_cell_length_b 8.969629
_cell_length_c 31.123042
_cell_angle_alpha 90.000000
_cell_angle_beta 90.000000
_cell_angle_gamma 90.000000
_cell_volume 2593.303779
_symmetry_space_group_name_H-M "P M M N"
_symmetry_group_IT_number 59
_space_group.IT_coordinate_system_code '2'
_symmetry_cell_setting 'orthorhombic'
loop_
_space_group_symop_operation_xyz
x,y,z
1/2-x,1/2-y,z
1/2+x,-y,-z
-x,1/2+y,-z
-x,-y,-z
1/2+x,1/2+y,-z
1/2-x,y,z
x,1/2-y,z
loop_
_atom_site_type_symbol
_atom_site_label
_atom_site_fract_x
_atom_site_fract_y
_atom_site_fract_z
Si Si1 0.918383 0.923389 0.615451
Si Si2 0.920729 0.084328 0.700486
Si Si3 0.089835 0.927600 0.206149
Si Si4 0.581972 0.076546 0.038552
Si Si5 0.082576 0.423022 0.875018
Si Si6 0.917128 0.926048 0.460879
O O1 0.750000 0.958872 0.607750
O O2 0.950802 0.750000 0.608768
O O3 0.967758 0.970426 0.663270
O O4 0.013367 0.018470 0.583085
O O5 0.750000 0.095070 0.703528
O O6 0.982786 0.250000 0.690377
O O7 0.975222 0.024742 0.747137
O O8 0.250000 0.992889 0.199793
O O9 0.093522 0.750000 0.205146
O O10 0.992825 0.989756 0.167448
O O11 0.750000 0.042036 0.033116
O O12 0.547350 0.250000 0.037985
O O13 0.524524 0.009981 0.083405
O O14 0.500000 0.000000 0.000000
O O15 0.250000 0.450813 0.868382
O O16 0.045464 0.250000 0.881716
O O17 0.750000 0.972741 0.462482
O O18 0.935350 0.750000 0.464336
O O19 0.000000 0.000000 0.500000
#
# Coordination Sequence:
#
# PCOD8243434 Si02
#       6
#     8   8   8   8   8   8
#     4  10  20  34  54  80 108 139 175 213 255 303
#     4   8  14  27  48  72  99 133 171 210 251 293
#     4   8  14  26  46  71  97 128 168 208 244 289
#     4  10  21  36  53  73  98 129 165 206 252 302
#     4   9  17  30  48  70  97 128 161 201 250 299
#     4  11  24  40  58  81 107 136 172 212 255 305
#
# _framework density 18.509208000000001
#
# number of rings (size 3 to 8) (size 9 to 14) (size 15 to 20)
#    0.000    2.667    0.000    3.000    0.000    6.000 
#    0.000    3.333    0.000    4.000    0.000    0.000 
#    0.000    0.000    0.000    0.000    0.000    0.000 
#
# Total GULP energy -595087.098806 kJ/mol
# GULP energy per Si atom -12397.647892 kJ/mol
# Density = 1.846708 g / cm^3
# Si number density = 18.509208 Si / 1000 Ang^3
#
#
#
# Elastic Constant Matrix: (Units=GPa)
#
#
# Indices 1 2 3 4 5 6 
#
# 1 69.5484 43.3043 69.4330 0.0000 0.0000 0.0000
# 2 43.3043 65.8401 55.9739 0.0000 0.0000 0.0000
# 3 69.4330 55.9739 184.7885 0.0000 0.0000 0.0000
# 4 0.0000 0.0000 0.0000 33.0709 0.0000 0.0000
# 5 0.0000 0.0000 0.0000 0.0000 33.0263 0.0000
# 6 0.0000 0.0000 0.0000 0.0000 0.0000 20.8700
#
#
#
# Elastic Compliance Matrix: (Units=1/GPa)
#
#
# Indices 1 2 3 4 5 6 
#
# 1 0.030019 -0.013677 -0.007137 0.000000 0.000000 0.000000
# 2 -0.013677 0.026687 -0.002945 0.000000 0.000000 0.000000
# 3 -0.007137 -0.002945 0.008985 0.000000 0.000000 0.000000
# 4 0.000000 0.000000 0.000000 0.030238 0.000000 0.000000
# 5 0.000000 0.000000 0.000000 0.000000 0.030279 0.000000
# 6 0.000000 0.000000 0.000000 0.000000 0.000000 0.047916
#
#
# Mechanical properties :
#
#
# Convention : Reuss Voigt Hill
#
# Bulk Modulus (GPa) = 55.02081 73.06659 64.04370
# Shear Modulus (GPa) = 21.95873 27.49115 24.72494
#
# Velocity S-wave (km/s) = 3.44811 3.85810 3.65885
# Velocity P-wave (km/s) = 6.75598 7.70766 7.24746
#
# Compressibility (1/GPa) = 0.01817494
#
# Stress axis : x y z
#
# Youngs Moduli (GPa) = 33.31187 37.47073 111.29474
#
# Poissons Ratio (x) = 0.51249 0.79427
# Poissons Ratio (y) = 0.45561 0.32774
# Poissons Ratio (z) = 0.23774 0.11034
#
# Static dielectric constant tensor:
#      x y z
#    x 3.292740 0.000000 0.000000 
#    y 0.000000 3.269380 0.000000 
#    z 0.000000 0.000000 3.913850 
# 
# 
# High freq. dielectric constant tensor:
#      x y z
#    x 1.693090 0.000000 0.000000 
#    y 0.000000 1.701500 0.000000 
#    z 0.000000 0.000000 1.739700 
# 
# From -- ./inp_files/32895.got.cif
#   From: 2010.03.12/outbox.cif.g09.slc.cpg/sg59_17_cif.got.tgz:32895.got - 2010.04.16 16:29:54.
