data_PCOD8243024
_publ_section_title
;
Structure prediction by ZEFSAII (Michael W. Deem and Ramdas Pophale) SiO2 
 PCOD8243024
Probable space group: P M M N
;
_chemical_formula_sum "Si O2"
_cell_formula_units_Z 56
_cell_length_a 8.763961
_cell_length_b 23.082925
_cell_length_c 15.251481
_cell_angle_alpha 90.000000
_cell_angle_beta 90.000000
_cell_angle_gamma 90.000000
_cell_volume 3085.341884
_symmetry_space_group_name_H-M "P M M N"
_symmetry_group_IT_number 59
_space_group.IT_coordinate_system_code '2'
_symmetry_cell_setting 'orthorhombic'
loop_
_space_group_symop_operation_xyz
x,y,z
1/2-x,1/2-y,z
1/2+x,-y,-z
-x,1/2+y,-z
-x,-y,-z
1/2+x,1/2+y,-z
1/2-x,y,z
x,1/2-y,z
loop_
_atom_site_type_symbol
_atom_site_label
_atom_site_fract_x
_atom_site_fract_y
_atom_site_fract_z
Si Si1 0.570502 0.683129 0.322919
Si Si2 0.571837 0.119677 0.835771
Si Si3 0.574184 0.683659 0.010589
Si Si4 0.070297 0.496312 0.903832
Si Si5 0.571337 0.610055 0.842850
Si Si6 0.925746 0.182330 0.308191
Si Si7 0.418050 0.318528 0.482458
O O1 0.750000 0.675700 0.304368
O O2 0.522854 0.750000 0.309095
O O3 0.472866 0.642893 0.259396
O O4 0.528773 0.660941 0.421063
O O5 0.750000 0.105929 0.839323
O O6 0.530158 0.168441 0.906873
O O7 0.479095 0.061757 0.855385
O O8 0.750000 0.671441 0.035177
O O9 0.547971 0.750000 0.984718
O O10 0.521333 0.645905 0.928201
O O11 0.250000 0.496957 0.914685
O O12 0.017574 0.549587 0.843525
O O13 0.000000 0.500000 0.000000
O O14 0.750000 0.597427 0.842687
O O15 0.529505 0.646102 0.757173
O O16 0.750000 0.169292 0.289002
O O17 0.964647 0.250000 0.295985
O O18 0.964134 0.161822 0.407284
O O19 0.250000 0.343926 0.460540
O O20 0.406138 0.250000 0.486665
#
# Coordination Sequence:
#
# PCOD8243024 Si02
#       7
#     8   8   8   8   8   8   8
#     4   9  18  34  56  82 113 148 185 227 276 328
#     4  12  24  36  54  80 110 146 184 226 272 324
#     4  10  21  36  54  77 108 145 180 220 272 324
#     4  12  24  41  61  80 104 140 186 232 275 324
#     4  11  22  37  58  81 107 144 186 229 273 323
#     4  10  20  33  52  82 118 151 183 224 273 325
#     4   8  15  30  53  79 108 145 186 225 269 325
#
# _framework density 18.15034
#
# number of rings (size 3 to 8) (size 9 to 14) (size 15 to 20)
#    0.000    1.714    1.429    5.143    0.000    4.857 
#    0.000    1.429    0.000    0.857    0.000    0.000 
#    0.000    0.000    0.000    0.000    0.000    0.000 
#
# Total GULP energy -694539.351515 kJ/mol
# GULP energy per Si atom -12402.488420 kJ/mol
# Density = 1.810903 g / cm^3
# Si number density = 18.150340 Si / 1000 Ang^3
#
#
#
# Elastic Constant Matrix: (Units=GPa)
#
#
# Indices 1 2 3 4 5 6 
#
# 1 96.7628 35.2322 40.0598 0.0000 0.0000 0.0000
# 2 35.2322 77.2420 32.6720 0.0000 0.0000 0.0000
# 3 40.0598 32.6720 110.5362 0.0000 0.0000 0.0000
# 4 0.0000 0.0000 0.0000 10.4483 0.0000 0.0000
# 5 0.0000 0.0000 0.0000 0.0000 29.6234 0.0000
# 6 0.0000 0.0000 0.0000 0.0000 0.0000 27.7087
#
#
#
# Elastic Compliance Matrix: (Units=1/GPa)
#
#
# Indices 1 2 3 4 5 6 
#
# 1 0.013486 -0.004668 -0.003508 0.000000 0.000000 0.000000
# 2 -0.004668 0.016412 -0.003159 0.000000 0.000000 0.000000
# 3 -0.003508 -0.003159 0.011252 0.000000 0.000000 0.000000
# 4 0.000000 0.000000 0.000000 0.095710 0.000000 0.000000
# 5 0.000000 0.000000 0.000000 0.000000 0.033757 0.000000
# 6 0.000000 0.000000 0.000000 0.000000 0.000000 0.036090
#
#
# Mechanical properties :
#
#
# Convention : Reuss Voigt Hill
#
# Bulk Modulus (GPa) = 54.11219 55.60766 54.85992
# Shear Modulus (GPa) = 21.22813 25.32788 23.27800
#
# Velocity S-wave (km/s) = 3.42361 3.73962 3.58510
# Velocity P-wave (km/s) = 6.74583 7.02497 6.88681
#
# Compressibility (1/GPa) = 0.01848013
#
# Stress axis : x y z
#
# Youngs Moduli (GPa) = 74.14876 60.93206 88.87331
#
# Poissons Ratio (x) = 0.28441 0.31177
# Poissons Ratio (y) = 0.34610 0.28078
# Poissons Ratio (z) = 0.26011 0.19250
#
# Static dielectric constant tensor:
#      x y z
#    x 3.397740 0.000000 0.000000 
#    y 0.000000 3.330820 0.000000 
#    z 0.000000 0.000000 3.532820 
# 
# 
# High freq. dielectric constant tensor:
#      x y z
#    x 1.707010 0.000000 0.000000 
#    y 0.000000 1.682700 0.000000 
#    z 0.000000 0.000000 1.708070 
# 
# From -- ./inp_files/21083.got.cif
#   From: 2010.03.12/outbox.cif.g09.slc.cpg/sg59_11_cif.got.tgz:21083.got - 2010.04.16 16:29:54.
