data_PCOD8243553
_publ_section_title
;
Structure prediction by ZEFSAII (Michael W. Deem and Ramdas Pophale) SiO2 
 PCOD8243553
Probable space group: P M M N
;
_chemical_formula_sum "Si O2"
_cell_formula_units_Z 64
_cell_length_a 9.517979
_cell_length_b 28.654382
_cell_length_c 12.411911
_cell_angle_alpha 90.000000
_cell_angle_beta 90.000000
_cell_angle_gamma 90.000000
_cell_volume 3385.122905
_symmetry_space_group_name_H-M "P M M N"
_symmetry_group_IT_number 59
_space_group.IT_coordinate_system_code '2'
_symmetry_cell_setting 'orthorhombic'
loop_
_space_group_symop_operation_xyz
x,y,z
1/2-x,1/2-y,z
1/2+x,-y,-z
-x,1/2+y,-z
-x,-y,-z
1/2+x,1/2+y,-z
1/2-x,y,z
x,1/2-y,z
loop_
_atom_site_type_symbol
_atom_site_label
_atom_site_fract_x
_atom_site_fract_y
_atom_site_fract_z
Si Si1 0.908627 0.669951 0.498798
Si Si2 0.905839 0.937816 0.522773
Si Si3 0.911051 0.197926 0.306969
Si Si4 0.412380 0.999025 0.668087
Si Si5 0.416720 0.801759 0.064428
Si Si6 0.415951 0.976030 0.903478
Si Si7 0.583293 0.368863 0.118347
Si Si8 0.592982 0.304948 0.694902
O O1 0.750000 0.689748 0.492494
O O2 0.908602 0.616819 0.533166
O O3 0.996444 0.698924 0.585418
O O4 0.979869 0.672275 0.382792
O O5 0.750000 0.957522 0.546432
O O6 0.008910 0.955741 0.614427
O O7 0.949273 0.954649 0.401445
O O8 0.750000 0.187059 0.338975
O O9 0.921308 0.250000 0.254948
O O10 0.969260 0.158536 0.225034
O O11 0.250000 0.985469 0.663898
O O12 0.454763 0.004218 0.793765
O O13 0.250000 0.799071 0.054072
O O14 0.478236 0.750000 0.038957
O O15 0.457449 0.817541 0.184741
O O16 0.479447 0.840339 0.983295
O O17 0.250000 0.978087 0.929384
O O18 0.467658 0.922434 0.887084
O O19 0.500000 0.000000 0.000000
O O20 0.750000 0.367035 0.116191
O O21 0.750000 0.324895 0.672769
O O22 0.595413 0.250000 0.677871
#
# Coordination Sequence:
#
# PCOD8243553 Si02
#       8
#     8   8   8   8   8   8   8   8
#     4  11  22  33  47  71 104 137 167 202 247 299
#     4   9  19  34  52  74  98 128 167 209 251 297
#     4  10  20  34  55  81 106 134 170 211 254 305
#     4   9  18  35  55  73  97 129 166 209 255 299
#     4   8  14  27  49  75 100 125 158 205 255 298
#     4  10  21  35  52  75 104 136 168 207 255 305
#     4   9  17  31  52  78 104 129 163 208 257 306
#     4   9  18  32  49  69  94 126 164 203 240 282
#
# _framework density 18.906255999999999
#
# number of rings (size 3 to 8) (size 9 to 14) (size 15 to 20)
#    0.000    2.625    0.000    2.625    0.000    7.000 
#    0.000    0.625    0.000    0.750    0.000    1.750 
#    0.000    0.000    0.000    0.000    0.000    0.000 
#
# Total GULP energy -793311.310707 kJ/mol
# GULP energy per Si atom -12395.489230 kJ/mol
# Density = 1.886322 g / cm^3
# Si number density = 18.906256 Si / 1000 Ang^3
#
#
#
# Elastic Constant Matrix: (Units=GPa)
#
#
# Indices 1 2 3 4 5 6 
#
# 1 58.5969 19.8846 44.3396 0.0000 0.0000 0.0000
# 2 19.8846 68.0647 31.5717 0.0000 0.0000 0.0000
# 3 44.3396 31.5717 124.0041 0.0000 0.0000 0.0000
# 4 0.0000 0.0000 0.0000 26.0457 0.0000 0.0000
# 5 0.0000 0.0000 0.0000 0.0000 17.9207 0.0000
# 6 0.0000 0.0000 0.0000 0.0000 0.0000 17.5494
#
#
#
# Elastic Compliance Matrix: (Units=1/GPa)
#
#
# Indices 1 2 3 4 5 6 
#
# 1 0.024090 -0.003450 -0.007735 0.000000 0.000000 0.000000
# 2 -0.003450 0.017153 -0.003134 0.000000 0.000000 0.000000
# 3 -0.007735 -0.003134 0.011628 0.000000 0.000000 0.000000
# 4 0.000000 0.000000 0.000000 0.038394 0.000000 0.000000
# 5 0.000000 0.000000 0.000000 0.000000 0.055801 0.000000
# 6 0.000000 0.000000 0.000000 0.000000 0.000000 0.056982
#
#
# Mechanical properties :
#
#
# Convention : Reuss Voigt Hill
#
# Bulk Modulus (GPa) = 41.26530 49.13971 45.20251
# Shear Modulus (GPa) = 20.76727 22.62782 21.69754
#
# Velocity S-wave (km/s) = 3.31786 3.46330 3.39136
# Velocity P-wave (km/s) = 6.04576 6.48384 6.26863
#
# Compressibility (1/GPa) = 0.02423344
#
# Stress axis : x y z
#
# Youngs Moduli (GPa) = 41.51168 58.29787 85.99923
#
# Poissons Ratio (x) = 0.20110 0.66523
# Poissons Ratio (y) = 0.14320 0.26950
# Poissons Ratio (z) = 0.32111 0.18269
#
# Static dielectric constant tensor:
#      x y z
#    x 3.338320 0.000000 0.000000 
#    y 0.000000 3.510600 0.000000 
#    z 0.000000 0.000000 3.683020 
# 
# 
# High freq. dielectric constant tensor:
#      x y z
#    x 1.701260 0.000000 0.000000 
#    y 0.000000 1.730620 0.000000 
#    z 0.000000 0.000000 1.742240 
# 
# From -- ./inp_files/14992.got.cif
#   From: 2010.03.12/outbox.cif.g09.slc.cpg/sg59_8_cif.got.tgz:14992.got - 2010.04.16 16:29:54.
