data_PCOD8243462
_publ_section_title
;
Structure prediction by ZEFSAII (Michael W. Deem and Ramdas Pophale) SiO2 
 PCOD8243462
Probable space group: P M M N
;
_chemical_formula_sum "Si O2"
_cell_formula_units_Z 40
_cell_length_a 10.272019
_cell_length_b 7.649074
_cell_length_c 27.893256
_cell_angle_alpha 90.000000
_cell_angle_beta 90.000000
_cell_angle_gamma 90.000000
_cell_volume 2191.613108
_symmetry_space_group_name_H-M "P M M N"
_symmetry_group_IT_number 59
_space_group.IT_coordinate_system_code '2'
_symmetry_cell_setting 'orthorhombic'
loop_
_space_group_symop_operation_xyz
x,y,z
1/2-x,1/2-y,z
1/2+x,-y,-z
-x,1/2+y,-z
-x,-y,-z
1/2+x,1/2+y,-z
1/2-x,y,z
x,1/2-y,z
loop_
_atom_site_type_symbol
_atom_site_label
_atom_site_fract_x
_atom_site_fract_y
_atom_site_fract_z
Si Si1 0.595610 0.944124 0.855553
Si Si2 0.750000 0.951740 0.540789
Si Si3 0.984609 0.542262 0.610068
Si Si4 0.404526 0.750000 0.319428
Si Si5 0.750000 0.053661 0.434027
Si Si6 0.606952 0.954600 0.961099
Si Si7 0.405283 0.750000 0.210737
O O1 0.750000 0.932631 0.851576
O O2 0.535948 0.750000 0.846591
O O3 0.559822 0.018853 0.908559
O O4 0.539374 0.077488 0.815949
O O5 0.750000 0.750000 0.527068
O O6 0.623470 0.004119 0.570727
O O7 0.750000 0.054936 0.491312
O O8 0.982243 0.750000 0.622494
O O9 0.957554 0.428856 0.657236
O O10 0.119634 0.469910 0.587948
O O11 0.250000 0.750000 0.322259
O O12 0.455899 0.750000 0.265047
O O13 0.750000 0.250000 0.415837
O O14 0.750000 0.035545 0.974194
O O15 0.624018 0.750000 0.957412
O O16 0.500000 0.000000 0.000000
O O17 0.250000 0.750000 0.208832
#
# Coordination Sequence:
#
# PCOD8243462 Si02
#       7
#     8   4   8   4   4   8   4
#     4   8  15  29  46  69 106 135 169 221 263 313
#     4  10  20  34  54  80 112 144 170 209 271 315
#     4  10  22  38  53  80 112 140 176 220 263 317
#     4  11  22  35  57  79 109 143 175 227 282 311
#     4  10  22  36  56  80 106 146 182 213 255 315
#     4   9  18  30  46  74 107 142 176 212 263 313
#     4   9  18  30  49  79  97 133 181 217 274 319
#
# _framework density 18.251394999999999
#
# number of rings (size 3 to 8) (size 9 to 14) (size 15 to 20)
#    0.000    2.600    1.000    1.800    4.200    1.200 
#    0.000    2.000    0.000    0.000    5.200    0.000 
#    0.000    0.000    0.000    0.000    0.000    0.000 
#
# Total GULP energy -495751.610138 kJ/mol
# GULP energy per Si atom -12393.790253 kJ/mol
# Density = 1.820985 g / cm^3
# Si number density = 18.251395 Si / 1000 Ang^3
#
#
#
# Elastic Constant Matrix: (Units=GPa)
#
#
# Indices 1 2 3 4 5 6 
#
# 1 101.2502 27.3923 60.8052 0.0000 0.0000 0.0000
# 2 27.3923 82.2450 64.1878 0.0000 0.0000 0.0000
# 3 60.8052 64.1878 166.3876 0.0000 0.0000 0.0000
# 4 0.0000 0.0000 0.0000 22.1702 0.0000 0.0000
# 5 0.0000 0.0000 0.0000 0.0000 16.0330 0.0000
# 6 0.0000 0.0000 0.0000 0.0000 0.0000 9.6420
#
#
#
# Elastic Compliance Matrix: (Units=1/GPa)
#
#
# Indices 1 2 3 4 5 6 
#
# 1 0.012697 -0.000869 -0.004305 0.000000 0.000000 0.000000
# 2 -0.000869 0.017456 -0.006416 0.000000 0.000000 0.000000
# 3 -0.004305 -0.006416 0.010058 0.000000 0.000000 0.000000
# 4 0.000000 0.000000 0.000000 0.045105 0.000000 0.000000
# 5 0.000000 0.000000 0.000000 0.000000 0.062371 0.000000
# 6 0.000000 0.000000 0.000000 0.000000 0.000000 0.103712
#
#
# Mechanical properties :
#
#
# Convention : Reuss Voigt Hill
#
# Bulk Modulus (GPa) = 58.71750 72.73929 65.72840
# Shear Modulus (GPa) = 17.84073 22.73557 20.28815
#
# Velocity S-wave (km/s) = 3.12989 3.53326 3.33768
# Velocity P-wave (km/s) = 6.73075 7.52236 7.13754
#
# Compressibility (1/GPa) = 0.01703070
#
# Stress axis : x y z
#
# Youngs Moduli (GPa) = 78.75991 57.28714 99.41910
#
# Poissons Ratio (x) = 0.04979 0.42796
# Poissons Ratio (y) = 0.06846 0.63791
# Poissons Ratio (z) = 0.33903 0.36758
#
# Static dielectric constant tensor:
#      x y z
#    x 3.174940 0.000000 0.000000 
#    y 0.000000 3.576850 0.000000 
#    z 0.000000 0.000000 3.735890 
# 
# 
# High freq. dielectric constant tensor:
#      x y z
#    x 1.673460 0.000000 0.000000 
#    y 0.000000 1.713700 0.000000 
#    z 0.000000 0.000000 1.700640 
# 
# From -- ./inp_files/32456.got.cif
#   From: 2010.03.12/outbox.cif.g09.slc.cpg/sg59_17_cif.got.tgz:32456.got - 2010.04.16 16:29:54.
