data_PCOD8243062
_publ_section_title
;
Structure prediction by ZEFSAII (Michael W. Deem and Ramdas Pophale) SiO2 
 PCOD8243062
Probable space group: P M M N
;
_chemical_formula_sum "Si O2"
_cell_formula_units_Z 64
_cell_length_a 18.578237
_cell_length_b 9.208765
_cell_length_c 19.538699
_cell_angle_alpha 90.000000
_cell_angle_beta 90.000000
_cell_angle_gamma 90.000000
_cell_volume 3342.731790
_symmetry_space_group_name_H-M "P M M N"
_symmetry_group_IT_number 59
_space_group.IT_coordinate_system_code '2'
_symmetry_cell_setting 'orthorhombic'
loop_
_space_group_symop_operation_xyz
x,y,z
1/2-x,1/2-y,z
1/2+x,-y,-z
-x,1/2+y,-z
-x,-y,-z
1/2+x,1/2+y,-z
1/2-x,y,z
x,1/2-y,z
loop_
_atom_site_type_symbol
_atom_site_label
_atom_site_fract_x
_atom_site_fract_y
_atom_site_fract_z
Si Si1 0.058871 0.579424 0.799369
Si Si2 0.666901 0.082225 0.978010
Si Si3 0.558546 0.419330 0.359327
Si Si4 0.833144 0.084082 0.713350
Si Si5 0.332994 0.421544 0.549550
Si Si6 0.903938 0.921186 0.591462
Si Si7 0.665293 0.583990 0.112959
Si Si8 0.577712 0.420530 0.844931
O O1 0.062634 0.750000 0.812638
O O2 0.046971 0.542650 0.719920
O O3 0.132398 0.505044 0.823878
O O4 0.995428 0.511178 0.844584
O O5 0.750000 0.051843 0.960353
O O6 0.654813 0.250000 0.997239
O O7 0.620776 0.035681 0.912657
O O8 0.640248 0.985712 0.041354
O O9 0.573317 0.250000 0.370421
O O10 0.627837 0.505408 0.386171
O O11 0.486830 0.470736 0.399667
O O12 0.750000 0.063300 0.730538
O O13 0.851788 0.250000 0.695659
O O14 0.875781 0.030894 0.779795
O O15 0.853534 0.988220 0.648848
O O16 0.250000 0.472452 0.546988
O O17 0.338250 0.250000 0.558147
O O18 0.374022 0.474726 0.481365
O O19 0.897365 0.750000 0.599446
O O20 0.750000 0.571623 0.121795
O O21 0.638813 0.750000 0.114765
O O22 0.560429 0.250000 0.843196
#
# Coordination Sequence:
#
# PCOD8243062 Si02
#       8
#     8   8   8   8   8   8   8   8
#     4  11  23  39  59  84 114 148 191 236 282 339
#     4   9  18  35  59  85 115 152 191 233 283 336
#     4  10  22  39  59  83 112 148 190 235 282 335
#     4  10  20  33  53  84 118 152 190 229 273 328
#     4  10  22  38  58  85 114 147 188 233 284 341
#     4  10  20  38  59  82 114 150 188 230 279 336
#     4  10  22  40  61  85 112 145 189 238 287 340
#     4  10  20  35  56  83 117 153 189 231 280 333
#
# _framework density 19.146018000000002
#
# number of rings (size 3 to 8) (size 9 to 14) (size 15 to 20)
#    0.000    2.000    1.250    1.875    0.000    6.750 
#    0.000    2.500    0.000    2.250    0.000    0.000 
#    0.000    0.000    0.000    0.000    0.000    0.000 
#
# Total GULP energy -793902.040258 kJ/mol
# GULP energy per Si atom -12404.719379 kJ/mol
# Density = 1.910244 g / cm^3
# Si number density = 19.146018 Si / 1000 Ang^3
#
#
#
# Elastic Constant Matrix: (Units=GPa)
#
#
# Indices 1 2 3 4 5 6 
#
# 1 93.2866 40.3659 52.0492 0.0000 0.0000 0.0000
# 2 40.3659 62.0761 43.4441 0.0000 0.0000 0.0000
# 3 52.0492 43.4441 80.4828 0.0000 0.0000 0.0000
# 4 0.0000 0.0000 0.0000 29.7530 0.0000 0.0000
# 5 0.0000 0.0000 0.0000 0.0000 40.3648 0.0000
# 6 0.0000 0.0000 0.0000 0.0000 0.0000 31.7164
#
#
#
# Elastic Compliance Matrix: (Units=1/GPa)
#
#
# Indices 1 2 3 4 5 6 
#
# 1 0.017944 -0.005700 -0.008528 0.000000 0.000000 0.000000
# 2 -0.005700 0.027701 -0.011266 0.000000 0.000000 0.000000
# 3 -0.008528 -0.011266 0.024021 0.000000 0.000000 0.000000
# 4 0.000000 0.000000 0.000000 0.033610 0.000000 0.000000
# 5 0.000000 0.000000 0.000000 0.000000 0.024774 0.000000
# 6 0.000000 0.000000 0.000000 0.000000 0.000000 0.031529
#
#
# Mechanical properties :
#
#
# Convention : Reuss Voigt Hill
#
# Bulk Modulus (GPa) = 53.53946 56.39598 54.96772
# Shear Modulus (GPa) = 23.06330 27.03259 25.04795
#
# Velocity S-wave (km/s) = 3.47450 3.76162 3.62091
# Velocity P-wave (km/s) = 6.64234 6.95601 6.80098
#
# Compressibility (1/GPa) = 0.01867781
#
# Stress axis : x y z
#
# Youngs Moduli (GPa) = 55.72794 36.10019 41.62946
#
# Poissons Ratio (x) = 0.20578 0.35501
# Poissons Ratio (y) = 0.31767 0.46900
# Poissons Ratio (z) = 0.47524 0.40671
#
# Static dielectric constant tensor:
#      x y z
#    x 3.546300 0.000000 0.000000 
#    y 0.000000 3.446140 0.000000 
#    z 0.000000 0.000000 3.528470 
# 
# 
# High freq. dielectric constant tensor:
#      x y z
#    x 1.751570 0.000000 0.000000 
#    y 0.000000 1.739340 0.000000 
#    z 0.000000 0.000000 1.748950 
# 
# From -- ./inp_files/28247.got.cif
#   From: 2010.03.12/outbox.cif.g09.slc.cpg/sg59_15_cif.got.tgz:28247.got - 2010.04.16 16:29:54.
