data_PCOD8243072
_publ_section_title
;
Structure prediction by ZEFSAII (Michael W. Deem and Ramdas Pophale) SiO2 
 PCOD8243072
Probable space group: P M M N
;
_chemical_formula_sum "Si O2"
_cell_formula_units_Z 64
_cell_length_a 13.467849
_cell_length_b 18.797737
_cell_length_c 13.206883
_cell_angle_alpha 90.000000
_cell_angle_beta 90.000000
_cell_angle_gamma 90.000000
_cell_volume 3343.521637
_symmetry_space_group_name_H-M "P M M N"
_symmetry_group_IT_number 59
_space_group.IT_coordinate_system_code '2'
_symmetry_cell_setting 'orthorhombic'
loop_
_space_group_symop_operation_xyz
x,y,z
1/2-x,1/2-y,z
1/2+x,-y,-z
-x,1/2+y,-z
-x,-y,-z
1/2+x,1/2+y,-z
1/2-x,y,z
x,1/2-y,z
loop_
_atom_site_type_symbol
_atom_site_label
_atom_site_fract_x
_atom_site_fract_y
_atom_site_fract_z
Si Si1 0.867336 0.169350 0.941859
Si Si2 0.633261 0.400498 0.357180
Si Si3 0.632026 0.109784 0.732952
Si Si4 0.363042 0.466231 0.350742
Si Si5 0.560597 0.330882 0.152094
Si Si6 0.362618 0.328439 0.244798
Si Si7 0.636129 0.948020 0.421910
Si Si8 0.974190 0.167983 0.549667
O O1 0.750000 0.164434 0.941039
O O2 0.905237 0.250000 0.937313
O O3 0.911789 0.131137 0.842441
O O4 0.906672 0.133324 0.045837
O O5 0.750000 0.392486 0.380838
O O6 0.608973 0.370640 0.246758
O O7 0.603116 0.484655 0.352837
O O8 0.573629 0.359922 0.445374
O O9 0.750000 0.109740 0.735579
O O10 0.602090 0.163724 0.643467
O O11 0.586845 0.031229 0.709900
O O12 0.250000 0.463932 0.316974
O O13 0.403848 0.387227 0.324578
O O14 0.376468 0.482619 0.467574
O O15 0.600410 0.250000 0.156791
O O16 0.439953 0.332577 0.152306
O O17 0.250000 0.342365 0.206145
O O18 0.368933 0.250000 0.296669
O O19 0.750000 0.924911 0.401074
O O20 0.569425 0.877943 0.413454
O O21 0.005835 0.250000 0.533901
#
# Coordination Sequence:
#
# PCOD8243072 Si02
#       8
#     8   8   8   8   8   8   8   8
#     4   9  18  34  54  76 108 146 180 218 268 330
#     4  11  22  36  55  82 116 148 177 219 279 341
#     4  10  20  35  56  83 112 143 179 224 277 328
#     4   9  17  32  54  77 105 142 180 220 267 318
#     4  10  20  33  54  83 112 144 180 222 275 332
#     4   9  18  32  52  78 107 141 182 229 274 317
#     4  10  22  39  56  76 109 153 190 224 270 325
#     4  12  24  35  56  86 112 144 185 230 276 326
#
# _framework density 19.141494000000002
#
# number of rings (size 3 to 8) (size 9 to 14) (size 15 to 20)
#    0.000    2.000    1.250    2.625    1.750    4.500 
#    0.000    1.875    0.000    0.750    0.000    1.750 
#    0.000    0.000    0.000    0.000    0.000    0.000 
#
# Total GULP energy -793085.620584 kJ/mol
# GULP energy per Si atom -12391.962822 kJ/mol
# Density = 1.909793 g / cm^3
# Si number density = 19.141494 Si / 1000 Ang^3
#
#
#
# Elastic Constant Matrix: (Units=GPa)
#
#
# Indices 1 2 3 4 5 6 
#
# 1 44.7433 42.7362 29.7945 0.0000 0.0000 0.0000
# 2 42.7362 120.2817 42.7517 0.0000 0.0000 0.0000
# 3 29.7945 42.7517 113.9674 0.0000 0.0000 0.0000
# 4 0.0000 0.0000 0.0000 21.7172 0.0000 0.0000
# 5 0.0000 0.0000 0.0000 0.0000 20.1801 0.0000
# 6 0.0000 0.0000 0.0000 0.0000 0.0000 23.3467
#
#
#
# Elastic Compliance Matrix: (Units=1/GPa)
#
#
# Indices 1 2 3 4 5 6 
#
# 1 0.036497 -0.011049 -0.005397 0.000000 0.000000 0.000000
# 2 -0.011049 0.012938 -0.001965 0.000000 0.000000 0.000000
# 3 -0.005397 -0.001965 0.010922 0.000000 0.000000 0.000000
# 4 0.000000 0.000000 0.000000 0.046046 0.000000 0.000000
# 5 0.000000 0.000000 0.000000 0.000000 0.049554 0.000000
# 6 0.000000 0.000000 0.000000 0.000000 0.000000 0.042833
#
#
# Mechanical properties :
#
#
# Convention : Reuss Voigt Hill
#
# Bulk Modulus (GPa) = 42.48804 56.61745 49.55274
# Shear Modulus (GPa) = 20.53756 23.96280 22.25018
#
# Velocity S-wave (km/s) = 3.27912 3.54203 3.41311
# Velocity P-wave (km/s) = 6.04829 6.80959 6.44020
#
# Compressibility (1/GPa) = 0.02353604
#
# Stress axis : x y z
#
# Youngs Moduli (GPa) = 27.39959 77.29202 91.55609
#
# Poissons Ratio (x) = 0.85402 0.49409
# Poissons Ratio (y) = 0.30275 0.17988
# Poissons Ratio (z) = 0.14786 0.15185
#
# Static dielectric constant tensor:
#      x y z
#    x 3.629320 0.000000 0.000000 
#    y 0.000000 3.781150 0.000000 
#    z 0.000000 0.000000 3.478750 
# 
# 
# High freq. dielectric constant tensor:
#      x y z
#    x 1.746030 0.000000 0.000000 
#    y 0.000000 1.745560 0.000000 
#    z 0.000000 0.000000 1.720100 
# 
# From -- ./inp_files/17189.got.cif
#   From: 2010.03.12/outbox.cif.g09.slc.cpg/sg59_9_cif.got.tgz:17189.got - 2010.04.16 16:29:54.
