data_PCOD8243691
_publ_section_title
;
Structure prediction by ZEFSAII (Michael W. Deem and Ramdas Pophale) SiO2 
 PCOD8243691
Probable space group: P M M N
;
_chemical_formula_sum "Si O2"
_cell_formula_units_Z 64
_cell_length_a 18.279077
_cell_length_b 8.924183
_cell_length_c 21.030569
_cell_angle_alpha 90.000000
_cell_angle_beta 90.000000
_cell_angle_gamma 90.000000
_cell_volume 3430.628986
_symmetry_space_group_name_H-M "P M M N"
_symmetry_group_IT_number 59
_space_group.IT_coordinate_system_code '2'
_symmetry_cell_setting 'orthorhombic'
loop_
_space_group_symop_operation_xyz
x,y,z
1/2-x,1/2-y,z
1/2+x,-y,-z
-x,1/2+y,-z
-x,-y,-z
1/2+x,1/2+y,-z
1/2-x,y,z
x,1/2-y,z
loop_
_atom_site_type_symbol
_atom_site_label
_atom_site_fract_x
_atom_site_fract_y
_atom_site_fract_z
Si Si1 0.034791 0.074974 0.939199
Si Si2 0.165934 0.424988 0.258847
Si Si3 0.334880 0.423873 0.628513
Si Si4 0.167070 0.924160 0.880895
Si Si5 0.039199 0.573958 0.192798
Si Si6 0.578652 0.573592 0.497677
Si Si7 0.835767 0.421181 0.609590
Si Si8 0.095121 0.575181 0.748598
O O1 0.037982 0.250000 0.950746
O O2 0.986537 0.032289 0.877963
O O3 0.117037 0.016175 0.929547
O O4 0.000000 0.000000 0.000000
O O5 0.250000 0.456514 0.240749
O O6 0.151060 0.250000 0.268306
O O7 0.116479 0.491163 0.202399
O O8 0.142967 0.510332 0.322709
O O9 0.250000 0.458379 0.615411
O O10 0.347245 0.250000 0.645005
O O11 0.380197 0.472947 0.566728
O O12 0.362510 0.523419 0.686416
O O13 0.250000 0.974916 0.892779
O O14 0.155650 0.750000 0.895449
O O15 0.147178 0.961024 0.808168
O O16 0.048860 0.750000 0.202440
O O17 0.980852 0.513888 0.244239
O O18 0.500000 0.500000 0.500000
O O19 0.569758 0.750000 0.502890
O O20 0.625517 0.517656 0.556414
O O21 0.750000 0.432714 0.597480
O O22 0.863257 0.250000 0.607346
O O23 0.076729 0.750000 0.743473
#
# Coordination Sequence:
#
# PCOD8243691 Si02
#       8
#     8   8   8   8   8   8   8   8
#     4  10  21  37  58  84 114 152 192 231 276 326
#     4  10  21  37  59  86 113 144 185 233 284 336
#     4  10  22  39  57  78 108 146 184 227 281 336
#     4   9  18  34  56  83 115 149 186 230 277 326
#     4  10  21  37  58  84 115 149 186 228 276 329
#     4  11  24  40  57  78 108 146 189 236 285 336
#     4  10  21  38  60  83 108 142 183 230 285 343
#     4  10  20  34  56  85 115 147 184 226 276 331
#
# _framework density 18.655470999999999
#
# number of rings (size 3 to 8) (size 9 to 14) (size 15 to 20)
#    0.000    2.000    0.000    3.000    1.750    6.000 
#    0.000    0.625    0.000    0.750    0.000    0.000 
#    0.000    0.000    0.000    0.000    0.000    0.000 
#
# Total GULP energy -793911.238083 kJ/mol
# GULP energy per Si atom -12404.863095 kJ/mol
# Density = 1.861301 g / cm^3
# Si number density = 18.655471 Si / 1000 Ang^3
#
#
#
# Elastic Constant Matrix: (Units=GPa)
#
#
# Indices 1 2 3 4 5 6 
#
# 1 119.6386 62.2795 77.9606 0.0000 0.0000 0.0000
# 2 62.2795 81.1548 50.6708 0.0000 0.0000 0.0000
# 3 77.9606 50.6708 99.6964 0.0000 0.0000 0.0000
# 4 0.0000 0.0000 0.0000 35.5186 0.0000 0.0000
# 5 0.0000 0.0000 0.0000 0.0000 30.2726 0.0000
# 6 0.0000 0.0000 0.0000 0.0000 0.0000 36.9987
#
#
#
# Elastic Compliance Matrix: (Units=1/GPa)
#
#
# Indices 1 2 3 4 5 6 
#
# 1 0.020239 -0.008277 -0.011620 0.000000 0.000000 0.000000
# 2 -0.008277 0.021435 -0.004422 0.000000 0.000000 0.000000
# 3 -0.011620 -0.004422 0.021365 0.000000 0.000000 0.000000
# 4 0.000000 0.000000 0.000000 0.028154 0.000000 0.000000
# 5 0.000000 0.000000 0.000000 0.000000 0.033033 0.000000
# 6 0.000000 0.000000 0.000000 0.000000 0.000000 0.027028
#
#
# Mechanical properties :
#
#
# Convention : Reuss Voigt Hill
#
# Bulk Modulus (GPa) = 69.43925 75.81239 72.62582
# Shear Modulus (GPa) = 24.42710 27.86326 26.14518
#
# Velocity S-wave (km/s) = 3.62246 3.86887 3.74769
# Velocity P-wave (km/s) = 7.40264 7.78999 7.59878
#
# Compressibility (1/GPa) = 0.01440108
#
# Stress axis : x y z
#
# Youngs Moduli (GPa) = 49.40993 46.65332 46.80662
#
# Poissons Ratio (x) = 0.38613 0.54389
# Poissons Ratio (y) = 0.40894 0.20699
# Poissons Ratio (z) = 0.57414 0.20631
#
# Static dielectric constant tensor:
#      x y z
#    x 3.508980 0.000000 0.000000 
#    y 0.000000 3.524020 0.000000 
#    z 0.000000 0.000000 3.398500 
# 
# 
# High freq. dielectric constant tensor:
#      x y z
#    x 1.732830 0.000000 0.000000 
#    y 0.000000 1.736500 0.000000 
#    z 0.000000 0.000000 1.716580 
# 
# From -- ./inp_files/29362.got.cif
#   From: 2010.03.12/outbox.cif.g09.slc.cpg/sg59_15_cif.got.tgz:29362.got - 2010.04.16 16:29:54.
