data_PCOD8243834
_publ_section_title
;
Structure prediction by ZEFSAII (Michael W. Deem and Ramdas Pophale) SiO2 
 PCOD8243834
Probable space group: P M M N
;
_chemical_formula_sum "Si O2"
_cell_formula_units_Z 48
_cell_length_a 8.986106
_cell_length_b 17.838691
_cell_length_c 15.473584
_cell_angle_alpha 90.000000
_cell_angle_beta 90.000000
_cell_angle_gamma 90.000000
_cell_volume 2480.421213
_symmetry_space_group_name_H-M "P M M N"
_symmetry_group_IT_number 59
_space_group.IT_coordinate_system_code '2'
_symmetry_cell_setting 'orthorhombic'
loop_
_space_group_symop_operation_xyz
x,y,z
1/2-x,1/2-y,z
1/2+x,-y,-z
-x,1/2+y,-z
-x,-y,-z
1/2+x,1/2+y,-z
1/2-x,y,z
x,1/2-y,z
loop_
_atom_site_type_symbol
_atom_site_label
_atom_site_fract_x
_atom_site_fract_y
_atom_site_fract_z
Si Si1 0.925967 0.424551 0.849969
Si Si2 0.424469 0.837393 0.661132
Si Si3 0.082419 0.339065 0.511764
Si Si4 0.075690 0.837098 0.316257
Si Si5 0.074106 0.405410 0.174023
Si Si6 0.578795 0.163795 0.014852
O O1 0.750000 0.415101 0.849643
O O2 0.988960 0.382637 0.765400
O O3 0.976163 0.510590 0.849904
O O4 0.988392 0.385776 0.936764
O O5 0.250000 0.852611 0.662237
O O6 0.461100 0.750000 0.674981
O O7 0.489499 0.867405 0.570621
O O8 0.501717 0.884481 0.735596
O O9 0.250000 0.370346 0.505647
O O10 0.080543 0.250000 0.513600
O O11 0.006464 0.369191 0.599099
O O12 0.250000 0.850706 0.329982
O O13 0.040478 0.750000 0.300420
O O14 0.250000 0.397947 0.182781
O O15 0.016889 0.349895 0.100271
O O16 0.750000 0.142832 0.034732
O O17 0.564354 0.250000 0.987303
#
# Coordination Sequence:
#
# PCOD8243834 Si02
#       6
#     8   8   8   8   8   8
#     4   9  19  35  54  77 105 138 174 211 254 305
#     4  10  20  35  55  77 101 134 178 220 255 300
#     4   9  17  30  50  78 109 136 166 211 264 309
#     4   9  16  30  54  79 102 133 175 217 254 299
#     4  11  22  35  52  76 108 140 169 209 262 313
#     4  10  20  36  58  80 102 133 175 217 254 300
#
# _framework density 19.351552000000002
#
# number of rings (size 3 to 8) (size 9 to 14) (size 15 to 20)
#    0.000    2.333    0.000    3.000    0.000    7.333 
#    0.000    4.167    0.000    2.000    0.000    0.000 
#    0.000    0.000    0.000    0.000    0.000    0.000 
#
# Total GULP energy -595332.568624 kJ/mol
# GULP energy per Si atom -12402.761846 kJ/mol
# Density = 1.930751 g / cm^3
# Si number density = 19.351552 Si / 1000 Ang^3
#
#
#
# Elastic Constant Matrix: (Units=GPa)
#
#
# Indices 1 2 3 4 5 6 
#
# 1 72.6937 25.1747 38.3139 0.0000 0.0000 0.0000
# 2 25.1747 55.9488 27.2841 0.0000 0.0000 0.0000
# 3 38.3139 27.2841 134.6849 0.0000 0.0000 0.0000
# 4 0.0000 0.0000 0.0000 18.9222 0.0000 0.0000
# 5 0.0000 0.0000 0.0000 0.0000 23.8586 0.0000
# 6 0.0000 0.0000 0.0000 0.0000 0.0000 19.8786
#
#
#
# Elastic Compliance Matrix: (Units=1/GPa)
#
#
# Indices 1 2 3 4 5 6 
#
# 1 0.017927 -0.006191 -0.003846 0.000000 0.000000 0.000000
# 2 -0.006191 0.021971 -0.002690 0.000000 0.000000 0.000000
# 3 -0.003846 -0.002690 0.009064 0.000000 0.000000 0.000000
# 4 0.000000 0.000000 0.000000 0.052848 0.000000 0.000000
# 5 0.000000 0.000000 0.000000 0.000000 0.041914 0.000000
# 6 0.000000 0.000000 0.000000 0.000000 0.000000 0.050305
#
#
# Mechanical properties :
#
#
# Convention : Reuss Voigt Hill
#
# Bulk Modulus (GPa) = 42.53701 49.43033 45.98367
# Shear Modulus (GPa) = 21.99562 24.03551 23.01556
#
# Velocity S-wave (km/s) = 3.37506 3.52809 3.45242
# Velocity P-wave (km/s) = 6.10057 6.49579 6.30128
#
# Compressibility (1/GPa) = 0.02350894
#
# Stress axis : x y z
#
# Youngs Moduli (GPa) = 55.78083 45.51482 110.33212
#
# Poissons Ratio (x) = 0.28179 0.42429
# Poissons Ratio (y) = 0.34535 0.29675
# Poissons Ratio (z) = 0.21451 0.12242
#
# Static dielectric constant tensor:
#      x y z
#    x 3.408780 0.000000 0.000000 
#    y 0.000000 3.373190 0.000000 
#    z 0.000000 0.000000 3.741510 
# 
# 
# High freq. dielectric constant tensor:
#      x y z
#    x 1.738480 0.000000 0.000000 
#    y 0.000000 1.733800 0.000000 
#    z 0.000000 0.000000 1.771470 
# 
# From -- ./inp_files/20281.got.cif
#   From: 2010.03.12/outbox.cif.g09.slc.cpg/sg59_11_cif.got.tgz:20281.got - 2010.04.16 16:29:54.
