data_PCOD8243821
_publ_section_title
;
Structure prediction by ZEFSAII (Michael W. Deem and Ramdas Pophale) SiO2 
 PCOD8243821
Probable space group: P M M N
;
_chemical_formula_sum "Si O2"
_cell_formula_units_Z 56
_cell_length_a 8.817244
_cell_length_b 22.521179
_cell_length_c 14.777351
_cell_angle_alpha 90.000000
_cell_angle_beta 90.000000
_cell_angle_gamma 90.000000
_cell_volume 2934.408491
_symmetry_space_group_name_H-M "P M M N"
_symmetry_group_IT_number 59
_space_group.IT_coordinate_system_code '2'
_symmetry_cell_setting 'orthorhombic'
loop_
_space_group_symop_operation_xyz
x,y,z
1/2-x,1/2-y,z
1/2+x,-y,-z
-x,1/2+y,-z
-x,-y,-z
1/2+x,1/2+y,-z
1/2-x,y,z
x,1/2-y,z
loop_
_atom_site_type_symbol
_atom_site_label
_atom_site_fract_x
_atom_site_fract_y
_atom_site_fract_z
Si Si1 0.929845 0.641579 0.624291
Si Si2 0.070020 0.183677 0.570028
Si Si3 0.572764 0.448092 0.891548
Si Si4 0.574233 0.183027 0.197374
Si Si5 0.078531 0.521791 0.590589
Si Si6 0.571886 0.581789 0.924454
Si Si7 0.578441 0.908934 0.285255
O O1 0.750000 0.644950 0.629725
O O2 0.993097 0.665519 0.528401
O O3 0.997091 0.680825 0.704469
O O4 0.983226 0.574188 0.635992
O O5 0.250000 0.177488 0.566719
O O6 0.016725 0.250000 0.593155
O O7 0.006944 0.140821 0.648374
O O8 0.750000 0.441484 0.910990
O O9 0.527219 0.517617 0.882388
O O10 0.528554 0.412920 0.801476
O O11 0.483201 0.416491 0.972423
O O12 0.750000 0.167925 0.208877
O O13 0.550123 0.250000 0.159274
O O14 0.504642 0.135043 0.129816
O O15 0.250000 0.541998 0.568181
O O16 0.078984 0.470706 0.663793
O O17 0.000000 0.500000 0.500000
O O18 0.750000 0.592328 0.920735
O O19 0.750000 0.892297 0.255621
#
# Coordination Sequence:
#
# PCOD8243821 Si02
#       7
#     8   8   8   8   8   8   8
#     4  11  21  36  57  83 113 151 197 238 286 344
#     4   9  18  34  54  75 104 145 192 236 272 318
#     4  10  21  37  60  89 116 145 182 233 294 348
#     4  11  24  40  58  85 121 157 193 239 294 347
#     4  11  21  34  53  81 115 150 189 238 292 343
#     4  10  21  39  63  88 113 146 189 234 284 349
#     4  10  20  35  54  80 111 146 189 233 280 336
#
# _framework density 19.083914
#
# number of rings (size 3 to 8) (size 9 to 14) (size 15 to 20)
#    0.000    1.714    1.429    3.429    0.000    6.857 
#    0.000    0.714    0.000    4.714    0.000    0.000 
#    0.000    0.000    0.000    0.000    0.000    0.000 
#
# Total GULP energy -694525.495882 kJ/mol
# GULP energy per Si atom -12402.240998 kJ/mol
# Density = 1.904048 g / cm^3
# Si number density = 19.083914 Si / 1000 Ang^3
#
#
#
# Elastic Constant Matrix: (Units=GPa)
#
#
# Indices 1 2 3 4 5 6 
#
# 1 84.8961 39.6300 45.4274 0.0000 0.0000 0.0000
# 2 39.6300 122.0270 65.2179 0.0000 0.0000 0.0000
# 3 45.4274 65.2179 121.2860 0.0000 0.0000 0.0000
# 4 0.0000 0.0000 0.0000 27.5734 0.0000 0.0000
# 5 0.0000 0.0000 0.0000 0.0000 33.4762 0.0000
# 6 0.0000 0.0000 0.0000 0.0000 0.0000 26.9324
#
#
#
# Elastic Compliance Matrix: (Units=1/GPa)
#
#
# Indices 1 2 3 4 5 6 
#
# 1 0.015332 -0.002680 -0.004301 0.000000 0.000000 0.000000
# 2 -0.002680 0.011968 -0.005432 0.000000 0.000000 0.000000
# 3 -0.004301 -0.005432 0.012777 0.000000 0.000000 0.000000
# 4 0.000000 0.000000 0.000000 0.036267 0.000000 0.000000
# 5 0.000000 0.000000 0.000000 0.000000 0.029872 0.000000
# 6 0.000000 0.000000 0.000000 0.000000 0.000000 0.037130
#
#
# Mechanical properties :
#
#
# Convention : Reuss Voigt Hill
#
# Bulk Modulus (GPa) = 65.57236 69.86218 67.71727
# Shear Modulus (GPa) = 28.85905 29.45867 29.15886
#
# Velocity S-wave (km/s) = 3.89294 3.93318 3.91311
# Velocity P-wave (km/s) = 7.39197 7.57059 7.48182
#
# Compressibility (1/GPa) = 0.01525033
#
# Stress axis : x y z
#
# Youngs Moduli (GPa) = 65.22351 83.55323 78.26738
#
# Poissons Ratio (x) = 0.22396 0.33664
# Poissons Ratio (y) = 0.17483 0.42512
# Poissons Ratio (z) = 0.28054 0.45384
#
# Static dielectric constant tensor:
#      x y z
#    x 3.471940 0.000000 0.000000 
#    y 0.000000 3.550860 0.000000 
#    z 0.000000 0.000000 3.528450 
# 
# 
# High freq. dielectric constant tensor:
#      x y z
#    x 1.738520 0.000000 0.000000 
#    y 0.000000 1.740830 0.000000 
#    z 0.000000 0.000000 1.742580 
# 
# From -- ./inp_files/21000.got.cif
#   From: 2010.03.12/outbox.cif.g09.slc.cpg/sg59_11_cif.got.tgz:21000.got - 2010.04.16 16:29:54.
