data_PCOD8243285
_publ_section_title
;
Structure prediction by ZEFSAII (Michael W. Deem and Ramdas Pophale) SiO2 
 PCOD8243285
Probable space group: P M M N
;
_chemical_formula_sum "Si O2"
_cell_formula_units_Z 40
_cell_length_a 9.133625
_cell_length_b 18.132702
_cell_length_c 12.839604
_cell_angle_alpha 90.000000
_cell_angle_beta 90.000000
_cell_angle_gamma 90.000000
_cell_volume 2126.460551
_symmetry_space_group_name_H-M "P M M N"
_symmetry_group_IT_number 59
_space_group.IT_coordinate_system_code '2'
_symmetry_cell_setting 'orthorhombic'
loop_
_space_group_symop_operation_xyz
x,y,z
1/2-x,1/2-y,z
1/2+x,-y,-z
-x,1/2+y,-z
-x,-y,-z
1/2+x,1/2+y,-z
1/2-x,y,z
x,1/2-y,z
loop_
_atom_site_type_symbol
_atom_site_label
_atom_site_fract_x
_atom_site_fract_y
_atom_site_fract_z
Si Si1 0.576851 0.577821 0.508695
Si Si2 0.421233 0.590555 0.900548
Si Si3 0.081408 0.335336 0.285723
Si Si4 0.924076 0.667443 0.310020
Si Si5 0.921421 0.920669 0.109727
O O1 0.500000 0.500000 0.500000
O O2 0.750000 0.566458 0.501922
O O3 0.529990 0.617112 0.615476
O O4 0.518784 0.628021 0.414073
O O5 0.250000 0.604635 0.910538
O O6 0.483906 0.643791 0.812678
O O7 0.457977 0.506311 0.871203
O O8 0.494858 0.611287 0.010013
O O9 0.250000 0.351726 0.258555
O O10 0.057636 0.250000 0.313624
O O11 0.750000 0.669372 0.310195
O O12 0.988469 0.750000 0.306398
O O13 0.981042 0.622972 0.209732
O O14 0.750000 0.908124 0.091151
#
# Coordination Sequence:
#
# PCOD8243285 Si02
#       5
#     8   8   8   8   8
#     4  10  20  35  56  80 105 134 170 211 256 307
#     4  10  20  34  53  77 106 139 176 219 263 306
#     4  10  21  36  54  77 106 140 177 216 259 311
#     4   9  17  31  53  78 102 131 170 213 253 298
#     4   9  18  33  53  77 105 138 176 215 257 309
#
# _framework density 18.810600999999998
#
# number of rings (size 3 to 8) (size 9 to 14) (size 15 to 20)
#    0.000    2.400    0.000    2.400    0.000    6.800 
#    0.000    3.000    0.000    3.000    0.000    0.000 
#    0.000    0.000    0.000    0.000    0.000    0.000 
#
# Total GULP energy -496132.904354 kJ/mol
# GULP energy per Si atom -12403.322609 kJ/mol
# Density = 1.876779 g / cm^3
# Si number density = 18.810601 Si / 1000 Ang^3
#
#
#
# Elastic Constant Matrix: (Units=GPa)
#
#
# Indices 1 2 3 4 5 6 
#
# 1 42.6096 25.1322 37.7758 0.0000 0.0000 0.0000
# 2 25.1322 92.7587 49.9221 0.0000 0.0000 0.0000
# 3 37.7758 49.9221 136.9734 0.0000 0.0000 0.0000
# 4 0.0000 0.0000 0.0000 31.0765 0.0000 0.0000
# 5 0.0000 0.0000 0.0000 0.0000 15.8406 0.0000
# 6 0.0000 0.0000 0.0000 0.0000 0.0000 27.8066
#
#
#
# Elastic Compliance Matrix: (Units=1/GPa)
#
#
# Indices 1 2 3 4 5 6 
#
# 1 0.032831 -0.005004 -0.007231 0.000000 0.000000 0.000000
# 2 -0.005004 0.014174 -0.003786 0.000000 0.000000 0.000000
# 3 -0.007231 -0.003786 0.010675 0.000000 0.000000 0.000000
# 4 0.000000 0.000000 0.000000 0.032179 0.000000 0.000000
# 5 0.000000 0.000000 0.000000 0.000000 0.063129 0.000000
# 6 0.000000 0.000000 0.000000 0.000000 0.000000 0.035963
#
#
# Mechanical properties :
#
#
# Convention : Reuss Voigt Hill
#
# Bulk Modulus (GPa) = 39.00367 55.33356 47.16862
# Shear Modulus (GPa) = 21.78303 25.57882 23.68093
#
# Velocity S-wave (km/s) = 3.40666 3.69156 3.55197
# Velocity P-wave (km/s) = 6.02111 6.90291 6.47703
#
# Compressibility (1/GPa) = 0.02563861
#
# Stress axis : x y z
#
# Youngs Moduli (GPa) = 30.45937 70.55202 93.67967
#
# Poissons Ratio (x) = 0.35302 0.67737
# Poissons Ratio (y) = 0.15241 0.35467
# Poissons Ratio (z) = 0.22024 0.26711
#
# Static dielectric constant tensor:
#      x y z
#    x 3.177930 0.000000 0.000000 
#    y 0.000000 3.498560 0.000000 
#    z 0.000000 0.000000 3.613150 
# 
# 
# High freq. dielectric constant tensor:
#      x y z
#    x 1.703160 0.000000 0.000000 
#    y 0.000000 1.735080 0.000000 
#    z 0.000000 0.000000 1.746170 
# 
# From -- ./inp_files/13815.got.cif
#   From: 2010.03.12/outbox.cif.g09.slc.cpg/sg59_7_cif.got.tgz:13815.got - 2010.04.16 16:29:54.
