data_PCOD8243812
_publ_section_title
;
Structure prediction by ZEFSAII (Michael W. Deem and Ramdas Pophale) SiO2 
 PCOD8243812
Probable space group: P M M N
;
_chemical_formula_sum "Si O2"
_cell_formula_units_Z 56
_cell_length_a 9.058828
_cell_length_b 19.232743
_cell_length_c 17.325566
_cell_angle_alpha 90.000000
_cell_angle_beta 90.000000
_cell_angle_gamma 90.000000
_cell_volume 3018.565982
_symmetry_space_group_name_H-M "P M M N"
_symmetry_group_IT_number 59
_space_group.IT_coordinate_system_code '2'
_symmetry_cell_setting 'orthorhombic'
loop_
_space_group_symop_operation_xyz
x,y,z
1/2-x,1/2-y,z
1/2+x,-y,-z
-x,1/2+y,-z
-x,-y,-z
1/2+x,1/2+y,-z
1/2-x,y,z
x,1/2-y,z
loop_
_atom_site_type_symbol
_atom_site_label
_atom_site_fract_x
_atom_site_fract_y
_atom_site_fract_z
Si Si1 0.420328 0.170540 0.311779
Si Si2 0.079508 0.331411 0.885386
Si Si3 0.080302 0.404987 0.461638
Si Si4 0.922731 0.052979 0.603410
Si Si5 0.579528 0.329829 0.041286
Si Si6 0.074320 0.937718 0.221899
Si Si7 0.076249 0.920982 0.811940
O O1 0.250000 0.151792 0.293065
O O2 0.456629 0.250000 0.292154
O O3 0.450942 0.158086 0.402718
O O4 0.525071 0.121366 0.262675
O O5 0.250000 0.353422 0.879899
O O6 0.056861 0.250000 0.871072
O O7 0.985037 0.369796 0.820578
O O8 0.020090 0.352813 0.969417
O O9 0.250000 0.410070 0.484678
O O10 0.027954 0.475100 0.418433
O O11 0.993107 0.393525 0.541673
O O12 0.750000 0.063200 0.599241
O O13 0.979459 0.068286 0.689544
O O14 0.750000 0.340800 0.018655
O O15 0.548925 0.250000 0.064583
O O16 0.532433 0.377380 0.112667
O O17 0.250000 0.942211 0.215603
O O18 0.005860 0.005728 0.182204
O O19 0.250000 0.933600 0.806188
#
# Coordination Sequence:
#
# PCOD8243812 Si02
#       7
#     8   8   8   8   8   8   8
#     4  10  20  35  54  78 113 153 188 226 278 338
#     4  10  22  40  61  85 110 139 182 232 281 334
#     4   9  17  32  52  76 105 139 182 225 269 324
#     4   9  18  33  53  77 104 137 180 225 270 322
#     4   9  19  37  58  80 110 149 188 225 273 332
#     4  11  22  38  59  83 114 148 185 228 278 337
#     4  11  22  35  55  84 116 147 187 234 278 324
#
# _framework density 18.551855
#
# number of rings (size 3 to 8) (size 9 to 14) (size 15 to 20)
#    0.000    2.143    1.429    1.714    0.000    5.143 
#    0.000    2.143    0.000    2.571    0.000    0.000 
#    0.000    0.000    0.000    0.000    0.000    0.000 
#
# Total GULP energy -694533.782979 kJ/mol
# GULP energy per Si atom -12402.388982 kJ/mol
# Density = 1.850963 g / cm^3
# Si number density = 18.551855 Si / 1000 Ang^3
#
#
#
# Elastic Constant Matrix: (Units=GPa)
#
#
# Indices 1 2 3 4 5 6 
#
# 1 71.4963 36.6516 54.6707 0.0000 0.0000 0.0000
# 2 36.6516 63.9436 49.4771 0.0000 0.0000 0.0000
# 3 54.6707 49.4771 130.9729 0.0000 0.0000 0.0000
# 4 0.0000 0.0000 0.0000 29.5427 0.0000 0.0000
# 5 0.0000 0.0000 0.0000 0.0000 35.5357 0.0000
# 6 0.0000 0.0000 0.0000 0.0000 0.0000 26.6245
#
#
#
# Elastic Compliance Matrix: (Units=1/GPa)
#
#
# Indices 1 2 3 4 5 6 
#
# 1 0.023245 -0.008218 -0.006598 0.000000 0.000000 0.000000
# 2 -0.008218 0.025004 -0.006015 0.000000 0.000000 0.000000
# 3 -0.006598 -0.006015 0.012662 0.000000 0.000000 0.000000
# 4 0.000000 0.000000 0.000000 0.033849 0.000000 0.000000
# 5 0.000000 0.000000 0.000000 0.000000 0.028141 0.000000
# 6 0.000000 0.000000 0.000000 0.000000 0.000000 0.037559
#
#
# Mechanical properties :
#
#
# Convention : Reuss Voigt Hill
#
# Bulk Modulus (GPa) = 51.95578 60.89018 56.42298
# Shear Modulus (GPa) = 23.97627 26.71480 25.34554
#
# Velocity S-wave (km/s) = 3.59889 3.79886 3.70022
# Velocity P-wave (km/s) = 6.73319 7.22043 6.98106
#
# Compressibility (1/GPa) = 0.01924714
#
# Stress axis : x y z
#
# Youngs Moduli (GPa) = 43.01930 39.99424 78.97782
#
# Poissons Ratio (x) = 0.32868 0.52113
# Poissons Ratio (y) = 0.35355 0.47505
# Poissons Ratio (z) = 0.28386 0.24057
#
# Static dielectric constant tensor:
#      x y z
#    x 3.424250 0.000000 0.000000 
#    y 0.000000 3.325130 0.000000 
#    z 0.000000 0.000000 3.514070 
# 
# 
# High freq. dielectric constant tensor:
#      x y z
#    x 1.721380 0.000000 0.000000 
#    y 0.000000 1.705280 0.000000 
#    z 0.000000 0.000000 1.726460 
# 
# From -- ./inp_files/20996.got.cif
#   From: 2010.03.12/outbox.cif.g09.slc.cpg/sg59_11_cif.got.tgz:20996.got - 2010.04.16 16:29:54.
