data_PCOD8243501
_publ_section_title
;
Structure prediction by ZEFSAII (Michael W. Deem and Ramdas Pophale) SiO2 
 PCOD8243501
Probable space group: P M M N
;
_chemical_formula_sum "Si O2"
_cell_formula_units_Z 56
_cell_length_a 8.753460
_cell_length_b 14.372959
_cell_length_c 23.784766
_cell_angle_alpha 90.000000
_cell_angle_beta 90.000000
_cell_angle_gamma 90.000000
_cell_volume 2992.435659
_symmetry_space_group_name_H-M "P M M N"
_symmetry_group_IT_number 59
_space_group.IT_coordinate_system_code '2'
_symmetry_cell_setting 'orthorhombic'
loop_
_space_group_symop_operation_xyz
x,y,z
1/2-x,1/2-y,z
1/2+x,-y,-z
-x,1/2+y,-z
-x,-y,-z
1/2+x,1/2+y,-z
1/2-x,y,z
x,1/2-y,z
loop_
_atom_site_type_symbol
_atom_site_label
_atom_site_fract_x
_atom_site_fract_y
_atom_site_fract_z
Si Si1 0.430301 0.853450 0.350676
Si Si2 0.069198 0.495895 0.438770
Si Si3 0.426997 0.642875 0.947215
Si Si4 0.928894 0.994250 0.862626
Si Si5 0.070145 0.857649 0.646852
Si Si6 0.930047 0.991194 0.733424
Si Si7 0.573668 0.858453 0.062732
O O1 0.250000 0.842470 0.351031
O O2 0.505664 0.750000 0.350165
O O3 0.483025 0.910771 0.405730
O O4 0.481302 0.911639 0.295586
O O5 0.250000 0.489273 0.442371
O O6 0.000000 0.500000 0.500000
O O7 0.009145 0.404884 0.406772
O O8 0.250000 0.624227 0.959306
O O9 0.461637 0.750000 0.934903
O O10 0.479908 0.588064 0.892520
O O11 0.520629 0.607448 0.001315
O O12 0.750000 0.976756 0.869332
O O13 0.979376 0.995544 0.797985
O O14 0.974187 0.092599 0.889482
O O15 0.250000 0.870240 0.640860
O O16 0.022223 0.750000 0.648224
O O17 0.014597 0.904557 0.704698
O O18 0.750000 0.975960 0.725466
O O19 0.750000 0.885368 0.070055
O O20 0.542734 0.750000 0.069808
#
# Coordination Sequence:
#
# PCOD8243501 Si02
#       7
#     8   8   8   8   8   8   8
#     4   8  15  31  54  76 100 133 172 213 256 302
#     4  10  20  34  54  82 114 145 179 220 265 315
#     4  10  21  37  56  77 103 137 177 220 267 322
#     4  11  22  35  54  80 109 140 175 218 269 325
#     4  10  21  37  57  79 106 144 185 225 271 318
#     4   9  20  36  54  78 105 137 177 220 266 316
#     4  10  21  37  56  78 106 139 175 218 268 321
#
# _framework density 18.713853
#
# number of rings (size 3 to 8) (size 9 to 14) (size 15 to 20)
#    0.000    2.286    0.000    3.429    0.000    5.714 
#    0.000    5.714    0.000   10.286    0.000    0.000 
#    0.000    0.000    0.000    0.000    0.000    0.000 
#
# Total GULP energy -694486.393793 kJ/mol
# GULP energy per Si atom -12401.542746 kJ/mol
# Density = 1.867126 g / cm^3
# Si number density = 18.713853 Si / 1000 Ang^3
#
#
#
# Elastic Constant Matrix: (Units=GPa)
#
#
# Indices 1 2 3 4 5 6 
#
# 1 49.9912 35.9356 33.9957 0.0000 0.0000 0.0000
# 2 35.9356 142.3936 72.1156 0.0000 0.0000 0.0000
# 3 33.9957 72.1156 157.8693 0.0000 0.0000 0.0000
# 4 0.0000 0.0000 0.0000 -39.4001 0.0000 0.0000
# 5 0.0000 0.0000 0.0000 0.0000 32.4849 0.0000
# 6 0.0000 0.0000 0.0000 0.0000 0.0000 28.6776
#
#
#
# Elastic Compliance Matrix: (Units=1/GPa)
#
#
# Indices 1 2 3 4 5 6 
#
# 1 0.025729 -0.004797 -0.003349 0.000000 0.000000 0.000000
# 2 -0.004797 0.010031 -0.003549 0.000000 0.000000 0.000000
# 3 -0.003349 -0.003549 0.008677 0.000000 0.000000 0.000000
# 4 0.000000 0.000000 0.000000 -0.025381 0.000000 0.000000
# 5 0.000000 0.000000 0.000000 0.000000 0.030784 0.000000
# 6 0.000000 0.000000 0.000000 0.000000 0.000000 0.034870
#
#
# Mechanical properties :
#
#
# Convention : Reuss Voigt Hill
#
# Bulk Modulus (GPa) = 47.51447 70.48309 58.99878
# Shear Modulus (GPa) = 43.43415 18.23298 30.83357
#
# Velocity S-wave (km/s) = 4.82286 3.12477 4.06351
# Velocity P-wave (km/s) = 7.51388 7.12491 7.32198
#
# Compressibility (1/GPa) = 0.02104622
#
# Stress axis : x y z
#
# Youngs Moduli (GPa) = 38.86600 99.69208 115.24892
#
# Poissons Ratio (x) = 0.47823 0.38600
# Poissons Ratio (y) = 0.18644 0.40904
# Poissons Ratio (z) = 0.13017 0.35382
#
# Static dielectric constant tensor:
#      x y z
#    x 3.391950 0.000000 0.000000 
#    y 0.000000 3.627970 0.000000 
#    z 0.000000 0.000000 3.481380 
# 
# 
# High freq. dielectric constant tensor:
#      x y z
#    x 1.722710 0.000000 0.000000 
#    y 0.000000 1.735330 0.000000 
#    z 0.000000 0.000000 1.727060 
# 
# From -- ./inp_files/29034.got.cif
#   From: 2010.03.12/outbox.cif.g09.slc.cpg/sg59_15_cif.got.tgz:29034.got - 2010.04.16 16:29:54.
