data_PCOD8243311
_publ_section_title
;
Structure prediction by ZEFSAII (Michael W. Deem and Ramdas Pophale) SiO2 
 PCOD8243311
Probable space group: P M M N
;
_chemical_formula_sum "Si O2"
_cell_formula_units_Z 48
_cell_length_a 9.052143
_cell_length_b 9.173055
_cell_length_c 30.887503
_cell_angle_alpha 90.000000
_cell_angle_beta 90.000000
_cell_angle_gamma 90.000000
_cell_volume 2564.768695
_symmetry_space_group_name_H-M "P M M N"
_symmetry_group_IT_number 59
_space_group.IT_coordinate_system_code '2'
_symmetry_cell_setting 'orthorhombic'
loop_
_space_group_symop_operation_xyz
x,y,z
1/2-x,1/2-y,z
1/2+x,-y,-z
-x,1/2+y,-z
-x,-y,-z
1/2+x,1/2+y,-z
1/2-x,y,z
x,1/2-y,z
loop_
_atom_site_type_symbol
_atom_site_label
_atom_site_fract_x
_atom_site_fract_y
_atom_site_fract_z
Si Si1 0.578738 0.917831 0.874547
Si Si2 0.923106 0.418629 0.288865
Si Si3 0.416614 0.076789 0.374903
Si Si4 0.920009 0.421462 0.787879
Si Si5 0.420389 0.920872 0.961117
Si Si6 0.578967 0.078016 0.460674
O O1 0.750000 0.940405 0.885466
O O2 0.542430 0.750000 0.863893
O O3 0.487520 0.974540 0.915684
O O4 0.529373 0.013130 0.833668
O O5 0.750000 0.440082 0.295732
O O6 0.963411 0.250000 0.280576
O O7 0.004005 0.479910 0.331580
O O8 0.976304 0.511960 0.248529
O O9 0.250000 0.015023 0.376359
O O10 0.416977 0.250000 0.375020
O O11 0.505506 0.019187 0.416504
O O12 0.750000 0.463214 0.778130
O O13 0.943820 0.250000 0.789435
O O14 0.250000 0.964020 0.961774
O O15 0.446637 0.750000 0.966787
O O16 0.500000 0.000000 0.000000
O O17 0.750000 0.034401 0.459980
O O18 0.556840 0.250000 0.465714
O O19 0.500000 0.000000 0.500000
#
# Coordination Sequence:
#
# PCOD8243311 Si02
#       6
#     8   8   8   8   8   8
#     4   9  18  34  55  77 104 140 180 219 258 305
#     4  10  20  34  54  79 105 135 173 216 260 308
#     4   9  17  31  53  78 103 134 173 216 261 310
#     4  10  21  36  54  78 108 140 173 212 260 312
#     4  10  21  36  55  80 109 140 175 216 261 309
#     4  10  20  34  53  78 108 140 175 216 261 310
#
# _framework density 18.715136999999999
#
# number of rings (size 3 to 8) (size 9 to 14) (size 15 to 20)
#    0.000    2.333    0.000    2.500    0.000    7.333 
#    0.000    4.167    0.000    5.000    0.000    0.000 
#    0.000    0.000    0.000    0.000    0.000    0.000 
#
# Total GULP energy -595366.298749 kJ/mol
# GULP energy per Si atom -12403.464557 kJ/mol
# Density = 1.867254 g / cm^3
# Si number density = 18.715137 Si / 1000 Ang^3
#
#
#
# Elastic Constant Matrix: (Units=GPa)
#
#
# Indices 1 2 3 4 5 6 
#
# 1 130.7906 43.4840 95.1646 0.0000 0.0000 0.0000
# 2 43.4840 48.1869 55.6003 0.0000 0.0000 0.0000
# 3 95.1646 55.6003 183.0826 0.0000 0.0000 0.0000
# 4 0.0000 0.0000 0.0000 32.1977 0.0000 0.0000
# 5 0.0000 0.0000 0.0000 0.0000 43.8271 0.0000
# 6 0.0000 0.0000 0.0000 0.0000 0.0000 25.2717
#
#
#
# Elastic Compliance Matrix: (Units=1/GPa)
#
#
# Indices 1 2 3 4 5 6 
#
# 1 0.013417 -0.006251 -0.005076 0.000000 0.000000 0.000000
# 2 -0.006251 0.034860 -0.007337 0.000000 0.000000 0.000000
# 3 -0.005076 -0.007337 0.010329 0.000000 0.000000 0.000000
# 4 0.000000 0.000000 0.000000 0.031058 0.000000 0.000000
# 5 0.000000 0.000000 0.000000 0.000000 0.022817 0.000000
# 6 0.000000 0.000000 0.000000 0.000000 0.000000 0.039570
#
#
# Mechanical properties :
#
#
# Convention : Reuss Voigt Hill
#
# Bulk Modulus (GPa) = 46.99857 83.39530 65.19694
# Shear Modulus (GPa) = 25.44902 31.44673 28.44787
#
# Velocity S-wave (km/s) = 3.69156 4.10357 3.90301
# Velocity P-wave (km/s) = 6.58310 8.19204 7.43124
#
# Compressibility (1/GPa) = 0.02127724
#
# Stress axis : x y z
#
# Youngs Moduli (GPa) = 74.53047 28.68647 96.81852
#
# Poissons Ratio (x) = 0.17932 0.49143
# Poissons Ratio (y) = 0.46590 0.71038
# Poissons Ratio (z) = 0.37830 0.21048
#
# Static dielectric constant tensor:
#      x y z
#    x 3.577630 0.000000 0.000000 
#    y 0.000000 3.183240 0.000000 
#    z 0.000000 0.000000 3.599390 
# 
# 
# High freq. dielectric constant tensor:
#      x y z
#    x 1.736090 0.000000 0.000000 
#    y 0.000000 1.699760 0.000000 
#    z 0.000000 0.000000 1.742630 
# 
# From -- ./inp_files/32771.got.cif
#   From: 2010.03.12/outbox.cif.g09.slc.cpg/sg59_17_cif.got.tgz:32771.got - 2010.04.16 16:29:54.
