data_PCOD8243955
_publ_section_title
;
Structure prediction by ZEFSAII (Michael W. Deem and Ramdas Pophale) SiO2 
 PCOD8243955
Probable space group: P M M N
;
_chemical_formula_sum "Si O2"
_cell_formula_units_Z 48
_cell_length_a 9.687680
_cell_length_b 8.903950
_cell_length_c 28.873004
_cell_angle_alpha 90.000000
_cell_angle_beta 90.000000
_cell_angle_gamma 90.000000
_cell_volume 2490.545432
_symmetry_space_group_name_H-M "P M M N"
_symmetry_group_IT_number 59
_space_group.IT_coordinate_system_code '2'
_symmetry_cell_setting 'orthorhombic'
loop_
_space_group_symop_operation_xyz
x,y,z
1/2-x,1/2-y,z
1/2+x,-y,-z
-x,1/2+y,-z
-x,-y,-z
1/2+x,1/2+y,-z
1/2-x,y,z
x,1/2-y,z
loop_
_atom_site_type_symbol
_atom_site_label
_atom_site_fract_x
_atom_site_fract_y
_atom_site_fract_z
Si Si1 0.091700 0.426514 0.864809
Si Si2 0.519688 0.427330 0.396397
Si Si3 0.593192 0.428529 0.780159
Si Si4 0.405120 0.077929 0.696412
Si Si5 0.590832 0.425713 0.039229
Si Si6 0.250000 0.927779 0.429931
Si Si7 0.750000 0.072241 0.466241
O O1 0.250000 0.465275 0.851642
O O2 0.073048 0.250000 0.872521
O O3 0.045349 0.508897 0.911416
O O4 0.990837 0.487877 0.824651
O O5 0.495904 0.250000 0.397762
O O6 0.588490 0.472150 0.348164
O O7 0.378196 0.514677 0.400969
O O8 0.615348 0.483064 0.438734
O O9 0.750000 0.491937 0.780380
O O10 0.593976 0.250000 0.780975
O O11 0.513560 0.483768 0.734225
O O12 0.250000 0.068278 0.717055
O O13 0.439829 0.250000 0.682723
O O14 0.750000 0.464423 0.029165
O O15 0.562914 0.250000 0.039528
O O16 0.500000 0.500000 0.000000
O O17 0.250000 0.750000 0.431486
O O18 0.250000 0.996239 0.482063
O O19 0.750000 0.250000 0.468361
#
# Coordination Sequence:
#
# PCOD8243955 Si02
#       7
#     8   8   8   8   8   4   4
#     4   9  17  32  54  78 107 145 187 231 280 333
#     4  11  22  39  59  84 115 149 183 227 284 338
#     4   9  18  32  53  81 110 141 182 233 281 326
#     4  10  20  35  56  82 110 145 189 232 274 329
#     4  10  21  36  55  81 113 150 192 237 284 336
#     4  11  23  39  59  85 113 147 187 231 276 329
#     4   9  20  39  61  83 113 147 187 229 274 333
#
# _framework density 19.272887000000001
#
# number of rings (size 3 to 8) (size 9 to 14) (size 15 to 20)
#    0.000    2.167    0.833    2.250    1.167    3.667 
#    0.000    5.000    0.000    3.000    0.000    0.000 
#    0.000    0.000    0.000    0.000    0.000    0.000 
#
# Total GULP energy -595284.353036 kJ/mol
# GULP energy per Si atom -12401.757355 kJ/mol
# Density = 1.922902 g / cm^3
# Si number density = 19.272887 Si / 1000 Ang^3
#
#
#
# Elastic Constant Matrix: (Units=GPa)
#
#
# Indices 1 2 3 4 5 6 
#
# 1 125.3354 27.6005 56.8808 0.0000 0.0000 0.0000
# 2 27.6005 49.5477 30.4575 0.0000 0.0000 0.0000
# 3 56.8808 30.4575 121.7497 0.0000 0.0000 0.0000
# 4 0.0000 0.0000 0.0000 29.5947 0.0000 0.0000
# 5 0.0000 0.0000 0.0000 0.0000 38.7365 0.0000
# 6 0.0000 0.0000 0.0000 0.0000 0.0000 17.4926
#
#
#
# Elastic Compliance Matrix: (Units=1/GPa)
#
#
# Indices 1 2 3 4 5 6 
#
# 1 0.010582 -0.003375 -0.004100 0.000000 0.000000 0.000000
# 2 -0.003375 0.024926 -0.004659 0.000000 0.000000 0.000000
# 3 -0.004100 -0.004659 0.011295 0.000000 0.000000 0.000000
# 4 0.000000 0.000000 0.000000 0.033790 0.000000 0.000000
# 5 0.000000 0.000000 0.000000 0.000000 0.025815 0.000000
# 6 0.000000 0.000000 0.000000 0.000000 0.000000 0.057167
#
#
# Mechanical properties :
#
#
# Convention : Reuss Voigt Hill
#
# Bulk Modulus (GPa) = 44.37317 58.50116 51.43716
# Shear Modulus (GPa) = 25.59447 29.27769 27.43608
#
# Velocity S-wave (km/s) = 3.64813 3.90181 3.77710
# Velocity P-wave (km/s) = 6.38896 7.12172 6.76526
#
# Compressibility (1/GPa) = 0.02253614
#
# Stress axis : x y z
#
# Youngs Moduli (GPa) = 94.49701 40.11807 88.53862
#
# Poissons Ratio (x) = 0.13539 0.36299
# Poissons Ratio (y) = 0.31890 0.41251
# Poissons Ratio (z) = 0.38742 0.18691
#
# Static dielectric constant tensor:
#      x y z
#    x 3.679980 0.000000 0.000000 
#    y 0.000000 3.239970 0.000000 
#    z 0.000000 0.000000 3.633500 
# 
# 
# High freq. dielectric constant tensor:
#      x y z
#    x 1.759300 0.000000 0.000000 
#    y 0.000000 1.722960 0.000000 
#    z 0.000000 0.000000 1.757190 
# 
# From -- ./inp_files/33037.got.cif
#   From: 2010.03.12/outbox.cif.g09.slc.cpg/sg59_17_cif.got.tgz:33037.got - 2010.04.16 16:29:54.
