data_PCOD8243404
_publ_section_title
;
Structure prediction by ZEFSAII (Michael W. Deem and Ramdas Pophale) SiO2 
 PCOD8243404
Probable space group: P M M N
;
_chemical_formula_sum "Si O2"
_cell_formula_units_Z 48
_cell_length_a 9.590273
_cell_length_b 9.201399
_cell_length_c 29.355251
_cell_angle_alpha 90.000000
_cell_angle_beta 90.000000
_cell_angle_gamma 90.000000
_cell_volume 2590.422667
_symmetry_space_group_name_H-M "P M M N"
_symmetry_group_IT_number 59
_space_group.IT_coordinate_system_code '2'
_symmetry_cell_setting 'orthorhombic'
loop_
_space_group_symop_operation_xyz
x,y,z
1/2-x,1/2-y,z
1/2+x,-y,-z
-x,1/2+y,-z
-x,-y,-z
1/2+x,1/2+y,-z
1/2-x,y,z
x,1/2-y,z
loop_
_atom_site_type_symbol
_atom_site_label
_atom_site_fract_x
_atom_site_fract_y
_atom_site_fract_z
Si Si1 0.909017 0.922082 0.126413
Si Si2 0.913784 0.422349 0.960619
Si Si3 0.489157 0.582287 0.390460
Si Si4 0.910565 0.420458 0.788354
Si Si5 0.750000 0.912979 0.451532
Si Si6 0.750000 0.078448 0.544663
Si Si7 0.587410 0.581923 0.696789
O O1 0.750000 0.985429 0.122945
O O2 0.900473 0.750000 0.126334
O O3 0.007854 0.973981 0.085198
O O4 0.985773 0.976031 0.172165
O O5 0.750000 0.470118 0.959782
O O6 0.924057 0.250000 0.967264
O O7 0.000000 0.500000 0.000000
O O8 0.460357 0.750000 0.377376
O O9 0.627118 0.556171 0.417632
O O10 0.378295 0.520755 0.426138
O O11 0.496229 0.489924 0.344460
O O12 0.750000 0.455935 0.801737
O O13 0.928462 0.250000 0.779273
O O14 0.957584 0.505135 0.743409
O O15 0.750000 0.750000 0.471157
O O16 0.750000 0.017876 0.494129
O O17 0.750000 0.250000 0.539148
O O18 0.750000 0.557156 0.687428
O O19 0.547580 0.750000 0.700371
#
# Coordination Sequence:
#
# PCOD8243404 Si02
#       7
#     8   8   8   8   4   4   8
#     4   9  17  31  52  78 106 138 180 226 270 320
#     4  10  20  34  54  81 113 149 190 234 278 326
#     4  10  20  36  55  77 104 136 173 212 253 305
#     4   9  17  31  53  76  98 129 170 216 264 316
#     4  10  22  36  52  78 108 136 168 210 257 304
#     4  10  20  34  56  78 102 136 174 210 251 304
#     4  10  20  34  54  79 103 132 172 216 261 311
#
# _framework density 18.529795
#
# number of rings (size 3 to 8) (size 9 to 14) (size 15 to 20)
#    0.000    2.333    0.833    2.000    0.000    5.000 
#    1.500    0.833    0.000    3.000    0.000    0.000 
#    0.000    0.000    0.000    0.000    0.000    0.000 
#
# Total GULP energy -595030.313800 kJ/mol
# GULP energy per Si atom -12396.464871 kJ/mol
# Density = 1.848762 g / cm^3
# Si number density = 18.529795 Si / 1000 Ang^3
#
#
#
# Elastic Constant Matrix: (Units=GPa)
#
#
# Indices 1 2 3 4 5 6 
#
# 1 135.9505 35.1943 72.4577 0.0000 0.0000 0.0000
# 2 35.1943 52.8016 58.3714 0.0000 0.0000 0.0000
# 3 72.4577 58.3714 164.3396 0.0000 0.0000 0.0000
# 4 0.0000 0.0000 0.0000 31.8778 0.0000 0.0000
# 5 0.0000 0.0000 0.0000 0.0000 -3.2464 0.0000
# 6 0.0000 0.0000 0.0000 0.0000 0.0000 -23.3343
#
#
#
# Elastic Compliance Matrix: (Units=1/GPa)
#
#
# Indices 1 2 3 4 5 6 
#
# 1 0.009880 -0.002914 -0.003321 0.000000 0.000000 0.000000
# 2 -0.002914 0.032042 -0.010096 0.000000 0.000000 0.000000
# 3 -0.003321 -0.010096 0.011135 0.000000 0.000000 0.000000
# 4 0.000000 0.000000 0.000000 0.031370 0.000000 0.000000
# 5 0.000000 0.000000 0.000000 0.000000 -0.308035 0.000000
# 6 0.000000 0.000000 0.000000 0.000000 0.000000 -0.042855
#
#
# Mechanical properties :
#
#
# Convention : Reuss Voigt Hill
#
# Bulk Modulus (GPa) = 49.03162 76.12650 62.57906
# Shear Modulus (GPa) = -22.02629 13.53064 -4.24783
#
# Velocity S-wave (km/s) = -3.45149 2.70517 -1.51572
# Velocity P-wave (km/s) = 3.26109 7.13651 5.54817
#
# Compressibility (1/GPa) = 0.02039500
#
# Stress axis : x y z
#
# Youngs Moduli (GPa) = 101.21413 31.20860 89.80421
#
# Poissons Ratio (x) = 0.09094 0.29825
# Poissons Ratio (y) = 0.29494 0.90669
# Poissons Ratio (z) = 0.33614 0.31509
#
# Static dielectric constant tensor:
#      x y z
#    x 3.578210 0.000000 0.000000 
#    y 0.000000 3.183240 0.000000 
#    z 0.000000 0.000000 3.475420 
# 
# 
# High freq. dielectric constant tensor:
#      x y z
#    x 1.723520 0.000000 0.000000 
#    y 0.000000 1.692270 0.000000 
#    z 0.000000 0.000000 1.732040 
# 
# From -- ./inp_files/33102.got.cif
#   From: 2010.03.12/outbox.cif.g09.slc.cpg/sg59_17_cif.got.tgz:33102.got - 2010.04.16 16:29:54.
