data_PCOD8243642
_publ_section_title
;
Structure prediction by ZEFSAII (Michael W. Deem and Ramdas Pophale) SiO2 
 PCOD8243642
Probable space group: P M M N
;
_chemical_formula_sum "Si O2"
_cell_formula_units_Z 64
_cell_length_a 13.865700
_cell_length_b 8.804632
_cell_length_c 26.259122
_cell_angle_alpha 90.000000
_cell_angle_beta 90.000000
_cell_angle_gamma 90.000000
_cell_volume 3205.776266
_symmetry_space_group_name_H-M "P M M N"
_symmetry_group_IT_number 59
_space_group.IT_coordinate_system_code '2'
_symmetry_cell_setting 'orthorhombic'
loop_
_space_group_symop_operation_xyz
x,y,z
1/2-x,1/2-y,z
1/2+x,-y,-z
-x,1/2+y,-z
-x,-y,-z
1/2+x,1/2+y,-z
1/2-x,y,z
x,1/2-y,z
loop_
_atom_site_type_symbol
_atom_site_label
_atom_site_fract_x
_atom_site_fract_y
_atom_site_fract_z
Si Si1 0.482386 0.926513 0.445747
Si Si2 0.359225 0.424862 0.984038
Si Si3 0.140261 0.074881 0.170868
Si Si4 0.359878 0.070762 0.362740
Si Si5 0.956055 0.074276 0.922568
Si Si6 0.857088 0.080793 0.387675
Si Si7 0.855894 0.076187 0.267886
Si Si8 0.549143 0.427760 0.735288
O O1 0.461207 0.750000 0.452373
O O2 0.500000 0.000000 0.500000
O O3 0.391852 0.002423 0.416968
O O4 0.577821 0.951761 0.412408
O O5 0.250000 0.459581 0.965839
O O6 0.370530 0.250000 0.001402
O O7 0.432854 0.460080 0.937916
O O8 0.384363 0.529601 0.031906
O O9 0.250000 0.048814 0.152448
O O10 0.120335 0.250000 0.183442
O O11 0.067318 0.022624 0.127131
O O12 0.124618 0.979573 0.222088
O O13 0.250000 0.022360 0.352120
O O14 0.372036 0.250000 0.364857
O O15 0.427707 0.008876 0.317949
O O16 0.939936 0.250000 0.909673
O O17 0.750000 0.064556 0.410526
O O18 0.897871 0.250000 0.400066
O O19 0.854068 0.055385 0.327967
O O20 0.750000 0.026919 0.246419
O O21 0.876779 0.250000 0.252632
O O22 0.941333 0.971912 0.245565
O O23 0.557469 0.250000 0.726815
#
# Coordination Sequence:
#
# PCOD8243642 Si02
#       8
#     8   8   8   8   8   8   8   8
#     4  12  25  40  60  86 117 152 188 233 285 342
#     4   9  18  34  56  82 116 159 200 238 291 360
#     4  11  24  41  60  82 113 157 203 246 297 356
#     4  11  24  43  65  87 116 154 194 237 287 346
#     4  10  20  34  55  85 118 152 196 252 303 347
#     4   9  18  35  60  86 112 144 181 224 273 328
#     4   9  18  35  61  88 115 149 186 225 273 332
#     4  12  24  38  61  92 122 153 192 242 294 347
#
# _framework density 19.963963
#
# number of rings (size 3 to 8) (size 9 to 14) (size 15 to 20)
#    0.000    1.625    1.250    4.875    0.000    6.750 
#    0.000    1.875    0.000    2.250    0.000    0.000 
#    0.000    0.000    0.000    0.000    0.000    0.000 
#
# Total GULP energy -793715.920427 kJ/mol
# GULP energy per Si atom -12401.811257 kJ/mol
# Density = 1.991852 g / cm^3
# Si number density = 19.963963 Si / 1000 Ang^3
#
#
#
# Elastic Constant Matrix: (Units=GPa)
#
#
# Indices 1 2 3 4 5 6 
#
# 1 122.3455 40.2727 25.0059 0.0000 0.0000 0.0000
# 2 40.2727 99.5047 29.5907 0.0000 0.0000 0.0000
# 3 25.0059 29.5907 71.9540 0.0000 0.0000 0.0000
# 4 0.0000 0.0000 0.0000 34.4655 0.0000 0.0000
# 5 0.0000 0.0000 0.0000 0.0000 24.4282 0.0000
# 6 0.0000 0.0000 0.0000 0.0000 0.0000 30.7246
#
#
#
# Elastic Compliance Matrix: (Units=1/GPa)
#
#
# Indices 1 2 3 4 5 6 
#
# 1 0.009675 -0.003322 -0.001996 0.000000 0.000000 0.000000
# 2 -0.003322 0.012591 -0.004023 0.000000 0.000000 0.000000
# 3 -0.001996 -0.004023 0.016246 0.000000 0.000000 0.000000
# 4 0.000000 0.000000 0.000000 0.029015 0.000000 0.000000
# 5 0.000000 0.000000 0.000000 0.000000 0.040936 0.000000
# 6 0.000000 0.000000 0.000000 0.000000 0.000000 0.032547
#
#
# Mechanical properties :
#
#
# Convention : Reuss Voigt Hill
#
# Bulk Modulus (GPa) = 50.43209 53.72697 52.07953
# Shear Modulus (GPa) = 30.06559 31.18598 30.62579
#
# Velocity S-wave (km/s) = 3.88492 3.95665 3.92095
# Velocity P-wave (km/s) = 6.74091 6.91692 6.82948
#
# Compressibility (1/GPa) = 0.01982864
#
# Stress axis : x y z
#
# Youngs Moduli (GPa) = 103.35773 79.42281 61.55343
#
# Poissons Ratio (x) = 0.26386 0.12287
# Poissons Ratio (y) = 0.34338 0.24765
# Poissons Ratio (z) = 0.20631 0.31955
#
# Static dielectric constant tensor:
#      x y z
#    x 3.343780 0.000000 0.000000 
#    y 0.000000 3.706920 0.000000 
#    z 0.000000 0.000000 3.496710 
# 
# 
# High freq. dielectric constant tensor:
#      x y z
#    x 1.792990 0.000000 0.000000 
#    y 0.000000 1.779290 0.000000 
#    z 0.000000 0.000000 1.757270 
# 
# From -- ./inp_files/32242.got.cif
#   From: 2010.03.12/outbox.cif.g09.slc.cpg/sg59_17_cif.got.tgz:32242.got - 2010.04.16 16:29:54.
