data_PCOD8243445
_publ_section_title
;
Structure prediction by ZEFSAII (Michael W. Deem and Ramdas Pophale) SiO2 
 PCOD8243445
Probable space group: P M M N
;
_chemical_formula_sum "Si O2"
_cell_formula_units_Z 64
_cell_length_a 8.961776
_cell_length_b 18.325524
_cell_length_c 20.537790
_cell_angle_alpha 90.000000
_cell_angle_beta 90.000000
_cell_angle_gamma 90.000000
_cell_volume 3372.905667
_symmetry_space_group_name_H-M "P M M N"
_symmetry_group_IT_number 59
_space_group.IT_coordinate_system_code '2'
_symmetry_cell_setting 'orthorhombic'
loop_
_space_group_symop_operation_xyz
x,y,z
1/2-x,1/2-y,z
1/2+x,-y,-z
-x,1/2+y,-z
-x,-y,-z
1/2+x,1/2+y,-z
1/2-x,y,z
x,1/2-y,z
loop_
_atom_site_type_symbol
_atom_site_label
_atom_site_fract_x
_atom_site_fract_y
_atom_site_fract_z
Si Si1 0.584809 0.663322 0.948050
Si Si2 0.425588 0.577760 0.314527
Si Si3 0.073564 0.921623 0.689284
Si Si4 0.924986 0.665499 0.802703
Si Si5 0.577600 0.664598 0.574359
Si Si6 0.577715 0.166332 0.557769
Si Si7 0.920531 0.663593 0.201477
Si Si8 0.916275 0.163148 0.927374
O O1 0.750000 0.631326 0.960100
O O2 0.592440 0.750000 0.952176
O O3 0.529053 0.641455 0.875915
O O4 0.477074 0.631583 0.003984
O O5 0.250000 0.563977 0.309178
O O6 0.511656 0.502591 0.311567
O O7 0.468954 0.616849 0.381726
O O8 0.475687 0.629034 0.255955
O O9 0.250000 0.923948 0.687246
O O10 0.022153 0.882849 0.754983
O O11 0.016074 0.878367 0.627110
O O12 0.750000 0.651641 0.790474
O O13 0.963148 0.750000 0.790330
O O14 0.750000 0.643066 0.581265
O O15 0.551295 0.750000 0.586153
O O16 0.522100 0.641373 0.503028
O O17 0.750000 0.155631 0.538733
O O18 0.544602 0.250000 0.576664
O O19 0.750000 0.637881 0.209805
O O20 0.935175 0.750000 0.207567
O O21 0.978483 0.636355 0.131224
O O22 0.750000 0.132295 0.916537
O O23 0.914386 0.250000 0.930006
#
# Coordination Sequence:
#
# PCOD8243445 Si02
#       8
#     8   8   8   8   8   8   8   8
#     4   8  14  26  46  73 104 136 171 216 269 319
#     4  11  23  39  58  79 108 145 183 224 269 319
#     4  12  25  38  54  78 110 146 183 224 269 318
#     4   9  18  34  56  80 107 141 181 224 271 324
#     4  10  21  38  61  86 111 141 177 217 263 317
#     4   9  19  37  61  87 111 136 171 217 267 317
#     4  10  20  34  54  80 110 143 180 223 269 319
#     4   9  16  26  44  73 107 140 176 219 265 314
#
# _framework density 18.974737000000001
#
# number of rings (size 3 to 8) (size 9 to 14) (size 15 to 20)
#    0.000    2.250    0.000    4.125    0.000    7.250 
#    0.000    2.500    0.000    0.750    0.000    0.000 
#    0.000    0.000    0.000    0.000    0.000    0.000 
#
# Total GULP energy -793660.950558 kJ/mol
# GULP energy per Si atom -12400.952352 kJ/mol
# Density = 1.893155 g / cm^3
# Si number density = 18.974737 Si / 1000 Ang^3
#
#
#
# Elastic Constant Matrix: (Units=GPa)
#
#
# Indices 1 2 3 4 5 6 
#
# 1 118.2671 44.6031 76.8969 0.0000 0.0000 0.0000
# 2 44.6031 47.8878 48.9652 0.0000 0.0000 0.0000
# 3 76.8969 48.9652 147.8098 0.0000 0.0000 0.0000
# 4 0.0000 0.0000 0.0000 -7.4185 0.0000 0.0000
# 5 0.0000 0.0000 0.0000 0.0000 38.1216 0.0000
# 6 0.0000 0.0000 0.0000 0.0000 0.0000 24.1284
#
#
#
# Elastic Compliance Matrix: (Units=1/GPa)
#
#
# Indices 1 2 3 4 5 6 
#
# 1 0.014991 -0.009056 -0.004799 0.000000 0.000000 0.000000
# 2 -0.009056 0.037049 -0.007562 0.000000 0.000000 0.000000
# 3 -0.004799 -0.007562 0.011767 0.000000 0.000000 0.000000
# 4 0.000000 0.000000 0.000000 -0.134798 0.000000 0.000000
# 5 0.000000 0.000000 0.000000 0.000000 0.026232 0.000000
# 6 0.000000 0.000000 0.000000 0.000000 0.000000 0.041445
#
#
# Mechanical properties :
#
#
# Convention : Reuss Voigt Hill
#
# Bulk Modulus (GPa) = 47.67937 72.76614 60.22276
# Shear Modulus (GPa) = 107.50268 20.53295 64.01781
#
# Velocity S-wave (km/s) = 7.53516 3.29313 5.81478
# Velocity P-wave (km/s) = 10.04427 7.27268 8.76867
#
# Compressibility (1/GPa) = 0.02097343
#
# Stress axis : x y z
#
# Youngs Moduli (GPa) = 66.70644 26.99132 84.98183
#
# Poissons Ratio (x) = 0.24443 0.40783
# Poissons Ratio (y) = 0.60408 0.64264
# Poissons Ratio (z) = 0.32013 0.20411
#
# Static dielectric constant tensor:
#      x y z
#    x 3.604860 0.000000 0.000000 
#    y 0.000000 3.208240 0.000000 
#    z 0.000000 0.000000 3.704310 
# 
# 
# High freq. dielectric constant tensor:
#      x y z
#    x 1.744090 0.000000 0.000000 
#    y 0.000000 1.703520 0.000000 
#    z 0.000000 0.000000 1.755450 
# 
# From -- ./inp_files/29460.got.cif
#   From: 2010.03.12/outbox.cif.g09.slc.cpg/sg59_15_cif.got.tgz:29460.got - 2010.04.16 16:29:54.
