data_PCOD8243443
_publ_section_title
;
Structure prediction by ZEFSAII (Michael W. Deem and Ramdas Pophale) SiO2 
 PCOD8243443
Probable space group: P M M N
;
_chemical_formula_sum "Si O2"
_cell_formula_units_Z 56
_cell_length_a 17.936688
_cell_length_b 9.134292
_cell_length_c 17.829332
_cell_angle_alpha 90.000000
_cell_angle_beta 90.000000
_cell_angle_gamma 90.000000
_cell_volume 2921.138958
_symmetry_space_group_name_H-M "P M M N"
_symmetry_group_IT_number 59
_space_group.IT_coordinate_system_code '2'
_symmetry_cell_setting 'orthorhombic'
loop_
_space_group_symop_operation_xyz
x,y,z
1/2-x,1/2-y,z
1/2+x,-y,-z
-x,1/2+y,-z
-x,-y,-z
1/2+x,1/2+y,-z
1/2-x,y,z
x,1/2-y,z
loop_
_atom_site_type_symbol
_atom_site_label
_atom_site_fract_x
_atom_site_fract_y
_atom_site_fract_z
Si Si1 0.579059 0.923545 0.364290
Si Si2 0.585580 0.078976 0.081715
Si Si3 0.915368 0.918339 0.931889
Si Si4 0.663091 0.579049 0.217572
Si Si5 0.663741 0.918509 0.779742
Si Si6 0.836616 0.918767 0.509952
Si Si7 0.409636 0.576751 0.353938
O O1 0.585810 0.750000 0.363706
O O2 0.619922 0.984514 0.290183
O O3 0.618909 0.984334 0.438943
O O4 0.494035 0.977382 0.366251
O O5 0.602044 0.250000 0.083622
O O6 0.498724 0.042188 0.095535
O O7 0.634933 0.004002 0.144736
O O8 0.610327 0.017794 0.000994
O O9 0.911790 0.750000 0.957865
O O10 0.858656 0.951566 0.864964
O O11 0.750000 0.548466 0.229579
O O12 0.646484 0.750000 0.206397
O O13 0.750000 0.955796 0.769138
O O14 0.646813 0.750000 0.759074
O O15 0.615991 0.023045 0.727095
O O16 0.750000 0.936701 0.492153
O O17 0.857571 0.750000 0.524867
O O18 0.856598 0.009792 0.583260
O O19 0.403541 0.750000 0.357243
#
# Coordination Sequence:
#
# PCOD8243443 Si02
#       7
#     8   8   8   8   8   8   8
#     4   9  19  36  57  80 104 136 180 221 258 306
#     4  10  20  34  54  80 110 141 173 216 268 319
#     4   9  19  36  56  78 105 140 182 221 259 310
#     4  10  20  35  56  79 104 137 178 222 265 313
#     4  10  21  37  56  77 103 138 180 221 259 305
#     4  10  20  36  58  80 105 139 178 218 258 305
#     4  11  22  35  54  80 110 140 171 214 266 317
#
# _framework density 19.170604999999998
#
# number of rings (size 3 to 8) (size 9 to 14) (size 15 to 20)
#    0.000    2.143    0.000    3.000    0.000    6.000 
#    0.000    3.571    0.000    1.714    0.000    0.000 
#    0.000    0.000    0.000    0.000    0.000    0.000 
#
# Total GULP energy -694654.115976 kJ/mol
# GULP energy per Si atom -12404.537785 kJ/mol
# Density = 1.912697 g / cm^3
# Si number density = 19.170605 Si / 1000 Ang^3
#
#
#
# Elastic Constant Matrix: (Units=GPa)
#
#
# Indices 1 2 3 4 5 6 
#
# 1 82.4083 36.0995 37.4290 0.0000 0.0000 0.0000
# 2 36.0995 60.2160 38.4675 0.0000 0.0000 0.0000
# 3 37.4290 38.4675 95.6215 0.0000 0.0000 0.0000
# 4 0.0000 0.0000 0.0000 20.4419 0.0000 0.0000
# 5 0.0000 0.0000 0.0000 0.0000 38.1439 0.0000
# 6 0.0000 0.0000 0.0000 0.0000 0.0000 26.8158
#
#
#
# Elastic Compliance Matrix: (Units=1/GPa)
#
#
# Indices 1 2 3 4 5 6 
#
# 1 0.017283 -0.008128 -0.003495 0.000000 0.000000 0.000000
# 2 -0.008128 0.026174 -0.007348 0.000000 0.000000 0.000000
# 3 -0.003495 -0.007348 0.014782 0.000000 0.000000 0.000000
# 4 0.000000 0.000000 0.000000 0.048919 0.000000 0.000000
# 5 0.000000 0.000000 0.000000 0.000000 0.026216 0.000000
# 6 0.000000 0.000000 0.000000 0.000000 0.000000 0.037291
#
#
# Mechanical properties :
#
#
# Convention : Reuss Voigt Hill
#
# Bulk Modulus (GPa) = 49.27039 51.35977 50.31508
# Shear Modulus (GPa) = 23.21553 25.49697 24.35625
#
# Velocity S-wave (km/s) = 3.48371 3.65088 3.56827
# Velocity P-wave (km/s) = 6.47599 6.67989 6.57873
#
# Compressibility (1/GPa) = 0.02029616
#
# Stress axis : x y z
#
# Youngs Moduli (GPa) = 57.86112 38.20622 67.65034
#
# Poissons Ratio (x) = 0.31055 0.23644
# Poissons Ratio (y) = 0.47031 0.49708
# Poissons Ratio (z) = 0.20223 0.28073
#
# Static dielectric constant tensor:
#      x y z
#    x 3.577400 0.000000 0.000000 
#    y 0.000000 3.353840 0.000000 
#    z 0.000000 0.000000 3.573850 
# 
# 
# High freq. dielectric constant tensor:
#      x y z
#    x 1.753070 0.000000 0.000000 
#    y 0.000000 1.727070 0.000000 
#    z 0.000000 0.000000 1.758490 
# 
# From -- ./inp_files/24310.got.cif
#   From: 2010.03.12/outbox.cif.g09.slc.cpg/sg59_13_cif.got.tgz:24310.got - 2010.04.16 16:29:54.
