data_PCOD8243440
_publ_section_title
;
Structure prediction by ZEFSAII (Michael W. Deem and Ramdas Pophale) SiO2 
 PCOD8243440
Probable space group: P M M N
;
_chemical_formula_sum "Si O2"
_cell_formula_units_Z 64
_cell_length_a 8.902990
_cell_length_b 18.408959
_cell_length_c 21.413095
_cell_angle_alpha 90.000000
_cell_angle_beta 90.000000
_cell_angle_gamma 90.000000
_cell_volume 3509.494449
_symmetry_space_group_name_H-M "P M M N"
_symmetry_group_IT_number 59
_space_group.IT_coordinate_system_code '2'
_symmetry_cell_setting 'orthorhombic'
loop_
_space_group_symop_operation_xyz
x,y,z
1/2-x,1/2-y,z
1/2+x,-y,-z
-x,1/2+y,-z
-x,-y,-z
1/2+x,1/2+y,-z
1/2-x,y,z
x,1/2-y,z
loop_
_atom_site_type_symbol
_atom_site_label
_atom_site_fract_x
_atom_site_fract_y
_atom_site_fract_z
Si Si1 0.428490 0.421781 0.493040
Si Si2 0.925392 0.032832 0.815506
Si Si3 0.573779 0.404223 0.249581
Si Si4 0.928399 0.474042 0.063627
Si Si5 0.927071 0.328814 0.123857
Si Si6 0.427072 0.168262 0.611150
Si Si7 0.073422 0.665511 0.618867
Si Si8 0.423937 0.668374 0.263566
O O1 0.500000 0.500000 0.500000
O O2 0.250000 0.428263 0.490389
O O3 0.486102 0.378262 0.553341
O O4 0.483738 0.379938 0.432048
O O5 0.750000 0.018505 0.827238
O O6 0.957191 0.115325 0.794179
O O7 0.983696 0.978881 0.761258
O O8 0.015356 0.023875 0.879748
O O9 0.750000 0.422511 0.247440
O O10 0.528325 0.348769 0.194593
O O11 0.526863 0.367137 0.314250
O O12 0.750000 0.479785 0.059732
O O13 0.983243 0.391128 0.076306
O O14 0.000000 0.500000 0.000000
O O15 0.750000 0.323436 0.118694
O O16 0.998754 0.250000 0.107019
O O17 0.250000 0.164826 0.615424
O O18 0.485516 0.250000 0.600814
O O19 0.491743 0.137285 0.675692
O O20 0.250000 0.656427 0.607178
O O21 0.026144 0.750000 0.616042
O O22 0.250000 0.668457 0.280565
O O23 0.479172 0.750000 0.246090
#
# Coordination Sequence:
#
# PCOD8243440 Si02
#       8
#     8   8   8   8   8   8   8   8
#     4  11  24  39  54  75 105 141 183 229 278 331
#     4  10  20  34  54  80 109 140 175 218 264 313
#     4   9  18  32  53  80 109 140 174 215 263 318
#     4  10  20  35  56  80 108 144 179 216 260 309
#     4   8  14  28  52  79 103 132 174 216 252 297
#     4   9  19  36  56  75  97 131 174 222 275 327
#     4  10  21  37  57  81 109 143 181 222 272 330
#     4   9  19  35  55  79 105 135 175 222 268 315
#
# _framework density 18.236243999999999
#
# number of rings (size 3 to 8) (size 9 to 14) (size 15 to 20)
#    0.000    2.500    0.000    2.625    1.750    4.750 
#    0.000    1.875    0.000   16.125    0.000    0.000 
#    0.000    0.000    0.000    0.000    0.000    0.000 
#
# Total GULP energy -793499.802661 kJ/mol
# GULP energy per Si atom -12398.434417 kJ/mol
# Density = 1.819474 g / cm^3
# Si number density = 18.236244 Si / 1000 Ang^3
#
#
#
# Elastic Constant Matrix: (Units=GPa)
#
#
# Indices 1 2 3 4 5 6 
#
# 1 51.8824 41.9650 45.1655 0.0000 0.0000 0.0000
# 2 41.9650 133.3698 85.9903 0.0000 0.0000 0.0000
# 3 45.1655 85.9903 134.7217 0.0000 0.0000 0.0000
# 4 0.0000 0.0000 0.0000 26.5145 0.0000 0.0000
# 5 0.0000 0.0000 0.0000 0.0000 33.7470 0.0000
# 6 0.0000 0.0000 0.0000 0.0000 0.0000 27.0023
#
#
#
# Elastic Compliance Matrix: (Units=1/GPa)
#
#
# Indices 1 2 3 4 5 6 
#
# 1 0.028950 -0.004846 -0.006613 0.000000 0.000000 0.000000
# 2 -0.004846 0.013553 -0.007026 0.000000 0.000000 0.000000
# 3 -0.006613 -0.007026 0.014124 0.000000 0.000000 0.000000
# 4 0.000000 0.000000 0.000000 0.037715 0.000000 0.000000
# 5 0.000000 0.000000 0.000000 0.000000 0.029632 0.000000
# 6 0.000000 0.000000 0.000000 0.000000 0.000000 0.037034
#
#
# Mechanical properties :
#
#
# Convention : Reuss Voigt Hill
#
# Bulk Modulus (GPa) = 50.86848 74.02394 62.44621
# Shear Modulus (GPa) = 24.44633 27.24297 25.84465
#
# Velocity S-wave (km/s) = 3.66530 3.86928 3.76867
# Velocity P-wave (km/s) = 6.77254 7.78727 7.29756
#
# Compressibility (1/GPa) = 0.01965854
#
# Stress axis : x y z
#
# Youngs Moduli (GPa) = 34.54184 73.78679 70.80123
#
# Poissons Ratio (x) = 0.35755 0.46819
# Poissons Ratio (y) = 0.16738 0.49744
# Poissons Ratio (z) = 0.22841 0.51841
#
# Static dielectric constant tensor:
#      x y z
#    x 3.302460 0.000000 0.000000 
#    y 0.000000 3.695120 0.000000 
#    z 0.000000 0.000000 3.351320 
# 
# 
# High freq. dielectric constant tensor:
#      x y z
#    x 1.695560 0.000000 0.000000 
#    y 0.000000 1.715900 0.000000 
#    z 0.000000 0.000000 1.702400 
# 
# From -- ./inp_files/29600.got.cif
#   From: 2010.03.12/outbox.cif.g09.slc.cpg/sg59_15_cif.got.tgz:29600.got - 2010.04.16 16:29:54.
