data_PCOD8243245
_publ_section_title
;
Structure prediction by ZEFSAII (Michael W. Deem and Ramdas Pophale) SiO2 
 PCOD8243245
Probable space group: P M M N
;
_chemical_formula_sum "Si O2"
_cell_formula_units_Z 64
_cell_length_a 20.391560
_cell_length_b 8.909872
_cell_length_c 18.619843
_cell_angle_alpha 90.000000
_cell_angle_beta 90.000000
_cell_angle_gamma 90.000000
_cell_volume 3382.968323
_symmetry_space_group_name_H-M "P M M N"
_symmetry_group_IT_number 59
_space_group.IT_coordinate_system_code '2'
_symmetry_cell_setting 'orthorhombic'
loop_
_space_group_symop_operation_xyz
x,y,z
1/2-x,1/2-y,z
1/2+x,-y,-z
-x,1/2+y,-z
-x,-y,-z
1/2+x,1/2+y,-z
1/2-x,y,z
x,1/2-y,z
loop_
_atom_site_type_symbol
_atom_site_label
_atom_site_fract_x
_atom_site_fract_y
_atom_site_fract_z
Si Si1 0.324488 0.423487 0.938523
Si Si2 0.059614 0.425944 0.041135
Si Si3 0.825744 0.075266 0.209658
Si Si4 0.822889 0.928334 0.700491
Si Si5 0.441856 0.428631 0.204319
Si Si6 0.939963 0.927420 0.288857
Si Si7 0.177961 0.071682 0.460356
Si Si8 0.055635 0.072496 0.547332
O O1 0.250000 0.455657 0.963380
O O2 0.333724 0.250000 0.916706
O O3 0.344033 0.523347 0.870438
O O4 0.371693 0.469207 0.003838
O O5 0.047628 0.250000 0.039589
O O6 0.062769 0.484892 0.122553
O O7 0.000000 0.500000 0.000000
O O8 0.750000 0.040396 0.226482
O O9 0.842269 0.250000 0.216179
O O10 0.867941 0.983145 0.266924
O O11 0.750000 0.985096 0.723137
O O12 0.823902 0.750000 0.702825
O O13 0.877707 0.992400 0.754558
O O14 0.839594 0.985170 0.620014
O O15 0.445831 0.250000 0.209723
O O16 0.506856 0.496301 0.238381
O O17 0.943737 0.750000 0.280075
O O18 0.952460 0.978148 0.370604
O O19 0.250000 0.011187 0.482770
O O20 0.178742 0.250000 0.459883
O O21 0.125105 0.011182 0.517240
O O22 0.051251 0.250000 0.539245
O O23 0.000000 0.000000 0.500000
#
# Coordination Sequence:
#
# PCOD8243245 Si02
#       8
#     8   8   8   8   8   8   8   8
#     4   9  18  34  55  78 106 138 170 210 262 315
#     4  10  21  34  50  74 101 132 170 210 255 306
#     4  10  21  37  57  80 105 136 176 218 260 312
#     4   8  14  26  48  77 103 127 160 204 251 299
#     4  10  20  34  53  76 103 137 175 216 262 311
#     4  11  23  36  52  77 107 140 178 218 264 316
#     4   8  14  27  48  73  99 127 161 200 243 293
#     4  10  21  35  53  77 104 136 173 214 258 306
#
# _framework density 18.918299000000001
#
# number of rings (size 3 to 8) (size 9 to 14) (size 15 to 20)
#    0.000    2.500    0.000    3.000    0.000    6.750 
#    0.000    3.750    0.000    0.750    0.000    5.250 
#    0.000    0.000    0.000    0.000    0.000    0.000 
#
# Total GULP energy -793577.346127 kJ/mol
# GULP energy per Si atom -12399.646033 kJ/mol
# Density = 1.887524 g / cm^3
# Si number density = 18.918299 Si / 1000 Ang^3
#
#
#
# Elastic Constant Matrix: (Units=GPa)
#
#
# Indices 1 2 3 4 5 6 
#
# 1 126.8318 26.9095 76.4836 0.0000 0.0000 0.0000
# 2 26.9095 23.0893 32.0666 0.0000 0.0000 0.0000
# 3 76.4836 32.0666 137.6909 0.0000 0.0000 0.0000
# 4 0.0000 0.0000 0.0000 22.7460 0.0000 0.0000
# 5 0.0000 0.0000 0.0000 0.0000 43.7170 0.0000
# 6 0.0000 0.0000 0.0000 0.0000 0.0000 25.4046
#
#
#
# Elastic Compliance Matrix: (Units=1/GPa)
#
#
# Indices 1 2 3 4 5 6 
#
# 1 0.012650 -0.007367 -0.005311 0.000000 0.000000 0.000000
# 2 -0.007367 0.068305 -0.011815 0.000000 0.000000 0.000000
# 3 -0.005311 -0.011815 0.012965 0.000000 0.000000 0.000000
# 4 0.000000 0.000000 0.000000 0.043964 0.000000 0.000000
# 5 0.000000 0.000000 0.000000 0.000000 0.022874 0.000000
# 6 0.000000 0.000000 0.000000 0.000000 0.000000 0.039363
#
#
# Mechanical properties :
#
#
# Convention : Reuss Voigt Hill
#
# Bulk Modulus (GPa) = 22.25535 62.05906 42.15720
# Shear Modulus (GPa) = 18.93319 28.51700 23.72510
#
# Velocity S-wave (km/s) = 3.16695 3.88671 3.54514
# Velocity P-wave (km/s) = 5.01620 7.28127 6.25217
#
# Compressibility (1/GPa) = 0.04493302
#
# Stress axis : x y z
#
# Youngs Moduli (GPa) = 79.04923 14.64011 77.13353
#
# Poissons Ratio (x) = 0.10786 0.40967
# Poissons Ratio (y) = 0.58237 0.91136
# Poissons Ratio (z) = 0.41985 0.17298
#
# Static dielectric constant tensor:
#      x y z
#    x 4.295880 0.000000 0.000000 
#    y 0.000000 3.166310 0.000000 
#    z 0.000000 0.000000 3.672810 
# 
# 
# High freq. dielectric constant tensor:
#      x y z
#    x 1.751510 0.000000 0.000000 
#    y 0.000000 1.702640 0.000000 
#    z 0.000000 0.000000 1.738080 
# 
# From -- ./inp_files/28209.got.cif
#   From: 2010.03.12/outbox.cif.g09.slc.cpg/sg59_15_cif.got.tgz:28209.got - 2010.04.16 16:29:54.
