data_PCOD8243381
_publ_section_title
;
Structure prediction by ZEFSAII (Michael W. Deem and Ramdas Pophale) SiO2 
 PCOD8243381
Probable space group: P M M N
;
_chemical_formula_sum "Si O2"
_cell_formula_units_Z 48
_cell_length_a 15.522822
_cell_length_b 17.934270
_cell_length_c 9.783588
_cell_angle_alpha 90.000000
_cell_angle_beta 90.000000
_cell_angle_gamma 90.000000
_cell_volume 2723.657768
_symmetry_space_group_name_H-M "P M M N"
_symmetry_group_IT_number 59
_space_group.IT_coordinate_system_code '2'
_symmetry_cell_setting 'orthorhombic'
loop_
_space_group_symop_operation_xyz
x,y,z
1/2-x,1/2-y,z
1/2+x,-y,-z
-x,1/2+y,-z
-x,-y,-z
1/2+x,1/2+y,-z
1/2-x,y,z
x,1/2-y,z
loop_
_atom_site_type_symbol
_atom_site_label
_atom_site_fract_x
_atom_site_fract_y
_atom_site_fract_z
Si Si1 0.656419 0.836730 0.026080
Si Si2 0.348260 0.925249 0.229642
Si Si3 0.848818 0.335970 0.502350
Si Si4 0.511312 0.087052 0.985040
Si Si5 0.514409 0.337562 0.277985
Si Si6 0.843342 0.900662 0.727575
O O1 0.750000 0.859536 0.090871
O O2 0.639238 0.750000 0.049194
O O3 0.575754 0.881802 0.088801
O O4 0.660154 0.854020 0.866196
O O5 0.250000 0.904898 0.192612
O O6 0.376101 0.886583 0.370366
O O7 0.407607 0.892940 0.109502
O O8 0.361423 0.013275 0.241864
O O9 0.750000 0.350149 0.460656
O O10 0.864928 0.250000 0.541934
O O11 0.906356 0.360327 0.373917
O O12 0.527571 0.123362 0.132310
O O13 0.500000 0.000000 0.000000
O O14 0.509890 0.250000 0.254095
O O15 0.425644 0.366496 0.352255
O O16 0.750000 0.891573 0.651306
#
# Coordination Sequence:
#
# PCOD8243381 Si02
#       6
#     8   8   8   8   8   8
#     4   9  17  30  49  72 102 140 175 210 260 318
#     4  10  20  34  54  77 106 140 175 215 265 319
#     4   9  20  38  54  71 101 141 180 218 263 315
#     4  11  19  31  51  82 110 136 168 224 270 311
#     4  10  20  34  54  78 103 137 179 220 264 313
#     4   9  16  29  49  75 103 130 166 211 259 311
#
# _framework density 17.623360000000002
#
# number of rings (size 3 to 8) (size 9 to 14) (size 15 to 20)
#    0.000    2.333    3.333    2.000    0.000    3.667 
#    0.000    0.000    0.000    1.000    0.000    0.000 
#    0.000    0.000    0.000    0.000    0.000    0.000 
#
# Total GULP energy -594822.239647 kJ/mol
# GULP energy per Si atom -12392.129993 kJ/mol
# Density = 1.758325 g / cm^3
# Si number density = 17.623360 Si / 1000 Ang^3
#
#
#
# Elastic Constant Matrix: (Units=GPa)
#
#
# Indices 1 2 3 4 5 6 
#
# 1 156.7804 63.7633 70.8203 0.0000 0.0000 0.0000
# 2 63.7633 77.1422 36.8152 0.0000 0.0000 0.0000
# 3 70.8203 36.8152 74.5563 0.0000 0.0000 0.0000
# 4 0.0000 0.0000 0.0000 10.4364 0.0000 0.0000
# 5 0.0000 0.0000 0.0000 0.0000 24.1996 0.0000
# 6 0.0000 0.0000 0.0000 0.0000 0.0000 32.0406
#
#
#
# Elastic Compliance Matrix: (Units=1/GPa)
#
#
# Indices 1 2 3 4 5 6 
#
# 1 0.013254 -0.006472 -0.009394 0.000000 0.000000 0.000000
# 2 -0.006472 0.020120 -0.003787 0.000000 0.000000 0.000000
# 3 -0.009394 -0.003787 0.024206 0.000000 0.000000 0.000000
# 4 0.000000 0.000000 0.000000 0.095818 0.000000 0.000000
# 5 0.000000 0.000000 0.000000 0.000000 0.041323 0.000000
# 6 0.000000 0.000000 0.000000 0.000000 0.000000 0.031210
#
#
# Mechanical properties :
#
#
# Convention : Reuss Voigt Hill
#
# Bulk Modulus (GPa) = 54.72436 72.36405 63.54421
# Shear Modulus (GPa) = 18.42775 22.47401 20.45088
#
# Velocity S-wave (km/s) = 3.23715 3.57492 3.41022
# Velocity P-wave (km/s) = 6.71504 7.62828 7.18618
#
# Compressibility (1/GPa) = 0.01827340
#
# Stress axis : x y z
#
# Youngs Moduli (GPa) = 75.44873 49.70121 41.31199
#
# Poissons Ratio (x) = 0.32168 0.38808
# Poissons Ratio (y) = 0.48832 0.15646
# Poissons Ratio (z) = 0.70876 0.18823
#
# Static dielectric constant tensor:
#      x y z
#    x 4.099170 0.000000 0.000000 
#    y 0.000000 3.333110 0.000000 
#    z 0.000000 0.000000 2.942940 
# 
# 
# High freq. dielectric constant tensor:
#      x y z
#    x 1.707450 0.000000 0.000000 
#    y 0.000000 1.691460 0.000000 
#    z 0.000000 0.000000 1.626730 
# 
# From -- ./inp_files/17040.got.cif
#   From: 2010.03.12/outbox.cif.g09.slc.cpg/sg59_9_cif.got.tgz:17040.got - 2010.04.16 16:29:54.
