data_PCOD8243154
_publ_section_title
;
Structure prediction by ZEFSAII (Michael W. Deem and Ramdas Pophale) SiO2 
 PCOD8243154
Probable space group: P M M N
;
_chemical_formula_sum "Si O2"
_cell_formula_units_Z 64
_cell_length_a 9.111212
_cell_length_b 22.349877
_cell_length_c 16.156383
_cell_angle_alpha 90.000000
_cell_angle_beta 90.000000
_cell_angle_gamma 90.000000
_cell_volume 3289.996449
_symmetry_space_group_name_H-M "P M M N"
_symmetry_group_IT_number 59
_space_group.IT_coordinate_system_code '2'
_symmetry_cell_setting 'orthorhombic'
loop_
_space_group_symop_operation_xyz
x,y,z
1/2-x,1/2-y,z
1/2+x,-y,-z
-x,1/2+y,-z
-x,-y,-z
1/2+x,1/2+y,-z
1/2-x,y,z
x,1/2-y,z
loop_
_atom_site_type_symbol
_atom_site_label
_atom_site_fract_x
_atom_site_fract_y
_atom_site_fract_z
Si Si1 0.919184 0.039537 0.384995
Si Si2 0.420253 0.415114 0.227638
Si Si3 0.588643 0.818455 0.019852
Si Si4 0.081170 0.508184 0.086224
Si Si5 0.918559 0.179486 0.138794
Si Si6 0.417319 0.412718 0.535417
Si Si7 0.079118 0.319584 0.673732
Si Si8 0.075995 0.631879 0.167363
O O1 0.750000 0.054579 0.368446
O O2 0.012573 0.048788 0.303167
O O3 0.976024 0.084104 0.456676
O O4 0.944037 0.970517 0.407615
O O5 0.250000 0.403750 0.245127
O O6 0.447757 0.451673 0.143924
O O7 0.502355 0.351652 0.216862
O O8 0.750000 0.849990 0.025403
O O9 0.614629 0.750000 0.999348
O O10 0.498549 0.821913 0.104539
O O11 0.494808 0.845829 0.944664
O O12 0.250000 0.516317 0.064010
O O13 0.026523 0.566240 0.137071
O O14 0.000000 0.500000 0.000000
O O15 0.750000 0.159937 0.134900
O O16 0.935426 0.250000 0.150222
O O17 0.250000 0.411936 0.503338
O O18 0.452958 0.352617 0.586778
O O19 0.250000 0.325445 0.697735
O O20 0.032846 0.250000 0.665849
O O21 0.983817 0.353819 0.741885
O O22 0.250000 0.640483 0.167761
#
# Coordination Sequence:
#
# PCOD8243154 Si02
#       8
#     8   8   8   8   8   8   8   8
#     4  10  20  35  59  87 111 140 180 227 279 331
#     4  11  22  37  57  81 110 143 181 221 266 324
#     4  10  20  34  52  74 102 139 184 228 268 315
#     4  10  23  38  53  78 111 148 187 231 280 327
#     4  10  21  37  56  78 105 136 173 220 270 317
#     4   9  19  37  59  83 111 143 180 225 278 335
#     4  10  21  37  57  82 113 149 188 229 277 337
#     4  11  22  35  52  77 110 146 186 230 277 327
#
# _framework density 19.452909999999999
#
# number of rings (size 3 to 8) (size 9 to 14) (size 15 to 20)
#    0.000    1.875    0.000    3.750    0.000    8.250 
#    0.000    0.625    0.000    2.250    0.000    0.000 
#    0.000    0.000    0.000    0.000    0.000    0.000 
#
# Total GULP energy -793702.573768 kJ/mol
# GULP energy per Si atom -12401.602715 kJ/mol
# Density = 1.940863 g / cm^3
# Si number density = 19.452910 Si / 1000 Ang^3
#
#
#
# Elastic Constant Matrix: (Units=GPa)
#
#
# Indices 1 2 3 4 5 6 
#
# 1 123.1101 44.9891 51.5981 0.0000 0.0000 0.0000
# 2 44.9891 75.1082 36.3852 0.0000 0.0000 0.0000
# 3 51.5981 36.3852 76.8962 0.0000 0.0000 0.0000
# 4 0.0000 0.0000 0.0000 29.8118 0.0000 0.0000
# 5 0.0000 0.0000 0.0000 0.0000 40.1011 0.0000
# 6 0.0000 0.0000 0.0000 0.0000 0.0000 25.3813
#
#
#
# Elastic Compliance Matrix: (Units=1/GPa)
#
#
# Indices 1 2 3 4 5 6 
#
# 1 0.012319 -0.004378 -0.006195 0.000000 0.000000 0.000000
# 2 -0.004378 0.018830 -0.005972 0.000000 0.000000 0.000000
# 3 -0.006195 -0.005972 0.019987 0.000000 0.000000 0.000000
# 4 0.000000 0.000000 0.000000 0.033544 0.000000 0.000000
# 5 0.000000 0.000000 0.000000 0.000000 0.024937 0.000000
# 6 0.000000 0.000000 0.000000 0.000000 0.000000 0.039399
#
#
# Mechanical properties :
#
#
# Convention : Reuss Voigt Hill
#
# Bulk Modulus (GPa) = 55.41288 60.11771 57.76529
# Shear Modulus (GPa) = 26.57878 28.53498 27.55688
#
# Velocity S-wave (km/s) = 3.70038 3.83414 3.76785
# Velocity P-wave (km/s) = 6.84139 7.11141 6.97770
#
# Compressibility (1/GPa) = 0.01804635
#
# Stress axis : x y z
#
# Youngs Moduli (GPa) = 81.17521 53.10789 50.03268
#
# Poissons Ratio (x) = 0.23251 0.30993
# Poissons Ratio (y) = 0.35539 0.29879
# Poissons Ratio (z) = 0.50285 0.31716
#
# Static dielectric constant tensor:
#      x y z
#    x 3.709520 0.000000 0.000000 
#    y 0.000000 3.553510 0.000000 
#    z 0.000000 0.000000 3.415590 
# 
# 
# High freq. dielectric constant tensor:
#      x y z
#    x 1.767640 0.000000 0.000000 
#    y 0.000000 1.755280 0.000000 
#    z 0.000000 0.000000 1.750240 
# 
# From -- ./inp_files/21456.got.cif
#   From: 2010.03.12/outbox.cif.g09.slc.cpg/sg59_11_cif.got.tgz:21456.got - 2010.04.16 16:29:54.
