data_PCOD8243657
_publ_section_title
;
Structure prediction by ZEFSAII (Michael W. Deem and Ramdas Pophale) SiO2 
 PCOD8243657
Probable space group: P M M N
;
_chemical_formula_sum "Si O2"
_cell_formula_units_Z 48
_cell_length_a 9.745471
_cell_length_b 7.794553
_cell_length_c 34.149881
_cell_angle_alpha 90.000000
_cell_angle_beta 90.000000
_cell_angle_gamma 90.000000
_cell_volume 2594.079267
_symmetry_space_group_name_H-M "P M M N"
_symmetry_group_IT_number 59
_space_group.IT_coordinate_system_code '2'
_symmetry_cell_setting 'orthorhombic'
loop_
_space_group_symop_operation_xyz
x,y,z
1/2-x,1/2-y,z
1/2+x,-y,-z
-x,1/2+y,-z
-x,-y,-z
1/2+x,1/2+y,-z
1/2-x,y,z
x,1/2-y,z
loop_
_atom_site_type_symbol
_atom_site_label
_atom_site_fract_x
_atom_site_fract_y
_atom_site_fract_z
Si Si1 0.400070 0.049261 0.965518
Si Si2 0.598160 0.049786 0.465053
Si Si3 0.092108 0.250000 0.251591
Si Si4 0.402272 0.050465 0.619220
Si Si5 0.592198 0.448359 0.688846
Si Si6 0.586266 0.250000 0.174781
Si Si7 0.413130 0.441666 0.879768
O O1 0.250000 0.963415 0.972588
O O2 0.380264 0.250000 0.964480
O O3 0.461469 0.994993 0.923057
O O4 0.500000 0.000000 0.000000
O O5 0.750000 0.967567 0.471470
O O6 0.612208 0.250000 0.463250
O O7 0.500000 0.000000 0.500000
O O8 0.535586 0.985651 0.423821
O O9 0.250000 0.250000 0.237304
O O10 0.061177 0.424599 0.275332
O O11 0.987885 0.250000 0.215995
O O12 0.250000 0.965697 0.622916
O O13 0.389610 0.250000 0.625991
O O14 0.503410 0.979327 0.652497
O O15 0.750000 0.462079 0.675900
O O16 0.556334 0.250000 0.700319
O O17 0.750000 0.250000 0.180799
O O18 0.535689 0.420102 0.151838
O O19 0.250000 0.434693 0.880403
O O20 0.470546 0.250000 0.869601
#
# Coordination Sequence:
#
# PCOD8243657 Si02
#       7
#     8   8   4   8   8   4   8
#     4   9  18  31  48  73 103 136 174 218 265 311
#     4  10  21  35  51  74 104 139 177 216 258 306
#     4  10  22  38  54  78 110 136 166 214 266 314
#     4   9  18  33  53  77 104 132 165 211 262 302
#     4   9  19  36  56  77 104 138 172 205 252 317
#     4  10  20  34  56  80  98 134 180 214 260 314
#     4   8  16  32  51  73 103 135 173 218 259 306
#
# _framework density 18.503675999999999
#
# number of rings (size 3 to 8) (size 9 to 14) (size 15 to 20)
#    0.000    2.833    0.000    1.500    2.333    3.333 
#    0.000    2.500    0.000    1.000    0.000    0.000 
#    0.000    0.000    0.000    0.000    0.000    0.000 
#
# Total GULP energy -594869.037346 kJ/mol
# GULP energy per Si atom -12393.104945 kJ/mol
# Density = 1.846156 g / cm^3
# Si number density = 18.503676 Si / 1000 Ang^3
#
#
#
# Elastic Constant Matrix: (Units=GPa)
#
#
# Indices 1 2 3 4 5 6 
#
# 1 71.6537 33.6038 76.1123 0.0000 0.0000 0.0000
# 2 33.6038 76.9407 58.0657 0.0000 0.0000 0.0000
# 3 76.1123 58.0657 163.3291 0.0000 0.0000 0.0000
# 4 0.0000 0.0000 0.0000 32.1009 0.0000 0.0000
# 5 0.0000 0.0000 0.0000 0.0000 34.8385 0.0000
# 6 0.0000 0.0000 0.0000 0.0000 0.0000 17.6502
#
#
#
# Elastic Compliance Matrix: (Units=1/GPa)
#
#
# Indices 1 2 3 4 5 6 
#
# 1 0.028229 -0.003282 -0.011988 0.000000 0.000000 0.000000
# 2 -0.003282 0.018144 -0.004921 0.000000 0.000000 0.000000
# 3 -0.011988 -0.004921 0.013459 0.000000 0.000000 0.000000
# 4 0.000000 0.000000 0.000000 0.031152 0.000000 0.000000
# 5 0.000000 0.000000 0.000000 0.000000 0.028704 0.000000
# 6 0.000000 0.000000 0.000000 0.000000 0.000000 0.056656
#
#
# Mechanical properties :
#
#
# Convention : Reuss Voigt Hill
#
# Bulk Modulus (GPa) = 51.41440 71.94301 61.67871
# Shear Modulus (GPa) = 22.40036 26.52736 24.46386
#
# Velocity S-wave (km/s) = 3.48313 3.79043 3.64003
# Velocity P-wave (km/s) = 6.63495 7.62373 7.14646
#
# Compressibility (1/GPa) = 0.01944980
#
# Stress axis : x y z
#
# Youngs Moduli (GPa) = 35.42401 55.11376 74.30076
#
# Poissons Ratio (x) = 0.18087 0.89074
# Poissons Ratio (y) = 0.11625 0.36565
# Poissons Ratio (z) = 0.42468 0.27123
#
# Static dielectric constant tensor:
#      x y z
#    x 3.398780 0.000000 0.000000 
#    y 0.000000 3.887460 0.000000 
#    z 0.000000 0.000000 2.688400 
# 
# 
# High freq. dielectric constant tensor:
#      x y z
#    x 1.693660 0.000000 0.000000 
#    y 0.000000 1.724590 0.000000 
#    z 0.000000 0.000000 1.715080 
# 
# From -- ./inp_files/32940.got.cif
#   From: 2010.03.12/outbox.cif.g09.slc.cpg/sg59_17_cif.got.tgz:32940.got - 2010.04.16 16:29:54.
