data_PCOD8243478
_publ_section_title
;
Structure prediction by ZEFSAII (Michael W. Deem and Ramdas Pophale) SiO2 
 PCOD8243478
Probable space group: P M M N
;
_chemical_formula_sum "Si O2"
_cell_formula_units_Z 40
_cell_length_a 24.872442
_cell_length_b 8.893684
_cell_length_c 9.737309
_cell_angle_alpha 90.000000
_cell_angle_beta 90.000000
_cell_angle_gamma 90.000000
_cell_volume 2153.967139
_symmetry_space_group_name_H-M "P M M N"
_symmetry_group_IT_number 59
_space_group.IT_coordinate_system_code '2'
_symmetry_cell_setting 'orthorhombic'
loop_
_space_group_symop_operation_xyz
x,y,z
1/2-x,1/2-y,z
1/2+x,-y,-z
-x,1/2+y,-z
-x,-y,-z
1/2+x,1/2+y,-z
1/2-x,y,z
x,1/2-y,z
loop_
_atom_site_type_symbol
_atom_site_label
_atom_site_fract_x
_atom_site_fract_y
_atom_site_fract_z
Si Si1 0.662976 0.074675 0.897949
Si Si2 0.538496 0.924985 0.607822
Si Si3 0.338668 0.074864 0.390129
Si Si4 0.460832 0.925196 0.106680
Si Si5 0.750000 0.572356 0.398813
Si Si6 0.750000 0.570843 0.087199
O O1 0.677167 0.250000 0.902409
O O2 0.600867 0.043210 0.933574
O O3 0.677550 0.015013 0.746587
O O4 0.696873 0.988654 0.012512
O O5 0.525863 0.750000 0.617649
O O6 0.600115 0.956289 0.566353
O O7 0.500000 0.000000 0.500000
O O8 0.524586 0.000067 0.750669
O O9 0.328551 0.250000 0.358206
O O10 0.302530 0.017727 0.517215
O O11 0.473002 0.750000 0.116552
O O12 0.500000 0.000000 0.000000
O O13 0.750000 0.750000 0.387839
O O14 0.750000 0.507508 0.243952
O O15 0.750000 0.750000 0.083442
#
# Coordination Sequence:
#
# PCOD8243478 Si02
#       6
#     8   8   8   8   4   4
#     4  10  21  37  56  80 109 141 179 223 270 322
#     4  10  20  34  54  81 111 144 182 223 270 325
#     4   9  18  35  58  80 103 137 180 221 264 321
#     4  10  21  37  57  81 110 144 182 227 278 331
#     4   9  19  35  54  78 104 131 172 221 264 308
#     4  11  22  35  54  80 110 145 180 219 268 320
#
# _framework density 18.570385000000002
#
# number of rings (size 3 to 8) (size 9 to 14) (size 15 to 20)
#    0.000    2.200    0.000    2.700    0.000    5.600 
#    0.000    4.000    0.000    0.000    0.000    0.000 
#    0.000    0.000    0.000    0.000    0.000    0.000 
#
# Total GULP energy -496074.234251 kJ/mol
# GULP energy per Si atom -12401.855856 kJ/mol
# Density = 1.852812 g / cm^3
# Si number density = 18.570385 Si / 1000 Ang^3
#
#
#
# Elastic Constant Matrix: (Units=GPa)
#
#
# Indices 1 2 3 4 5 6 
#
# 1 124.9393 65.0339 108.4243 0.0000 0.0000 0.0000
# 2 65.0339 103.1353 82.1958 0.0000 0.0000 0.0000
# 3 108.4243 82.1958 173.9101 0.0000 0.0000 0.0000
# 4 0.0000 0.0000 0.0000 30.9825 0.0000 0.0000
# 5 0.0000 0.0000 0.0000 0.0000 39.4935 0.0000
# 6 0.0000 0.0000 0.0000 0.0000 0.0000 31.5904
#
#
#
# Elastic Compliance Matrix: (Units=1/GPa)
#
#
# Indices 1 2 3 4 5 6 
#
# 1 0.018388 -0.003944 -0.009600 0.000000 0.000000 0.000000
# 2 -0.003944 0.016401 -0.005293 0.000000 0.000000 0.000000
# 3 -0.009600 -0.005293 0.014237 0.000000 0.000000 0.000000
# 4 0.000000 0.000000 0.000000 0.032276 0.000000 0.000000
# 5 0.000000 0.000000 0.000000 0.000000 0.025321 0.000000
# 6 0.000000 0.000000 0.000000 0.000000 0.000000 0.031655
#
#
# Mechanical properties :
#
#
# Convention : Reuss Voigt Hill
#
# Bulk Modulus (GPa) = 88.08773 101.47697 94.78235
# Shear Modulus (GPa) = 27.81876 30.16866 28.99371
#
# Velocity S-wave (km/s) = 3.87462 4.03495 3.95560
# Velocity P-wave (km/s) = 8.21915 8.74477 8.48603
#
# Compressibility (1/GPa) = 0.01135232
#
# Stress axis : x y z
#
# Youngs Moduli (GPa) = 54.38448 60.97104 70.24120
#
# Poissons Ratio (x) = 0.24047 0.67430
# Poissons Ratio (y) = 0.21449 0.37178
# Poissons Ratio (z) = 0.52208 0.32271
#
# Static dielectric constant tensor:
#      x y z
#    x 3.553630 0.000000 0.000000 
#    y 0.000000 3.461190 0.000000 
#    z 0.000000 0.000000 3.569720 
# 
# 
# High freq. dielectric constant tensor:
#      x y z
#    x 1.731390 0.000000 0.000000 
#    y 0.000000 1.723090 0.000000 
#    z 0.000000 0.000000 1.721380 
# 
# From -- ./inp_files/12397.got.cif
#   From: 2010.03.12/outbox.cif.g09.slc.cpg/sg59_7_cif.got.tgz:12397.got - 2010.04.16 16:29:54.
