data_PCOD8243258
_publ_section_title
;
Structure prediction by ZEFSAII (Michael W. Deem and Ramdas Pophale) SiO2 
 PCOD8243258
Probable space group: P M M N
;
_chemical_formula_sum "Si O2"
_cell_formula_units_Z 48
_cell_length_a 13.744798
_cell_length_b 8.807274
_cell_length_c 21.200113
_cell_angle_alpha 90.000000
_cell_angle_beta 90.000000
_cell_angle_gamma 90.000000
_cell_volume 2566.362763
_symmetry_space_group_name_H-M "P M M N"
_symmetry_group_IT_number 59
_space_group.IT_coordinate_system_code '2'
_symmetry_cell_setting 'orthorhombic'
loop_
_space_group_symop_operation_xyz
x,y,z
1/2-x,1/2-y,z
1/2+x,-y,-z
-x,1/2+y,-z
-x,-y,-z
1/2+x,1/2+y,-z
1/2-x,y,z
x,1/2-y,z
loop_
_atom_site_type_symbol
_atom_site_label
_atom_site_fract_x
_atom_site_fract_y
_atom_site_fract_z
Si Si1 0.641573 0.427741 0.525777
Si Si2 0.634742 0.077647 0.035543
Si Si3 0.549694 0.570623 0.407329
Si Si4 0.359996 0.430742 0.721436
Si Si5 0.534274 0.570129 0.153011
Si Si6 0.139575 0.070658 0.094085
O O1 0.750000 0.469569 0.550309
O O2 0.631203 0.250000 0.513392
O O3 0.623647 0.509021 0.459479
O O4 0.561417 0.481156 0.577314
O O5 0.750000 0.075131 0.036847
O O6 0.594541 0.250000 0.038745
O O7 0.598579 0.981541 0.094338
O O8 0.598359 0.999555 0.971021
O O9 0.558787 0.750000 0.407560
O O10 0.581520 0.506145 0.339301
O O11 0.250000 0.494881 0.720671
O O12 0.357801 0.250000 0.721262
O O13 0.414546 0.490443 0.783618
O O14 0.523825 0.750000 0.153069
O O15 0.427153 0.495125 0.150031
O O16 0.250000 0.019074 0.107370
O O17 0.130854 0.250000 0.089985
#
# Coordination Sequence:
#
# PCOD8243258 Si02
#       6
#     8   8   8   8   8   8
#     4   9  17  29  47  74 105 131 159 202 252 292
#     4  10  20  34  53  77 103 130 164 206 250 298
#     4   9  17  31  51  73  98 132 171 204 238 287
#     4   9  18  32  50  73 100 130 164 200 239 287
#     4  11  21  33  51  74 101 131 165 206 250 297
#     4  10  21  37  55  73  96 128 165 206 253 301
#
# _framework density 18.703513000000001
#
# number of rings (size 3 to 8) (size 9 to 14) (size 15 to 20)
#    0.000    2.333    0.000    3.000    0.000    3.667 
#    0.000    2.500    0.000    7.000    0.000    0.000 
#    0.000    0.000    0.000    0.000    0.000    0.000 
#
# Total GULP energy -595195.289244 kJ/mol
# GULP energy per Si atom -12399.901859 kJ/mol
# Density = 1.866094 g / cm^3
# Si number density = 18.703513 Si / 1000 Ang^3
#
#
#
# Elastic Constant Matrix: (Units=GPa)
#
#
# Indices 1 2 3 4 5 6 
#
# 1 127.2549 25.5758 86.9245 0.0000 0.0000 0.0000
# 2 25.5758 38.0976 21.3036 0.0000 0.0000 0.0000
# 3 86.9245 21.3036 137.3114 0.0000 0.0000 0.0000
# 4 0.0000 0.0000 0.0000 22.9063 0.0000 0.0000
# 5 0.0000 0.0000 0.0000 0.0000 29.4416 0.0000
# 6 0.0000 0.0000 0.0000 0.0000 0.0000 27.1027
#
#
#
# Elastic Compliance Matrix: (Units=1/GPa)
#
#
# Indices 1 2 3 4 5 6 
#
# 1 0.014700 -0.005108 -0.008513 0.000000 0.000000 0.000000
# 2 -0.005108 0.030517 -0.001501 0.000000 0.000000 0.000000
# 3 -0.008513 -0.001501 0.012905 0.000000 0.000000 0.000000
# 4 0.000000 0.000000 0.000000 0.043656 0.000000 0.000000
# 5 0.000000 0.000000 0.000000 0.000000 0.033966 0.000000
# 6 0.000000 0.000000 0.000000 0.000000 0.000000 0.036897
#
#
# Mechanical properties :
#
#
# Convention : Reuss Voigt Hill
#
# Bulk Modulus (GPa) = 35.87167 63.36353 49.61760
# Shear Modulus (GPa) = 23.56519 27.14745 25.35632
#
# Velocity S-wave (km/s) = 3.55341 3.81394 3.68598
# Velocity P-wave (km/s) = 6.00469 7.30385 6.68590
#
# Compressibility (1/GPa) = 0.02787715
#
# Stress axis : x y z
#
# Youngs Moduli (GPa) = 68.02678 32.76875 77.48975
#
# Poissons Ratio (x) = 0.16738 0.65970
# Poissons Ratio (y) = 0.34748 0.11632
# Poissons Ratio (z) = 0.57914 0.04919
#
# Static dielectric constant tensor:
#      x y z
#    x 3.784370 0.000000 0.000000 
#    y 0.000000 3.300560 0.000000 
#    z 0.000000 0.000000 3.508390 
# 
# 
# High freq. dielectric constant tensor:
#      x y z
#    x 1.743710 0.000000 0.000000 
#    y 0.000000 1.712490 0.000000 
#    z 0.000000 0.000000 1.709520 
# 
# From -- ./inp_files/25490.got.cif
#   From: 2010.03.12/outbox.cif.g09.slc.cpg/sg59_13_cif.got.tgz:25490.got - 2010.04.16 16:29:54.
