data_PCOD8243647
_publ_section_title
;
Structure prediction by ZEFSAII (Michael W. Deem and Ramdas Pophale) SiO2 
 PCOD8243647
Probable space group: P M M N
;
_chemical_formula_sum "Si O2"
_cell_formula_units_Z 64
_cell_length_a 14.443534
_cell_length_b 8.712845
_cell_length_c 24.956273
_cell_angle_alpha 90.000000
_cell_angle_beta 90.000000
_cell_angle_gamma 90.000000
_cell_volume 3140.604032
_symmetry_space_group_name_H-M "P M M N"
_symmetry_group_IT_number 59
_space_group.IT_coordinate_system_code '2'
_symmetry_cell_setting 'orthorhombic'
loop_
_space_group_symop_operation_xyz
x,y,z
1/2-x,1/2-y,z
1/2+x,-y,-z
-x,1/2+y,-z
-x,-y,-z
1/2+x,1/2+y,-z
1/2-x,y,z
x,1/2-y,z
loop_
_atom_site_type_symbol
_atom_site_label
_atom_site_fract_x
_atom_site_fract_y
_atom_site_fract_z
Si Si1 0.526408 0.069201 0.179183
Si Si2 0.650478 0.422633 0.081919
Si Si3 0.969990 0.930195 0.376704
Si Si4 0.904363 0.570750 0.981071
Si Si5 0.645637 0.928708 0.584187
Si Si6 0.144675 0.431920 0.725444
Si Si7 0.644757 0.427875 0.868365
Si Si8 0.356087 0.927667 0.530385
O O1 0.529138 0.250000 0.188420
O O2 0.572406 0.020078 0.122772
O O3 0.583430 0.990408 0.225847
O O4 0.420933 0.010111 0.175576
O O5 0.750000 0.424770 0.111827
O O6 0.626249 0.250000 0.062456
O O7 0.662296 0.533519 0.030803
O O8 0.986600 0.750000 0.372647
O O9 0.904543 0.990062 0.328818
O O10 0.921151 0.970604 0.432397
O O11 0.070305 0.013313 0.372501
O O12 0.912608 0.750000 0.970238
O O13 0.866405 0.495870 0.927370
O O14 0.000000 0.500000 0.000000
O O15 0.750000 0.960637 0.605652
O O16 0.631663 0.750000 0.572058
O O17 0.626688 0.023001 0.530343
O O18 0.250000 0.497223 0.727779
O O19 0.147589 0.250000 0.727343
O O20 0.750000 0.453839 0.849095
O O21 0.618535 0.250000 0.870347
O O22 0.250000 0.957950 0.546828
O O23 0.382954 0.750000 0.536705
#
# Coordination Sequence:
#
# PCOD8243647 Si02
#       8
#     8   8   8   8   8   8   8   8
#     4  11  23  40  64  90 117 152 194 243 295 347
#     4  10  21  37  57  84 118 153 188 231 287 347
#     4  11  22  37  59  86 118 157 200 247 298 353
#     4  12  23  36  57  86 120 159 198 237 287 345
#     4  10  21  37  57  83 118 159 201 246 296 351
#     4  10  23  43  65  89 119 155 195 240 293 353
#     4  11  24  42  64  89 120 158 198 243 294 349
#     4  10  20  34  55  85 121 160 201 245 294 353
#
# _framework density 20.378245
#
# number of rings (size 3 to 8) (size 9 to 14) (size 15 to 20)
#    0.000    1.375    1.250    4.500    0.000    7.000 
#    0.000    0.625    0.000    0.750    0.000    0.000 
#    0.000    0.000    0.000    0.000    0.000    0.000 
#
# Total GULP energy -793648.070219 kJ/mol
# GULP energy per Si atom -12400.751097 kJ/mol
# Density = 2.033186 g / cm^3
# Si number density = 20.378245 Si / 1000 Ang^3
#
#
#
# Elastic Constant Matrix: (Units=GPa)
#
#
# Indices 1 2 3 4 5 6 
#
# 1 146.4695 30.8108 53.9072 0.0000 0.0000 0.0000
# 2 30.8108 31.3977 16.1894 0.0000 0.0000 0.0000
# 3 53.9072 16.1894 72.4399 0.0000 0.0000 0.0000
# 4 0.0000 0.0000 0.0000 30.3711 0.0000 0.0000
# 5 0.0000 0.0000 0.0000 0.0000 32.4279 0.0000
# 6 0.0000 0.0000 0.0000 0.0000 0.0000 32.4129
#
#
#
# Elastic Compliance Matrix: (Units=1/GPa)
#
#
# Indices 1 2 3 4 5 6 
#
# 1 0.010675 -0.007210 -0.006332 0.000000 0.000000 0.000000
# 2 -0.007210 0.040868 -0.003768 0.000000 0.000000 0.000000
# 3 -0.006332 -0.003768 0.019359 0.000000 0.000000 0.000000
# 4 0.000000 0.000000 0.000000 0.032926 0.000000 0.000000
# 5 0.000000 0.000000 0.000000 0.000000 0.030838 0.000000
# 6 0.000000 0.000000 0.000000 0.000000 0.000000 0.030852
#
#
# Mechanical properties :
#
#
# Convention : Reuss Voigt Hill
#
# Bulk Modulus (GPa) = 27.56300 50.23576 38.89938
# Shear Modulus (GPa) = 23.55926 29.00234 26.28080
#
# Velocity S-wave (km/s) = 3.40383 3.77663 3.59507
# Velocity P-wave (km/s) = 5.38546 6.61229 6.03016
#
# Compressibility (1/GPa) = 0.03628052
#
# Stress axis : x y z
#
# Youngs Moduli (GPa) = 93.68039 24.46930 51.65573
#
# Poissons Ratio (x) = 0.17642 0.32710
# Poissons Ratio (y) = 0.67543 0.19464
# Poissons Ratio (z) = 0.59321 0.09220
#
# Static dielectric constant tensor:
#      x y z
#    x 7.257770 0.000000 0.000000 
#    y 0.000000 3.959080 0.000000 
#    z 0.000000 0.000000 3.581500 
# 
# 
# High freq. dielectric constant tensor:
#      x y z
#    x 1.819920 0.000000 0.000000 
#    y 0.000000 1.800190 0.000000 
#    z 0.000000 0.000000 1.770490 
# 
# From -- ./inp_files/32112.got.cif
#   From: 2010.03.12/outbox.cif.g09.slc.cpg/sg59_17_cif.got.tgz:32112.got - 2010.04.16 16:29:54.
