data_PCOD8243704
_publ_section_title
;
Structure prediction by ZEFSAII (Michael W. Deem and Ramdas Pophale) SiO2 
 PCOD8243704
Probable space group: P M M N
;
_chemical_formula_sum "Si O2"
_cell_formula_units_Z 56
_cell_length_a 14.029848
_cell_length_b 8.881281
_cell_length_c 22.456171
_cell_angle_alpha 90.000000
_cell_angle_beta 90.000000
_cell_angle_gamma 90.000000
_cell_volume 2798.106780
_symmetry_space_group_name_H-M "P M M N"
_symmetry_group_IT_number 59
_space_group.IT_coordinate_system_code '2'
_symmetry_cell_setting 'orthorhombic'
loop_
_space_group_symop_operation_xyz
x,y,z
1/2-x,1/2-y,z
1/2+x,-y,-z
-x,1/2+y,-z
-x,-y,-z
1/2+x,1/2+y,-z
1/2-x,y,z
x,1/2-y,z
loop_
_atom_site_type_symbol
_atom_site_label
_atom_site_fract_x
_atom_site_fract_y
_atom_site_fract_z
Si Si1 0.146667 0.917645 0.398729
Si Si2 0.859214 0.427933 0.800155
Si Si3 0.031321 0.074695 0.306801
Si Si4 0.407873 0.921589 0.525738
Si Si5 0.641410 0.423933 0.021064
Si Si6 0.857355 0.576741 0.353258
Si Si7 0.453767 0.424950 0.088560
O O1 0.250000 0.945801 0.369019
O O2 0.109073 0.750000 0.382161
O O3 0.162925 0.929194 0.469553
O O4 0.071761 0.039082 0.373070
O O5 0.750000 0.481945 0.809603
O O6 0.864564 0.250000 0.797059
O O7 0.899529 0.493751 0.739253
O O8 0.926551 0.483519 0.853110
O O9 0.029678 0.250000 0.293077
O O10 0.923907 0.010659 0.305780
O O11 0.427641 0.750000 0.546174
O O12 0.500000 0.000000 0.500000
O O13 0.363368 0.010395 0.580578
O O14 0.750000 0.460184 0.042148
O O15 0.632552 0.250000 0.001307
O O16 0.565291 0.458343 0.073520
O O17 0.615550 0.526083 0.964807
O O18 0.750000 0.558108 0.329615
O O19 0.888531 0.750000 0.355766
O O20 0.437036 0.250000 0.101057
#
# Coordination Sequence:
#
# PCOD8243704 Si02
#       7
#     8   8   8   8   8   8   8
#     4  10  21  37  57  81 113 150 184 225 282 345
#     4  11  24  42  63  85 115 156 196 237 291 353
#     4  12  25  40  61  86 113 146 188 241 292 343
#     4  11  21  35  58  86 116 150 187 230 286 346
#     4   9  18  34  56  84 122 165 201 236 288 348
#     4  11  24  42  63  85 113 151 193 237 288 349
#     4  10  20  34  56  88 122 156 200 250 293 339
#
# _framework density 20.013532000000001
#
# number of rings (size 3 to 8) (size 9 to 14) (size 15 to 20)
#    0.000    1.429    1.429    4.286    0.000    8.000 
#    0.000    0.714    0.000    2.571    0.000    0.000 
#    0.000    0.000    0.000    0.000    0.000    0.000 
#
# Total GULP energy -694359.410497 kJ/mol
# GULP energy per Si atom -12399.275187 kJ/mol
# Density = 1.996798 g / cm^3
# Si number density = 20.013532 Si / 1000 Ang^3
#
#
#
# Elastic Constant Matrix: (Units=GPa)
#
#
# Indices 1 2 3 4 5 6 
#
# 1 139.2523 54.0514 35.3409 0.0000 0.0000 0.0000
# 2 54.0514 103.5722 38.2149 0.0000 0.0000 0.0000
# 3 35.3409 38.2149 70.9351 0.0000 0.0000 0.0000
# 4 0.0000 0.0000 0.0000 35.7497 0.0000 0.0000
# 5 0.0000 0.0000 0.0000 0.0000 27.7327 0.0000
# 6 0.0000 0.0000 0.0000 0.0000 0.0000 25.4931
#
#
#
# Elastic Compliance Matrix: (Units=1/GPa)
#
#
# Indices 1 2 3 4 5 6 
#
# 1 0.009357 -0.003948 -0.002535 0.000000 0.000000 0.000000
# 2 -0.003948 0.013716 -0.005422 0.000000 0.000000 0.000000
# 3 -0.002535 -0.005422 0.018282 0.000000 0.000000 0.000000
# 4 0.000000 0.000000 0.000000 0.027972 0.000000 0.000000
# 5 0.000000 0.000000 0.000000 0.000000 0.036059 0.000000
# 6 0.000000 0.000000 0.000000 0.000000 0.000000 0.039226
#
#
# Mechanical properties :
#
#
# Convention : Reuss Voigt Hill
#
# Bulk Modulus (GPa) = 56.99884 63.21934 60.10909
# Shear Modulus (GPa) = 28.69112 30.20526 29.44819
#
# Velocity S-wave (km/s) = 3.79038 3.88911 3.84006
# Velocity P-wave (km/s) = 6.90637 7.19887 7.05414
#
# Compressibility (1/GPa) = 0.01754422
#
# Stress axis : x y z
#
# Youngs Moduli (GPa) = 106.87292 72.90735 54.69989
#
# Poissons Ratio (x) = 0.28782 0.13866
# Poissons Ratio (y) = 0.42191 0.29661
# Poissons Ratio (z) = 0.27092 0.39533
#
# Static dielectric constant tensor:
#      x y z
#    x 3.866490 0.000000 0.000000 
#    y 0.000000 3.738720 0.000000 
#    z 0.000000 0.000000 3.560280 
# 
# 
# High freq. dielectric constant tensor:
#      x y z
#    x 1.795680 0.000000 0.000000 
#    y 0.000000 1.787360 0.000000 
#    z 0.000000 0.000000 1.758420 
# 
# From -- ./inp_files/30384.got.cif
#   From: 2010.03.12/outbox.cif.g09.slc.cpg/sg59_16_cif.got.tgz:30384.got - 2010.04.16 16:29:54.
