data_PCOD8243997
_publ_section_title
;
Structure prediction by ZEFSAII (Michael W. Deem and Ramdas Pophale) SiO2 
 PCOD8243997
Probable space group: P M M N
;
_chemical_formula_sum "Si O2"
_cell_formula_units_Z 64
_cell_length_a 23.887814
_cell_length_b 8.733503
_cell_length_c 15.080552
_cell_angle_alpha 90.000000
_cell_angle_beta 90.000000
_cell_angle_gamma 90.000000
_cell_volume 3146.169533
_symmetry_space_group_name_H-M "P M M N"
_symmetry_group_IT_number 59
_space_group.IT_coordinate_system_code '2'
_symmetry_cell_setting 'orthorhombic'
loop_
_space_group_symop_operation_xyz
x,y,z
1/2-x,1/2-y,z
1/2+x,-y,-z
-x,1/2+y,-z
-x,-y,-z
1/2+x,1/2+y,-z
1/2-x,y,z
x,1/2-y,z
loop_
_atom_site_type_symbol
_atom_site_label
_atom_site_fract_x
_atom_site_fract_y
_atom_site_fract_z
Si Si1 0.108816 0.431390 0.853124
Si Si2 0.024900 0.570607 0.588620
Si Si3 0.134618 0.425185 0.534997
Si Si4 0.314483 0.930882 0.363709
Si Si5 0.309054 0.426257 0.708488
Si Si6 0.369929 0.568735 0.183289
Si Si7 0.314139 0.931988 0.004144
Si Si8 0.006618 0.568716 0.225972
O O1 0.111338 0.250000 0.865612
O O2 0.140020 0.495298 0.764979
O O3 0.140133 0.507710 0.935186
O O4 0.044103 0.484249 0.839428
O O5 0.014778 0.750000 0.589109
O O6 0.089742 0.529496 0.585091
O O7 0.996592 0.502848 0.676444
O O8 0.000000 0.500000 0.500000
O O9 0.113545 0.250000 0.526308
O O10 0.150255 0.486655 0.439285
O O11 0.186303 0.440017 0.602305
O O12 0.250000 0.979726 0.370000
O O13 0.322040 0.750000 0.374284
O O14 0.339146 0.992109 0.271239
O O15 0.250000 0.505792 0.735189
O O16 0.306645 0.250000 0.736052
O O17 0.367260 0.750000 0.182785
O O18 0.434920 0.515337 0.181514
O O19 0.335767 0.505124 0.099035
O O20 0.250000 0.990718 0.987141
O O21 0.314754 0.750000 0.001700
O O22 0.004066 0.750000 0.239721
#
# Coordination Sequence:
#
# PCOD8243997 Si02
#       8
#     8   8   8   8   8   8   8   8
#     4  10  20  36  58  84 117 154 193 237 290 352
#     4  12  24  38  58  84 118 158 199 244 292 346
#     4  11  21  36  56  82 115 153 198 243 294 352
#     4  10  20  35  56  84 117 155 200 250 304 362
#     4   9  17  31  52  77 109 149 188 226 277 343
#     4   9  19  37  61  83 111 153 197 243 298 358
#     4  10  21  38  60  87 116 150 195 244 295 353
#     4  10  20  38  61  86 116 155 200 241 291 357
#
# _framework density 20.342198
#
# number of rings (size 3 to 8) (size 9 to 14) (size 15 to 20)
#    0.000    1.875    1.250    3.375    0.000    5.000 
#    0.000    1.250    0.000    3.750    0.000    0.000 
#    0.000    0.000    0.000    0.000    0.000    0.000 
#
# Total GULP energy -793219.184020 kJ/mol
# GULP energy per Si atom -12394.049750 kJ/mol
# Density = 2.029590 g / cm^3
# Si number density = 20.342198 Si / 1000 Ang^3
#
#
#
# Elastic Constant Matrix: (Units=GPa)
#
#
# Indices 1 2 3 4 5 6 
#
# 1 108.3871 23.3904 35.9285 0.0000 0.0000 0.0000
# 2 23.3904 42.2695 22.5922 0.0000 0.0000 0.0000
# 3 35.9285 22.5922 127.1168 0.0000 0.0000 0.0000
# 4 0.0000 0.0000 0.0000 31.4981 0.0000 0.0000
# 5 0.0000 0.0000 0.0000 0.0000 35.5057 0.0000
# 6 0.0000 0.0000 0.0000 0.0000 0.0000 19.2745
#
#
#
# Elastic Compliance Matrix: (Units=1/GPa)
#
#
# Indices 1 2 3 4 5 6 
#
# 1 0.011029 -0.004902 -0.002246 0.000000 0.000000 0.000000
# 2 -0.004902 0.028320 -0.003648 0.000000 0.000000 0.000000
# 3 -0.002246 -0.003648 0.009150 0.000000 0.000000 0.000000
# 4 0.000000 0.000000 0.000000 0.031748 0.000000 0.000000
# 5 0.000000 0.000000 0.000000 0.000000 0.028165 0.000000
# 6 0.000000 0.000000 0.000000 0.000000 0.000000 0.051882
#
#
# Mechanical properties :
#
#
# Convention : Reuss Voigt Hill
#
# Bulk Modulus (GPa) = 37.16548 49.06620 43.11584
# Shear Modulus (GPa) = 26.19803 30.31314 28.25558
#
# Velocity S-wave (km/s) = 3.59258 3.86445 3.73099
# Velocity P-wave (km/s) = 5.95975 6.63963 6.30886
#
# Compressibility (1/GPa) = 0.02690669
#
# Stress axis : x y z
#
# Youngs Moduli (GPa) = 90.67310 35.31051 109.29159
#
# Poissons Ratio (x) = 0.17311 0.24545
# Poissons Ratio (y) = 0.44452 0.39866
# Poissons Ratio (z) = 0.20364 0.12880
#
# Static dielectric constant tensor:
#      x y z
#    x 4.176150 0.000000 0.000000 
#    y 0.000000 3.279460 0.000000 
#    z 0.000000 0.000000 2.970610 
# 
# 
# High freq. dielectric constant tensor:
#      x y z
#    x 1.813780 0.000000 0.000000 
#    y 0.000000 1.757480 0.000000 
#    z 0.000000 0.000000 1.800600 
# 
# From -- ./inp_files/24650.got.cif
#   From: 2010.03.12/outbox.cif.g09.slc.cpg/sg59_13_cif.got.tgz:24650.got - 2010.04.16 16:29:54.
