data_PCOD8243491
_publ_section_title
;
Structure prediction by ZEFSAII (Michael W. Deem and Ramdas Pophale) SiO2 
 PCOD8243491
Probable space group: P M M N
;
_chemical_formula_sum "Si O2"
_cell_formula_units_Z 64
_cell_length_a 8.975771
_cell_length_b 18.643548
_cell_length_c 19.824257
_cell_angle_alpha 90.000000
_cell_angle_beta 90.000000
_cell_angle_gamma 90.000000
_cell_volume 3317.395478
_symmetry_space_group_name_H-M "P M M N"
_symmetry_group_IT_number 59
_space_group.IT_coordinate_system_code '2'
_symmetry_cell_setting 'orthorhombic'
loop_
_space_group_symop_operation_xyz
x,y,z
1/2-x,1/2-y,z
1/2+x,-y,-z
-x,1/2+y,-z
-x,-y,-z
1/2+x,1/2+y,-z
1/2-x,y,z
x,1/2-y,z
loop_
_atom_site_type_symbol
_atom_site_label
_atom_site_fract_x
_atom_site_fract_y
_atom_site_fract_z
Si Si1 0.573628 0.832069 0.961507
Si Si2 0.573780 0.551933 0.855648
Si Si3 0.074942 0.422121 0.655664
Si Si4 0.080541 0.167477 0.785512
Si Si5 0.080112 0.665512 0.609735
Si Si6 0.423818 0.167443 0.526176
Si Si7 0.925868 0.100203 0.908369
Si Si8 0.573213 0.560662 0.703532
O O1 0.750000 0.834465 0.970872
O O2 0.517830 0.750000 0.953845
O O3 0.522580 0.876814 0.895642
O O4 0.502094 0.869867 0.025339
O O5 0.750000 0.548054 0.851627
O O6 0.515578 0.480608 0.893841
O O7 0.509241 0.554438 0.779798
O O8 0.250000 0.437508 0.654347
O O9 0.028372 0.376663 0.720768
O O10 0.023675 0.379298 0.589583
O O11 0.986463 0.496256 0.657429
O O12 0.250000 0.148334 0.806537
O O13 0.066916 0.250000 0.765541
O O14 0.970254 0.150803 0.846510
O O15 0.250000 0.639305 0.613774
O O16 0.065247 0.750000 0.616415
O O17 0.013188 0.639330 0.538640
O O18 0.987271 0.633840 0.671846
O O19 0.250000 0.157544 0.511098
O O20 0.461676 0.250000 0.542426
O O21 0.750000 0.102667 0.918392
O O22 0.750000 0.561152 0.703042
#
# Coordination Sequence:
#
# PCOD8243491 Si02
#       8
#     8   8   8   8   8   8   8   8
#     4  10  21  38  59  82 108 141 185 233 280 334
#     4   9  20  38  58  81 110 146 187 231 278 332
#     4  10  20  35  56  83 116 150 187 233 283 332
#     4  10  20  34  54  81 113 151 191 227 271 331
#     4  10  22  40  60  84 114 147 187 236 288 339
#     4   9  18  35  59  85 113 149 193 237 282 335
#     4  11  21  36  56  81 114 147 182 228 279 332
#     4  11  22  38  60  85 114 148 191 235 279 338
#
# _framework density 19.292242000000002
#
# number of rings (size 3 to 8) (size 9 to 14) (size 15 to 20)
#    0.000    2.000    1.250    2.250    0.000    5.750 
#    0.000    3.125    0.000    2.250    0.000    0.000 
#    0.000    0.000    0.000    0.000    0.000    0.000 
#
# Total GULP energy -793802.113601 kJ/mol
# GULP energy per Si atom -12403.158025 kJ/mol
# Density = 1.924833 g / cm^3
# Si number density = 19.292242 Si / 1000 Ang^3
#
#
#
# Elastic Constant Matrix: (Units=GPa)
#
#
# Indices 1 2 3 4 5 6 
#
# 1 43.9243 33.8334 35.2667 0.0000 0.0000 0.0000
# 2 33.8334 89.4872 67.3759 0.0000 0.0000 0.0000
# 3 35.2667 67.3759 116.5574 0.0000 0.0000 0.0000
# 4 0.0000 0.0000 0.0000 39.0123 0.0000 0.0000
# 5 0.0000 0.0000 0.0000 0.0000 22.6193 0.0000
# 6 0.0000 0.0000 0.0000 0.0000 0.0000 29.6219
#
#
#
# Elastic Compliance Matrix: (Units=1/GPa)
#
#
# Indices 1 2 3 4 5 6 
#
# 1 0.033698 -0.008966 -0.005013 0.000000 0.000000 0.000000
# 2 -0.008966 0.022172 -0.010104 0.000000 0.000000 0.000000
# 3 -0.005013 -0.010104 0.015937 0.000000 0.000000 0.000000
# 4 0.000000 0.000000 0.000000 0.025633 0.000000 0.000000
# 5 0.000000 0.000000 0.000000 0.000000 0.044210 0.000000
# 6 0.000000 0.000000 0.000000 0.000000 0.000000 0.033759
#
#
# Mechanical properties :
#
#
# Convention : Reuss Voigt Hill
#
# Bulk Modulus (GPa) = 42.29984 58.10232 50.20108
# Shear Modulus (GPa) = 21.60262 25.81687 23.70975
#
# Velocity S-wave (km/s) = 3.34991 3.66211 3.50948
# Velocity P-wave (km/s) = 6.07749 6.93280 6.51919
#
# Compressibility (1/GPa) = 0.02364075
#
# Stress axis : x y z
#
# Youngs Moduli (GPa) = 29.67564 45.10250 62.74871
#
# Poissons Ratio (x) = 0.40439 0.31456
# Poissons Ratio (y) = 0.26607 0.63398
# Poissons Ratio (z) = 0.14877 0.45569
#
# Static dielectric constant tensor:
#      x y z
#    x 3.402140 0.000000 0.000000 
#    y 0.000000 3.660170 0.000000 
#    z 0.000000 0.000000 3.717070 
# 
# 
# High freq. dielectric constant tensor:
#      x y z
#    x 1.735590 0.000000 0.000000 
#    y 0.000000 1.758040 0.000000 
#    z 0.000000 0.000000 1.758190 
# 
# From -- ./inp_files/29579.got.cif
#   From: 2010.03.12/outbox.cif.g09.slc.cpg/sg59_15_cif.got.tgz:29579.got - 2010.04.16 16:29:54.
