data_PCOD8243119
_publ_section_title
;
Structure prediction by ZEFSAII (Michael W. Deem and Ramdas Pophale) SiO2 
 PCOD8243119
Probable space group: P M M N
;
_chemical_formula_sum "Si O2"
_cell_formula_units_Z 56
_cell_length_a 9.022863
_cell_length_b 14.799324
_cell_length_c 21.194995
_cell_angle_alpha 90.000000
_cell_angle_beta 90.000000
_cell_angle_gamma 90.000000
_cell_volume 2830.215857
_symmetry_space_group_name_H-M "P M M N"
_symmetry_group_IT_number 59
_space_group.IT_coordinate_system_code '2'
_symmetry_cell_setting 'orthorhombic'
loop_
_space_group_symop_operation_xyz
x,y,z
1/2-x,1/2-y,z
1/2+x,-y,-z
-x,1/2+y,-z
-x,-y,-z
1/2+x,1/2+y,-z
1/2-x,y,z
x,1/2-y,z
loop_
_atom_site_type_symbol
_atom_site_label
_atom_site_fract_x
_atom_site_fract_y
_atom_site_fract_z
Si Si1 0.424663 0.489461 0.284538
Si Si2 0.081580 0.916956 0.971512
Si Si3 0.920494 0.349033 0.900184
Si Si4 0.075379 0.145226 0.646013
Si Si5 0.922899 0.646335 0.605214
Si Si6 0.416597 0.857255 0.480682
Si Si7 0.076143 0.980313 0.843430
O O1 0.250000 0.505319 0.281651
O O2 0.502621 0.585220 0.299125
O O3 0.469195 0.413679 0.335249
O O4 0.483648 0.452989 0.217926
O O5 0.250000 0.946770 0.967156
O O6 0.033639 0.904904 0.897745
O O7 0.056358 0.838119 0.022973
O O8 0.000000 0.000000 0.000000
O O9 0.750000 0.377830 0.886609
O O10 0.954009 0.250000 0.871664
O O11 0.029792 0.419975 0.867690
O O12 0.250000 0.130103 0.644701
O O13 0.035099 0.250000 0.658606
O O14 0.008766 0.110231 0.579820
O O15 0.750000 0.639332 0.590219
O O16 0.968500 0.750000 0.619416
O O17 0.007853 0.606140 0.544438
O O18 0.250000 0.895828 0.475291
O O19 0.416788 0.750000 0.483286
O O20 0.250000 0.981101 0.826823
#
# Coordination Sequence:
#
# PCOD8243119 Si02
#       7
#     8   8   8   8   8   8   8
#     4  11  23  37  55  78 105 142 184 222 263 314
#     4   8  15  29  49  71  94 123 158 196 239 285
#     4   9  17  31  53  79 104 131 167 210 254 303
#     4  10  21  37  56  78 107 142 178 219 267 318
#     4   9  19  37  58  78 102 134 175 223 272 320
#     4   9  17  31  54  82 108 135 171 218 270 320
#     4  10  20  34  51  72 103 139 172 209 254 307
#
# _framework density 19.786477000000001
#
# number of rings (size 3 to 8) (size 9 to 14) (size 15 to 20)
#    0.000    2.571    0.000    1.714    0.000    5.714 
#    0.000    0.714    0.000    0.857    0.000    0.000 
#    0.000    0.000    0.000    0.000    0.000    0.000 
#
# Total GULP energy -693934.828062 kJ/mol
# GULP energy per Si atom -12391.693358 kJ/mol
# Density = 1.974144 g / cm^3
# Si number density = 19.786477 Si / 1000 Ang^3
#
#
#
# Elastic Constant Matrix: (Units=GPa)
#
#
# Indices 1 2 3 4 5 6 
#
# 1 70.2901 11.4848 31.3103 0.0000 0.0000 0.0000
# 2 11.4848 31.8149 3.3559 0.0000 0.0000 0.0000
# 3 31.3103 3.3559 101.0086 0.0000 0.0000 0.0000
# 4 0.0000 0.0000 0.0000 22.0386 0.0000 0.0000
# 5 0.0000 0.0000 0.0000 0.0000 36.1624 0.0000
# 6 0.0000 0.0000 0.0000 0.0000 0.0000 19.5218
#
#
#
# Elastic Compliance Matrix: (Units=1/GPa)
#
#
# Indices 1 2 3 4 5 6 
#
# 1 0.017500 -0.005765 -0.005233 0.000000 0.000000 0.000000
# 2 -0.005765 0.033442 0.000676 0.000000 0.000000 0.000000
# 3 -0.005233 0.000676 0.011500 0.000000 0.000000 0.000000
# 4 0.000000 0.000000 0.000000 0.045375 0.000000 0.000000
# 5 0.000000 0.000000 0.000000 0.000000 0.027653 0.000000
# 6 0.000000 0.000000 0.000000 0.000000 0.000000 0.051225
#
#
# Mechanical properties :
#
#
# Convention : Reuss Voigt Hill
#
# Bulk Modulus (GPa) = 23.92523 32.82394 28.37459
# Shear Modulus (GPa) = 22.59678 26.00874 24.30276
#
# Velocity S-wave (km/s) = 3.38306 3.62950 3.50844
# Velocity P-wave (km/s) = 5.23241 5.84717 5.54831
#
# Compressibility (1/GPa) = 0.04179687
#
# Stress axis : x y z
#
# Youngs Moduli (GPa) = 57.14377 29.90284 86.95815
#
# Poissons Ratio (x) = 0.17240 0.45505
# Poissons Ratio (y) = 0.32945 -0.05879
# Poissons Ratio (z) = 0.29903 -0.02021
#
# Static dielectric constant tensor:
#      x y z
#    x 3.443110 0.000000 0.000000 
#    y 0.000000 4.988460 0.000000 
#    z 0.000000 0.000000 3.987050 
# 
# 
# High freq. dielectric constant tensor:
#      x y z
#    x 1.774190 0.000000 0.000000 
#    y 0.000000 1.744740 0.000000 
#    z 0.000000 0.000000 1.778390 
# 
# From -- ./inp_files/28977.got.cif
#   From: 2010.03.12/outbox.cif.g09.slc.cpg/sg59_15_cif.got.tgz:28977.got - 2010.04.16 16:29:54.
