data_PCOD8243969
_publ_section_title
;
Structure prediction by ZEFSAII (Michael W. Deem and Ramdas Pophale) SiO2 
 PCOD8243969
Probable space group: P M M N
;
_chemical_formula_sum "Si O2"
_cell_formula_units_Z 56
_cell_length_a 14.854983
_cell_length_b 26.837148
_cell_length_c 6.935885
_cell_angle_alpha 90.000000
_cell_angle_beta 90.000000
_cell_angle_gamma 90.000000
_cell_volume 2765.097210
_symmetry_space_group_name_H-M "P M M N"
_symmetry_group_IT_number 59
_space_group.IT_coordinate_system_code '2'
_symmetry_cell_setting 'orthorhombic'
loop_
_space_group_symop_operation_xyz
x,y,z
1/2-x,1/2-y,z
1/2+x,-y,-z
-x,1/2+y,-z
-x,-y,-z
1/2+x,1/2+y,-z
1/2-x,y,z
x,1/2-y,z
loop_
_atom_site_type_symbol
_atom_site_label
_atom_site_fract_x
_atom_site_fract_y
_atom_site_fract_z
Si Si1 0.852256 0.366533 0.361058
Si Si2 0.585987 0.029071 0.243652
Si Si3 0.849071 0.195189 0.995259
Si Si4 0.520923 0.306678 0.642647
Si Si5 0.353589 0.367514 0.752230
Si Si6 0.152912 0.044609 0.483154
Si Si7 0.895181 0.550974 0.935615
O O1 0.750000 0.352814 0.430626
O O2 0.855610 0.425542 0.325439
O O3 0.875014 0.343700 0.156177
O O4 0.930077 0.345863 0.501170
O O5 0.494231 0.049699 0.156587
O O6 0.577144 0.992917 0.431927
O O7 0.630159 0.995919 0.072245
O O8 0.750000 0.183623 0.908702
O O9 0.850318 0.250000 0.089790
O O10 0.921551 0.190981 0.832606
O O11 0.518894 0.250000 0.558130
O O12 0.420137 0.321558 0.708781
O O13 0.250000 0.348799 0.772388
O O14 0.367742 0.400651 0.562438
O O15 0.380652 0.397886 0.946332
O O16 0.250000 0.026968 0.566241
O O17 0.165660 0.047319 0.253287
#
# Coordination Sequence:
#
# PCOD8243969 Si02
#       7
#     8   8   8   8   8   8   8
#     4  11  22  36  57  85 119 155 190 233 285 344
#     4  10  21  34  53  87 119 149 194 236 276 338
#     4   9  19  36  57  82 111 145 188 233 280 342
#     4  11  23  39  60  83 110 147 190 240 298 352
#     4  10  22  39  59  85 112 145 195 244 290 347
#     4  10  20  35  56  82 115 152 188 229 277 335
#     4  10  20  37  59  79 112 157 192 231 286 340
#
# _framework density 20.252452999999999
#
# number of rings (size 3 to 8) (size 9 to 14) (size 15 to 20)
#    0.000    1.857    0.000    3.857    0.000    6.857 
#    0.000    1.429    0.000    0.000    0.000    4.000 
#    0.000    0.000    0.000    0.000    0.000    0.000 
#
# Total GULP energy -693743.645764 kJ/mol
# GULP energy per Si atom -12388.279389 kJ/mol
# Density = 2.020636 g / cm^3
# Si number density = 20.252453 Si / 1000 Ang^3
#
#
#
# Elastic Constant Matrix: (Units=GPa)
#
#
# Indices 1 2 3 4 5 6 
#
# 1 109.2743 36.0171 35.8312 0.0000 0.0000 0.0000
# 2 36.0171 85.6404 40.2904 0.0000 0.0000 0.0000
# 3 35.8312 40.2904 85.3454 0.0000 0.0000 0.0000
# 4 0.0000 0.0000 0.0000 29.2748 0.0000 0.0000
# 5 0.0000 0.0000 0.0000 0.0000 27.8824 0.0000
# 6 0.0000 0.0000 0.0000 0.0000 0.0000 31.4168
#
#
#
# Elastic Compliance Matrix: (Units=1/GPa)
#
#
# Indices 1 2 3 4 5 6 
#
# 1 0.011267 -0.003231 -0.003205 0.000000 0.000000 0.000000
# 2 -0.003231 0.015937 -0.006167 0.000000 0.000000 0.000000
# 3 -0.003205 -0.006167 0.015974 0.000000 0.000000 0.000000
# 4 0.000000 0.000000 0.000000 0.034159 0.000000 0.000000
# 5 0.000000 0.000000 0.000000 0.000000 0.035865 0.000000
# 6 0.000000 0.000000 0.000000 0.000000 0.000000 0.031830
#
#
# Mechanical properties :
#
#
# Convention : Reuss Voigt Hill
#
# Bulk Modulus (GPa) = 55.64194 56.05972 55.85083
# Shear Modulus (GPa) = 28.37215 28.92287 28.64751
#
# Velocity S-wave (km/s) = 3.74695 3.78314 3.76509
# Velocity P-wave (km/s) = 6.80098 6.84277 6.82191
#
# Compressibility (1/GPa) = 0.01797205
#
# Stress axis : x y z
#
# Youngs Moduli (GPa) = 88.75403 62.74776 62.60079
#
# Poissons Ratio (x) = 0.20271 0.20065
# Poissons Ratio (y) = 0.28673 0.38607
# Poissons Ratio (z) = 0.28448 0.38698
#
# Static dielectric constant tensor:
#      x y z
#    x 3.604550 0.000000 0.000000 
#    y 0.000000 3.276590 0.000000 
#    z 0.000000 0.000000 3.728600 
# 
# 
# High freq. dielectric constant tensor:
#      x y z
#    x 1.798650 0.000000 0.000000 
#    y 0.000000 1.777520 0.000000 
#    z 0.000000 0.000000 1.792240 
# 
# From -- ./inp_files/2312.got.cif
#   From: 2010.03.12/outbox.cif.g09.slc.cpg/sg59_2_cif.got.tgz:2312.got - 2010.04.16 16:29:54.
