data_PCOD8243737
_publ_section_title
;
Structure prediction by ZEFSAII (Michael W. Deem and Ramdas Pophale) SiO2 
 PCOD8243737
Probable space group: P M M N
;
_chemical_formula_sum "Si O2"
_cell_formula_units_Z 64
_cell_length_a 19.279836
_cell_length_b 8.878492
_cell_length_c 18.801526
_cell_angle_alpha 90.000000
_cell_angle_beta 90.000000
_cell_angle_gamma 90.000000
_cell_volume 3218.367564
_symmetry_space_group_name_H-M "P M M N"
_symmetry_group_IT_number 59
_space_group.IT_coordinate_system_code '2'
_symmetry_cell_setting 'orthorhombic'
loop_
_space_group_symop_operation_xyz
x,y,z
1/2-x,1/2-y,z
1/2+x,-y,-z
-x,1/2+y,-z
-x,-y,-z
1/2+x,1/2+y,-z
1/2-x,y,z
x,1/2-y,z
loop_
_atom_site_type_symbol
_atom_site_label
_atom_site_fract_x
_atom_site_fract_y
_atom_site_fract_z
Si Si1 0.169424 0.927215 0.196111
Si Si2 0.587686 0.576945 0.926632
Si Si3 0.558765 0.576603 0.707257
Si Si4 0.829482 0.577558 0.493057
Si Si5 0.830676 0.920385 0.330369
Si Si6 0.452309 0.573308 0.440107
Si Si7 0.058261 0.422429 0.918274
Si Si8 0.918210 0.079556 0.216197
O O1 0.250000 0.972247 0.201594
O O2 0.158432 0.750000 0.203099
O O3 0.140723 0.979113 0.119478
O O4 0.128989 0.006106 0.260945
O O5 0.595081 0.750000 0.902371
O O6 0.508325 0.529444 0.917308
O O7 0.604662 0.555878 0.010680
O O8 0.572513 0.750000 0.687422
O O9 0.531217 0.490131 0.637807
O O10 0.499681 0.559968 0.766911
O O11 0.750000 0.532003 0.502837
O O12 0.841959 0.750000 0.516564
O O13 0.853185 0.556430 0.411794
O O14 0.872625 0.465848 0.542752
O O15 0.750000 0.955209 0.321024
O O16 0.847516 0.750000 0.306555
O O17 0.873389 0.037464 0.284419
O O18 0.500000 0.500000 0.500000
O O19 0.465420 0.750000 0.440025
O O20 0.033973 0.250000 0.911146
O O21 0.103202 0.472777 0.849927
O O22 0.900663 0.250000 0.195683
#
# Coordination Sequence:
#
# PCOD8243737 Si02
#       8
#     8   8   8   8   8   8   8   8
#     4  11  24  41  62  89 122 162 205 250 303 360
#     4  10  20  36  58  87 116 149 194 241 291 347
#     4  11  24  41  61  87 118 154 200 247 298 357
#     4   9  19  38  62  85 111 147 191 238 292 356
#     4   9  19  36  58  83 112 149 190 231 285 353
#     4  12  25  40  60  87 120 156 196 247 302 357
#     4  10  20  34  58  86 116 152 191 238 290 344
#     4  11  22  35  56  87 118 150 192 241 291 348
#
# _framework density 19.885857000000001
#
# number of rings (size 3 to 8) (size 9 to 14) (size 15 to 20)
#    0.000    1.625    1.250    4.500    0.000    7.500 
#    0.000    1.875    0.000    0.750    0.000    0.000 
#    0.000    0.000    0.000    0.000    0.000    0.000 
#
# Total GULP energy -793792.590745 kJ/mol
# GULP energy per Si atom -12403.009230 kJ/mol
# Density = 1.984060 g / cm^3
# Si number density = 19.885857 Si / 1000 Ang^3
#
#
#
# Elastic Constant Matrix: (Units=GPa)
#
#
# Indices 1 2 3 4 5 6 
#
# 1 46.5049 29.1965 20.7302 0.0000 0.0000 0.0000
# 2 29.1965 114.2919 48.3938 0.0000 0.0000 0.0000
# 3 20.7302 48.3938 98.6278 0.0000 0.0000 0.0000
# 4 0.0000 0.0000 0.0000 37.3367 0.0000 0.0000
# 5 0.0000 0.0000 0.0000 0.0000 30.9045 0.0000
# 6 0.0000 0.0000 0.0000 0.0000 0.0000 30.5313
#
#
#
# Elastic Compliance Matrix: (Units=1/GPa)
#
#
# Indices 1 2 3 4 5 6 
#
# 1 0.026212 -0.005507 -0.002807 0.000000 0.000000 0.000000
# 2 -0.005507 0.012201 -0.004829 0.000000 0.000000 0.000000
# 3 -0.002807 -0.004829 0.013099 0.000000 0.000000 0.000000
# 4 0.000000 0.000000 0.000000 0.026783 0.000000 0.000000
# 5 0.000000 0.000000 0.000000 0.000000 0.032358 0.000000
# 6 0.000000 0.000000 0.000000 0.000000 0.000000 0.032753
#
#
# Mechanical properties :
#
#
# Convention : Reuss Voigt Hill
#
# Bulk Modulus (GPa) = 39.64391 50.67396 45.15894
# Shear Modulus (GPa) = 28.07382 30.49478 29.28430
#
# Velocity S-wave (km/s) = 3.76140 3.92023 3.84164
# Velocity P-wave (km/s) = 6.23243 6.78444 6.51429
#
# Compressibility (1/GPa) = 0.02522455
#
# Stress axis : x y z
#
# Youngs Moduli (GPa) = 38.15037 81.95902 76.34353
#
# Poissons Ratio (x) = 0.45138 0.21430
# Poissons Ratio (y) = 0.21011 0.36868
# Poissons Ratio (z) = 0.10709 0.39580
#
# Static dielectric constant tensor:
#      x y z
#    x 3.427510 0.000000 0.000000 
#    y 0.000000 3.624620 0.000000 
#    z 0.000000 0.000000 3.766360 
# 
# 
# High freq. dielectric constant tensor:
#      x y z
#    x 1.756420 0.000000 0.000000 
#    y 0.000000 1.782620 0.000000 
#    z 0.000000 0.000000 1.787410 
# 
# From -- ./inp_files/28136.got.cif
#   From: 2010.03.12/outbox.cif.g09.slc.cpg/sg59_15_cif.got.tgz:28136.got - 2010.04.16 16:29:54.
