data_PCOD8243628
_publ_section_title
;
Structure prediction by ZEFSAII (Michael W. Deem and Ramdas Pophale) SiO2 
 PCOD8243628
Probable space group: P M M N
;
_chemical_formula_sum "Si O2"
_cell_formula_units_Z 56
_cell_length_a 8.701929
_cell_length_b 14.184606
_cell_length_c 22.692577
_cell_angle_alpha 90.000000
_cell_angle_beta 90.000000
_cell_angle_gamma 90.000000
_cell_volume 2801.022712
_symmetry_space_group_name_H-M "P M M N"
_symmetry_group_IT_number 59
_space_group.IT_coordinate_system_code '2'
_symmetry_cell_setting 'orthorhombic'
loop_
_space_group_symop_operation_xyz
x,y,z
1/2-x,1/2-y,z
1/2+x,-y,-z
-x,1/2+y,-z
-x,-y,-z
1/2+x,1/2+y,-z
1/2-x,y,z
x,1/2-y,z
loop_
_atom_site_type_symbol
_atom_site_label
_atom_site_fract_x
_atom_site_fract_y
_atom_site_fract_z
Si Si1 0.929561 0.356624 0.411902
Si Si2 0.929973 0.027990 0.640572
Si Si3 0.926313 0.860240 0.464084
Si Si4 0.069009 0.858486 0.245058
Si Si5 0.426860 0.858563 0.033020
Si Si6 0.428510 0.356166 0.092669
Si Si7 0.429425 0.467886 0.862618
O O1 0.750000 0.366877 0.423744
O O2 0.972543 0.250000 0.393340
O O3 0.984267 0.426868 0.360295
O O4 0.017778 0.387685 0.470909
O O5 0.750000 0.009656 0.643364
O O6 0.987295 0.084991 0.697544
O O7 0.969281 0.087024 0.582748
O O8 0.750000 0.892000 0.456882
O O9 0.947813 0.750000 0.453226
O O10 0.250000 0.867938 0.235412
O O11 0.020229 0.750000 0.253112
O O12 0.985131 0.899893 0.188715
O O13 0.250000 0.888915 0.040561
O O14 0.450671 0.750000 0.050522
O O15 0.532140 0.920967 0.074969
O O16 0.476789 0.876749 0.966360
O O17 0.250000 0.371178 0.079076
O O18 0.460147 0.250000 0.115712
O O19 0.486486 0.430243 0.141795
O O20 0.250000 0.484665 0.856744
#
# Coordination Sequence:
#
# PCOD8243628 Si02
#       7
#     8   8   8   8   8   8   8
#     4  10  21  37  57  82 114 150 188 231 278 330
#     4  11  22  37  59  84 112 147 187 232 282 335
#     4  10  20  34  55  84 117 151 187 229 278 333
#     4  10  23  43  63  83 110 146 188 231 275 328
#     4  10  20  35  57  85 118 153 188 230 280 333
#     4  10  21  38  60  85 114 148 188 233 279 331
#     4  12  24  37  57  84 115 150 188 232 281 333
#
# _framework density 19.992697
#
# number of rings (size 3 to 8) (size 9 to 14) (size 15 to 20)
#    0.000    1.571    0.000    5.143    0.000    7.143 
#    0.000    0.714    0.000    0.857    0.000    0.000 
#    0.000    0.000    0.000    0.000    0.000    0.000 
#
# Total GULP energy -694675.691877 kJ/mol
# GULP energy per Si atom -12404.923069 kJ/mol
# Density = 1.994719 g / cm^3
# Si number density = 19.992697 Si / 1000 Ang^3
#
#
#
# Elastic Constant Matrix: (Units=GPa)
#
#
# Indices 1 2 3 4 5 6 
#
# 1 55.9443 45.1790 22.8316 0.0000 0.0000 0.0000
# 2 45.1790 109.2888 52.5376 0.0000 0.0000 0.0000
# 3 22.8316 52.5376 51.4282 0.0000 0.0000 0.0000
# 4 0.0000 0.0000 0.0000 35.7492 0.0000 0.0000
# 5 0.0000 0.0000 0.0000 0.0000 25.0342 0.0000
# 6 0.0000 0.0000 0.0000 0.0000 0.0000 33.3001
#
#
#
# Elastic Compliance Matrix: (Units=1/GPa)
#
#
# Indices 1 2 3 4 5 6 
#
# 1 0.026867 -0.010557 -0.001143 0.000000 0.000000 0.000000
# 2 -0.010557 0.022128 -0.017919 0.000000 0.000000 0.000000
# 3 -0.001143 -0.017919 0.038257 0.000000 0.000000 0.000000
# 4 0.000000 0.000000 0.000000 0.027973 0.000000 0.000000
# 5 0.000000 0.000000 0.000000 0.000000 0.039945 0.000000
# 6 0.000000 0.000000 0.000000 0.000000 0.000000 0.030030
#
#
# Mechanical properties :
#
#
# Convention : Reuss Voigt Hill
#
# Bulk Modulus (GPa) = 35.69490 50.86196 43.27843
# Shear Modulus (GPa) = 19.70241 25.22425 22.46333
#
# Velocity S-wave (km/s) = 3.14264 3.55586 3.35562
# Velocity P-wave (km/s) = 5.57324 6.50802 6.05868
#
# Compressibility (1/GPa) = 0.02801521
#
# Stress axis : x y z
#
# Youngs Moduli (GPa) = 37.22037 45.19090 26.13890
#
# Poissons Ratio (x) = 0.47710 0.02986
# Poissons Ratio (y) = 0.39295 0.46838
# Poissons Ratio (z) = 0.04253 0.80977
#
# Static dielectric constant tensor:
#      x y z
#    x 3.785650 0.000000 0.000000 
#    y 0.000000 4.010900 0.000000 
#    z 0.000000 0.000000 3.455950 
# 
# 
# High freq. dielectric constant tensor:
#      x y z
#    x 1.788200 0.000000 0.000000 
#    y 0.000000 1.802010 0.000000 
#    z 0.000000 0.000000 1.754690 
# 
# From -- ./inp_files/29045.got.cif
#   From: 2010.03.12/outbox.cif.g09.slc.cpg/sg59_15_cif.got.tgz:29045.got - 2010.04.16 16:29:54.
