data_PCOD8243959
_publ_section_title
;
Structure prediction by ZEFSAII (Michael W. Deem and Ramdas Pophale) SiO2 
 PCOD8243959
Probable space group: P M M N
;
_chemical_formula_sum "Si O2"
_cell_formula_units_Z 64
_cell_length_a 14.660210
_cell_length_b 23.837314
_cell_length_c 9.434060
_cell_angle_alpha 90.000000
_cell_angle_beta 90.000000
_cell_angle_gamma 90.000000
_cell_volume 3296.826882
_symmetry_space_group_name_H-M "P M M N"
_symmetry_group_IT_number 59
_space_group.IT_coordinate_system_code '2'
_symmetry_cell_setting 'orthorhombic'
loop_
_space_group_symop_operation_xyz
x,y,z
1/2-x,1/2-y,z
1/2+x,-y,-z
-x,1/2+y,-z
-x,-y,-z
1/2+x,1/2+y,-z
1/2-x,y,z
x,1/2-y,z
loop_
_atom_site_type_symbol
_atom_site_label
_atom_site_fract_x
_atom_site_fract_y
_atom_site_fract_z
Si Si1 0.991187 0.687561 0.327599
Si Si2 0.644913 0.124220 0.164612
Si Si3 0.651283 0.011901 0.803232
Si Si4 0.356149 0.091399 0.364458
Si Si5 0.997874 0.685089 0.652734
Si Si6 0.144215 0.091700 0.694443
Si Si7 0.354700 0.864811 0.163135
Si Si8 0.408072 0.503914 0.906557
O O1 0.953386 0.750000 0.308376
O O2 0.020506 0.675929 0.488426
O O3 0.909093 0.648884 0.272204
O O4 0.083061 0.681075 0.237267
O O5 0.750000 0.124776 0.216687
O O6 0.586644 0.166313 0.260597
O O7 0.603472 0.061914 0.178381
O O8 0.637861 0.144936 0.003845
O O9 0.750000 0.015503 0.730394
O O10 0.605433 0.073536 0.791353
O O11 0.599276 0.961813 0.720727
O O12 0.667656 0.998163 0.970417
O O13 0.250000 0.101204 0.324941
O O14 0.409334 0.146971 0.312686
O O15 0.367841 0.076955 0.529432
O O16 0.974960 0.750000 0.687942
O O17 0.250000 0.099636 0.734199
O O18 0.098707 0.043936 0.789593
O O19 0.250000 0.858192 0.212245
O O20 0.500000 0.500000 0.000000
#
# Coordination Sequence:
#
# PCOD8243959 Si02
#       8
#     8   8   8   8   8   8   8   8
#     4  10  22  38  54  76 107 143 186 231 274 323
#     4  10  21  37  56  80 110 143 180 222 271 327
#     4   9  17  32  53  78 108 137 168 209 264 327
#     4   9  19  35  56  82 110 141 179 227 278 327
#     4  10  22  38  54  75 105 143 186 229 273 323
#     4  10  20  35  56  82 111 143 181 224 273 329
#     4   9  19  36  57  80 107 141 178 219 271 329
#     4  11  20  33  56  83 111 143 175 215 269 329
#
# _framework density 19.412606
#
# number of rings (size 3 to 8) (size 9 to 14) (size 15 to 20)
#    0.000    2.250    0.000    4.125    0.000    3.000 
#    0.000    9.375    0.000    0.000    0.000    3.500 
#    0.000    0.000    0.000    0.000    0.000    0.000 
#
# Total GULP energy -793226.915156 kJ/mol
# GULP energy per Si atom -12394.170549 kJ/mol
# Density = 1.936842 g / cm^3
# Si number density = 19.412606 Si / 1000 Ang^3
#
#
#
# Elastic Constant Matrix: (Units=GPa)
#
#
# Indices 1 2 3 4 5 6 
#
# 1 90.5184 30.7195 25.4064 0.0000 0.0000 0.0000
# 2 30.7195 92.2521 37.9961 0.0000 0.0000 0.0000
# 3 25.4064 37.9961 49.2810 0.0000 0.0000 0.0000
# 4 0.0000 0.0000 0.0000 30.5286 0.0000 0.0000
# 5 0.0000 0.0000 0.0000 0.0000 32.1911 0.0000
# 6 0.0000 0.0000 0.0000 0.0000 0.0000 22.2324
#
#
#
# Elastic Compliance Matrix: (Units=1/GPa)
#
#
# Indices 1 2 3 4 5 6 
#
# 1 0.013253 -0.002343 -0.005026 0.000000 0.000000 0.000000
# 2 -0.002343 0.016298 -0.011358 0.000000 0.000000 0.000000
# 3 -0.005026 -0.011358 0.031640 0.000000 0.000000 0.000000
# 4 0.000000 0.000000 0.000000 0.032756 0.000000 0.000000
# 5 0.000000 0.000000 0.000000 0.000000 0.031064 0.000000
# 6 0.000000 0.000000 0.000000 0.000000 0.000000 0.044979
#
#
# Mechanical properties :
#
#
# Convention : Reuss Voigt Hill
#
# Bulk Modulus (GPa) = 42.12818 46.69952 44.41385
# Shear Modulus (GPa) = 23.21709 26.18573 24.70141
#
# Velocity S-wave (km/s) = 3.46205 3.67673 3.57100
# Velocity P-wave (km/s) = 6.14244 6.49099 6.31912
#
# Compressibility (1/GPa) = 0.02373708
#
# Stress axis : x y z
#
# Youngs Moduli (GPa) = 75.45239 61.35636 31.60549
#
# Poissons Ratio (x) = 0.14377 0.15885
# Poissons Ratio (y) = 0.17680 0.35898
# Poissons Ratio (z) = 0.37922 0.69689
#
# Static dielectric constant tensor:
#      x y z
#    x 3.690750 0.000000 0.000000 
#    y 0.000000 3.578430 0.000000 
#    z 0.000000 0.000000 3.602640 
# 
# 
# High freq. dielectric constant tensor:
#      x y z
#    x 1.761720 0.000000 0.000000 
#    y 0.000000 1.752530 0.000000 
#    z 0.000000 0.000000 1.747490 
# 
# From -- ./inp_files/9621.got.cif
#   From: 2010.03.12/outbox.cif.g09.slc.cpg/sg59_5_cif.got.tgz:9621.got - 2010.04.16 16:29:54.
