data_PCOD8243889
_publ_section_title
;
Structure prediction by ZEFSAII (Michael W. Deem and Ramdas Pophale) SiO2 
 PCOD8243889
Probable space group: P M M N
;
_chemical_formula_sum "Si O2"
_cell_formula_units_Z 64
_cell_length_a 21.049174
_cell_length_b 8.874731
_cell_length_c 16.723858
_cell_angle_alpha 90.000000
_cell_angle_beta 90.000000
_cell_angle_gamma 90.000000
_cell_volume 3124.112954
_symmetry_space_group_name_H-M "P M M N"
_symmetry_group_IT_number 59
_space_group.IT_coordinate_system_code '2'
_symmetry_cell_setting 'orthorhombic'
loop_
_space_group_symop_operation_xyz
x,y,z
1/2-x,1/2-y,z
1/2+x,-y,-z
-x,1/2+y,-z
-x,-y,-z
1/2+x,1/2+y,-z
1/2-x,y,z
x,1/2-y,z
loop_
_atom_site_type_symbol
_atom_site_label
_atom_site_fract_x
_atom_site_fract_y
_atom_site_fract_z
Si Si1 0.930864 0.925147 0.499140
Si Si2 0.182857 0.422100 0.792745
Si Si3 0.591054 0.921236 0.067158
Si Si4 0.180226 0.921135 0.047336
Si Si5 0.502458 0.926108 0.809936
Si Si6 0.422596 0.425326 0.683129
Si Si7 0.677235 0.072475 0.610391
Si Si8 0.869667 0.420280 0.784706
O O1 0.937908 0.750000 0.521343
O O2 0.908858 0.951097 0.408978
O O3 0.876933 0.995929 0.555611
O O4 0.000000 0.000000 0.500000
O O5 0.250000 0.508419 0.793005
O O6 0.192466 0.250000 0.767400
O O7 0.153769 0.432554 0.879894
O O8 0.138064 0.498227 0.727115
O O9 0.569362 0.750000 0.050709
O O10 0.532891 0.002638 0.112532
O O11 0.616893 0.993995 0.985240
O O12 0.250000 0.986130 0.020867
O O13 0.174203 0.750000 0.017111
O O14 0.180912 0.927276 0.143796
O O15 0.490591 0.750000 0.814506
O O16 0.481664 0.987910 0.722335
O O17 0.576035 0.964688 0.811986
O O18 0.432898 0.250000 0.704378
O O19 0.750000 0.020032 0.589249
O O20 0.671354 0.250000 0.597082
O O21 0.663612 0.028229 0.702269
O O22 0.896852 0.250000 0.774836
#
# Coordination Sequence:
#
# PCOD8243889 Si02
#       8
#     8   8   8   8   8   8   8   8
#     4  11  23  38  59  87 119 156 198 246 299 356
#     4   8  14  27  49  74  99 131 171 211 254 315
#     4  10  20  35  55  80 113 151 187 225 277 342
#     4  10  21  37  58  84 112 143 185 237 287 337
#     4  11  22  36  57  85 115 147 188 240 291 336
#     4   9  19  35  54  78 109 145 183 224 278 344
#     4  10  22  41  64  89 120 160 204 250 303 363
#     4  10  21  39  61  82 110 151 194 236 289 353
#
# _framework density 20.485814999999999
#
# number of rings (size 3 to 8) (size 9 to 14) (size 15 to 20)
#    0.000    2.125    0.000    4.125    0.000    8.500 
#    0.000    1.250    0.000    5.625    0.000    0.000 
#    0.000    0.000    0.000    0.000    0.000    0.000 
#
# Total GULP energy -792992.574577 kJ/mol
# GULP energy per Si atom -12390.508978 kJ/mol
# Density = 2.043919 g / cm^3
# Si number density = 20.485815 Si / 1000 Ang^3
#
#
#
# Elastic Constant Matrix: (Units=GPa)
#
#
# Indices 1 2 3 4 5 6 
#
# 1 122.8257 41.3944 34.5499 0.0000 0.0000 0.0000
# 2 41.3944 92.1157 35.9357 0.0000 0.0000 0.0000
# 3 34.5499 35.9357 97.1792 0.0000 0.0000 0.0000
# 4 0.0000 0.0000 0.0000 29.2870 0.0000 0.0000
# 5 0.0000 0.0000 0.0000 0.0000 15.9493 0.0000
# 6 0.0000 0.0000 0.0000 0.0000 0.0000 27.7078
#
#
#
# Elastic Compliance Matrix: (Units=1/GPa)
#
#
# Indices 1 2 3 4 5 6 
#
# 1 0.009985 -0.003625 -0.002209 0.000000 0.000000 0.000000
# 2 -0.003625 0.014002 -0.003889 0.000000 0.000000 0.000000
# 3 -0.002209 -0.003889 0.012514 0.000000 0.000000 0.000000
# 4 0.000000 0.000000 0.000000 0.034145 0.000000 0.000000
# 5 0.000000 0.000000 0.000000 0.000000 0.062699 0.000000
# 6 0.000000 0.000000 0.000000 0.000000 0.000000 0.036091
#
#
# Mechanical properties :
#
#
# Convention : Reuss Voigt Hill
#
# Bulk Modulus (GPa) = 58.63750 59.54232 59.08991
# Shear Modulus (GPa) = 25.69816 27.93819 26.81818
#
# Velocity S-wave (km/s) = 3.54564 3.69695 3.62209
# Velocity P-wave (km/s) = 6.74149 6.88124 6.81173
#
# Compressibility (1/GPa) = 0.01705393
#
# Stress axis : x y z
#
# Youngs Moduli (GPa) = 100.15235 71.41814 79.91127
#
# Poissons Ratio (x) = 0.25889 0.17656
# Poissons Ratio (y) = 0.36305 0.31078
# Poissons Ratio (z) = 0.22128 0.27775
#
# Static dielectric constant tensor:
#      x y z
#    x 4.208230 0.000000 0.000000 
#    y 0.000000 3.550430 0.000000 
#    z 0.000000 0.000000 3.890160 
# 
# 
# High freq. dielectric constant tensor:
#      x y z
#    x 1.810320 0.000000 0.000000 
#    y 0.000000 1.777820 0.000000 
#    z 0.000000 0.000000 1.804990 
# 
# From -- ./inp_files/28164.got.cif
#   From: 2010.03.12/outbox.cif.g09.slc.cpg/sg59_15_cif.got.tgz:28164.got - 2010.04.16 16:29:54.
