data_PCOD8243608
_publ_section_title
;
Structure prediction by ZEFSAII (Michael W. Deem and Ramdas Pophale) SiO2 
 PCOD8243608
Probable space group: P M M N
;
_chemical_formula_sum "Si O2"
_cell_formula_units_Z 56
_cell_length_a 15.453349
_cell_length_b 8.819000
_cell_length_c 21.143803
_cell_angle_alpha 90.000000
_cell_angle_beta 90.000000
_cell_angle_gamma 90.000000
_cell_volume 2881.542698
_symmetry_space_group_name_H-M "P M M N"
_symmetry_group_IT_number 59
_space_group.IT_coordinate_system_code '2'
_symmetry_cell_setting 'orthorhombic'
loop_
_space_group_symop_operation_xyz
x,y,z
1/2-x,1/2-y,z
1/2+x,-y,-z
-x,1/2+y,-z
-x,-y,-z
1/2+x,1/2+y,-z
1/2-x,y,z
x,1/2-y,z
loop_
_atom_site_type_symbol
_atom_site_label
_atom_site_fract_x
_atom_site_fract_y
_atom_site_fract_z
Si Si1 0.750000 0.070427 0.595806
Si Si2 0.088982 0.422427 0.188221
Si Si3 0.651922 0.922070 0.377815
Si Si4 0.903853 0.071084 0.502498
Si Si5 0.992813 0.071108 0.068205
Si Si6 0.750000 0.567798 0.735248
Si Si7 0.347200 0.420365 0.859034
Si Si8 0.088972 0.923597 0.741496
O O1 0.750000 0.250000 0.603066
O O2 0.839461 0.019971 0.559944
O O3 0.750000 0.994996 0.664504
O O4 0.114717 0.250000 0.175680
O O5 0.168896 0.499224 0.224719
O O6 0.064598 0.492305 0.118834
O O7 0.008149 0.435894 0.234350
O O8 0.750000 0.925731 0.352660
O O9 0.620967 0.750000 0.390648
O O10 0.646808 0.020062 0.440640
O O11 0.589783 0.997940 0.326466
O O12 0.915913 0.250000 0.503425
O O13 0.000000 0.000000 0.500000
O O14 0.000928 0.250000 0.062479
O O15 0.898837 0.030206 0.094493
O O16 0.000000 0.000000 0.000000
O O17 0.750000 0.750000 0.730240
O O18 0.250000 0.417983 0.884397
O O19 0.386213 0.250000 0.859663
O O20 0.347963 0.485333 0.788107
O O21 0.120172 0.750000 0.736753
#
# Coordination Sequence:
#
# PCOD8243608 Si02
#       8
#     4   8   8   8   8   4   8   8
#     4  10  24  44  62  88 124 157 196 253 316 368
#     4   8  18  36  57  85 114 148 194 240 283 344
#     4  11  23  38  57  84 116 151 195 242 294 357
#     4  11  24  43  63  85 117 155 199 250 309 372
#     4  10  20  37  59  84 119 156 195 237 291 351
#     4  10  20  38  64  86 112 153 202 247 290 346
#     4  10  20  35  55  82 113 147 192 238 285 344
#     4  10  20  34  55  83 116 152 190 236 295 355
#
# _framework density 19.434034
#
# number of rings (size 3 to 8) (size 9 to 14) (size 15 to 20)
#    0.000    2.000    0.714    3.429    2.000    4.857 
#    1.286    3.571    0.000    0.000    0.000    0.000 
#    0.000    0.000    0.000    0.000    0.000    0.000 
#
# Total GULP energy -694115.577554 kJ/mol
# GULP energy per Si atom -12394.921028 kJ/mol
# Density = 1.938980 g / cm^3
# Si number density = 19.434034 Si / 1000 Ang^3
#
#
#
# Elastic Constant Matrix: (Units=GPa)
#
#
# Indices 1 2 3 4 5 6 
#
# 1 106.9886 39.2972 62.3324 0.0000 0.0000 0.0000
# 2 39.2972 67.4508 44.3586 0.0000 0.0000 0.0000
# 3 62.3324 44.3586 167.8649 0.0000 0.0000 0.0000
# 4 0.0000 0.0000 0.0000 37.7954 0.0000 0.0000
# 5 0.0000 0.0000 0.0000 0.0000 21.4757 0.0000
# 6 0.0000 0.0000 0.0000 0.0000 0.0000 26.8042
#
#
#
# Elastic Compliance Matrix: (Units=1/GPa)
#
#
# Indices 1 2 3 4 5 6 
#
# 1 0.013424 -0.005498 -0.003532 0.000000 0.000000 0.000000
# 2 -0.005498 0.020196 -0.003295 0.000000 0.000000 0.000000
# 3 -0.003532 -0.003295 0.008139 0.000000 0.000000 0.000000
# 4 0.000000 0.000000 0.000000 0.026458 0.000000 0.000000
# 5 0.000000 0.000000 0.000000 0.000000 0.046564 0.000000
# 6 0.000000 0.000000 0.000000 0.000000 0.000000 0.037308
#
#
# Mechanical properties :
#
#
# Convention : Reuss Voigt Hill
#
# Bulk Modulus (GPa) = 58.44890 70.47562 64.46226
# Shear Modulus (GPa) = 27.40589 30.30281 28.85435
#
# Velocity S-wave (km/s) = 3.75934 3.95304 3.85740
# Velocity P-wave (km/s) = 6.99888 7.56162 7.28568
#
# Compressibility (1/GPa) = 0.01710896
#
# Stress axis : x y z
#
# Youngs Moduli (GPa) = 74.49392 49.51479 122.86009
#
# Poissons Ratio (x) = 0.27224 0.43391
# Poissons Ratio (y) = 0.40959 0.40485
# Poissons Ratio (z) = 0.26309 0.16316
#
# Static dielectric constant tensor:
#      x y z
#    x 3.579160 0.000000 0.000000 
#    y 0.000000 3.560780 0.000000 
#    z 0.000000 0.000000 3.632090 
# 
# 
# High freq. dielectric constant tensor:
#      x y z
#    x 1.756720 0.000000 0.000000 
#    y 0.000000 1.751570 0.000000 
#    z 0.000000 0.000000 1.759780 
# 
# From -- ./inp_files/30455.got.cif
#   From: 2010.03.12/outbox.cif.g09.slc.cpg/sg59_16_cif.got.tgz:30455.got - 2010.04.16 16:29:54.
