data_PCOD8243938
_publ_section_title
;
Structure prediction by ZEFSAII (Michael W. Deem and Ramdas Pophale) SiO2 
 PCOD8243938
Probable space group: P M M N
;
_chemical_formula_sum "Si O2"
_cell_formula_units_Z 64
_cell_length_a 24.349692
_cell_length_b 8.677751
_cell_length_c 16.170129
_cell_angle_alpha 90.000000
_cell_angle_beta 90.000000
_cell_angle_gamma 90.000000
_cell_volume 3416.757379
_symmetry_space_group_name_H-M "P M M N"
_symmetry_group_IT_number 59
_space_group.IT_coordinate_system_code '2'
_symmetry_cell_setting 'orthorhombic'
loop_
_space_group_symop_operation_xyz
x,y,z
1/2-x,1/2-y,z
1/2+x,-y,-z
-x,1/2+y,-z
-x,-y,-z
1/2+x,1/2+y,-z
1/2-x,y,z
x,1/2-y,z
loop_
_atom_site_type_symbol
_atom_site_label
_atom_site_fract_x
_atom_site_fract_y
_atom_site_fract_z
Si Si1 0.915215 0.568993 0.545829
Si Si2 0.043000 0.928217 0.939724
Si Si3 0.191655 0.427236 0.842921
Si Si4 0.312838 0.930700 0.360706
Si Si5 0.577133 0.567472 0.223377
Si Si6 0.144544 0.072147 0.013933
Si Si7 0.185598 0.421039 0.191347
Si Si8 0.967690 0.430923 0.389245
O O1 0.907261 0.750000 0.547847
O O2 0.857650 0.498406 0.576481
O O3 0.927019 0.515828 0.452586
O O4 0.968433 0.517543 0.600071
O O5 0.031507 0.750000 0.920443
O O6 0.039971 0.025840 0.855266
O O7 0.099743 0.949254 0.987002
O O8 0.000000 0.000000 0.000000
O O9 0.250000 0.502868 0.814014
O O10 0.191565 0.250000 0.817344
O O11 0.138732 0.498393 0.796103
O O12 0.190535 0.441151 0.942797
O O13 0.250000 0.993047 0.377530
O O14 0.313120 0.750000 0.371774
O O15 0.332085 0.970993 0.267433
O O16 0.575830 0.750000 0.239231
O O17 0.552027 0.475887 0.299092
O O18 0.123033 0.250000 0.017111
O O19 0.164230 0.015895 0.103783
O O20 0.250000 0.414297 0.183167
O O21 0.161983 0.250000 0.208954
O O22 0.962204 0.250000 0.404402
#
# Coordination Sequence:
#
# PCOD8243938 Si02
#       8
#     8   8   8   8   8   8   8   8
#     4  10  21  38  61  85 107 138 179 221 267 321
#     4  11  22  36  52  71 100 137 176 218 266 316
#     4   8  14  27  49  75 102 134 174 218 260 305
#     4  10  21  36  54  79 113 148 179 219 273 326
#     4  10  20  35  56  81 108 140 179 221 267 319
#     4   9  17  30  49  73 100 132 173 218 262 309
#     4   9  17  30  50  75 103 137 176 215 254 304
#     4  10  21  38  60  85 112 140 175 221 270 320
#
# _framework density 18.731210000000001
#
# number of rings (size 3 to 8) (size 9 to 14) (size 15 to 20)
#    0.000    2.375    0.000    3.750    0.000    5.250 
#    0.000    1.875    0.000   14.625    0.000    0.000 
#    0.000    0.000    0.000    0.000    0.000    0.000 
#
# Total GULP energy -793092.965863 kJ/mol
# GULP energy per Si atom -12392.077592 kJ/mol
# Density = 1.868858 g / cm^3
# Si number density = 18.731210 Si / 1000 Ang^3
#
#
#
# Elastic Constant Matrix: (Units=GPa)
#
#
# Indices 1 2 3 4 5 6 
#
# 1 92.7757 22.7271 57.0748 0.0000 0.0000 0.0000
# 2 22.7271 44.5781 9.2384 0.0000 0.0000 0.0000
# 3 57.0748 9.2384 97.3297 0.0000 0.0000 0.0000
# 4 0.0000 0.0000 0.0000 33.0524 0.0000 0.0000
# 5 0.0000 0.0000 0.0000 0.0000 24.9421 0.0000
# 6 0.0000 0.0000 0.0000 0.0000 0.0000 24.8770
#
#
#
# Elastic Compliance Matrix: (Units=1/GPa)
#
#
# Indices 1 2 3 4 5 6 
#
# 1 0.019066 -0.007552 -0.010463 0.000000 0.000000 0.000000
# 2 -0.007552 0.025874 0.001972 0.000000 0.000000 0.000000
# 3 -0.010463 0.001972 0.016223 0.000000 0.000000 0.000000
# 4 0.000000 0.000000 0.000000 0.030255 0.000000 0.000000
# 5 0.000000 0.000000 0.000000 0.000000 0.040093 0.000000
# 6 0.000000 0.000000 0.000000 0.000000 0.000000 0.040198
#
#
# Mechanical properties :
#
#
# Convention : Reuss Voigt Hill
#
# Bulk Modulus (GPa) = 34.39134 45.86269 40.12702
# Shear Modulus (GPa) = 23.42078 26.28386 24.85232
#
# Velocity S-wave (km/s) = 3.53988 3.75001 3.64646
# Velocity P-wave (km/s) = 5.92520 6.57935 6.26083
#
# Compressibility (1/GPa) = 0.02907708
#
# Stress axis : x y z
#
# Youngs Moduli (GPa) = 52.45044 38.64909 61.64111
#
# Poissons Ratio (x) = 0.29187 0.64498
# Poissons Ratio (y) = 0.39609 -0.12159
# Poissons Ratio (z) = 0.54881 -0.07624
#
# Static dielectric constant tensor:
#      x y z
#    x 3.672450 0.000000 0.000000 
#    y 0.000000 3.344810 0.000000 
#    z 0.000000 0.000000 3.435020 
# 
# 
# High freq. dielectric constant tensor:
#      x y z
#    x 1.726870 0.000000 0.000000 
#    y 0.000000 1.716220 0.000000 
#    z 0.000000 0.000000 1.721680 
# 
# From -- ./inp_files/24707.got.cif
#   From: 2010.03.12/outbox.cif.g09.slc.cpg/sg59_13_cif.got.tgz:24707.got - 2010.04.16 16:29:54.
