data_PCOD8243494
_publ_section_title
;
Structure prediction by ZEFSAII (Michael W. Deem and Ramdas Pophale) SiO2 
 PCOD8243494
Probable space group: P M M N
;
_chemical_formula_sum "Si O2"
_cell_formula_units_Z 48
_cell_length_a 9.885198
_cell_length_b 8.945117
_cell_length_c 29.011563
_cell_angle_alpha 90.000000
_cell_angle_beta 90.000000
_cell_angle_gamma 90.000000
_cell_volume 2565.325777
_symmetry_space_group_name_H-M "P M M N"
_symmetry_group_IT_number 59
_space_group.IT_coordinate_system_code '2'
_symmetry_cell_setting 'orthorhombic'
loop_
_space_group_symop_operation_xyz
x,y,z
1/2-x,1/2-y,z
1/2+x,-y,-z
-x,1/2+y,-z
-x,-y,-z
1/2+x,1/2+y,-z
1/2-x,y,z
x,1/2-y,z
loop_
_atom_site_type_symbol
_atom_site_label
_atom_site_fract_x
_atom_site_fract_y
_atom_site_fract_z
Si Si1 0.589647 0.917753 0.131250
Si Si2 0.405905 0.574776 0.776526
Si Si3 0.250000 0.072613 0.461846
Si Si4 0.407033 0.573850 0.961764
Si Si5 0.595803 0.077468 0.704663
Si Si6 0.966001 0.425690 0.601012
Si Si7 0.250000 0.425928 0.565369
O O1 0.750000 0.915388 0.132597
O O2 0.530511 0.750000 0.127966
O O3 0.536049 0.994479 0.177821
O O4 0.541150 0.012038 0.087250
O O5 0.250000 0.530140 0.766991
O O6 0.420392 0.750000 0.784362
O O7 0.495631 0.524935 0.733667
O O8 0.250000 0.250000 0.460874
O O9 0.250000 0.007044 0.513790
O O10 0.117183 0.013820 0.436924
O O11 0.250000 0.531471 0.970575
O O12 0.428386 0.750000 0.962350
O O13 0.500000 0.500000 0.000000
O O14 0.750000 0.051534 0.720791
O O15 0.553023 0.250000 0.710909
O O16 0.582528 0.028372 0.651697
O O17 0.944487 0.250000 0.592811
O O18 0.120428 0.477587 0.594558
O O19 0.250000 0.250000 0.560023
#
# Coordination Sequence:
#
# PCOD8243494 Si02
#       7
#     8   8   4   8   8   8   4
#     4   9  17  32  55  81 109 144 185 228 274 325
#     4  10  21  36  56  83 112 141 175 220 274 329
#     4  11  21  35  55  83 113 143 177 217 268 325
#     4  10  20  34  54  81 114 151 190 233 280 329
#     4  10  21  37  57  80 104 138 183 223 265 322
#     4  10  20  38  59  79 106 143 182 221 266 320
#     4   9  20  35  57  85 109 137 181 227 266 313
#
# _framework density 18.711072999999999
#
# number of rings (size 3 to 8) (size 9 to 14) (size 15 to 20)
#    0.000    2.167    0.833    2.250    1.167    5.000 
#    0.000    2.083    0.000    5.000    0.000    0.000 
#    0.000    0.000    0.000    0.000    0.000    0.000 
#
# Total GULP energy -595285.176806 kJ/mol
# GULP energy per Si atom -12401.774517 kJ/mol
# Density = 1.866849 g / cm^3
# Si number density = 18.711073 Si / 1000 Ang^3
#
#
#
# Elastic Constant Matrix: (Units=GPa)
#
#
# Indices 1 2 3 4 5 6 
#
# 1 87.3616 33.5203 37.3090 0.0000 0.0000 0.0000
# 2 33.5203 81.8465 43.5410 0.0000 0.0000 0.0000
# 3 37.3090 43.5410 102.7060 0.0000 0.0000 0.0000
# 4 0.0000 0.0000 0.0000 35.4716 0.0000 0.0000
# 5 0.0000 0.0000 0.0000 0.0000 32.1359 0.0000
# 6 0.0000 0.0000 0.0000 0.0000 0.0000 28.6320
#
#
#
# Elastic Compliance Matrix: (Units=1/GPa)
#
#
# Indices 1 2 3 4 5 6 
#
# 1 0.014521 -0.004056 -0.003556 0.000000 0.000000 0.000000
# 2 -0.004056 0.016909 -0.005695 0.000000 0.000000 0.000000
# 3 -0.003556 -0.005695 0.013442 0.000000 0.000000 0.000000
# 4 0.000000 0.000000 0.000000 0.028192 0.000000 0.000000
# 5 0.000000 0.000000 0.000000 0.000000 0.031118 0.000000
# 6 0.000000 0.000000 0.000000 0.000000 0.000000 0.034926
#
#
# Mechanical properties :
#
#
# Convention : Reuss Voigt Hill
#
# Bulk Modulus (GPa) = 54.76498 55.62831 55.19664
# Shear Modulus (GPa) = 29.10243 29.75082 29.42663
#
# Velocity S-wave (km/s) = 3.94808 3.99182 3.97001
# Velocity P-wave (km/s) = 7.07923 7.14429 7.11183
#
# Compressibility (1/GPa) = 0.01825984
#
# Stress axis : x y z
#
# Youngs Moduli (GPa) = 68.86422 59.14143 74.39106
#
# Poissons Ratio (x) = 0.23986 0.26451
# Poissons Ratio (y) = 0.27929 0.42365
# Poissons Ratio (z) = 0.24486 0.33681
#
# Static dielectric constant tensor:
#      x y z
#    x 4.416970 0.000000 0.000000 
#    y 0.000000 3.429220 0.000000 
#    z 0.000000 0.000000 3.566350 
# 
# 
# High freq. dielectric constant tensor:
#      x y z
#    x 1.713310 0.000000 0.000000 
#    y 0.000000 1.723390 0.000000 
#    z 0.000000 0.000000 1.736130 
# 
# From -- ./inp_files/33063.got.cif
#   From: 2010.03.12/outbox.cif.g09.slc.cpg/sg59_17_cif.got.tgz:33063.got - 2010.04.16 16:29:54.
