data_PCOD8243681
_publ_section_title
;
Structure prediction by ZEFSAII (Michael W. Deem and Ramdas Pophale) SiO2 
 PCOD8243681
Probable space group: P M M N
;
_chemical_formula_sum "Si O2"
_cell_formula_units_Z 64
_cell_length_a 18.055588
_cell_length_b 8.840742
_cell_length_c 21.600962
_cell_angle_alpha 90.000000
_cell_angle_beta 90.000000
_cell_angle_gamma 90.000000
_cell_volume 3448.049135
_symmetry_space_group_name_H-M "P M M N"
_symmetry_group_IT_number 59
_space_group.IT_coordinate_system_code '2'
_symmetry_cell_setting 'orthorhombic'
loop_
_space_group_symop_operation_xyz
x,y,z
1/2-x,1/2-y,z
1/2+x,-y,-z
-x,1/2+y,-z
-x,-y,-z
1/2+x,1/2+y,-z
1/2-x,y,z
x,1/2-y,z
loop_
_atom_site_type_symbol
_atom_site_label
_atom_site_fract_x
_atom_site_fract_y
_atom_site_fract_z
Si Si1 0.520774 0.571079 0.564798
Si Si2 0.662578 0.922135 0.106517
Si Si3 0.668097 0.925003 0.629874
Si Si4 0.580040 0.071208 0.995279
Si Si5 0.336516 0.574628 0.766213
Si Si6 0.603887 0.072339 0.745872
Si Si7 0.546860 0.571058 0.317217
Si Si8 0.333913 0.930155 0.125188
O O1 0.500000 0.500000 0.500000
O O2 0.509668 0.750000 0.562544
O O3 0.605827 0.524737 0.580421
O O4 0.466626 0.500768 0.615819
O O5 0.750000 0.931084 0.099117
O O6 0.633653 0.750000 0.101445
O O7 0.627912 0.025035 0.053990
O O8 0.637344 0.988002 0.172273
O O9 0.750000 0.959982 0.602545
O O10 0.657835 0.750000 0.645180
O O11 0.659872 0.010226 0.694667
O O12 0.572368 0.250000 0.993099
O O13 0.620688 0.008927 0.933810
O O14 0.500000 0.000000 0.000000
O O15 0.250000 0.551246 0.753974
O O16 0.357149 0.750000 0.773061
O O17 0.378051 0.500914 0.708327
O O18 0.613834 0.250000 0.745973
O O19 0.519809 0.026428 0.729335
O O20 0.625816 0.006707 0.813097
O O21 0.555505 0.750000 0.324263
O O22 0.250000 0.992823 0.122207
O O23 0.333051 0.750000 0.125100
#
# Coordination Sequence:
#
# PCOD8243681 Si02
#       8
#     8   8   8   8   8   8   8   8
#     4  10  20  36  57  80 111 149 189 231 274 326
#     4  10  21  38  59  80 105 140 183 233 286 339
#     4   9  18  33  53  79 110 142 176 218 268 319
#     4  11  23  37  54  77 106 143 186 232 281 334
#     4  10  21  37  58  84 112 143 183 231 282 334
#     4   9  18  32  53  81 108 138 175 217 264 320
#     4  10  20  34  56  84 114 147 181 222 272 326
#     4   9  18  33  53  76 104 138 174 217 271 326
#
# _framework density 18.561219999999999
#
# number of rings (size 3 to 8) (size 9 to 14) (size 15 to 20)
#    0.000    2.250    0.000    2.625    1.750    3.750 
#    0.000    1.875    0.000    5.250    0.000    0.000 
#    0.000    0.000    0.000    0.000    0.000    0.000 
#
# Total GULP energy -793716.939618 kJ/mol
# GULP energy per Si atom -12401.827182 kJ/mol
# Density = 1.851897 g / cm^3
# Si number density = 18.561220 Si / 1000 Ang^3
#
#
#
# Elastic Constant Matrix: (Units=GPa)
#
#
# Indices 1 2 3 4 5 6 
#
# 1 83.5512 39.3492 80.7065 0.0000 0.0000 0.0000
# 2 39.3492 65.4593 44.1850 0.0000 0.0000 0.0000
# 3 80.7065 44.1850 156.4694 0.0000 0.0000 0.0000
# 4 0.0000 0.0000 0.0000 31.5320 0.0000 0.0000
# 5 0.0000 0.0000 0.0000 0.0000 26.9056 0.0000
# 6 0.0000 0.0000 0.0000 0.0000 0.0000 28.9781
#
#
#
# Elastic Compliance Matrix: (Units=1/GPa)
#
#
# Indices 1 2 3 4 5 6 
#
# 1 0.027212 -0.008505 -0.011634 0.000000 0.000000 0.000000
# 2 -0.008505 0.021532 -0.001694 0.000000 0.000000 0.000000
# 3 -0.011634 -0.001694 0.012870 0.000000 0.000000 0.000000
# 4 0.000000 0.000000 0.000000 0.031714 0.000000 0.000000
# 5 0.000000 0.000000 0.000000 0.000000 0.037167 0.000000
# 6 0.000000 0.000000 0.000000 0.000000 0.000000 0.034509
#
#
# Mechanical properties :
#
#
# Convention : Reuss Voigt Hill
#
# Bulk Modulus (GPa) = 55.71280 70.44014 63.07647
# Shear Modulus (GPa) = 23.29332 26.89908 25.09620
#
# Velocity S-wave (km/s) = 3.54636 3.81098 3.68105
# Velocity P-wave (km/s) = 6.84469 7.57610 7.21966
#
# Compressibility (1/GPa) = 0.01794920
#
# Stress axis : x y z
#
# Youngs Moduli (GPa) = 36.74790 46.44169 77.69804
#
# Poissons Ratio (x) = 0.39498 0.90397
# Poissons Ratio (y) = 0.31253 0.13160
# Poissons Ratio (z) = 0.42754 0.07866
#
# Static dielectric constant tensor:
#      x y z
#    x 3.461350 0.000000 0.000000 
#    y 0.000000 3.411730 0.000000 
#    z 0.000000 0.000000 3.519260 
# 
# 
# High freq. dielectric constant tensor:
#      x y z
#    x 1.724750 0.000000 0.000000 
#    y 0.000000 1.717250 0.000000 
#    z 0.000000 0.000000 1.717810 
# 
# From -- ./inp_files/30746.got.cif
#   From: 2010.03.12/outbox.cif.g09.slc.cpg/sg59_16_cif.got.tgz:30746.got - 2010.04.16 16:29:54.
