data_PCOD8243084
_publ_section_title
;
Structure prediction by ZEFSAII (Michael W. Deem and Ramdas Pophale) SiO2 
 PCOD8243084
Probable space group: P M M N
;
_chemical_formula_sum "Si O2"
_cell_formula_units_Z 64
_cell_length_a 8.881898
_cell_length_b 19.680498
_cell_length_c 19.881148
_cell_angle_alpha 90.000000
_cell_angle_beta 90.000000
_cell_angle_gamma 90.000000
_cell_volume 3475.228166
_symmetry_space_group_name_H-M "P M M N"
_symmetry_group_IT_number 59
_space_group.IT_coordinate_system_code '2'
_symmetry_cell_setting 'orthorhombic'
loop_
_space_group_symop_operation_xyz
x,y,z
1/2-x,1/2-y,z
1/2+x,-y,-z
-x,1/2+y,-z
-x,-y,-z
1/2+x,1/2+y,-z
1/2-x,y,z
x,1/2-y,z
loop_
_atom_site_type_symbol
_atom_site_label
_atom_site_fract_x
_atom_site_fract_y
_atom_site_fract_z
Si Si1 0.072988 0.941363 0.412568
Si Si2 0.076311 0.828397 0.659699
Si Si3 0.924289 0.329138 0.833521
Si Si4 0.427113 0.425778 0.726540
Si Si5 0.075296 0.451049 0.089297
Si Si6 0.426558 0.573883 0.778616
Si Si7 0.424465 0.409041 0.942947
Si Si8 0.573532 0.908149 0.546337
O O1 0.250000 0.931350 0.410457
O O2 0.003488 0.911322 0.344847
O O3 0.007961 0.898726 0.474956
O O4 0.026368 0.020242 0.420215
O O5 0.250000 0.844772 0.643677
O O6 0.049730 0.750000 0.676589
O O7 0.021606 0.871042 0.723969
O O8 0.978900 0.847955 0.594910
O O9 0.750000 0.348612 0.826951
O O10 0.951965 0.250000 0.822097
O O11 0.018656 0.369206 0.778237
O O12 0.982320 0.348876 0.907975
O O13 0.250000 0.420446 0.717195
O O14 0.475099 0.499749 0.752859
O O15 0.250000 0.470758 0.096021
O O16 0.018219 0.408699 0.153497
O O17 0.977763 0.519186 0.086401
O O18 0.047709 0.405468 0.022992
O O19 0.250000 0.578649 0.793767
O O20 0.250000 0.400846 0.924388
O O21 0.750000 0.903729 0.533942
#
# Coordination Sequence:
#
# PCOD8243084 Si02
#       8
#     8   8   8   8   8   8   8   8
#     4  10  20  34  56  84 114 146 183 230 280 329
#     4  10  21  38  58  80 112 153 191 229 278 337
#     4  11  24  40  58  82 113 150 190 233 284 344
#     4  11  21  35  58  86 115 148 187 235 284 332
#     4  10  20  33  55  84 113 143 183 233 281 328
#     4  10  20  34  55  84 115 148 189 233 280 334
#     4  10  20  35  55  82 112 146 184 229 281 333
#     4  10  20  34  55  83 113 145 183 231 280 330
#
# _framework density 18.416056000000001
#
# number of rings (size 3 to 8) (size 9 to 14) (size 15 to 20)
#    0.000    1.750    2.500    2.250    0.000    4.750 
#    0.000    1.250    0.000    6.000    0.000    0.000 
#    0.000    0.000    0.000    0.000    0.000    0.000 
#
# Total GULP energy -793931.009419 kJ/mol
# GULP energy per Si atom -12405.172022 kJ/mol
# Density = 1.837414 g / cm^3
# Si number density = 18.416056 Si / 1000 Ang^3
#
#
#
# Elastic Constant Matrix: (Units=GPa)
#
#
# Indices 1 2 3 4 5 6 
#
# 1 69.5773 31.8651 50.1567 0.0000 0.0000 0.0000
# 2 31.8651 77.2971 48.0189 0.0000 0.0000 0.0000
# 3 50.1567 48.0189 144.6270 0.0000 0.0000 0.0000
# 4 0.0000 0.0000 0.0000 26.3843 0.0000 0.0000
# 5 0.0000 0.0000 0.0000 0.0000 39.2206 0.0000
# 6 0.0000 0.0000 0.0000 0.0000 0.0000 25.3888
#
#
#
# Elastic Compliance Matrix: (Units=1/GPa)
#
#
# Indices 1 2 3 4 5 6 
#
# 1 0.020656 -0.005122 -0.005463 0.000000 0.000000 0.000000
# 2 -0.005122 0.017569 -0.004057 0.000000 0.000000 0.000000
# 3 -0.005463 -0.004057 0.010156 0.000000 0.000000 0.000000
# 4 0.000000 0.000000 0.000000 0.037901 0.000000 0.000000
# 5 0.000000 0.000000 0.000000 0.000000 0.025497 0.000000
# 6 0.000000 0.000000 0.000000 0.000000 0.000000 0.039387
#
#
# Mechanical properties :
#
#
# Convention : Reuss Voigt Hill
#
# Bulk Modulus (GPa) = 52.36260 61.28697 56.82478
# Shear Modulus (GPa) = 26.76431 28.96279 27.86355
#
# Velocity S-wave (km/s) = 3.81637 3.97002 3.89395
# Velocity P-wave (km/s) = 6.92203 7.37334 7.15124
#
# Compressibility (1/GPa) = 0.01909760
#
# Stress axis : x y z
#
# Youngs Moduli (GPa) = 48.41119 56.91937 98.46433
#
# Poissons Ratio (x) = 0.29152 0.53793
# Poissons Ratio (y) = 0.24794 0.39947
# Poissons Ratio (z) = 0.26448 0.23092
#
# Static dielectric constant tensor:
#      x y z
#    x 3.410600 0.000000 0.000000 
#    y 0.000000 3.131390 0.000000 
#    z 0.000000 0.000000 3.572260 
# 
# 
# High freq. dielectric constant tensor:
#      x y z
#    x 1.725100 0.000000 0.000000 
#    y 0.000000 1.681520 0.000000 
#    z 0.000000 0.000000 1.728510 
# 
# From -- ./inp_files/26224.got.cif
#   From: 2010.03.12/outbox.cif.g09.slc.cpg/sg59_14_cif.got.tgz:26224.got - 2010.04.16 16:29:54.
