data_PCOD8243235
_publ_section_title
;
Structure prediction by ZEFSAII (Michael W. Deem and Ramdas Pophale) SiO2 
 PCOD8243235
Probable space group: P M M N
;
_chemical_formula_sum "Si O2"
_cell_formula_units_Z 48
_cell_length_a 9.187389
_cell_length_b 9.017157
_cell_length_c 30.923243
_cell_angle_alpha 90.000000
_cell_angle_beta 90.000000
_cell_angle_gamma 90.000000
_cell_volume 2561.809133
_symmetry_space_group_name_H-M "P M M N"
_symmetry_group_IT_number 59
_space_group.IT_coordinate_system_code '2'
_symmetry_cell_setting 'orthorhombic'
loop_
_space_group_symop_operation_xyz
x,y,z
1/2-x,1/2-y,z
1/2+x,-y,-z
-x,1/2+y,-z
-x,-y,-z
1/2+x,1/2+y,-z
1/2-x,y,z
x,1/2-y,z
loop_
_atom_site_type_symbol
_atom_site_label
_atom_site_fract_x
_atom_site_fract_y
_atom_site_fract_z
Si Si1 0.580935 0.576641 0.382901
Si Si2 0.578764 0.578292 0.960758
Si Si3 0.920176 0.924026 0.539654
Si Si4 0.919214 0.080485 0.295188
Si Si5 0.919996 0.578356 0.789978
Si Si6 0.576829 0.417111 0.874968
O O1 0.750000 0.541737 0.392490
O O2 0.547941 0.750000 0.387062
O O3 0.481955 0.487873 0.416031
O O4 0.536693 0.522347 0.335297
O O5 0.750000 0.552466 0.965753
O O6 0.537347 0.750000 0.960584
O O7 0.519603 0.508231 0.916193
O O8 0.500000 0.500000 0.000000
O O9 0.750000 0.959924 0.536667
O O10 0.950916 0.750000 0.537828
O O11 0.000000 0.000000 0.500000
O O12 0.750000 0.068115 0.284809
O O13 0.963915 0.250000 0.305778
O O14 0.003378 0.019696 0.253359
O O15 0.750000 0.549467 0.784271
O O16 0.955572 0.750000 0.797873
O O17 0.983870 0.489918 0.831004
O O18 0.750000 0.422036 0.874010
O O19 0.517760 0.250000 0.878367
#
# Coordination Sequence:
#
# PCOD8243235 Si02
#       6
#     8   8   8   8   8   8
#     4  10  21  37  57  81 109 142 180 219 261 311
#     4  10  20  34  53  76 102 133 170 212 259 311
#     4  11  24  40  59  84 112 142 178 219 263 312
#     4   9  18  33  52  74 103 139 174 210 259 313
#     4   9  17  30  49  72  97 127 167 213 256 302
#     4   9  17  30  49  72  98 130 168 209 255 307
#
# _framework density 18.736758999999999
#
# number of rings (size 3 to 8) (size 9 to 14) (size 15 to 20)
#    0.000    2.333    0.000    2.500    0.000    8.667 
#    0.000    2.500    0.000    3.000    0.000    0.000 
#    0.000    0.000    0.000    0.000    0.000    0.000 
#
# Total GULP energy -595330.718239 kJ/mol
# GULP energy per Si atom -12402.723297 kJ/mol
# Density = 1.869411 g / cm^3
# Si number density = 18.736759 Si / 1000 Ang^3
#
#
#
# Elastic Constant Matrix: (Units=GPa)
#
#
# Indices 1 2 3 4 5 6 
#
# 1 56.9189 59.4496 69.1107 0.0000 0.0000 0.0000
# 2 59.4496 126.6097 91.8960 0.0000 0.0000 0.0000
# 3 69.1107 91.8960 182.4490 0.0000 0.0000 0.0000
# 4 0.0000 0.0000 0.0000 42.7563 0.0000 0.0000
# 5 0.0000 0.0000 0.0000 0.0000 36.5244 0.0000
# 6 0.0000 0.0000 0.0000 0.0000 0.0000 24.0026
#
#
#
# Elastic Compliance Matrix: (Units=1/GPa)
#
#
# Indices 1 2 3 4 5 6 
#
# 1 0.043138 -0.013233 -0.009675 0.000000 0.000000 0.000000
# 2 -0.013233 0.016509 -0.003303 0.000000 0.000000 0.000000
# 3 -0.009675 -0.003303 0.010809 0.000000 0.000000 0.000000
# 4 0.000000 0.000000 0.000000 0.023388 0.000000 0.000000
# 5 0.000000 0.000000 0.000000 0.000000 0.027379 0.000000
# 6 0.000000 0.000000 0.000000 0.000000 0.000000 0.041662
#
#
# Mechanical properties :
#
#
# Convention : Reuss Voigt Hill
#
# Bulk Modulus (GPa) = 55.44925 89.65446 72.55185
# Shear Modulus (GPa) = 22.59190 30.35808 26.47499
#
# Velocity S-wave (km/s) = 3.47616 4.02959 3.76306
# Velocity P-wave (km/s) = 6.76533 8.34287 7.59517
#
# Compressibility (1/GPa) = 0.01803451
#
# Stress axis : x y z
#
# Youngs Moduli (GPa) = 23.18166 60.57324 92.51221
#
# Poissons Ratio (x) = 0.80156 0.89507
# Poissons Ratio (y) = 0.30676 0.30554
# Poissons Ratio (z) = 0.22429 0.20006
#
# Static dielectric constant tensor:
#      x y z
#    x 3.280170 0.000000 0.000000 
#    y 0.000000 3.551220 0.000000 
#    z 0.000000 0.000000 3.679980 
# 
# 
# High freq. dielectric constant tensor:
#      x y z
#    x 1.702770 0.000000 0.000000 
#    y 0.000000 1.735280 0.000000 
#    z 0.000000 0.000000 1.744760 
# 
# From -- ./inp_files/32836.got.cif
#   From: 2010.03.12/outbox.cif.g09.slc.cpg/sg59_17_cif.got.tgz:32836.got - 2010.04.16 16:29:54.
