data_PCOD8243626
_publ_section_title
;
Structure prediction by ZEFSAII (Michael W. Deem and Ramdas Pophale) SiO2 
 PCOD8243626
Probable space group: P M M N
;
_chemical_formula_sum "Si O2"
_cell_formula_units_Z 56
_cell_length_a 14.352485
_cell_length_b 8.576467
_cell_length_c 23.681200
_cell_angle_alpha 90.000000
_cell_angle_beta 90.000000
_cell_angle_gamma 90.000000
_cell_volume 2915.004491
_symmetry_space_group_name_H-M "P M M N"
_symmetry_group_IT_number 59
_space_group.IT_coordinate_system_code '2'
_symmetry_cell_setting 'orthorhombic'
loop_
_space_group_symop_operation_xyz
x,y,z
1/2-x,1/2-y,z
1/2+x,-y,-z
-x,1/2+y,-z
-x,-y,-z
1/2+x,1/2+y,-z
1/2-x,y,z
x,1/2-y,z
loop_
_atom_site_type_symbol
_atom_site_label
_atom_site_fract_x
_atom_site_fract_y
_atom_site_fract_z
Si Si1 0.144395 0.430532 0.442989
Si Si2 0.853854 0.934011 0.849921
Si Si3 0.002413 0.570242 0.361179
Si Si4 0.495310 0.566912 0.760920
Si Si5 0.506178 0.435341 0.062344
Si Si6 0.641413 0.429212 0.440605
Si Si7 0.641334 0.567044 0.150405
O O1 0.250000 0.477937 0.429168
O O2 0.135114 0.250000 0.458015
O O3 0.085269 0.469424 0.387835
O O4 0.106123 0.525940 0.496832
O O5 0.750000 0.010056 0.850001
O O6 0.844140 0.750000 0.851070
O O7 0.910580 0.983797 0.793914
O O8 0.912322 0.988360 0.904716
O O9 0.027661 0.750000 0.367615
O O10 0.990930 0.529186 0.296163
O O11 0.906597 0.533780 0.393231
O O12 0.494381 0.750000 0.747826
O O13 0.404966 0.525336 0.797821
O O14 0.517155 0.250000 0.062924
O O15 0.596389 0.510621 0.091702
O O16 0.500000 0.500000 0.000000
O O17 0.750000 0.464139 0.435608
O O18 0.616069 0.250000 0.429519
O O19 0.750000 0.525464 0.148944
O O20 0.624174 0.750000 0.158480
#
# Coordination Sequence:
#
# PCOD8243626 Si02
#       7
#     8   8   8   8   8   8   8
#     4  10  21  38  59  82 110 144 182 225 275 332
#     4   8  16  33  56  79 104 138 178 219 267 320
#     4  12  24  37  56  81 112 147 183 226 275 331
#     4  10  21  37  57  81 108 140 182 231 279 328
#     4  10  20  34  55  84 117 150 185 228 273 321
#     4  10  21  38  59  82 109 141 180 227 277 331
#     4  10  21  38  59  81 109 148 189 230 280 332
#
# _framework density 19.210947999999998
#
# number of rings (size 3 to 8) (size 9 to 14) (size 15 to 20)
#    0.000    2.000    0.000    4.714    0.000    4.571 
#    0.000    2.857    0.000   14.571    0.000    0.000 
#    0.000    0.000    0.000    0.000    0.000    0.000 
#
# Total GULP energy -694541.216157 kJ/mol
# GULP energy per Si atom -12402.521717 kJ/mol
# Density = 1.916722 g / cm^3
# Si number density = 19.210948 Si / 1000 Ang^3
#
#
#
# Elastic Constant Matrix: (Units=GPa)
#
#
# Indices 1 2 3 4 5 6 
#
# 1 128.4126 26.1971 50.6755 0.0000 0.0000 0.0000
# 2 26.1971 56.6246 14.9288 0.0000 0.0000 0.0000
# 3 50.6755 14.9288 126.7855 0.0000 0.0000 0.0000
# 4 0.0000 0.0000 0.0000 33.7825 0.0000 0.0000
# 5 0.0000 0.0000 0.0000 0.0000 25.2594 0.0000
# 6 0.0000 0.0000 0.0000 0.0000 0.0000 26.0549
#
#
#
# Elastic Compliance Matrix: (Units=1/GPa)
#
#
# Indices 1 2 3 4 5 6 
#
# 1 0.009931 -0.003662 -0.003538 0.000000 0.000000 0.000000
# 2 -0.003662 0.019576 -0.000842 0.000000 0.000000 0.000000
# 3 -0.003538 -0.000842 0.009401 0.000000 0.000000 0.000000
# 4 0.000000 0.000000 0.000000 0.029601 0.000000 0.000000
# 5 0.000000 0.000000 0.000000 0.000000 0.039589 0.000000
# 6 0.000000 0.000000 0.000000 0.000000 0.000000 0.038381
#
#
# Mechanical properties :
#
#
# Convention : Reuss Voigt Hill
#
# Bulk Modulus (GPa) = 43.81181 55.04727 49.42954
# Shear Modulus (GPa) = 29.38259 31.68743 30.53501
#
# Velocity S-wave (km/s) = 3.91509 4.06574 3.99113
# Velocity P-wave (km/s) = 6.57969 7.12437 6.85744
#
# Compressibility (1/GPa) = 0.02282489
#
# Stress axis : x y z
#
# Youngs Moduli (GPa) = 100.69869 51.08281 106.37644
#
# Poissons Ratio (x) = 0.18704 0.37637
# Poissons Ratio (y) = 0.36871 0.08952
# Poissons Ratio (z) = 0.35628 0.04299
#
# Static dielectric constant tensor:
#      x y z
#    x 3.679740 0.000000 0.000000 
#    y 0.000000 3.480370 0.000000 
#    z 0.000000 0.000000 3.444400 
# 
# 
# High freq. dielectric constant tensor:
#      x y z
#    x 1.754680 0.000000 0.000000 
#    y 0.000000 1.747770 0.000000 
#    z 0.000000 0.000000 1.747020 
# 
# From -- ./inp_files/30286.got.cif
#   From: 2010.03.12/outbox.cif.g09.slc.cpg/sg59_16_cif.got.tgz:30286.got - 2010.04.16 16:29:54.
