data_PCOD8243078
_publ_section_title
;
Structure prediction by ZEFSAII (Michael W. Deem and Ramdas Pophale) SiO2 
 PCOD8243078
Probable space group: P M M N
;
_chemical_formula_sum "Si O2"
_cell_formula_units_Z 56
_cell_length_a 13.615088
_cell_length_b 9.125882
_cell_length_c 23.417644
_cell_angle_alpha 90.000000
_cell_angle_beta 90.000000
_cell_angle_gamma 90.000000
_cell_volume 2909.634926
_symmetry_space_group_name_H-M "P M M N"
_symmetry_group_IT_number 59
_space_group.IT_coordinate_system_code '2'
_symmetry_cell_setting 'orthorhombic'
loop_
_space_group_symop_operation_xyz
x,y,z
1/2-x,1/2-y,z
1/2+x,-y,-z
-x,1/2+y,-z
-x,-y,-z
1/2+x,1/2+y,-z
1/2-x,y,z
x,1/2-y,z
loop_
_atom_site_type_symbol
_atom_site_label
_atom_site_fract_x
_atom_site_fract_y
_atom_site_fract_z
Si Si1 0.139922 0.917993 0.017866
Si Si2 0.534553 0.078130 0.307533
Si Si3 0.862003 0.422222 0.646691
Si Si4 0.133236 0.086033 0.464484
Si Si5 0.549730 0.921133 0.085260
Si Si6 0.137521 0.577560 0.808958
Si Si7 0.633875 0.583332 0.409166
O O1 0.250000 0.945890 0.041212
O O2 0.125840 0.750000 0.998235
O O3 0.063028 0.956418 0.067945
O O4 0.122955 0.018404 0.962842
O O5 0.516651 0.250000 0.309102
O O6 0.598150 0.031175 0.252966
O O7 0.428568 0.998153 0.304815
O O8 0.591219 0.029522 0.364025
O O9 0.750000 0.472220 0.656609
O O10 0.873437 0.250000 0.650721
O O11 0.902471 0.474042 0.584558
O O12 0.250000 0.085544 0.466828
O O13 0.096147 0.250000 0.449247
O O14 0.094795 0.038548 0.527395
O O15 0.569244 0.750000 0.091972
O O16 0.569934 0.998160 0.144972
O O17 0.250000 0.524889 0.814471
O O18 0.129132 0.750000 0.818758
O O19 0.750000 0.571128 0.407075
O O20 0.600927 0.750000 0.394773
#
# Coordination Sequence:
#
# PCOD8243078 Si02
#       7
#     8   8   8   8   8   8   8
#     4   9  18  34  55  80 115 154 183 214 262 314
#     4  11  23  37  55  77 102 137 180 222 264 316
#     4  10  21  37  56  77 101 131 170 218 270 323
#     4   8  15  30  52  76 102 133 168 208 260 322
#     4  10  20  33  54  85 114 143 185 228 263 305
#     4  10  22  40  58  77 106 143 179 215 260 315
#     4   9  18  33  53  78 108 138 169 213 268 320
#
# _framework density 19.246400000000001
#
# number of rings (size 3 to 8) (size 9 to 14) (size 15 to 20)
#    0.000    2.429    0.000    3.000    0.000    6.857 
#    0.000    2.143    0.000    2.571    0.000    0.000 
#    0.000    0.000    0.000    0.000    0.000    0.000 
#
# Total GULP energy -694404.526646 kJ/mol
# GULP energy per Si atom -12400.080833 kJ/mol
# Density = 1.920259 g / cm^3
# Si number density = 19.246400 Si / 1000 Ang^3
#
#
#
# Elastic Constant Matrix: (Units=GPa)
#
#
# Indices 1 2 3 4 5 6 
#
# 1 91.0472 35.4893 54.9374 0.0000 0.0000 0.0000
# 2 35.4893 69.3940 51.2241 0.0000 0.0000 0.0000
# 3 54.9374 51.2241 99.4038 0.0000 0.0000 0.0000
# 4 0.0000 0.0000 0.0000 35.0005 0.0000 0.0000
# 5 0.0000 0.0000 0.0000 0.0000 27.9219 0.0000
# 6 0.0000 0.0000 0.0000 0.0000 0.0000 28.2198
#
#
#
# Elastic Compliance Matrix: (Units=1/GPa)
#
#
# Indices 1 2 3 4 5 6 
#
# 1 0.016811 -0.002807 -0.007844 0.000000 0.000000 0.000000
# 2 -0.002807 0.023726 -0.010675 0.000000 0.000000 0.000000
# 3 -0.007844 -0.010675 0.019896 0.000000 0.000000 0.000000
# 4 0.000000 0.000000 0.000000 0.028571 0.000000 0.000000
# 5 0.000000 0.000000 0.000000 0.000000 0.035814 0.000000
# 6 0.000000 0.000000 0.000000 0.000000 0.000000 0.035436
#
#
# Mechanical properties :
#
#
# Convention : Reuss Voigt Hill
#
# Bulk Modulus (GPa) = 56.24168 60.34962 58.29565
# Shear Modulus (GPa) = 23.94258 26.10804 25.02531
#
# Velocity S-wave (km/s) = 3.53087 3.68709 3.60982
# Velocity P-wave (km/s) = 6.77555 7.03921 6.90864
#
# Compressibility (1/GPa) = 0.01778041
#
# Stress axis : x y z
#
# Youngs Moduli (GPa) = 59.48622 42.14825 50.26089
#
# Poissons Ratio (x) = 0.11831 0.39426
# Poissons Ratio (y) = 0.16697 0.53653
# Poissons Ratio (z) = 0.46663 0.44993
#
# Static dielectric constant tensor:
#      x y z
#    x 3.697550 0.000000 0.000000 
#    y 0.000000 3.506700 0.000000 
#    z 0.000000 0.000000 3.453250 
# 
# 
# High freq. dielectric constant tensor:
#      x y z
#    x 1.759580 0.000000 0.000000 
#    y 0.000000 1.748850 0.000000 
#    z 0.000000 0.000000 1.730450 
# 
# From -- ./inp_files/30386.got.cif
#   From: 2010.03.12/outbox.cif.g09.slc.cpg/sg59_16_cif.got.tgz:30386.got - 2010.04.16 16:29:54.
