data_PCOD8243631
_publ_section_title
;
Structure prediction by ZEFSAII (Michael W. Deem and Ramdas Pophale) SiO2 
 PCOD8243631
Probable space group: P M M N
;
_chemical_formula_sum "Si O2"
_cell_formula_units_Z 64
_cell_length_a 8.776061
_cell_length_b 23.901602
_cell_length_c 15.419423
_cell_angle_alpha 90.000000
_cell_angle_beta 90.000000
_cell_angle_gamma 90.000000
_cell_volume 3234.407730
_symmetry_space_group_name_H-M "P M M N"
_symmetry_group_IT_number 59
_space_group.IT_coordinate_system_code '2'
_symmetry_cell_setting 'orthorhombic'
loop_
_space_group_symop_operation_xyz
x,y,z
1/2-x,1/2-y,z
1/2+x,-y,-z
-x,1/2+y,-z
-x,-y,-z
1/2+x,1/2+y,-z
1/2-x,y,z
x,1/2-y,z
loop_
_atom_site_type_symbol
_atom_site_label
_atom_site_fract_x
_atom_site_fract_y
_atom_site_fract_z
Si Si1 0.571164 0.499703 0.343460
Si Si2 0.069679 0.614772 0.085373
Si Si3 0.071928 0.889255 0.403266
Si Si4 0.428050 0.620652 0.598072
Si Si5 0.569211 0.187336 0.750983
Si Si6 0.430621 0.386426 0.090590
Si Si7 0.570087 0.812934 0.748666
Si Si8 0.929594 0.500904 0.143753
O O1 0.750000 0.503723 0.356354
O O2 0.497721 0.549275 0.398043
O O3 0.507664 0.440978 0.379590
O O4 0.523027 0.505530 0.243777
O O5 0.250000 0.604410 0.086806
O O6 0.018601 0.657776 0.160073
O O7 0.980937 0.556910 0.096567
O O8 0.014214 0.639787 0.993568
O O9 0.250000 0.896227 0.387650
O O10 0.036484 0.864352 0.498161
O O11 0.002558 0.847590 0.330670
O O12 0.250000 0.622526 0.618658
O O13 0.508237 0.666779 0.656566
O O14 0.750000 0.190213 0.744477
O O15 0.500448 0.250000 0.748830
O O16 0.250000 0.381467 0.079392
O O17 0.490946 0.351782 0.173487
O O18 0.479052 0.450542 0.100402
O O19 0.750000 0.815652 0.744844
O O20 0.512214 0.750000 0.765143
O O21 0.750000 0.491045 0.131513
#
# Coordination Sequence:
#
# PCOD8243631 Si02
#       8
#     8   8   8   8   8   8   8   8
#     4  10  20  34  55  84 120 151 184 232 285 336
#     4  11  22  37  59  85 114 149 189 233 283 340
#     4  10  20  35  59  87 116 150 191 233 281 338
#     4  10  21  37  58  88 118 150 190 236 284 335
#     4   9  19  36  56  80 111 147 188 232 276 328
#     4  11  23  39  60  85 114 148 187 233 286 342
#     4  10  23  42  61  82 112 152 194 237 286 340
#     4  11  21  36  59  85 117 151 186 231 282 339
#
# _framework density 19.787241000000002
#
# number of rings (size 3 to 8) (size 9 to 14) (size 15 to 20)
#    0.000    1.750    2.500    1.875    0.000    3.250 
#    0.000    1.250    0.000    3.000    0.000    0.000 
#    0.000    0.000    0.000    0.000    0.000    0.000 
#
# Total GULP energy -793830.905530 kJ/mol
# GULP energy per Si atom -12403.607899 kJ/mol
# Density = 1.974220 g / cm^3
# Si number density = 19.787241 Si / 1000 Ang^3
#
#
#
# Elastic Constant Matrix: (Units=GPa)
#
#
# Indices 1 2 3 4 5 6 
#
# 1 29.3859 16.9205 28.1415 0.0000 0.0000 0.0000
# 2 16.9205 121.6429 50.6851 0.0000 0.0000 0.0000
# 3 28.1415 50.6851 128.9581 0.0000 0.0000 0.0000
# 4 0.0000 0.0000 0.0000 16.3167 0.0000 0.0000
# 5 0.0000 0.0000 0.0000 0.0000 28.6981 0.0000
# 6 0.0000 0.0000 0.0000 0.0000 0.0000 14.2258
#
#
#
# Elastic Compliance Matrix: (Units=1/GPa)
#
#
# Indices 1 2 3 4 5 6 
#
# 1 0.043654 -0.002515 -0.008538 0.000000 0.000000 0.000000
# 2 -0.002515 0.009976 -0.003372 0.000000 0.000000 0.000000
# 3 -0.008538 -0.003372 0.010943 0.000000 0.000000 0.000000
# 4 0.000000 0.000000 0.000000 0.061287 0.000000 0.000000
# 5 0.000000 0.000000 0.000000 0.000000 0.034846 0.000000
# 6 0.000000 0.000000 0.000000 0.000000 0.000000 0.070295
#
#
# Mechanical properties :
#
#
# Convention : Reuss Voigt Hill
#
# Bulk Modulus (GPa) = 27.99287 52.38679 40.18983
# Shear Modulus (GPa) = 18.39878 24.13078 21.26478
#
# Velocity S-wave (km/s) = 3.05262 3.49594 3.28177
# Velocity P-wave (km/s) = 5.15774 6.54431 5.89195
#
# Compressibility (1/GPa) = 0.03572338
#
# Stress axis : x y z
#
# Youngs Moduli (GPa) = 22.90728 100.24459 91.38332
#
# Poissons Ratio (x) = 0.25210 0.78022
# Poissons Ratio (y) = 0.05761 0.30814
# Poissons Ratio (z) = 0.19558 0.33802
#
# Static dielectric constant tensor:
#      x y z
#    x 3.347470 0.000000 0.000000 
#    y 0.000000 3.673660 0.000000 
#    z 0.000000 0.000000 3.864130 
# 
# 
# High freq. dielectric constant tensor:
#      x y z
#    x 1.751490 0.000000 0.000000 
#    y 0.000000 1.767320 0.000000 
#    z 0.000000 0.000000 1.790220 
# 
# From -- ./inp_files/21545.got.cif
#   From: 2010.03.12/outbox.cif.g09.slc.cpg/sg59_11_cif.got.tgz:21545.got - 2010.04.16 16:29:54.
