data_PCOD8243488
_publ_section_title
;
Structure prediction by ZEFSAII (Michael W. Deem and Ramdas Pophale) SiO2 
 PCOD8243488
Probable space group: P M M N
;
_chemical_formula_sum "Si O2"
_cell_formula_units_Z 56
_cell_length_a 21.775855
_cell_length_b 9.183053
_cell_length_c 14.560669
_cell_angle_alpha 90.000000
_cell_angle_beta 90.000000
_cell_angle_gamma 90.000000
_cell_volume 2911.679952
_symmetry_space_group_name_H-M "P M M N"
_symmetry_group_IT_number 59
_space_group.IT_coordinate_system_code '2'
_symmetry_cell_setting 'orthorhombic'
loop_
_space_group_symop_operation_xyz
x,y,z
1/2-x,1/2-y,z
1/2+x,-y,-z
-x,1/2+y,-z
-x,-y,-z
1/2+x,1/2+y,-z
1/2-x,y,z
x,1/2-y,z
loop_
_atom_site_type_symbol
_atom_site_label
_atom_site_fract_x
_atom_site_fract_y
_atom_site_fract_z
Si Si1 0.180919 0.083202 0.976800
Si Si2 0.750000 0.074990 0.689231
Si Si3 0.656132 0.918479 0.817508
Si Si4 0.148039 0.412712 0.650748
Si Si5 0.250000 0.077776 0.507555
Si Si6 0.478157 0.416601 0.239553
Si Si7 0.111631 0.920628 0.823915
Si Si8 0.009084 0.087802 0.590676
O O1 0.250000 0.062809 0.939438
O O2 0.159185 0.250000 0.967906
O O3 0.134502 0.984443 0.919794
O O4 0.179816 0.034306 0.082772
O O5 0.750000 0.250000 0.687562
O O6 0.689188 0.017349 0.741205
O O7 0.750000 0.014633 0.585552
O O8 0.672376 0.750000 0.796393
O O9 0.582700 0.942799 0.819976
O O10 0.168167 0.250000 0.680831
O O11 0.191246 0.468242 0.568540
O O12 0.151839 0.514232 0.740363
O O13 0.080137 0.413366 0.612896
O O14 0.250000 0.250000 0.483854
O O15 0.484287 0.250000 0.271762
O O16 0.539396 0.461654 0.183662
O O17 0.469952 0.513848 0.329414
O O18 0.122644 0.750000 0.823842
O O19 0.983600 0.250000 0.577360
O O20 0.000000 0.000000 0.500000
#
# Coordination Sequence:
#
# PCOD8243488 Si02
#       8
#     8   4   8   8   4   8   8   8
#     4  10  21  38  61  86 112 153 202 238 276 340
#     4  12  26  40  57  88 123 150 187 244 302 344
#     4  10  21  42  66  84 111 156 204 239 278 344
#     4   9  20  38  58  82 111 150 196 235 271 335
#     4  10  22  40  61  82 109 152 199 236 280 340
#     4   9  20  38  60  84 113 151 193 237 288 345
#     4  10  21  37  58  89 124 151 181 237 303 346
#     4  10  20  34  54  81 113 149 191 234 285 339
#
# _framework density 19.232883000000001
#
# number of rings (size 3 to 8) (size 9 to 14) (size 15 to 20)
#    0.000    2.143    0.714    1.500    3.000    3.714 
#    0.000    0.000    0.000    0.000    0.000    0.000 
#    0.000    0.000    0.000    0.000    0.000    0.000 
#
# Total GULP energy -694451.260444 kJ/mol
# GULP energy per Si atom -12400.915365 kJ/mol
# Density = 1.918911 g / cm^3
# Si number density = 19.232883 Si / 1000 Ang^3
#
#
#
# Elastic Constant Matrix: (Units=GPa)
#
#
# Indices 1 2 3 4 5 6 
#
# 1 84.2732 42.8316 50.7288 0.0000 0.0000 0.0000
# 2 42.8316 101.7928 59.6390 0.0000 0.0000 0.0000
# 3 50.7288 59.6390 109.8511 0.0000 0.0000 0.0000
# 4 0.0000 0.0000 0.0000 33.9548 0.0000 0.0000
# 5 0.0000 0.0000 0.0000 0.0000 21.6693 0.0000
# 6 0.0000 0.0000 0.0000 0.0000 0.0000 26.7205
#
#
#
# Elastic Compliance Matrix: (Units=1/GPa)
#
#
# Indices 1 2 3 4 5 6 
#
# 1 0.017398 -0.003832 -0.005954 0.000000 0.000000 0.000000
# 2 -0.003832 0.015250 -0.006510 0.000000 0.000000 0.000000
# 3 -0.005954 -0.006510 0.015387 0.000000 0.000000 0.000000
# 4 0.000000 0.000000 0.000000 0.029451 0.000000 0.000000
# 5 0.000000 0.000000 0.000000 0.000000 0.046148 0.000000
# 6 0.000000 0.000000 0.000000 0.000000 0.000000 0.037424
#
#
# Mechanical properties :
#
#
# Convention : Reuss Voigt Hill
#
# Bulk Modulus (GPa) = 64.75231 66.92399 65.83815
# Shear Modulus (GPa) = 25.15117 25.98344 25.56731
#
# Velocity S-wave (km/s) = 3.62016 3.67957 3.64999
# Velocity P-wave (km/s) = 7.15644 7.27492 7.21593
#
# Compressibility (1/GPa) = 0.01544346
#
# Stress axis : x y z
#
# Youngs Moduli (GPa) = 57.47868 65.57183 64.99074
#
# Poissons Ratio (x) = 0.25130 0.38693
# Poissons Ratio (y) = 0.22028 0.42308
# Poissons Ratio (z) = 0.34220 0.42686
#
# Static dielectric constant tensor:
#      x y z
#    x 0.000000 0.000000 0.000000 
#    y 0.000000 0.000000 0.000000 
#    z 0.000000 0.000000 0.000000 
# 
# 
# High freq. dielectric constant tensor:
#      x y z
#    x 1.753960 0.000000 0.000000 
#    y 0.000000 1.744040 0.000000 
#    z 0.000000 0.000000 1.747460 
# 
# From -- ./inp_files/24399.got.cif
#   From: 2010.03.12/outbox.cif.g09.slc.cpg/sg59_13_cif.got.tgz:24399.got - 2010.04.16 16:29:54.
