data_PCOD8243534
_publ_section_title
;
Structure prediction by ZEFSAII (Michael W. Deem and Ramdas Pophale) SiO2 
 PCOD8243534
Probable space group: P M M N
;
_chemical_formula_sum "Si O2"
_cell_formula_units_Z 64
_cell_length_a 9.033881
_cell_length_b 14.227870
_cell_length_c 26.042351
_cell_angle_alpha 90.000000
_cell_angle_beta 90.000000
_cell_angle_gamma 90.000000
_cell_volume 3347.298492
_symmetry_space_group_name_H-M "P M M N"
_symmetry_group_IT_number 59
_space_group.IT_coordinate_system_code '2'
_symmetry_cell_setting 'orthorhombic'
loop_
_space_group_symop_operation_xyz
x,y,z
1/2-x,1/2-y,z
1/2+x,-y,-z
-x,1/2+y,-z
-x,-y,-z
1/2+x,1/2+y,-z
1/2-x,y,z
x,1/2-y,z
loop_
_atom_site_type_symbol
_atom_site_label
_atom_site_fract_x
_atom_site_fract_y
_atom_site_fract_z
Si Si1 0.582489 0.638763 0.100595
Si Si2 0.077441 0.358635 0.360326
Si Si3 0.076931 0.857975 0.887943
Si Si4 0.925206 0.009173 0.821938
Si Si5 0.077181 0.507088 0.445794
Si Si6 0.080125 0.142467 0.627184
Si Si7 0.421707 0.994312 0.714229
Si Si8 0.913491 0.138311 0.998130
O O1 0.750000 0.603009 0.107388
O O2 0.570634 0.750000 0.104192
O O3 0.483029 0.597641 0.145740
O O4 0.527357 0.602207 0.044917
O O5 0.250000 0.369904 0.346875
O O6 0.033270 0.250000 0.368167
O O7 0.038089 0.414463 0.412471
O O8 0.984102 0.401069 0.313327
O O9 0.250000 0.873744 0.876601
O O10 0.033133 0.750000 0.881863
O O11 0.978196 0.912764 0.847425
O O12 0.037832 0.895984 0.945180
O O13 0.750000 0.012358 0.819517
O O14 0.988902 0.015568 0.765259
O O15 0.250000 0.516985 0.454907
O O16 0.000000 0.500000 0.500000
O O17 0.020833 0.600709 0.417695
O O18 0.250000 0.133988 0.609406
O O19 0.034124 0.250000 0.637020
O O20 0.053464 0.085931 0.679466
O O21 0.250000 0.977225 0.726870
O O22 0.750000 0.099769 0.984459
O O23 0.907889 0.250000 0.999661
#
# Coordination Sequence:
#
# PCOD8243534 Si02
#       8
#     8   8   8   8   8   8   8   8
#     4  10  21  37  57  80 107 140 178 221 269 324
#     4   9  19  37  59  81 108 146 189 229 273 325
#     4   9  19  37  59  81 107 140 178 222 271 324
#     4  12  25  38  55  80 110 144 181 224 274 328
#     4  10  20  34  54  84 121 156 189 228 271 314
#     4   9  19  37  60  83 108 143 185 227 275 328
#     4  10  21  38  58  80 107 138 178 230 280 327
#     4   8  15  31  55  80 106 136 171 215 268 325
#
# _framework density 19.119896000000001
#
# number of rings (size 3 to 8) (size 9 to 14) (size 15 to 20)
#    0.000    2.375    0.000    3.000    0.000    5.000 
#    0.000    3.750    0.000    0.000    0.000    0.000 
#    0.000    0.000    0.000    0.000    0.000    0.000 
#
# Total GULP energy -793682.943270 kJ/mol
# GULP energy per Si atom -12401.295989 kJ/mol
# Density = 1.907638 g / cm^3
# Si number density = 19.119896 Si / 1000 Ang^3
#
#
#
# Elastic Constant Matrix: (Units=GPa)
#
#
# Indices 1 2 3 4 5 6 
#
# 1 115.2386 38.1905 67.3644 0.0000 0.0000 0.0000
# 2 38.1905 98.0388 32.5206 0.0000 0.0000 0.0000
# 3 67.3644 32.5206 121.7169 0.0000 0.0000 0.0000
# 4 0.0000 0.0000 0.0000 19.5235 0.0000 0.0000
# 5 0.0000 0.0000 0.0000 0.0000 37.0023 0.0000
# 6 0.0000 0.0000 0.0000 0.0000 0.0000 29.4448
#
#
#
# Elastic Compliance Matrix: (Units=1/GPa)
#
#
# Indices 1 2 3 4 5 6 
#
# 1 0.013625 -0.003079 -0.006718 0.000000 0.000000 0.000000
# 2 -0.003079 0.011888 -0.001472 0.000000 0.000000 0.000000
# 3 -0.006718 -0.001472 0.012327 0.000000 0.000000 0.000000
# 4 0.000000 0.000000 0.000000 0.051220 0.000000 0.000000
# 5 0.000000 0.000000 0.000000 0.000000 0.027025 0.000000
# 6 0.000000 0.000000 0.000000 0.000000 0.000000 0.033962
#
#
# Mechanical properties :
#
#
# Convention : Reuss Voigt Hill
#
# Bulk Modulus (GPa) = 65.35290 67.90501 66.62895
# Shear Modulus (GPa) = 28.13931 30.32205 29.23068
#
# Velocity S-wave (km/s) = 3.84047 3.98664 3.91424
# Velocity P-wave (km/s) = 7.34305 7.53549 7.43989
#
# Compressibility (1/GPa) = 0.01530154
#
# Stress axis : x y z
#
# Youngs Moduli (GPa) = 73.39260 84.11978 81.12058
#
# Poissons Ratio (x) = 0.25902 0.54499
# Poissons Ratio (y) = 0.22599 0.11941
# Poissons Ratio (z) = 0.49307 0.12383
#
# Static dielectric constant tensor:
#      x y z
#    x 3.581130 0.000000 0.000000 
#    y 0.000000 3.486050 0.000000 
#    z 0.000000 0.000000 3.540820 
# 
# 
# High freq. dielectric constant tensor:
#      x y z
#    x 1.746730 0.000000 0.000000 
#    y 0.000000 1.745610 0.000000 
#    z 0.000000 0.000000 1.743380 
# 
# From -- ./inp_files/31467.got.cif
#   From: 2010.03.12/outbox.cif.g09.slc.cpg/sg59_16_cif.got.tgz:31467.got - 2010.04.16 16:29:54.
