data_PCOD8243526
_publ_section_title
;
Structure prediction by ZEFSAII (Michael W. Deem and Ramdas Pophale) SiO2 
 PCOD8243526
Probable space group: P M M N
;
_chemical_formula_sum "Si O2"
_cell_formula_units_Z 64
_cell_length_a 8.845647
_cell_length_b 14.442500
_cell_length_c 24.840344
_cell_angle_alpha 90.000000
_cell_angle_beta 90.000000
_cell_angle_gamma 90.000000
_cell_volume 3173.434846
_symmetry_space_group_name_H-M "P M M N"
_symmetry_group_IT_number 59
_space_group.IT_coordinate_system_code '2'
_symmetry_cell_setting 'orthorhombic'
loop_
_space_group_symop_operation_xyz
x,y,z
1/2-x,1/2-y,z
1/2+x,-y,-z
-x,1/2+y,-z
-x,-y,-z
1/2+x,1/2+y,-z
1/2-x,y,z
x,1/2-y,z
loop_
_atom_site_type_symbol
_atom_site_label
_atom_site_fract_x
_atom_site_fract_y
_atom_site_fract_z
Si Si1 0.580165 0.149052 0.594625
Si Si2 0.426631 0.024172 0.674797
Si Si3 0.924488 0.645622 0.629837
Si Si4 0.928793 0.529516 0.123166
Si Si5 0.577915 0.408384 0.479481
Si Si6 0.070188 0.354889 0.774046
Si Si7 0.925292 0.356102 0.969852
Si Si8 0.073468 0.354674 0.084684
O O1 0.750000 0.117507 0.610383
O O2 0.543152 0.250000 0.619355
O O3 0.463777 0.074241 0.618248
O O4 0.567426 0.160025 0.530333
O O5 0.250000 0.010713 0.681505
O O6 0.492618 0.086863 0.723213
O O7 0.500706 0.922539 0.673788
O O8 0.750000 0.620049 0.624808
O O9 0.949554 0.750000 0.650805
O O10 0.994895 0.636503 0.570855
O O11 0.750000 0.515626 0.124725
O O12 0.985796 0.592800 0.172469
O O13 0.976647 0.579120 0.068351
O O14 0.008413 0.428647 0.127585
O O15 0.500000 0.500000 0.500000
O O16 0.750000 0.428192 0.462135
O O17 0.250000 0.350536 0.772115
O O18 0.004437 0.250000 0.773115
O O19 0.750000 0.384793 0.966863
O O20 0.949201 0.250000 0.952063
O O21 0.983511 0.371770 0.029830
O O22 0.250000 0.372013 0.074463
O O23 0.045154 0.250000 0.106076
#
# Coordination Sequence:
#
# PCOD8243526 Si02
#       8
#     8   8   8   8   8   8   8   8
#     4  10  21  36  55  81 115 150 182 222 276 336
#     4  11  22  38  62  86 110 144 188 239 287 335
#     4  11  24  41  60  83 115 154 194 236 284 340
#     4  11  21  35  58  84 114 152 191 236 289 343
#     4  11  21  35  57  85 118 154 189 228 278 335
#     4   9  20  39  61  87 116 145 182 230 285 344
#     4  10  20  34  54  83 119 155 194 238 282 337
#     4  10  21  37  56  80 114 155 196 237 283 336
#
# _framework density 20.167421999999998
#
# number of rings (size 3 to 8) (size 9 to 14) (size 15 to 20)
#    0.000    1.625    1.250    3.750    0.000    4.750 
#    0.000    3.125    0.000    8.250    0.000    0.000 
#    0.000    0.000    0.000    0.000    0.000    0.000 
#
# Total GULP energy -793648.418560 kJ/mol
# GULP energy per Si atom -12400.756540 kJ/mol
# Density = 2.012152 g / cm^3
# Si number density = 20.167422 Si / 1000 Ang^3
#
#
#
# Elastic Constant Matrix: (Units=GPa)
#
#
# Indices 1 2 3 4 5 6 
#
# 1 85.7393 51.6558 23.5950 0.0000 0.0000 0.0000
# 2 51.6558 153.9874 55.2794 0.0000 0.0000 0.0000
# 3 23.5950 55.2794 74.1105 0.0000 0.0000 0.0000
# 4 0.0000 0.0000 0.0000 34.3698 0.0000 0.0000
# 5 0.0000 0.0000 0.0000 0.0000 21.9947 0.0000
# 6 0.0000 0.0000 0.0000 0.0000 0.0000 33.0633
#
#
#
# Elastic Compliance Matrix: (Units=1/GPa)
#
#
# Indices 1 2 3 4 5 6 
#
# 1 0.014719 -0.004446 -0.001370 0.000000 0.000000 0.000000
# 2 -0.004446 0.010212 -0.006201 0.000000 0.000000 0.000000
# 3 -0.001370 -0.006201 0.018555 0.000000 0.000000 0.000000
# 4 0.000000 0.000000 0.000000 0.029095 0.000000 0.000000
# 5 0.000000 0.000000 0.000000 0.000000 0.045466 0.000000
# 6 0.000000 0.000000 0.000000 0.000000 0.000000 0.030245
#
#
# Mechanical properties :
#
#
# Convention : Reuss Voigt Hill
#
# Bulk Modulus (GPa) = 51.41074 63.87750 57.64412
# Shear Modulus (GPa) = 27.96270 30.10601 29.03436
#
# Velocity S-wave (km/s) = 3.72765 3.86787 3.79841
# Velocity P-wave (km/s) = 6.63886 7.18955 6.91969
#
# Compressibility (1/GPa) = 0.01945119
#
# Stress axis : x y z
#
# Youngs Moduli (GPa) = 67.94086 97.92792 53.89301
#
# Poissons Ratio (x) = 0.43535 0.07384
# Poissons Ratio (y) = 0.30204 0.33422
# Poissons Ratio (z) = 0.09308 0.60730
#
# Static dielectric constant tensor:
#      x y z
#    x 3.510720 0.000000 0.000000 
#    y 0.000000 3.969180 0.000000 
#    z 0.000000 0.000000 3.597740 
# 
# 
# High freq. dielectric constant tensor:
#      x y z
#    x 1.783670 0.000000 0.000000 
#    y 0.000000 1.806330 0.000000 
#    z 0.000000 0.000000 1.763130 
# 
# From -- ./inp_files/31503.got.cif
#   From: 2010.03.12/outbox.cif.g09.slc.cpg/sg59_16_cif.got.tgz:31503.got - 2010.04.16 16:29:54.
