data_PCOD8243385
_publ_section_title
;
Structure prediction by ZEFSAII (Michael W. Deem and Ramdas Pophale) SiO2 
 PCOD8243385
Probable space group: P M M N
;
_chemical_formula_sum "Si O2"
_cell_formula_units_Z 40
_cell_length_a 9.518410
_cell_length_b 18.145013
_cell_length_c 12.646502
_cell_angle_alpha 90.000000
_cell_angle_beta 90.000000
_cell_angle_gamma 90.000000
_cell_volume 2184.198520
_symmetry_space_group_name_H-M "P M M N"
_symmetry_group_IT_number 59
_space_group.IT_coordinate_system_code '2'
_symmetry_cell_setting 'orthorhombic'
loop_
_space_group_symop_operation_xyz
x,y,z
1/2-x,1/2-y,z
1/2+x,-y,-z
-x,1/2+y,-z
-x,-y,-z
1/2+x,1/2+y,-z
1/2-x,y,z
x,1/2-y,z
loop_
_atom_site_type_symbol
_atom_site_label
_atom_site_fract_x
_atom_site_fract_y
_atom_site_fract_z
Si Si1 0.084705 0.923566 0.676829
Si Si2 0.412451 0.334884 0.492645
Si Si3 0.412090 0.408798 0.710088
Si Si4 0.086529 0.664483 0.110150
Si Si5 0.583330 0.331529 0.125687
O O1 0.250000 0.909937 0.662884
O O2 0.028574 0.888909 0.786950
O O3 0.007885 0.885449 0.579900
O O4 0.045680 0.009156 0.675012
O O5 0.250000 0.351193 0.466786
O O6 0.451052 0.250000 0.472949
O O7 0.445187 0.353678 0.614267
O O8 0.250000 0.405481 0.743701
O O9 0.501513 0.386638 0.810980
O O10 0.250000 0.646681 0.124433
O O11 0.056068 0.750000 0.133932
O O12 0.034161 0.644485 0.991541
O O13 0.750000 0.328028 0.125060
O O14 0.523973 0.250000 0.153092
#
# Coordination Sequence:
#
# PCOD8243385 Si02
#       5
#     8   8   8   8   8
#     4  10  20  34  54  78 102 132 171 209 248 301
#     4  10  21  36  52  71 100 136 169 207 258 304
#     4  10  21  35  51  75 107 137 164 203 257 305
#     4   9  18  33  53  75  99 132 173 210 246 295
#     4   8  15  30  51  74 101 131 165 210 256 290
#
# _framework density 18.313355000000001
#
# number of rings (size 3 to 8) (size 9 to 14) (size 15 to 20)
#    0.000    2.600    0.000    3.000    0.000    4.800 
#    0.000    1.000    0.000    1.200    0.000    0.000 
#    0.000    0.000    0.000    0.000    0.000    0.000 
#
# Total GULP energy -496013.109038 kJ/mol
# GULP energy per Si atom -12400.327726 kJ/mol
# Density = 1.827167 g / cm^3
# Si number density = 18.313355 Si / 1000 Ang^3
#
#
#
# Elastic Constant Matrix: (Units=GPa)
#
#
# Indices 1 2 3 4 5 6 
#
# 1 38.8706 30.2019 29.4761 0.0000 0.0000 0.0000
# 2 30.2019 71.3579 24.9190 0.0000 0.0000 0.0000
# 3 29.4761 24.9190 70.4170 0.0000 0.0000 0.0000
# 4 0.0000 0.0000 0.0000 32.0007 0.0000 0.0000
# 5 0.0000 0.0000 0.0000 0.0000 21.2121 0.0000
# 6 0.0000 0.0000 0.0000 0.0000 0.0000 13.6929
#
#
#
# Elastic Compliance Matrix: (Units=1/GPa)
#
#
# Indices 1 2 3 4 5 6 
#
# 1 0.049305 -0.015587 -0.015123 0.000000 0.000000 0.000000
# 2 -0.015587 0.020917 -0.000878 0.000000 0.000000 0.000000
# 3 -0.015123 -0.000878 0.020842 0.000000 0.000000 0.000000
# 4 0.000000 0.000000 0.000000 0.031249 0.000000 0.000000
# 5 0.000000 0.000000 0.000000 0.000000 0.047143 0.000000
# 6 0.000000 0.000000 0.000000 0.000000 0.000000 0.073030
#
#
# Mechanical properties :
#
#
# Convention : Reuss Voigt Hill
#
# Bulk Modulus (GPa) = 35.85572 38.87106 37.36339
# Shear Modulus (GPa) = 15.87507 19.78439 17.82973
#
# Velocity S-wave (km/s) = 2.94744 3.29040 3.12363
# Velocity P-wave (km/s) = 5.58612 5.97555 5.78411
#
# Compressibility (1/GPa) = 0.02788955
#
# Stress axis : x y z
#
# Youngs Moduli (GPa) = 20.28177 47.80690 47.97992
#
# Poissons Ratio (x) = 0.74517 0.72560
# Poissons Ratio (y) = 0.31613 0.04210
# Poissons Ratio (z) = 0.30672 0.04195
#
# Static dielectric constant tensor:
#      x y z
#    x 3.106440 0.000000 0.000000 
#    y 0.000000 3.535090 0.000000 
#    z 0.000000 0.000000 3.471650 
# 
# 
# High freq. dielectric constant tensor:
#      x y z
#    x 1.682700 0.000000 0.000000 
#    y 0.000000 1.715850 0.000000 
#    z 0.000000 0.000000 1.720620 
# 
# From -- ./inp_files/13826.got.cif
#   From: 2010.03.12/outbox.cif.g09.slc.cpg/sg59_7_cif.got.tgz:13826.got - 2010.04.16 16:29:54.
