data_PCOD8243134
_publ_section_title
;
Structure prediction by ZEFSAII (Michael W. Deem and Ramdas Pophale) SiO2 
 PCOD8243134
Probable space group: P M M N
;
_chemical_formula_sum "Si O2"
_cell_formula_units_Z 64
_cell_length_a 14.054389
_cell_length_b 9.548550
_cell_length_c 25.995873
_cell_angle_alpha 90.000000
_cell_angle_beta 90.000000
_cell_angle_gamma 90.000000
_cell_volume 3488.621099
_symmetry_space_group_name_H-M "P M M N"
_symmetry_group_IT_number 59
_space_group.IT_coordinate_system_code '2'
_symmetry_cell_setting 'orthorhombic'
loop_
_space_group_symop_operation_xyz
x,y,z
1/2-x,1/2-y,z
1/2+x,-y,-z
-x,1/2+y,-z
-x,-y,-z
1/2+x,1/2+y,-z
1/2-x,y,z
x,1/2-y,z
loop_
_atom_site_type_symbol
_atom_site_label
_atom_site_fract_x
_atom_site_fract_y
_atom_site_fract_z
Si Si1 0.361541 0.585013 0.771516
Si Si2 0.137417 0.091832 0.573953
Si Si3 0.638392 0.090498 0.022670
Si Si4 0.856414 0.587794 0.924809
Si Si5 0.854545 0.415668 0.631500
Si Si6 0.954453 0.915065 0.320100
Si Si7 0.863079 0.094097 0.518223
Si Si8 0.456284 0.912855 0.874725
O O1 0.250000 0.551158 0.773983
O O2 0.380158 0.750000 0.764411
O O3 0.409685 0.503706 0.725196
O O4 0.411370 0.523018 0.823034
O O5 0.250000 0.079267 0.576246
O O6 0.103095 0.250000 0.565103
O O7 0.097489 0.036623 0.627918
O O8 0.093555 0.003735 0.526624
O O9 0.750000 0.083271 0.031100
O O10 0.604188 0.250000 0.013025
O O11 0.607465 0.998274 0.974008
O O12 0.591135 0.024370 0.073754
O O13 0.750000 0.542153 0.907453
O O14 0.858688 0.750000 0.940764
O O15 0.929584 0.559503 0.877740
O O16 0.750000 0.477678 0.646717
O O17 0.845692 0.250000 0.626556
O O18 0.888386 0.468138 0.574840
O O19 0.933412 0.454895 0.674202
O O20 0.939902 0.750000 0.309384
O O21 0.750000 0.097727 0.513036
O O22 0.904997 0.250000 0.510874
O O23 0.430928 0.750000 0.873771
#
# Coordination Sequence:
#
# PCOD8243134 Si02
#       8
#     8   8   8   8   8   8   8   8
#     4  10  21  37  55  73  94 122 160 205 246 285
#     4   9  17  28  42  64  96 128 154 186 235 290
#     4   9  16  27  46  71  97 126 159 193 230 274
#     4   9  17  29  46  70 100 130 157 188 230 280
#     4   8  15  30  51  72  95 125 160 196 235 283
#     4  10  20  34  52  72  95 126 162 199 243 291
#     4   8  14  26  45  68  93 122 156 191 226 272
#     4   9  17  31  50  69  92 126 164 196 232 281
#
# _framework density 18.345357
#
# number of rings (size 3 to 8) (size 9 to 14) (size 15 to 20)
#    0.000    3.000    0.000    1.875    0.000    3.250 
#    0.000    3.750    0.000    3.375    0.000    0.000 
#    0.000    0.000    0.000    0.000    0.000    0.000 
#
# Total GULP energy -793239.338274 kJ/mol
# GULP energy per Si atom -12394.364661 kJ/mol
# Density = 1.830360 g / cm^3
# Si number density = 18.345357 Si / 1000 Ang^3
#
#
#
# Elastic Constant Matrix: (Units=GPa)
#
#
# Indices 1 2 3 4 5 6 
#
# 1 87.2369 34.0054 83.5159 0.0000 0.0000 0.0000
# 2 34.0054 45.0633 46.5214 0.0000 0.0000 0.0000
# 3 83.5159 46.5214 129.2114 0.0000 0.0000 0.0000
# 4 0.0000 0.0000 0.0000 -2.4216 0.0000 0.0000
# 5 0.0000 0.0000 0.0000 0.0000 33.1696 0.0000
# 6 0.0000 0.0000 0.0000 0.0000 0.0000 16.4411
#
#
#
# Elastic Compliance Matrix: (Units=1/GPa)
#
#
# Indices 1 2 3 4 5 6 
#
# 1 0.030573 -0.004250 -0.018230 0.000000 0.000000 0.000000
# 2 -0.004250 0.035909 -0.010182 0.000000 0.000000 0.000000
# 3 -0.018230 -0.010182 0.023188 0.000000 0.000000 0.000000
# 4 0.000000 0.000000 0.000000 -0.412944 0.000000 0.000000
# 5 0.000000 0.000000 0.000000 0.000000 0.030148 0.000000
# 6 0.000000 0.000000 0.000000 0.000000 0.000000 0.060823
#
#
# Mechanical properties :
#
#
# Convention : Reuss Voigt Hill
#
# Bulk Modulus (GPa) = 41.07501 65.51077 53.29289
# Shear Modulus (GPa) = -31.47379 15.93573 -7.76903
#
# Velocity S-wave (km/s) = -4.14651 2.95049 -2.06011
# Velocity P-wave (km/s) = 0.69729 6.88436 4.84294
#
# Compressibility (1/GPa) = 0.02434570
#
# Stress axis : x y z
#
# Youngs Moduli (GPa) = 32.70906 27.84779 43.12514
#
# Poissons Ratio (x) = 0.11836 0.78619
# Poissons Ratio (y) = 0.13902 0.43909
# Poissons Ratio (z) = 0.59630 0.28354
#
# Static dielectric constant tensor:
#      x y z
#    x 3.646010 0.000000 0.000000 
#    y 0.000000 3.284170 0.000000 
#    z 0.000000 0.000000 3.374410 
# 
# 
# High freq. dielectric constant tensor:
#      x y z
#    x 1.728170 0.000000 0.000000 
#    y 0.000000 1.675100 0.000000 
#    z 0.000000 0.000000 1.695580 
# 
# From -- ./inp_files/32236.got.cif
#   From: 2010.03.12/outbox.cif.g09.slc.cpg/sg59_17_cif.got.tgz:32236.got - 2010.04.16 16:29:54.
