data_PCOD8243777
_publ_section_title
;
Structure prediction by ZEFSAII (Michael W. Deem and Ramdas Pophale) SiO2 
 PCOD8243777
Probable space group: P M M N
;
_chemical_formula_sum "Si O2"
_cell_formula_units_Z 56
_cell_length_a 13.403561
_cell_length_b 21.316231
_cell_length_c 10.019644
_cell_angle_alpha 90.000000
_cell_angle_beta 90.000000
_cell_angle_gamma 90.000000
_cell_volume 2862.746579
_symmetry_space_group_name_H-M "P M M N"
_symmetry_group_IT_number 59
_space_group.IT_coordinate_system_code '2'
_symmetry_cell_setting 'orthorhombic'
loop_
_space_group_symop_operation_xyz
x,y,z
1/2-x,1/2-y,z
1/2+x,-y,-z
-x,1/2+y,-z
-x,-y,-z
1/2+x,1/2+y,-z
1/2-x,y,z
x,1/2-y,z
loop_
_atom_site_type_symbol
_atom_site_label
_atom_site_fract_x
_atom_site_fract_y
_atom_site_fract_z
Si Si1 0.633791 0.428231 0.514667
Si Si2 0.017729 0.867400 0.261394
Si Si3 0.363245 0.603467 0.766661
Si Si4 0.862169 0.178225 0.987073
Si Si5 0.016806 0.999307 0.845128
Si Si6 0.367061 0.057218 0.358600
Si Si7 0.135013 0.178930 0.532507
O O1 0.750000 0.424646 0.491584
O O2 0.605835 0.383292 0.635870
O O3 0.583328 0.398695 0.380070
O O4 0.603776 0.501325 0.537156
O O5 0.066352 0.830048 0.139533
O O6 0.931518 0.827767 0.333876
O O7 0.971387 0.931539 0.209960
O O8 0.250000 0.624355 0.752145
O O9 0.375807 0.532684 0.820764
O O10 0.412299 0.648230 0.879468
O O11 0.750000 0.150163 0.959951
O O12 0.852248 0.250000 0.020323
O O13 0.930199 0.956338 0.775664
O O14 0.000000 0.000000 0.000000
O O15 0.250000 0.053656 0.320710
O O16 0.393370 0.124868 0.424663
O O17 0.250000 0.170312 0.574877
O O18 0.117843 0.250000 0.474905
#
# Coordination Sequence:
#
# PCOD8243777 Si02
#       7
#     8   8   8   8   8   8   8
#     4   9  18  33  57  87 112 136 175 229 284 333
#     4  11  20  35  59  82 113 142 182 231 280 331
#     4  10  20  35  53  77 111 145 179 220 273 328
#     4  10  21  37  55  75 106 148 184 218 272 340
#     4  11  21  34  54  85 113 142 181 228 278 338
#     4   9  19  36  58  83 113 146 183 231 283 332
#     4  10  21  37  57  81 110 149 195 236 276 324
#
# _framework density 19.561634000000002
#
# number of rings (size 3 to 8) (size 9 to 14) (size 15 to 20)
#    0.000    2.000    1.429    2.571    0.000    5.143 
#    0.000    3.571    0.000    3.429    0.000    0.000 
#    0.000    0.000    0.000    0.000    0.000    0.000 
#
# Total GULP energy -693774.997430 kJ/mol
# GULP energy per Si atom -12388.839240 kJ/mol
# Density = 1.951711 g / cm^3
# Si number density = 19.561634 Si / 1000 Ang^3
#
#
#
# Elastic Constant Matrix: (Units=GPa)
#
#
# Indices 1 2 3 4 5 6 
#
# 1 42.3468 38.7993 31.1322 0.0000 0.0000 0.0000
# 2 38.7993 97.0265 54.8025 0.0000 0.0000 0.0000
# 3 31.1322 54.8025 149.8682 0.0000 0.0000 0.0000
# 4 0.0000 0.0000 0.0000 24.9997 0.0000 0.0000
# 5 0.0000 0.0000 0.0000 0.0000 25.4150 0.0000
# 6 0.0000 0.0000 0.0000 0.0000 0.0000 26.3907
#
#
#
# Elastic Compliance Matrix: (Units=1/GPa)
#
#
# Indices 1 2 3 4 5 6 
#
# 1 0.038289 -0.013635 -0.002968 0.000000 0.000000 0.000000
# 2 -0.013635 0.017845 -0.003693 0.000000 0.000000 0.000000
# 3 -0.002968 -0.003693 0.008639 0.000000 0.000000 0.000000
# 4 0.000000 0.000000 0.000000 0.040000 0.000000 0.000000
# 5 0.000000 0.000000 0.000000 0.000000 0.039347 0.000000
# 6 0.000000 0.000000 0.000000 0.000000 0.000000 0.037892
#
#
# Mechanical properties :
#
#
# Convention : Reuss Voigt Hill
#
# Bulk Modulus (GPa) = 41.35339 59.85661 50.60500
# Shear Modulus (GPa) = 21.67652 26.32826 24.00239
#
# Velocity S-wave (km/s) = 3.33245 3.67265 3.50668
# Velocity P-wave (km/s) = 5.99941 6.97495 6.50549
#
# Compressibility (1/GPa) = 0.02418182
#
# Stress axis : x y z
#
# Youngs Moduli (GPa) = 26.11716 56.03934 115.74814
#
# Poissons Ratio (x) = 0.76408 0.34353
# Poissons Ratio (y) = 0.35610 0.42745
# Poissons Ratio (z) = 0.07751 0.20695
#
# Static dielectric constant tensor:
#      x y z
#    x 3.657050 0.000000 0.000000 
#    y 0.000000 3.562730 0.000000 
#    z 0.000000 0.000000 3.623430 
# 
# 
# High freq. dielectric constant tensor:
#      x y z
#    x 1.759940 0.000000 0.000000 
#    y 0.000000 1.754910 0.000000 
#    z 0.000000 0.000000 1.764330 
# 
# From -- ./inp_files/9342.got.cif
#   From: 2010.03.12/outbox.cif.g09.slc.cpg/sg59_5_cif.got.tgz:9342.got - 2010.04.16 16:29:54.
