data_PCOD8243145
_publ_section_title
;
Structure prediction by ZEFSAII (Michael W. Deem and Ramdas Pophale) SiO2 
 PCOD8243145
Probable space group: P M M N
;
_chemical_formula_sum "Si O2"
_cell_formula_units_Z 64
_cell_length_a 18.688853
_cell_length_b 9.387573
_cell_length_c 20.564513
_cell_angle_alpha 90.000000
_cell_angle_beta 90.000000
_cell_angle_gamma 90.000000
_cell_volume 3607.899275
_symmetry_space_group_name_H-M "P M M N"
_symmetry_group_IT_number 59
_space_group.IT_coordinate_system_code '2'
_symmetry_cell_setting 'orthorhombic'
loop_
_space_group_symop_operation_xyz
x,y,z
1/2-x,1/2-y,z
1/2+x,-y,-z
-x,1/2+y,-z
-x,-y,-z
1/2+x,1/2+y,-z
1/2-x,y,z
x,1/2-y,z
loop_
_atom_site_type_symbol
_atom_site_label
_atom_site_fract_x
_atom_site_fract_y
_atom_site_fract_z
Si Si1 0.666496 0.914507 0.009369
Si Si2 0.424593 0.415299 0.115355
Si Si3 0.329600 0.419563 0.629663
Si Si4 0.584560 0.413625 0.758749
Si Si5 0.410578 0.582036 0.879759
Si Si6 0.664702 0.591338 0.512053
Si Si7 0.918278 0.914591 0.248022
Si Si8 0.166180 0.914339 0.366822
O O1 0.750000 0.938620 0.995419
O O2 0.650281 0.750000 0.027008
O O3 0.642123 0.014772 0.067702
O O4 0.622265 0.961755 0.946097
O O5 0.415649 0.250000 0.131328
O O6 0.394396 0.499862 0.177076
O O7 0.507413 0.453530 0.101273
O O8 0.250000 0.480317 0.642784
O O9 0.326983 0.250000 0.627977
O O10 0.358830 0.470438 0.558793
O O11 0.381037 0.473826 0.686822
O O12 0.604397 0.250000 0.772200
O O13 0.502052 0.433311 0.741227
O O14 0.629207 0.475113 0.698093
O O15 0.396824 0.750000 0.875587
O O16 0.390784 0.510846 0.811161
O O17 0.750000 0.594534 0.513195
O O18 0.634059 0.750000 0.522926
O O19 0.634615 0.493222 0.569852
O O20 0.897992 0.750000 0.233920
O O21 0.250000 0.940843 0.359327
O O22 0.146635 0.750000 0.375885
#
# Coordination Sequence:
#
# PCOD8243145 Si02
#       8
#     8   8   8   8   8   8   8   8
#     4  10  21  36  53  74  99 125 156 195 235 276
#     4   9  19  35  53  72  95 125 159 194 233 278
#     4   8  14  26  46  69  89 113 150 192 229 269
#     4   9  18  31  47  68  93 122 156 191 228 275
#     4  10  20  34  52  73  98 127 158 192 232 281
#     4   8  14  26  44  65  87 113 150 192 230 272
#     4   9  17  31  50  69  92 123 156 190 230 276
#     4   9  17  29  44  63  90 123 156 190 230 277
#
# _framework density 17.738854
#
# number of rings (size 3 to 8) (size 9 to 14) (size 15 to 20)
#    0.000    3.000    0.000    1.500    0.000    2.750 
#    0.000    2.500    0.000    0.750    0.000    0.000 
#    0.000    0.000    0.000    0.000    0.000    0.000 
#
# Total GULP energy -793515.170651 kJ/mol
# GULP energy per Si atom -12398.674541 kJ/mol
# Density = 1.769848 g / cm^3
# Si number density = 17.738854 Si / 1000 Ang^3
#
#
#
# Elastic Constant Matrix: (Units=GPa)
#
#
# Indices 1 2 3 4 5 6 
#
# 1 42.0731 25.1680 46.2492 0.0000 0.0000 0.0000
# 2 25.1680 58.2238 57.9791 0.0000 0.0000 0.0000
# 3 46.2492 57.9791 152.4296 0.0000 0.0000 0.0000
# 4 0.0000 0.0000 0.0000 29.7199 0.0000 0.0000
# 5 0.0000 0.0000 0.0000 0.0000 34.6628 0.0000
# 6 0.0000 0.0000 0.0000 0.0000 0.0000 18.4287
#
#
#
# Elastic Compliance Matrix: (Units=1/GPa)
#
#
# Indices 1 2 3 4 5 6 
#
# 1 0.037802 -0.007918 -0.008458 0.000000 0.000000 0.000000
# 2 -0.007918 0.029305 -0.008744 0.000000 0.000000 0.000000
# 3 -0.008458 -0.008744 0.012453 0.000000 0.000000 0.000000
# 4 0.000000 0.000000 0.000000 0.033647 0.000000 0.000000
# 5 0.000000 0.000000 0.000000 0.000000 0.028849 0.000000
# 6 0.000000 0.000000 0.000000 0.000000 0.000000 0.054263
#
#
# Mechanical properties :
#
#
# Convention : Reuss Voigt Hill
#
# Bulk Modulus (GPa) = 34.10688 56.83543 45.47116
# Shear Modulus (GPa) = 19.50578 24.78429 22.14504
#
# Velocity S-wave (km/s) = 3.31963 3.74194 3.53709
# Velocity P-wave (km/s) = 5.82771 7.12594 6.50927
#
# Compressibility (1/GPa) = 0.02931960
#
# Stress axis : x y z
#
# Youngs Moduli (GPa) = 26.45348 34.12344 80.30393
#
# Poissons Ratio (x) = 0.27019 0.67920
# Poissons Ratio (y) = 0.20946 0.70220
# Poissons Ratio (z) = 0.22374 0.29839
#
# Static dielectric constant tensor:
#      x y z
#    x 3.146780 0.000000 0.000000 
#    y 0.000000 3.189000 0.000000 
#    z 0.000000 0.000000 3.584130 
# 
# 
# High freq. dielectric constant tensor:
#      x y z
#    x 1.666410 0.000000 0.000000 
#    y 0.000000 1.668020 0.000000 
#    z 0.000000 0.000000 1.699050 
# 
# From -- ./inp_files/30739.got.cif
#   From: 2010.03.12/outbox.cif.g09.slc.cpg/sg59_16_cif.got.tgz:30739.got - 2010.04.16 16:29:54.
