data_PCOD8243377
_publ_section_title
;
Structure prediction by ZEFSAII (Michael W. Deem and Ramdas Pophale) SiO2 
 PCOD8243377
Probable space group: P M M N
;
_chemical_formula_sum "Si O2"
_cell_formula_units_Z 64
_cell_length_a 9.000558
_cell_length_b 23.033753
_cell_length_c 18.107852
_cell_angle_alpha 90.000000
_cell_angle_beta 90.000000
_cell_angle_gamma 90.000000
_cell_volume 3754.058850
_symmetry_space_group_name_H-M "P M M N"
_symmetry_group_IT_number 59
_space_group.IT_coordinate_system_code '2'
_symmetry_cell_setting 'orthorhombic'
loop_
_space_group_symop_operation_xyz
x,y,z
1/2-x,1/2-y,z
1/2+x,-y,-z
-x,1/2+y,-z
-x,-y,-z
1/2+x,1/2+y,-z
1/2-x,y,z
x,1/2-y,z
loop_
_atom_site_type_symbol
_atom_site_label
_atom_site_fract_x
_atom_site_fract_y
_atom_site_fract_z
Si Si1 0.079268 0.882596 0.626190
Si Si2 0.586344 0.319103 0.071929
Si Si3 0.422896 0.183493 0.503412
Si Si4 0.926622 0.122687 0.635945
Si Si5 0.086890 0.318736 0.933215
Si Si6 0.573164 0.185282 0.232062
Si Si7 0.421770 0.009585 0.577752
Si Si8 0.575175 0.817346 0.230688
O O1 0.250000 0.863265 0.612200
O O2 0.019935 0.858984 0.704730
O O3 0.065229 0.951841 0.627084
O O4 0.976866 0.857010 0.562482
O O5 0.750000 0.346112 0.068328
O O6 0.593036 0.250000 0.065526
O O7 0.511082 0.334903 0.151441
O O8 0.502399 0.346503 0.001582
O O9 0.250000 0.171522 0.518603
O O10 0.452661 0.250000 0.481897
O O11 0.513773 0.168867 0.576823
O O12 0.750000 0.118901 0.630564
O O13 0.976416 0.143122 0.716486
O O14 0.995536 0.059755 0.621878
O O15 0.250000 0.346006 0.937931
O O16 0.095228 0.250000 0.942274
O O17 0.020241 0.333046 0.852377
O O18 0.750000 0.186743 0.225797
O O19 0.514611 0.250000 0.251820
O O20 0.250000 0.026383 0.564245
O O21 0.500000 0.000000 0.500000
O O22 0.750000 0.830779 0.240498
O O23 0.544721 0.750000 0.248338
#
# Coordination Sequence:
#
# PCOD8243377 Si02
#       8
#     8   8   8   8   8   8   8   8
#     4  10  20  34  54  75  94 125 168 207 245 291
#     4   8  13  22  39  64  95 130 161 188 225 275
#     4  11  23  36  51  72 100 131 159 195 247 299
#     4  12  24  36  52  73  96 128 166 205 249 294
#     4   8  14  25  42  65  95 130 162 191 230 283
#     4   8  14  26  45  71 102 130 157 195 239 284
#     4  11  22  37  56  75  95 124 165 213 256 295
#     4   9  18  33  51  72 101 133 162 199 248 295
#
# _framework density 17.048214999999999
#
# number of rings (size 3 to 8) (size 9 to 14) (size 15 to 20)
#    0.000    2.375    1.250    4.125    0.000    4.250 
#    0.000    1.875    0.000    2.250    0.000    0.875 
#    0.000    0.000    0.000    0.000    0.000    0.000 
#
# Total GULP energy -793321.580858 kJ/mol
# GULP energy per Si atom -12395.649701 kJ/mol
# Density = 1.700941 g / cm^3
# Si number density = 17.048215 Si / 1000 Ang^3
#
#
#
# Elastic Constant Matrix: (Units=GPa)
#
#
# Indices 1 2 3 4 5 6 
#
# 1 86.1127 31.8294 47.2659 0.0000 0.0000 0.0000
# 2 31.8294 63.8805 35.9538 0.0000 0.0000 0.0000
# 3 47.2659 35.9538 136.7393 0.0000 0.0000 0.0000
# 4 0.0000 0.0000 0.0000 7.1736 0.0000 0.0000
# 5 0.0000 0.0000 0.0000 0.0000 21.3168 0.0000
# 6 0.0000 0.0000 0.0000 0.0000 0.0000 19.9803
#
#
#
# Elastic Compliance Matrix: (Units=1/GPa)
#
#
# Indices 1 2 3 4 5 6 
#
# 1 0.015909 -0.005671 -0.004008 0.000000 0.000000 0.000000
# 2 -0.005671 0.020395 -0.003402 0.000000 0.000000 0.000000
# 3 -0.004008 -0.003402 0.009593 0.000000 0.000000 0.000000
# 4 0.000000 0.000000 0.000000 0.139400 0.000000 0.000000
# 5 0.000000 0.000000 0.000000 0.000000 0.046911 0.000000
# 6 0.000000 0.000000 0.000000 0.000000 0.000000 0.050049
#
#
# Mechanical properties :
#
#
# Convention : Reuss Voigt Hill
#
# Bulk Modulus (GPa) = 50.67331 57.42562 54.04947
# Shear Modulus (GPa) = 15.87311 21.13971 18.50641
#
# Velocity S-wave (km/s) = 3.05466 3.52518 3.29832
# Velocity P-wave (km/s) = 6.49841 7.09412 6.80279
#
# Compressibility (1/GPa) = 0.01973425
#
# Stress axis : x y z
#
# Youngs Moduli (GPa) = 62.85861 49.03218 104.24072
#
# Poissons Ratio (x) = 0.27806 0.41779
# Poissons Ratio (y) = 0.35647 0.35466
# Poissons Ratio (z) = 0.25194 0.16682
#
# Static dielectric constant tensor:
#      x y z
#    x 3.231770 0.000000 0.000000 
#    y 0.000000 1.881210 0.000000 
#    z 0.000000 0.000000 3.499700 
# 
# 
# High freq. dielectric constant tensor:
#      x y z
#    x 1.648490 0.000000 0.000000 
#    y 0.000000 1.619810 0.000000 
#    z 0.000000 0.000000 1.668580 
# 
# From -- ./inp_files/26453.got.cif
#   From: 2010.03.12/outbox.cif.g09.slc.cpg/sg59_14_cif.got.tgz:26453.got - 2010.04.16 16:29:54.
