data_PCOD8243532
_publ_section_title
;
Structure prediction by ZEFSAII (Michael W. Deem and Ramdas Pophale) SiO2 
 PCOD8243532
Probable space group: P M M N
;
_chemical_formula_sum "Si O2"
_cell_formula_units_Z 64
_cell_length_a 8.731562
_cell_length_b 14.603186
_cell_length_c 25.936240
_cell_angle_alpha 90.000000
_cell_angle_beta 90.000000
_cell_angle_gamma 90.000000
_cell_volume 3307.094273
_symmetry_space_group_name_H-M "P M M N"
_symmetry_group_IT_number 59
_space_group.IT_coordinate_system_code '2'
_symmetry_cell_setting 'orthorhombic'
loop_
_space_group_symop_operation_xyz
x,y,z
1/2-x,1/2-y,z
1/2+x,-y,-z
-x,1/2+y,-z
-x,-y,-z
1/2+x,1/2+y,-z
1/2-x,y,z
x,1/2-y,z
loop_
_atom_site_type_symbol
_atom_site_label
_atom_site_fract_x
_atom_site_fract_y
_atom_site_fract_z
Si Si1 0.429026 0.992593 0.788501
Si Si2 0.069600 0.354959 0.868737
Si Si3 0.431200 0.145746 0.136582
Si Si4 0.922626 0.851088 0.600291
Si Si5 0.930942 0.493927 0.943877
Si Si6 0.928962 0.005036 0.677985
Si Si7 0.430234 0.599433 0.497466
Si Si8 0.078309 0.147676 0.606614
O O1 0.250000 0.976222 0.792776
O O2 0.509068 0.901988 0.811311
O O3 0.477436 0.085236 0.818763
O O4 0.475518 0.006254 0.729907
O O5 0.250000 0.357593 0.878282
O O6 0.013095 0.250000 0.861420
O O7 0.988875 0.399879 0.918195
O O8 0.250000 0.148453 0.139594
O O9 0.495394 0.250000 0.131413
O O10 0.486152 0.083509 0.088305
O O11 0.750000 0.879748 0.583418
O O12 0.924380 0.750000 0.624431
O O13 0.032693 0.850850 0.550952
O O14 0.982870 0.918060 0.644588
O O15 0.750000 0.490782 0.947394
O O16 0.000000 0.500000 0.000000
O O17 0.750000 0.002303 0.691145
O O18 0.967402 0.093948 0.644777
O O19 0.500000 0.500000 0.500000
O O20 0.250000 0.596897 0.488148
O O21 0.509073 0.651885 0.450540
O O22 0.250000 0.104692 0.605361
O O23 0.086535 0.250000 0.628258
#
# Coordination Sequence:
#
# PCOD8243532 Si02
#       8
#     8   8   8   8   8   8   8   8
#     4  10  21  37  58  84 114 146 185 238 291 340
#     4   9  19  37  59  81 109 150 195 236 285 341
#     4   9  19  37  59  81 109 150 197 239 283 337
#     4  10  22  40  60  83 112 147 186 229 280 337
#     4  10  20  34  54  84 120 155 192 236 285 335
#     4  11  23  39  60  85 115 152 189 232 282 337
#     4  12  23  37  60  86 114 148 185 228 280 337
#     4  11  24  41  61  85 115 150 186 230 284 338
#
# _framework density 19.352336000000001
#
# number of rings (size 3 to 8) (size 9 to 14) (size 15 to 20)
#    0.000    1.750    1.250    3.000    0.000    6.250 
#    0.000    3.750    0.000    0.000    0.000    0.000 
#    0.000    0.000    0.000    0.000    0.000    0.000 
#
# Total GULP energy -793706.869236 kJ/mol
# GULP energy per Si atom -12401.669832 kJ/mol
# Density = 1.930829 g / cm^3
# Si number density = 19.352336 Si / 1000 Ang^3
#
#
#
# Elastic Constant Matrix: (Units=GPa)
#
#
# Indices 1 2 3 4 5 6 
#
# 1 39.1063 25.2926 13.5115 0.0000 0.0000 0.0000
# 2 25.2926 143.9450 51.8920 0.0000 0.0000 0.0000
# 3 13.5115 51.8920 122.6548 0.0000 0.0000 0.0000
# 4 0.0000 0.0000 0.0000 87.0000 0.0000 0.0000
# 5 0.0000 0.0000 0.0000 0.0000 36.3779 0.0000
# 6 0.0000 0.0000 0.0000 0.0000 0.0000 25.7676
#
#
#
# Elastic Compliance Matrix: (Units=1/GPa)
#
#
# Indices 1 2 3 4 5 6 
#
# 1 0.029005 -0.004655 -0.001226 0.000000 0.000000 0.000000
# 2 -0.004655 0.008944 -0.003271 0.000000 0.000000 0.000000
# 3 -0.001226 -0.003271 0.009672 0.000000 0.000000 0.000000
# 4 0.000000 0.000000 0.000000 0.011494 0.000000 0.000000
# 5 0.000000 0.000000 0.000000 0.000000 0.027489 0.000000
# 6 0.000000 0.000000 0.000000 0.000000 0.000000 0.038808
#
#
# Mechanical properties :
#
#
# Convention : Reuss Voigt Hill
#
# Bulk Modulus (GPa) = 34.10888 54.12204 44.11546
# Shear Modulus (GPa) = 32.57542 44.16310 38.36926
#
# Velocity S-wave (km/s) = 4.10723 4.78227 4.45755
# Velocity P-wave (km/s) = 6.33687 7.64989 7.02413
#
# Compressibility (1/GPa) = 0.02931788
#
# Stress axis : x y z
#
# Youngs Moduli (GPa) = 34.47640 111.80343 103.39091
#
# Poissons Ratio (x) = 0.52040 0.12675
# Poissons Ratio (y) = 0.16047 0.33823
# Poissons Ratio (z) = 0.04227 0.36575
#
# Static dielectric constant tensor:
#      x y z
#    x 3.658640 0.000000 0.000000 
#    y 0.000000 3.697720 0.000000 
#    z 0.000000 0.000000 3.543140 
# 
# 
# High freq. dielectric constant tensor:
#      x y z
#    x 1.756430 0.000000 0.000000 
#    y 0.000000 1.762180 0.000000 
#    z 0.000000 0.000000 1.747360 
# 
# From -- ./inp_files/31427.got.cif
#   From: 2010.03.12/outbox.cif.g09.slc.cpg/sg59_16_cif.got.tgz:31427.got - 2010.04.16 16:29:54.
