data_PCOD8243500
_publ_section_title
;
Structure prediction by ZEFSAII (Michael W. Deem and Ramdas Pophale) SiO2 
 PCOD8243500
Probable space group: P M M N
;
_chemical_formula_sum "Si O2"
_cell_formula_units_Z 56
_cell_length_a 14.939741
_cell_length_b 18.856675
_cell_length_c 10.244203
_cell_angle_alpha 90.000000
_cell_angle_beta 90.000000
_cell_angle_gamma 90.000000
_cell_volume 2885.933771
_symmetry_space_group_name_H-M "P M M N"
_symmetry_group_IT_number 59
_space_group.IT_coordinate_system_code '2'
_symmetry_cell_setting 'orthorhombic'
loop_
_space_group_symop_operation_xyz
x,y,z
1/2-x,1/2-y,z
1/2+x,-y,-z
-x,1/2+y,-z
-x,-y,-z
1/2+x,1/2+y,-z
1/2-x,y,z
x,1/2-y,z
loop_
_atom_site_type_symbol
_atom_site_label
_atom_site_fract_x
_atom_site_fract_y
_atom_site_fract_z
Si Si1 0.650228 0.038432 0.344385
Si Si2 0.989368 0.898223 0.075309
Si Si3 0.548752 0.166583 0.413933
Si Si4 0.567946 0.608652 0.356461
Si Si5 0.432799 0.169417 0.175317
Si Si6 0.750000 0.665111 0.722114
Si Si7 0.147121 0.976081 0.953979
Si Si8 0.750000 0.833298 0.425049
O O1 0.750000 0.012998 0.384532
O O2 0.631216 0.111382 0.424860
O O3 0.578406 0.976388 0.380027
O O4 0.647574 0.056180 0.190791
O O5 0.986354 0.873089 0.224478
O O6 0.090143 0.926219 0.051196
O O7 0.969378 0.836341 0.971529
O O8 0.907264 0.951045 0.048330
O O9 0.577731 0.250000 0.414842
O O10 0.480139 0.151347 0.529513
O O11 0.503980 0.139985 0.279066
O O12 0.666374 0.640181 0.341520
O O13 0.419673 0.250000 0.213473
O O14 0.336236 0.133024 0.201818
O O15 0.750000 0.750000 0.724499
O O16 0.750000 0.636608 0.573116
O O17 0.250000 0.984965 0.004412
O O18 0.750000 0.750000 0.430756
#
# Coordination Sequence:
#
# PCOD8243500 Si02
#       8
#     8   8   8   8   8   4   8   4
#     4  10  20  38  62  87 115 152 203 252 287 344
#     4  10  21  36  58  86 116 153 189 240 299 353
#     4  11  22  38  60  85 117 156 197 246 298 351
#     4  11  22  37  59  88 123 156 192 243 304 364
#     4  10  20  34  54  82 113 149 195 241 286 347
#     4   9  18  33  53  79 117 152 189 238 284 348
#     4   9  19  37  60  83 115 152 194 245 298 350
#     4  11  20  35  57  85 120 162 195 228 305 376
#
# _framework density 19.404465999999999
#
# number of rings (size 3 to 8) (size 9 to 14) (size 15 to 20)
#    0.000    1.857    3.571    0.857    2.000    1.429 
#    0.000    1.429    0.000    0.429    0.000    0.000 
#    0.000    0.000    0.000    0.000    0.000    0.000 
#
# Total GULP energy -693971.542194 kJ/mol
# GULP energy per Si atom -12392.348968 kJ/mol
# Density = 1.936030 g / cm^3
# Si number density = 19.404466 Si / 1000 Ang^3
#
#
#
# Elastic Constant Matrix: (Units=GPa)
#
#
# Indices 1 2 3 4 5 6 
#
# 1 90.3555 14.1529 16.1418 0.0000 0.0000 0.0000
# 2 14.1529 53.4712 31.1162 0.0000 0.0000 0.0000
# 3 16.1418 31.1162 58.1137 0.0000 0.0000 0.0000
# 4 0.0000 0.0000 0.0000 25.1238 0.0000 0.0000
# 5 0.0000 0.0000 0.0000 0.0000 38.4108 0.0000
# 6 0.0000 0.0000 0.0000 0.0000 0.0000 25.5926
#
#
#
# Elastic Compliance Matrix: (Units=1/GPa)
#
#
# Indices 1 2 3 4 5 6 
#
# 1 0.011758 -0.001760 -0.002324 0.000000 0.000000 0.000000
# 2 -0.001760 0.027430 -0.014198 0.000000 0.000000 0.000000
# 3 -0.002324 -0.014198 0.025455 0.000000 0.000000 0.000000
# 4 0.000000 0.000000 0.000000 0.039803 0.000000 0.000000
# 5 0.000000 0.000000 0.000000 0.000000 0.026034 0.000000
# 6 0.000000 0.000000 0.000000 0.000000 0.000000 0.039074
#
#
# Mechanical properties :
#
#
# Convention : Reuss Voigt Hill
#
# Bulk Modulus (GPa) = 35.61278 36.08469 35.84874
# Shear Modulus (GPa) = 23.20432 27.19407 25.19919
#
# Velocity S-wave (km/s) = 3.46182 3.74763 3.60756
# Velocity P-wave (km/s) = 5.86273 6.11251 5.98892
#
# Compressibility (1/GPa) = 0.02807981
#
# Stress axis : x y z
#
# Youngs Moduli (GPa) = 85.04708 36.45690 39.28483
#
# Poissons Ratio (x) = 0.06417 0.09128
# Poissons Ratio (y) = 0.14969 0.55776
# Poissons Ratio (z) = 0.19762 0.51761
#
# Static dielectric constant tensor:
#      x y z
#    x 14.171460 0.000000 0.000000 
#    y 0.000000 3.300200 0.000000 
#    z 0.000000 0.000000 3.514780 
# 
# 
# High freq. dielectric constant tensor:
#      x y z
#    x 1.752960 0.000000 0.000000 
#    y 0.000000 1.736310 0.000000 
#    z 0.000000 0.000000 1.745890 
# 
# From -- ./inp_files/9401.got.cif
#   From: 2010.03.12/outbox.cif.g09.slc.cpg/sg59_5_cif.got.tgz:9401.got - 2010.04.16 16:29:54.
