data_PCOD8243916
_publ_section_title
;
Structure prediction by ZEFSAII (Michael W. Deem and Ramdas Pophale) SiO2 
 PCOD8243916
Probable space group: P M M N
;
_chemical_formula_sum "Si O2"
_cell_formula_units_Z 64
_cell_length_a 14.950742
_cell_length_b 9.217492
_cell_length_c 23.813437
_cell_angle_alpha 90.000000
_cell_angle_beta 90.000000
_cell_angle_gamma 90.000000
_cell_volume 3281.690336
_symmetry_space_group_name_H-M "P M M N"
_symmetry_group_IT_number 59
_space_group.IT_coordinate_system_code '2'
_symmetry_cell_setting 'orthorhombic'
loop_
_space_group_symop_operation_xyz
x,y,z
1/2-x,1/2-y,z
1/2+x,-y,-z
-x,1/2+y,-z
-x,-y,-z
1/2+x,1/2+y,-z
1/2-x,y,z
x,1/2-y,z
loop_
_atom_site_type_symbol
_atom_site_label
_atom_site_fract_x
_atom_site_fract_y
_atom_site_fract_z
Si Si1 0.352897 0.086556 0.007870
Si Si2 0.144453 0.418064 0.492610
Si Si3 0.347565 0.913283 0.779696
Si Si4 0.503945 0.923048 0.699941
Si Si5 0.493730 0.919384 0.416960
Si Si6 0.909492 0.089855 0.888207
Si Si7 0.851247 0.083228 0.769429
Si Si8 0.386271 0.088350 0.885312
O O1 0.250000 0.080122 0.024437
O O2 0.390319 0.250000 0.006631
O O3 0.370104 0.015907 0.946650
O O4 0.405621 0.005140 0.056248
O O5 0.250000 0.462588 0.500645
O O6 0.138947 0.250000 0.474080
O O7 0.095798 0.516187 0.445871
O O8 0.086322 0.442735 0.548992
O O9 0.250000 0.919032 0.750236
O O10 0.375956 0.750000 0.794868
O O11 0.420344 0.978064 0.737212
O O12 0.337439 0.997752 0.837876
O O13 0.507002 0.750000 0.693043
O O14 0.491360 0.996389 0.640282
O O15 0.594093 0.978148 0.728972
O O16 0.475531 0.750000 0.406261
O O17 0.873156 0.250000 0.903344
O O18 0.856257 0.028073 0.834273
O O19 0.010984 0.094092 0.868558
O O20 0.750000 0.072713 0.748437
O O21 0.886157 0.250000 0.766006
O O22 0.344422 0.250000 0.886475
#
# Coordination Sequence:
#
# PCOD8243916 Si02
#       8
#     8   8   8   8   8   8   8   8
#     4  10  21  34  49  75 108 139 176 224 280 345
#     4   9  19  38  63  91 124 160 197 237 281 330
#     4  10  22  39  58  82 112 147 188 235 287 342
#     4  11  23  39  59  84 117 155 195 238 283 336
#     4  10  21  37  60  90 123 158 197 239 283 331
#     4  10  20  35  56  79 104 138 182 230 285 345
#     4  10  21  38  59  82 110 145 189 241 292 342
#     4  10  20  36  57  79 105 139 181 230 284 343
#
# _framework density 19.502144000000001
#
# number of rings (size 3 to 8) (size 9 to 14) (size 15 to 20)
#    0.000    2.000    1.250    1.875    0.000    5.500 
#    0.000    0.000    0.000    0.000    0.000    0.000 
#    0.000    0.000    0.000    0.000    0.000    0.000 
#
# Total GULP energy -793445.983400 kJ/mol
# GULP energy per Si atom -12397.593491 kJ/mol
# Density = 1.945776 g / cm^3
# Si number density = 19.502144 Si / 1000 Ang^3
#
#
#
# Elastic Constant Matrix: (Units=GPa)
#
#
# Indices 1 2 3 4 5 6 
#
# 1 113.3273 37.5640 41.4976 0.0000 0.0000 0.0000
# 2 37.5640 82.7780 60.0531 0.0000 0.0000 0.0000
# 3 41.4976 60.0531 128.2542 0.0000 0.0000 0.0000
# 4 0.0000 0.0000 0.0000 29.7796 0.0000 0.0000
# 5 0.0000 0.0000 0.0000 0.0000 8.2540 0.0000
# 6 0.0000 0.0000 0.0000 0.0000 0.0000 23.3727
#
#
#
# Elastic Compliance Matrix: (Units=1/GPa)
#
#
# Indices 1 2 3 4 5 6 
#
# 1 0.010651 -0.003534 -0.001792 0.000000 0.000000 0.000000
# 2 -0.003534 0.019468 -0.007972 0.000000 0.000000 0.000000
# 3 -0.001792 -0.007972 0.012110 0.000000 0.000000 0.000000
# 4 0.000000 0.000000 0.000000 0.033580 0.000000 0.000000
# 5 0.000000 0.000000 0.000000 0.000000 0.121153 0.000000
# 6 0.000000 0.000000 0.000000 0.000000 0.000000 0.042785
#
#
# Mechanical properties :
#
#
# Convention : Reuss Voigt Hill
#
# Bulk Modulus (GPa) = 63.96497 66.95435 65.45966
# Shear Modulus (GPa) = 18.41262 24.63091 21.52177
#
# Velocity S-wave (km/s) = 3.07601 3.55771 3.32559
# Velocity P-wave (km/s) = 6.74432 7.16119 6.95588
#
# Compressibility (1/GPa) = 0.01563356
#
# Stress axis : x y z
#
# Youngs Moduli (GPa) = 93.88458 51.36756 82.57941
#
# Poissons Ratio (x) = 0.18151 0.14796
# Poissons Ratio (y) = 0.33175 0.65833
# Poissons Ratio (z) = 0.16822 0.40951
#
# Static dielectric constant tensor:
#      x y z
#    x 3.619070 0.000000 0.000000 
#    y 0.000000 3.569100 0.000000 
#    z 0.000000 0.000000 3.446670 
# 
# 
# High freq. dielectric constant tensor:
#      x y z
#    x 1.769500 0.000000 0.000000 
#    y 0.000000 1.751150 0.000000 
#    z 0.000000 0.000000 1.754910 
# 
# From -- ./inp_files/32264.got.cif
#   From: 2010.03.12/outbox.cif.g09.slc.cpg/sg59_17_cif.got.tgz:32264.got - 2010.04.16 16:29:54.
