data_PCOD8243179
_publ_section_title
;
Structure prediction by ZEFSAII (Michael W. Deem and Ramdas Pophale) SiO2 
 PCOD8243179
Probable space group: P M M N
;
_chemical_formula_sum "Si O2"
_cell_formula_units_Z 56
_cell_length_a 20.196888
_cell_length_b 9.428142
_cell_length_c 15.870652
_cell_angle_alpha 90.000000
_cell_angle_beta 90.000000
_cell_angle_gamma 90.000000
_cell_volume 3022.075715
_symmetry_space_group_name_H-M "P M M N"
_symmetry_group_IT_number 59
_space_group.IT_coordinate_system_code '2'
_symmetry_cell_setting 'orthorhombic'
loop_
_space_group_symop_operation_xyz
x,y,z
1/2-x,1/2-y,z
1/2+x,-y,-z
-x,1/2+y,-z
-x,-y,-z
1/2+x,1/2+y,-z
1/2-x,y,z
x,1/2-y,z
loop_
_atom_site_type_symbol
_atom_site_label
_atom_site_fract_x
_atom_site_fract_y
_atom_site_fract_z
Si Si1 0.893549 0.084387 0.727694
Si Si2 0.750000 0.584923 0.490211
Si Si3 0.142420 0.086496 0.643213
Si Si4 0.250000 0.586816 0.339682
Si Si5 0.002555 0.913921 0.414487
Si Si6 0.914608 0.413917 0.049850
Si Si7 0.824653 0.092158 0.197385
Si Si8 0.436679 0.414890 0.108539
O O1 0.905546 0.250000 0.748870
O O2 0.815856 0.051600 0.713906
O O3 0.935571 0.041677 0.644354
O O4 0.918861 0.988717 0.803851
O O5 0.750000 0.750000 0.511956
O O6 0.816329 0.541358 0.439519
O O7 0.750000 0.502880 0.576560
O O8 0.155861 0.250000 0.662519
O O9 0.065103 0.053067 0.634573
O O10 0.170616 0.001185 0.720527
O O11 0.250000 0.750000 0.367170
O O12 0.007486 0.750000 0.439590
O O13 0.000000 0.000000 0.500000
O O14 0.901482 0.250000 0.026467
O O15 0.865779 0.473661 0.120820
O O16 0.986509 0.435725 0.089344
O O17 0.898764 0.507097 0.967476
O O18 0.750000 0.098119 0.165823
O O19 0.851500 0.250000 0.218365
O O20 0.416270 0.250000 0.112553
#
# Coordination Sequence:
#
# PCOD8243179 Si02
#       8
#     8   4   8   4   8   8   8   8
#     4  10  21  38  56  78 107 141 181 226 274 322
#     4  10  20  34  52  75 106 143 178 215 266 323
#     4  10  20  34  52  77 110 145 176 214 270 326
#     4  10  22  38  56  75 100 139 184 225 270 319
#     4  10  21  35  54  80 108 140 181 226 273 321
#     4   9  19  36  56  80 112 143 174 217 265 316
#     4  10  20  34  53  80 109 141 180 216 258 314
#     4  10  20  35  58  84 106 138 181 221 267 319
#
# _framework density 18.53031
#
# number of rings (size 3 to 8) (size 9 to 14) (size 15 to 20)
#    0.000    2.143    0.714    2.143    0.000    3.429 
#    1.286    0.000    0.000    0.000    0.000    0.000 
#    0.000    0.000    0.000    0.000    0.000    0.000 
#
# Total GULP energy -694454.647089 kJ/mol
# GULP energy per Si atom -12400.975841 kJ/mol
# Density = 1.848813 g / cm^3
# Si number density = 18.530310 Si / 1000 Ang^3
#
#
#
# Elastic Constant Matrix: (Units=GPa)
#
#
# Indices 1 2 3 4 5 6 
#
# 1 70.6358 30.4677 29.7970 0.0000 0.0000 0.0000
# 2 30.4677 80.7778 71.9144 0.0000 0.0000 0.0000
# 3 29.7970 71.9144 130.0737 0.0000 0.0000 0.0000
# 4 0.0000 0.0000 0.0000 40.0554 0.0000 0.0000
# 5 0.0000 0.0000 0.0000 0.0000 21.2679 0.0000
# 6 0.0000 0.0000 0.0000 0.0000 0.0000 19.1357
#
#
#
# Elastic Compliance Matrix: (Units=1/GPa)
#
#
# Indices 1 2 3 4 5 6 
#
# 1 0.016939 -0.005779 -0.000685 0.000000 0.000000 0.000000
# 2 -0.005779 0.026351 -0.013245 0.000000 0.000000 0.000000
# 3 -0.000685 -0.013245 0.015168 0.000000 0.000000 0.000000
# 4 0.000000 0.000000 0.000000 0.024965 0.000000 0.000000
# 5 0.000000 0.000000 0.000000 0.000000 0.047019 0.000000
# 6 0.000000 0.000000 0.000000 0.000000 0.000000 0.052258
#
#
# Mechanical properties :
#
#
# Convention : Reuss Voigt Hill
#
# Bulk Modulus (GPa) = 52.52305 60.64951 56.58628
# Shear Modulus (GPa) = 21.88517 26.04568 23.96542
#
# Velocity S-wave (km/s) = 3.44036 3.75316 3.60016
# Velocity P-wave (km/s) = 6.64736 7.18210 6.91990
#
# Compressibility (1/GPa) = 0.01903926
#
# Stress axis : x y z
#
# Youngs Moduli (GPa) = 59.03582 37.94927 65.92939
#
# Poissons Ratio (x) = 0.21930 0.04518
# Poissons Ratio (y) = 0.34116 0.87323
# Poissons Ratio (z) = 0.04046 0.50264
#
# Static dielectric constant tensor:
#      x y z
#    x 8.887730 0.000000 0.000000 
#    y 0.000000 3.419520 0.000000 
#    z 0.000000 0.000000 3.310040 
# 
# 
# High freq. dielectric constant tensor:
#      x y z
#    x 1.725590 0.000000 0.000000 
#    y 0.000000 1.716910 0.000000 
#    z 0.000000 0.000000 1.718990 
# 
# From -- ./inp_files/24348.got.cif
#   From: 2010.03.12/outbox.cif.g09.slc.cpg/sg59_13_cif.got.tgz:24348.got - 2010.04.16 16:29:54.
