data_PCOD8243174
_publ_section_title
;
Structure prediction by ZEFSAII (Michael W. Deem and Ramdas Pophale) SiO2 
 PCOD8243174
Probable space group: P M M N
;
_chemical_formula_sum "Si O2"
_cell_formula_units_Z 64
_cell_length_a 9.143563
_cell_length_b 17.213675
_cell_length_c 20.328030
_cell_angle_alpha 90.000000
_cell_angle_beta 90.000000
_cell_angle_gamma 90.000000
_cell_volume 3199.516496
_symmetry_space_group_name_H-M "P M M N"
_symmetry_group_IT_number 59
_space_group.IT_coordinate_system_code '2'
_symmetry_cell_setting 'orthorhombic'
loop_
_space_group_symop_operation_xyz
x,y,z
1/2-x,1/2-y,z
1/2+x,-y,-z
-x,1/2+y,-z
-x,-y,-z
1/2+x,1/2+y,-z
1/2-x,y,z
x,1/2-y,z
loop_
_atom_site_type_symbol
_atom_site_label
_atom_site_fract_x
_atom_site_fract_y
_atom_site_fract_z
Si Si1 0.921075 0.661313 0.843799
Si Si2 0.087630 0.659517 0.086925
Si Si3 0.076698 0.420959 0.022369
Si Si4 0.418089 0.576150 0.580210
Si Si5 0.917880 0.601886 0.450932
Si Si6 0.414250 0.157018 0.788587
Si Si7 0.920763 0.339360 0.288041
Si Si8 0.910694 0.161081 0.665922
O O1 0.750000 0.658641 0.830511
O O2 0.969934 0.750000 0.860647
O O3 0.963816 0.603271 0.903160
O O4 0.999628 0.631203 0.777848
O O5 0.250000 0.621274 0.080104
O O6 0.106516 0.750000 0.097701
O O7 0.005879 0.623392 0.150054
O O8 0.988238 0.646373 0.023309
O O9 0.250000 0.426960 0.012512
O O10 0.000000 0.500000 0.000000
O O11 0.250000 0.600241 0.567343
O O12 0.437597 0.483991 0.578342
O O13 0.518107 0.612979 0.523661
O O14 0.473059 0.608648 0.650245
O O15 0.750000 0.627808 0.452338
O O16 0.008101 0.657681 0.403534
O O17 0.250000 0.123429 0.791662
O O18 0.409182 0.250000 0.789131
O O19 0.490536 0.122814 0.723049
O O20 0.750000 0.350070 0.275803
O O21 0.961301 0.250000 0.303211
O O22 0.750000 0.120826 0.662449
O O23 0.888339 0.250000 0.684947
#
# Coordination Sequence:
#
# PCOD8243174 Si02
#       8
#     8   8   8   8   8   8   8   8
#     4   9  19  37  60  84 111 144 183 228 279 335
#     4  10  20  35  57  83 109 141 184 229 274 330
#     4  11  23  39  57  80 114 151 186 231 282 334
#     4   9  19  36  54  76 109 144 180 223 272 329
#     4  10  20  34  53  76 106 145 186 228 273 328
#     4   9  17  31  52  77 105 136 173 218 265 315
#     4   9  18  34  58  85 110 139 179 227 277 331
#     4  10  20  34  52  75 105 141 181 227 276 323
#
# _framework density 20.003024
#
# number of rings (size 3 to 8) (size 9 to 14) (size 15 to 20)
#    0.000    2.375    0.000    2.250    0.000    6.000 
#    2.250    2.500    0.000    0.000    0.000    0.000 
#    0.000    0.000    0.000    0.000    0.000    0.000 
#
# Total GULP energy -793567.463110 kJ/mol
# GULP energy per Si atom -12399.491611 kJ/mol
# Density = 1.995750 g / cm^3
# Si number density = 20.003024 Si / 1000 Ang^3
#
#
#
# Elastic Constant Matrix: (Units=GPa)
#
#
# Indices 1 2 3 4 5 6 
#
# 1 138.0798 26.7809 86.1646 0.0000 0.0000 0.0000
# 2 26.7809 36.6968 40.6266 0.0000 0.0000 0.0000
# 3 86.1646 40.6266 178.1925 0.0000 0.0000 0.0000
# 4 0.0000 0.0000 0.0000 29.5836 0.0000 0.0000
# 5 0.0000 0.0000 0.0000 0.0000 43.9550 0.0000
# 6 0.0000 0.0000 0.0000 0.0000 0.0000 23.6609
#
#
#
# Elastic Compliance Matrix: (Units=1/GPa)
#
#
# Indices 1 2 3 4 5 6 
#
# 1 0.010575 -0.002751 -0.004487 0.000000 0.000000 0.000000
# 2 -0.002751 0.037166 -0.007144 0.000000 0.000000 0.000000
# 3 -0.004487 -0.007144 0.009410 0.000000 0.000000 0.000000
# 4 0.000000 0.000000 0.000000 0.033803 0.000000 0.000000
# 5 0.000000 0.000000 0.000000 0.000000 0.022751 0.000000
# 6 0.000000 0.000000 0.000000 0.000000 0.000000 0.042264
#
#
# Mechanical properties :
#
#
# Convention : Reuss Voigt Hill
#
# Bulk Modulus (GPa) = 35.22360 73.34592 54.28476
# Shear Modulus (GPa) = 25.74747 32.73302 29.24025
#
# Velocity S-wave (km/s) = 3.59162 4.04964 3.82749
# Velocity P-wave (km/s) = 5.90314 7.65592 6.83594
#
# Compressibility (1/GPa) = 0.02839005
#
# Stress axis : x y z
#
# Youngs Moduli (GPa) = 94.55898 26.90607 106.26945
#
# Poissons Ratio (x) = 0.07401 0.47678
# Poissons Ratio (y) = 0.26011 0.75914
# Poissons Ratio (z) = 0.42424 0.19220
#
# Static dielectric constant tensor:
#      x y z
#    x 3.858620 0.000000 0.000000 
#    y 0.000000 3.306070 0.000000 
#    z 0.000000 0.000000 3.735410 
# 
# 
# High freq. dielectric constant tensor:
#      x y z
#    x 1.790910 0.000000 0.000000 
#    y 0.000000 1.745830 0.000000 
#    z 0.000000 0.000000 1.790260 
# 
# From -- ./inp_files/26306.got.cif
#   From: 2010.03.12/outbox.cif.g09.slc.cpg/sg59_14_cif.got.tgz:26306.got - 2010.04.16 16:29:54.
