data_PCOD8243178
_publ_section_title
;
Structure prediction by ZEFSAII (Michael W. Deem and Ramdas Pophale) SiO2 
 PCOD8243178
Probable space group: P M M N
;
_chemical_formula_sum "Si O2"
_cell_formula_units_Z 64
_cell_length_a 8.905483
_cell_length_b 13.654075
_cell_length_c 26.396288
_cell_angle_alpha 90.000000
_cell_angle_beta 90.000000
_cell_angle_gamma 90.000000
_cell_volume 3209.686541
_symmetry_space_group_name_H-M "P M M N"
_symmetry_group_IT_number 59
_space_group.IT_coordinate_system_code '2'
_symmetry_cell_setting 'orthorhombic'
loop_
_space_group_symop_operation_xyz
x,y,z
1/2-x,1/2-y,z
1/2+x,-y,-z
-x,1/2+y,-z
-x,-y,-z
1/2+x,1/2+y,-z
1/2-x,y,z
x,1/2-y,z
loop_
_atom_site_type_symbol
_atom_site_label
_atom_site_fract_x
_atom_site_fract_y
_atom_site_fract_z
Si Si1 0.420837 0.632924 0.975544
Si Si2 0.579699 0.866265 0.874533
Si Si3 0.071394 0.640005 0.676096
Si Si4 0.572757 0.465907 0.423964
Si Si5 0.427142 0.861435 0.178085
Si Si6 0.919547 0.633505 0.075709
Si Si7 0.427068 0.860399 0.473934
Si Si8 0.571825 0.038751 0.221146
O O1 0.250000 0.595995 0.978149
O O2 0.427624 0.750000 0.976046
O O3 0.496165 0.590947 0.924290
O O4 0.511258 0.590107 0.023910
O O5 0.750000 0.906613 0.872882
O O6 0.579101 0.750000 0.877240
O O7 0.491933 0.897784 0.824683
O O8 0.250000 0.643496 0.674215
O O9 0.006068 0.750000 0.675205
O O10 0.008954 0.581525 0.627502
O O11 0.015327 0.586876 0.726806
O O12 0.750000 0.477780 0.421450
O O13 0.523225 0.396632 0.470425
O O14 0.501973 0.573312 0.430612
O O15 0.250000 0.871685 0.181594
O O16 0.479506 0.750000 0.187157
O O17 0.480751 0.901365 0.123313
O O18 0.506333 0.928481 0.220269
O O19 0.750000 0.594556 0.082373
O O20 0.922628 0.750000 0.072959
O O21 0.250000 0.867049 0.467786
O O22 0.485196 0.750000 0.466762
O O23 0.750000 0.035966 0.217572
#
# Coordination Sequence:
#
# PCOD8243178 Si02
#       8
#     8   8   8   8   8   8   8   8
#     4   9  16  27  46  73 104 137 172 209 254 312
#     4  10  20  34  52  75 106 142 176 212 259 316
#     4   9  18  34  57  83 109 139 178 223 268 315
#     4   9  17  31  53  80 109 145 190 233 270 315
#     4  10  21  38  58  77 100 133 172 214 263 320
#     4   9  16  28  49  76 103 131 166 209 259 316
#     4   9  17  30  50  78 114 153 188 225 273 324
#     4  11  22  36  56  80 104 132 172 222 271 318
#
# _framework density 19.939641999999999
#
# number of rings (size 3 to 8) (size 9 to 14) (size 15 to 20)
#    0.000    2.500    0.000    2.625    0.000    6.750 
#    0.000    2.500    0.000    6.375    0.000    0.000 
#    0.000    0.000    0.000    0.000    0.000    0.000 
#
# Total GULP energy -793761.288351 kJ/mol
# GULP energy per Si atom -12402.520130 kJ/mol
# Density = 1.989426 g / cm^3
# Si number density = 19.939642 Si / 1000 Ang^3
#
#
#
# Elastic Constant Matrix: (Units=GPa)
#
#
# Indices 1 2 3 4 5 6 
#
# 1 83.9364 29.9083 46.6223 0.0000 0.0000 0.0000
# 2 29.9083 104.1343 73.4832 0.0000 0.0000 0.0000
# 3 46.6223 73.4832 155.8515 0.0000 0.0000 0.0000
# 4 0.0000 0.0000 0.0000 32.6887 0.0000 0.0000
# 5 0.0000 0.0000 0.0000 0.0000 26.1293 0.0000
# 6 0.0000 0.0000 0.0000 0.0000 0.0000 27.2088
#
#
#
# Elastic Compliance Matrix: (Units=1/GPa)
#
#
# Indices 1 2 3 4 5 6 
#
# 1 0.014475 -0.001651 -0.003552 0.000000 0.000000 0.000000
# 2 -0.001651 0.014579 -0.006380 0.000000 0.000000 0.000000
# 3 -0.003552 -0.006380 0.010487 0.000000 0.000000 0.000000
# 4 0.000000 0.000000 0.000000 0.030592 0.000000 0.000000
# 5 0.000000 0.000000 0.000000 0.000000 0.038271 0.000000
# 6 0.000000 0.000000 0.000000 0.000000 0.000000 0.036753
#
#
# Mechanical properties :
#
#
# Convention : Reuss Voigt Hill
#
# Bulk Modulus (GPa) = 61.06681 71.54999 66.30840
# Shear Modulus (GPa) = 28.77179 30.13257 29.45218
#
# Velocity S-wave (km/s) = 3.80273 3.89162 3.84743
# Velocity P-wave (km/s) = 7.06918 7.49361 7.28449
#
# Compressibility (1/GPa) = 0.01637551
#
# Stress axis : x y z
#
# Youngs Moduli (GPa) = 69.08538 68.58973 95.35562
#
# Poissons Ratio (x) = 0.11325 0.33867
# Poissons Ratio (y) = 0.11407 0.60839
# Poissons Ratio (z) = 0.24536 0.43762
#
# Static dielectric constant tensor:
#      x y z
#    x 3.529760 0.000000 0.000000 
#    y 0.000000 3.747000 0.000000 
#    z 0.000000 0.000000 3.644840 
# 
# 
# High freq. dielectric constant tensor:
#      x y z
#    x 1.767800 0.000000 0.000000 
#    y 0.000000 1.790400 0.000000 
#    z 0.000000 0.000000 1.763550 
# 
# From -- ./inp_files/31687.got.cif
#   From: 2010.03.12/outbox.cif.g09.slc.cpg/sg59_16_cif.got.tgz:31687.got - 2010.04.16 16:29:54.
