data_PCOD8243186
_publ_section_title
;
Structure prediction by ZEFSAII (Michael W. Deem and Ramdas Pophale) SiO2 
 PCOD8243186
Probable space group: P M M N
;
_chemical_formula_sum "Si O2"
_cell_formula_units_Z 48
_cell_length_a 29.121846
_cell_length_b 8.948239
_cell_length_c 10.207670
_cell_angle_alpha 90.000000
_cell_angle_beta 90.000000
_cell_angle_gamma 90.000000
_cell_volume 2660.008948
_symmetry_space_group_name_H-M "P M M N"
_symmetry_group_IT_number 59
_space_group.IT_coordinate_system_code '2'
_symmetry_cell_setting 'orthorhombic'
loop_
_space_group_symop_operation_xyz
x,y,z
1/2-x,1/2-y,z
1/2+x,-y,-z
-x,1/2+y,-z
-x,-y,-z
1/2+x,1/2+y,-z
1/2-x,y,z
x,1/2-y,z
loop_
_atom_site_type_symbol
_atom_site_label
_atom_site_fract_x
_atom_site_fract_y
_atom_site_fract_z
Si Si1 0.634102 0.424576 0.885190
Si Si2 0.199149 0.572298 0.888245
Si Si3 0.196495 0.922591 0.594490
Si Si4 0.865010 0.924158 0.618338
Si Si5 0.028059 0.925718 0.115372
Si Si6 0.970875 0.573771 0.613722
O O1 0.643112 0.250000 0.869868
O O2 0.651663 0.499279 0.752045
O O3 0.581187 0.460737 0.912502
O O4 0.663009 0.491866 0.006708
O O5 0.250000 0.512102 0.923804
O O6 0.199548 0.750000 0.890303
O O7 0.185475 0.521353 0.741845
O O8 0.250000 0.945918 0.562284
O O9 0.182722 0.750000 0.576266
O O10 0.166183 0.022238 0.499950
O O11 0.858499 0.750000 0.637469
O O12 0.917728 0.965383 0.587892
O O13 0.017982 0.750000 0.122533
O O14 0.012400 0.001575 0.250457
O O15 0.000000 0.000000 0.000000
O O16 0.979924 0.750000 0.618562
O O17 0.000000 0.500000 0.500000
#
# Coordination Sequence:
#
# PCOD8243186 Si02
#       6
#     8   8   8   8   8   8
#     4   9  18  33  53  76 101 132 169 207 250 302
#     4   8  15  30  52  76  99 124 162 210 250 288
#     4   9  18  33  53  76 102 135 174 212 251 299
#     4  10  21  35  51  75 106 136 167 208 258 307
#     4  10  20  34  52  76 106 138 173 213 257 308
#     4  10  21  37  55  76 103 136 174 216 264 317
#
# _framework density 18.045052999999999
#
# number of rings (size 3 to 8) (size 9 to 14) (size 15 to 20)
#    0.000    2.667    0.000    2.500    0.000    5.000 
#    0.000    4.167    0.000    1.000    0.000    0.000 
#    0.000    0.000    0.000    0.000    0.000    0.000 
#
# Total GULP energy -595229.217787 kJ/mol
# GULP energy per Si atom -12400.608704 kJ/mol
# Density = 1.800398 g / cm^3
# Si number density = 18.045053 Si / 1000 Ang^3
#
#
#
# Elastic Constant Matrix: (Units=GPa)
#
#
# Indices 1 2 3 4 5 6 
#
# 1 79.2347 37.4255 87.5409 0.0000 0.0000 0.0000
# 2 37.4255 55.6060 53.2736 0.0000 0.0000 0.0000
# 3 87.5409 53.2736 173.2480 0.0000 0.0000 0.0000
# 4 0.0000 0.0000 0.0000 26.8307 0.0000 0.0000
# 5 0.0000 0.0000 0.0000 0.0000 41.0646 0.0000
# 6 0.0000 0.0000 0.0000 0.0000 0.0000 25.5601
#
#
#
# Elastic Compliance Matrix: (Units=1/GPa)
#
#
# Indices 1 2 3 4 5 6 
#
# 1 0.031069 -0.008322 -0.013140 0.000000 0.000000 0.000000
# 2 -0.008322 0.027724 -0.004320 0.000000 0.000000 0.000000
# 3 -0.013140 -0.004320 0.013740 0.000000 0.000000 0.000000
# 4 0.000000 0.000000 0.000000 0.037271 0.000000 0.000000
# 5 0.000000 0.000000 0.000000 0.000000 0.024352 0.000000
# 6 0.000000 0.000000 0.000000 0.000000 0.000000 0.039123
#
#
# Mechanical properties :
#
#
# Convention : Reuss Voigt Hill
#
# Bulk Modulus (GPa) = 47.69028 73.84096 60.76562
# Shear Modulus (GPa) = 21.56738 27.34765 24.45752
#
# Velocity S-wave (km/s) = 3.46091 3.89719 3.68551
# Velocity P-wave (km/s) = 6.51586 7.82688 7.20126
#
# Compressibility (1/GPa) = 0.02096863
#
# Stress axis : x y z
#
# Youngs Moduli (GPa) = 32.18658 36.07045 72.78099
#
# Poissons Ratio (x) = 0.30019 0.95633
# Poissons Ratio (y) = 0.26786 0.31440
# Poissons Ratio (z) = 0.42293 0.15582
#
# Static dielectric constant tensor:
#      x y z
#    x 3.400210 0.000000 0.000000 
#    y 0.000000 3.245710 0.000000 
#    z 0.000000 0.000000 3.552120 
# 
# 
# High freq. dielectric constant tensor:
#      x y z
#    x 1.695990 0.000000 0.000000 
#    y 0.000000 1.686890 0.000000 
#    z 0.000000 0.000000 1.710360 
# 
# From -- ./inp_files/6227.got.cif
#   From: 2010.03.12/outbox.cif.g09.slc.cpg/sg59_4_cif.got.tgz:6227.got - 2010.04.16 16:29:54.
