data_PCOD8243986
_publ_section_title
;
Structure prediction by ZEFSAII (Michael W. Deem and Ramdas Pophale) SiO2 
 PCOD8243986
Probable space group: P M M N
;
_chemical_formula_sum "Si O2"
_cell_formula_units_Z 48
_cell_length_a 14.666398
_cell_length_b 9.228328
_cell_length_c 18.144443
_cell_angle_alpha 90.000000
_cell_angle_beta 90.000000
_cell_angle_gamma 90.000000
_cell_volume 2455.783794
_symmetry_space_group_name_H-M "P M M N"
_symmetry_group_IT_number 59
_space_group.IT_coordinate_system_code '2'
_symmetry_cell_setting 'orthorhombic'
loop_
_space_group_symop_operation_xyz
x,y,z
1/2-x,1/2-y,z
1/2+x,-y,-z
-x,1/2+y,-z
-x,-y,-z
1/2+x,1/2+y,-z
1/2-x,y,z
x,1/2-y,z
loop_
_atom_site_type_symbol
_atom_site_label
_atom_site_fract_x
_atom_site_fract_y
_atom_site_fract_z
Si Si1 0.904373 0.585181 0.812687
Si Si2 0.250000 0.420544 0.913977
Si Si3 0.750000 0.095561 0.747162
Si Si4 0.445514 0.583139 0.700309
Si Si5 0.410812 0.079978 0.021283
Si Si6 0.250000 0.579879 0.758427
Si Si7 0.452174 0.925829 0.431638
Si Si8 0.250000 0.595363 0.421976
O O1 0.871910 0.750000 0.806847
O O2 0.840620 0.491604 0.761859
O O3 0.889427 0.529990 0.895693
O O4 0.006819 0.566657 0.780848
O O5 0.250000 0.250000 0.898797
O O6 0.250000 0.499818 0.836381
O O7 0.164877 0.468971 0.963367
O O8 0.750000 0.250000 0.790095
O O9 0.750000 0.131143 0.662771
O O10 0.451677 0.750000 0.673060
O O11 0.339742 0.536281 0.711145
O O12 0.496502 0.480849 0.641831
O O13 0.427502 0.250000 0.019237
O O14 0.500000 0.000000 0.000000
O O15 0.250000 0.750000 0.775669
O O16 0.456438 0.750000 0.433127
O O17 0.346692 0.983805 0.438752
O O18 0.500000 0.000000 0.500000
O O19 0.250000 0.750000 0.465065
#
# Coordination Sequence:
#
# PCOD8243986 Si02
#       8
#     8   4   4   8   8   4   8   4
#     4  10  20  35  56  83 116 153 193 243 298 351
#     4  10  21  37  56  82 118 157 199 246 301 354
#     4  11  20  34  57  86 113 145 188 233 288 342
#     4  10  21  38  60  87 115 152 199 244 293 352
#     4  10  21  37  56  80 114 154 197 246 301 354
#     4  10  22  40  62  84 115 158 202 245 294 353
#     4  11  23  42  65  91 124 159 194 237 288 346
#     4   9  20  39  61  86 120 154 183 228 283 331
#
# _framework density 19.545694000000001
#
# number of rings (size 3 to 8) (size 9 to 14) (size 15 to 20)
#    0.000    1.833    1.667    2.250    0.000    5.333 
#    0.000    5.833    0.000    0.000    0.000    0.000 
#    0.000    0.000    0.000    0.000    0.000    0.000 
#
# Total GULP energy -594819.966274 kJ/mol
# GULP energy per Si atom -12392.082631 kJ/mol
# Density = 1.950121 g / cm^3
# Si number density = 19.545694 Si / 1000 Ang^3
#
#
#
# Elastic Constant Matrix: (Units=GPa)
#
#
# Indices 1 2 3 4 5 6 
#
# 1 179.1233 49.7653 57.6443 0.0000 0.0000 0.0000
# 2 49.7653 57.2620 39.3431 0.0000 0.0000 0.0000
# 3 57.6443 39.3431 101.7369 0.0000 0.0000 0.0000
# 4 0.0000 0.0000 0.0000 33.2969 0.0000 0.0000
# 5 0.0000 0.0000 0.0000 0.0000 34.8028 0.0000
# 6 0.0000 0.0000 0.0000 0.0000 0.0000 24.7618
#
#
#
# Elastic Compliance Matrix: (Units=1/GPa)
#
#
# Indices 1 2 3 4 5 6 
#
# 1 0.007781 -0.005084 -0.002443 0.000000 0.000000 0.000000
# 2 -0.005084 0.027105 -0.007601 0.000000 0.000000 0.000000
# 3 -0.002443 -0.007601 0.014153 0.000000 0.000000 0.000000
# 4 0.000000 0.000000 0.000000 0.030033 0.000000 0.000000
# 5 0.000000 0.000000 0.000000 0.000000 0.028733 0.000000
# 6 0.000000 0.000000 0.000000 0.000000 0.000000 0.040385
#
#
# Mechanical properties :
#
#
# Convention : Reuss Voigt Hill
#
# Bulk Modulus (GPa) = 53.24049 70.18084 61.71067
# Shear Modulus (GPa) = 27.06991 31.33026 29.20009
#
# Velocity S-wave (km/s) = 3.72554 4.00800 3.86934
# Velocity P-wave (km/s) = 6.76789 7.57646 7.18356
#
# Compressibility (1/GPa) = 0.01878270
#
# Stress axis : x y z
#
# Youngs Moduli (GPa) = 128.51108 36.89402 70.65751
#
# Poissons Ratio (x) = 0.18758 0.17260
# Poissons Ratio (y) = 0.65339 0.53707
# Poissons Ratio (z) = 0.31393 0.28043
#
# Static dielectric constant tensor:
#      x y z
#    x 3.737710 0.000000 0.000000 
#    y 0.000000 3.535920 0.000000 
#    z 0.000000 0.000000 3.200840 
# 
# 
# High freq. dielectric constant tensor:
#      x y z
#    x 1.778070 0.000000 0.000000 
#    y 0.000000 1.750320 0.000000 
#    z 0.000000 0.000000 1.760500 
# 
# From -- ./inp_files/27499.got.cif
#   From: 2010.03.12/outbox.cif.g09.slc.cpg/sg59_14_cif.got.tgz:27499.got - 2010.04.16 16:29:54.
