data_PCOD8243237
_publ_section_title
;
Structure prediction by ZEFSAII (Michael W. Deem and Ramdas Pophale) SiO2 
 PCOD8243237
Probable space group: P M M N
;
_chemical_formula_sum "Si O2"
_cell_formula_units_Z 48
_cell_length_a 14.159946
_cell_length_b 8.906098
_cell_length_c 21.328048
_cell_angle_alpha 90.000000
_cell_angle_beta 90.000000
_cell_angle_gamma 90.000000
_cell_volume 2689.677291
_symmetry_space_group_name_H-M "P M M N"
_symmetry_group_IT_number 59
_space_group.IT_coordinate_system_code '2'
_symmetry_cell_setting 'orthorhombic'
loop_
_space_group_symop_operation_xyz
x,y,z
1/2-x,1/2-y,z
1/2+x,-y,-z
-x,1/2+y,-z
-x,-y,-z
1/2+x,1/2+y,-z
1/2-x,y,z
x,1/2-y,z
loop_
_atom_site_type_symbol
_atom_site_label
_atom_site_fract_x
_atom_site_fract_y
_atom_site_fract_z
Si Si1 0.860638 0.575113 0.663588
Si Si2 0.011563 0.927890 0.238053
Si Si3 0.143519 0.926961 0.994344
Si Si4 0.994746 0.071927 0.567593
Si Si5 0.506376 0.926842 0.096093
Si Si6 0.854337 0.573109 0.332628
O O1 0.750000 0.545091 0.663517
O O2 0.885410 0.750000 0.658446
O O3 0.903622 0.489892 0.603823
O O4 0.901610 0.509784 0.728307
O O5 0.028070 0.750000 0.243439
O O6 0.008530 0.984121 0.166651
O O7 0.913324 0.975966 0.271218
O O8 0.250000 0.985312 0.003446
O O9 0.140155 0.750000 0.985738
O O10 0.084261 0.977412 0.055399
O O11 0.100693 0.999670 0.931781
O O12 0.985915 0.250000 0.562289
O O13 0.089126 0.023176 0.605204
O O14 0.000000 0.000000 0.500000
O O15 0.520914 0.750000 0.094681
O O16 0.750000 0.497549 0.331692
O O17 0.842718 0.750000 0.332703
#
# Coordination Sequence:
#
# PCOD8243237 Si02
#       6
#     8   8   8   8   8   8
#     4  10  21  36  53  74 102 136 172 210 252 298
#     4   9  18  32  52  76  99 127 164 207 254 301
#     4   9  18  32  48  68  98 134 168 204 249 299
#     4  10  20  34  53  76 102 134 170 209 254 300
#     4   9  18  32  50  73  99 128 165 208 252 299
#     4   8  15  29  48  70  96 124 155 194 242 295
#
# _framework density 17.846007
#
# number of rings (size 3 to 8) (size 9 to 14) (size 15 to 20)
#    0.000    2.833    0.000    2.000    0.000    4.333 
#    0.000    5.000    0.000   12.000    0.000    0.000 
#    0.000    0.000    0.000    0.000    0.000    0.000 
#
# Total GULP energy -595163.509624 kJ/mol
# GULP energy per Si atom -12399.239784 kJ/mol
# Density = 1.780539 g / cm^3
# Si number density = 17.846007 Si / 1000 Ang^3
#
#
#
# Elastic Constant Matrix: (Units=GPa)
#
#
# Indices 1 2 3 4 5 6 
#
# 1 147.4304 45.1555 77.5672 0.0000 0.0000 0.0000
# 2 45.1555 49.2328 45.7453 0.0000 0.0000 0.0000
# 3 77.5672 45.7453 176.0856 0.0000 0.0000 0.0000
# 4 0.0000 0.0000 0.0000 29.3072 0.0000 0.0000
# 5 0.0000 0.0000 0.0000 0.0000 14.0563 0.0000
# 6 0.0000 0.0000 0.0000 0.0000 0.0000 25.6775
#
#
#
# Elastic Compliance Matrix: (Units=1/GPa)
#
#
# Indices 1 2 3 4 5 6 
#
# 1 0.010360 -0.006936 -0.002762 0.000000 0.000000 0.000000
# 2 -0.006936 0.031418 -0.005107 0.000000 0.000000 0.000000
# 3 -0.002762 -0.005107 0.008222 0.000000 0.000000 0.000000
# 4 0.000000 0.000000 0.000000 0.034121 0.000000 0.000000
# 5 0.000000 0.000000 0.000000 0.000000 0.071143 0.000000
# 6 0.000000 0.000000 0.000000 0.000000 0.000000 0.038945
#
#
# Mechanical properties :
#
#
# Convention : Reuss Voigt Hill
#
# Bulk Modulus (GPa) = 49.03990 78.85386 63.94688
# Shear Modulus (GPa) = 21.68103 27.42692 24.55398
#
# Velocity S-wave (km/s) = 3.48932 3.92454 3.71331
# Velocity P-wave (km/s) = 6.61611 8.05094 7.36853
#
# Compressibility (1/GPa) = 0.02039156
#
# Stress axis : x y z
#
# Youngs Moduli (GPa) = 96.52148 31.82858 121.61920
#
# Poissons Ratio (x) = 0.22077 0.33590
# Poissons Ratio (y) = 0.66948 0.62108
# Poissons Ratio (z) = 0.26658 0.16254
#
# Static dielectric constant tensor:
#      x y z
#    x 3.554430 0.000000 0.000000 
#    y 0.000000 3.151520 0.000000 
#    z 0.000000 0.000000 3.419070 
# 
# 
# High freq. dielectric constant tensor:
#      x y z
#    x 1.693970 0.000000 0.000000 
#    y 0.000000 1.675110 0.000000 
#    z 0.000000 0.000000 1.694680 
# 
# From -- ./inp_files/28846.got.cif
#   From: 2010.03.12/outbox.cif.g09.slc.cpg/sg59_15_cif.got.tgz:28846.got - 2010.04.16 16:29:54.
