data_PCOD8243032
_publ_section_title
;
Structure prediction by ZEFSAII (Michael W. Deem and Ramdas Pophale) SiO2 
 PCOD8243032
Probable space group: P M M N
;
_chemical_formula_sum "Si O2"
_cell_formula_units_Z 64
_cell_length_a 20.208362
_cell_length_b 8.955636
_cell_length_c 18.628699
_cell_angle_alpha 90.000000
_cell_angle_beta 90.000000
_cell_angle_gamma 90.000000
_cell_volume 3371.398365
_symmetry_space_group_name_H-M "P M M N"
_symmetry_group_IT_number 59
_space_group.IT_coordinate_system_code '2'
_symmetry_cell_setting 'orthorhombic'
loop_
_space_group_symop_operation_xyz
x,y,z
1/2-x,1/2-y,z
1/2+x,-y,-z
-x,1/2+y,-z
-x,-y,-z
1/2+x,1/2+y,-z
1/2-x,y,z
x,1/2-y,z
loop_
_atom_site_type_symbol
_atom_site_label
_atom_site_fract_x
_atom_site_fract_y
_atom_site_fract_z
Si Si1 0.433918 0.926678 0.708722
Si Si2 0.561596 0.923955 0.795178
Si Si3 0.826767 0.424822 0.049261
Si Si4 0.057735 0.926257 0.544332
Si Si5 0.673492 0.576021 0.198539
Si Si6 0.561646 0.925883 0.961287
Si Si7 0.325766 0.575447 0.290908
Si Si8 0.322586 0.927490 0.450990
O O1 0.422790 0.750000 0.716197
O O2 0.497025 0.984044 0.753604
O O3 0.445253 0.975759 0.626768
O O4 0.368730 0.010106 0.736301
O O5 0.568470 0.750000 0.781744
O O6 0.553945 0.964521 0.878043
O O7 0.628138 0.996820 0.766477
O O8 0.750000 0.456334 0.031957
O O9 0.843047 0.250000 0.050270
O O10 0.847004 0.490951 0.126113
O O11 0.869575 0.504721 0.988307
O O12 0.051292 0.750000 0.536326
O O13 0.126193 0.986010 0.510180
O O14 0.000000 0.000000 0.500000
O O15 0.750000 0.547206 0.217256
O O16 0.658380 0.750000 0.187760
O O17 0.561744 0.750000 0.975958
O O18 0.500000 0.000000 0.000000
O O19 0.250000 0.536652 0.271953
O O20 0.338746 0.750000 0.285299
O O21 0.342866 0.517215 0.371226
O O22 0.250000 0.990526 0.471309
O O23 0.319879 0.750000 0.449558
#
# Coordination Sequence:
#
# PCOD8243032 Si02
#       8
#     8   8   8   8   8   8   8   8
#     4  10  21  36  54  79 110 144 185 228 270 323
#     4  10  22  37  52  75 108 141 174 217 266 316
#     4  10  21  38  60  84 111 143 178 221 274 330
#     4  10  20  33  53  79 106 140 180 224 272 321
#     4  10  21  37  58  84 112 143 180 221 268 325
#     4  11  23  38  57  80 108 144 184 226 273 325
#     4   9  18  33  54  78 103 135 177 221 263 314
#     4   8  15  30  51  75 103 135 174 217 259 308
#
# _framework density 18.983221
#
# number of rings (size 3 to 8) (size 9 to 14) (size 15 to 20)
#    0.000    2.250    0.000    3.375    0.000    5.750 
#    0.000    3.750    0.000    1.125    0.000    0.000 
#    0.000    0.000    0.000    0.000    0.000    0.000 
#
# Total GULP energy -793744.665899 kJ/mol
# GULP energy per Si atom -12402.260405 kJ/mol
# Density = 1.894001 g / cm^3
# Si number density = 18.983221 Si / 1000 Ang^3
#
#
#
# Elastic Constant Matrix: (Units=GPa)
#
#
# Indices 1 2 3 4 5 6 
#
# 1 131.3788 50.3948 98.2240 0.0000 0.0000 0.0000
# 2 50.3948 56.1530 71.5994 0.0000 0.0000 0.0000
# 3 98.2240 71.5994 140.3494 0.0000 0.0000 0.0000
# 4 0.0000 0.0000 0.0000 24.0869 0.0000 0.0000
# 5 0.0000 0.0000 0.0000 0.0000 43.7556 0.0000
# 6 0.0000 0.0000 0.0000 0.0000 0.0000 35.0536
#
#
#
# Elastic Compliance Matrix: (Units=1/GPa)
#
#
# Indices 1 2 3 4 5 6 
#
# 1 0.015966 -0.000232 -0.011055 0.000000 0.000000 0.000000
# 2 -0.000232 0.050955 -0.025832 0.000000 0.000000 0.000000
# 3 -0.011055 -0.025832 0.028040 0.000000 0.000000 0.000000
# 4 0.000000 0.000000 0.000000 0.041516 0.000000 0.000000
# 5 0.000000 0.000000 0.000000 0.000000 0.022854 0.000000
# 6 0.000000 0.000000 0.000000 0.000000 0.000000 0.028528
#
#
# Mechanical properties :
#
#
# Convention : Reuss Voigt Hill
#
# Bulk Modulus (GPa) = 48.25833 85.36860 66.81346
# Shear Modulus (GPa) = 18.58689 27.75675 23.17182
#
# Velocity S-wave (km/s) = 3.13249 3.82798 3.49757
# Velocity P-wave (km/s) = 6.20967 8.03779 7.18214
#
# Compressibility (1/GPa) = 0.02072181
#
# Stress axis : x y z
#
# Youngs Moduli (GPa) = 62.63232 19.62522 35.66273
#
# Poissons Ratio (x) = 0.00456 0.39427
# Poissons Ratio (y) = 0.01456 0.92124
# Poissons Ratio (z) = 0.69243 0.50696
#
# Static dielectric constant tensor:
#      x y z
#    x 3.462670 0.000000 0.000000 
#    y 0.000000 3.322830 0.000000 
#    z 0.000000 0.000000 3.637560 
# 
# 
# High freq. dielectric constant tensor:
#      x y z
#    x 1.750850 0.000000 0.000000 
#    y 0.000000 1.724060 0.000000 
#    z 0.000000 0.000000 1.742370 
# 
# From -- ./inp_files/28144.got.cif
#   From: 2010.03.12/outbox.cif.g09.slc.cpg/sg59_15_cif.got.tgz:28144.got - 2010.04.16 16:29:54.
