data_PCOD8243159
_publ_section_title
;
Structure prediction by ZEFSAII (Michael W. Deem and Ramdas Pophale) SiO2 
 PCOD8243159
Probable space group: P M M N
;
_chemical_formula_sum "Si O2"
_cell_formula_units_Z 40
_cell_length_a 9.418904
_cell_length_b 15.706538
_cell_length_c 14.574203
_cell_angle_alpha 90.000000
_cell_angle_beta 90.000000
_cell_angle_gamma 90.000000
_cell_volume 2156.083888
_symmetry_space_group_name_H-M "P M M N"
_symmetry_group_IT_number 59
_space_group.IT_coordinate_system_code '2'
_symmetry_cell_setting 'orthorhombic'
loop_
_space_group_symop_operation_xyz
x,y,z
1/2-x,1/2-y,z
1/2+x,-y,-z
-x,1/2+y,-z
-x,-y,-z
1/2+x,1/2+y,-z
1/2-x,y,z
x,1/2-y,z
loop_
_atom_site_type_symbol
_atom_site_label
_atom_site_fract_x
_atom_site_fract_y
_atom_site_fract_z
Si Si1 0.411920 0.351036 0.608289
Si Si2 0.080220 0.250000 0.097953
Si Si3 0.418877 0.155082 0.407780
Si Si4 0.417757 0.750000 0.091389
Si Si5 0.916526 0.907412 0.782416
Si Si6 0.084330 0.904354 0.219952
O O1 0.250000 0.379587 0.624752
O O2 0.425799 0.250000 0.616498
O O3 0.468007 0.380643 0.507292
O O4 0.508148 0.395741 0.683279
O O5 0.250000 0.250000 0.085537
O O6 0.023073 0.334032 0.151048
O O7 0.006988 0.250000 0.000217
O O8 0.250000 0.158140 0.410064
O O9 0.478617 0.250000 0.393044
O O10 0.477089 0.099948 0.321908
O O11 0.250000 0.750000 0.070512
O O12 0.465465 0.666473 0.147729
O O13 0.750000 0.891710 0.777073
O O14 0.952253 0.001744 0.820622
O O15 0.250000 0.894455 0.240125
#
# Coordination Sequence:
#
# PCOD8243159 Si02
#       6
#     8   4   8   4   8   8
#     4   9  17  29  49  76 104 135 171 207 241 282
#     4  10  20  36  59  80  94 118 169 226 257 286
#     4   8  13  25  47  75 104 132 163 205 251 286
#     4  10  22  38  51  68 102 138 163 198 259 318
#     4   9  17  31  53  79 102 127 167 211 249 295
#     4  10  20  34  52  74 103 139 169 197 245 306
#
# _framework density 18.552154999999999
#
# number of rings (size 3 to 8) (size 9 to 14) (size 15 to 20)
#    0.000    2.800    2.000    1.200    0.000    2.400 
#    0.000    1.000    0.000    1.200    0.000    0.000 
#    0.000    0.000    0.000    0.000    0.000    0.000 
#
# Total GULP energy -495699.236658 kJ/mol
# GULP energy per Si atom -12392.480916 kJ/mol
# Density = 1.850993 g / cm^3
# Si number density = 18.552155 Si / 1000 Ang^3
#
#
#
# Elastic Constant Matrix: (Units=GPa)
#
#
# Indices 1 2 3 4 5 6 
#
# 1 25.2401 27.7649 35.9685 0.0000 0.0000 0.0000
# 2 27.7649 135.4383 82.3278 0.0000 0.0000 0.0000
# 3 35.9685 82.3278 153.6111 0.0000 0.0000 0.0000
# 4 0.0000 0.0000 0.0000 13.6455 0.0000 0.0000
# 5 0.0000 0.0000 0.0000 0.0000 24.1203 0.0000
# 6 0.0000 0.0000 0.0000 0.0000 0.0000 10.4118
#
#
#
# Elastic Compliance Matrix: (Units=1/GPa)
#
#
# Indices 1 2 3 4 5 6 
#
# 1 0.062387 -0.005799 -0.011500 0.000000 0.000000 0.000000
# 2 -0.005799 0.011490 -0.004800 0.000000 0.000000 0.000000
# 3 -0.011500 -0.004800 0.011775 0.000000 0.000000 0.000000
# 4 0.000000 0.000000 0.000000 0.073284 0.000000 0.000000
# 5 0.000000 0.000000 0.000000 0.000000 0.041459 0.000000
# 6 0.000000 0.000000 0.000000 0.000000 0.000000 0.096045
#
#
# Mechanical properties :
#
#
# Convention : Reuss Voigt Hill
#
# Bulk Modulus (GPa) = 24.12323 67.37908 45.75115
# Shear Modulus (GPa) = 14.10608 20.85074 17.47841
#
# Velocity S-wave (km/s) = 2.76043 3.35610 3.07273
# Velocity P-wave (km/s) = 4.81572 7.17046 6.10764
#
# Compressibility (1/GPa) = 0.04145382
#
# Stress axis : x y z
#
# Youngs Moduli (GPa) = 16.02902 87.03122 84.92225
#
# Poissons Ratio (x) = 0.50468 0.97662
# Poissons Ratio (y) = 0.09295 0.40765
# Poissons Ratio (z) = 0.18434 0.41778
#
# Static dielectric constant tensor:
#      x y z
#    x 2.942570 0.000000 0.000000 
#    y 0.000000 3.576970 0.000000 
#    z 0.000000 0.000000 3.533970 
# 
# 
# High freq. dielectric constant tensor:
#      x y z
#    x 1.667720 0.000000 0.000000 
#    y 0.000000 1.723760 0.000000 
#    z 0.000000 0.000000 1.724090 
# 
# From -- ./inp_files/19930.got.cif
#   From: 2010.03.12/outbox.cif.g09.slc.cpg/sg59_10_cif.got.tgz:19930.got - 2010.04.16 16:29:54.
