data_PCOD8243665
_publ_section_title
;
Structure prediction by ZEFSAII (Michael W. Deem and Ramdas Pophale) SiO2 
 PCOD8243665
Probable space group: P M M N
;
_chemical_formula_sum "Si O2"
_cell_formula_units_Z 48
_cell_length_a 8.623175
_cell_length_b 16.195284
_cell_length_c 18.012230
_cell_angle_alpha 90.000000
_cell_angle_beta 90.000000
_cell_angle_gamma 90.000000
_cell_volume 2515.493804
_symmetry_space_group_name_H-M "P M M N"
_symmetry_group_IT_number 59
_space_group.IT_coordinate_system_code '2'
_symmetry_cell_setting 'orthorhombic'
loop_
_space_group_symop_operation_xyz
x,y,z
1/2-x,1/2-y,z
1/2+x,-y,-z
-x,1/2+y,-z
-x,-y,-z
1/2+x,1/2+y,-z
1/2-x,y,z
x,1/2-y,z
loop_
_atom_site_type_symbol
_atom_site_label
_atom_site_fract_x
_atom_site_fract_y
_atom_site_fract_z
Si Si1 0.432187 0.750000 0.451660
Si Si2 0.068223 0.584743 0.530682
Si Si3 0.070066 0.434992 0.312666
Si Si4 0.434814 0.494640 0.081735
Si Si5 0.427827 0.250000 0.708218
Si Si6 0.568791 0.921701 0.218277
Si Si7 0.430920 0.339085 0.168381
O O1 0.250000 0.750000 0.464417
O O2 0.501205 0.833853 0.489201
O O3 0.467773 0.750000 0.364745
O O4 0.250000 0.581033 0.518025
O O5 0.000000 0.500000 0.500000
O O6 0.029981 0.591161 0.617097
O O7 0.250000 0.442831 0.334689
O O8 0.039615 0.363105 0.253435
O O9 0.016884 0.521999 0.278808
O O10 0.250000 0.499959 0.082087
O O11 0.500841 0.566090 0.135320
O O12 0.499864 0.407868 0.113616
O O13 0.500000 0.500000 0.000000
O O14 0.250000 0.250000 0.681664
O O15 0.465687 0.328092 0.759402
O O16 0.750000 0.942945 0.218530
O O17 0.250000 0.333248 0.152605
O O18 0.509765 0.250000 0.153035
#
# Coordination Sequence:
#
# PCOD8243665 Si02
#       7
#     4   8   8   8   4   8   8
#     4  10  24  40  56  80 115 152 189 240 296 338
#     4  11  23  39  56  80 113 150 191 237 291 343
#     4  10  20  34  56  83 111 144 185 229 280 337
#     4  10  20  36  58  83 115 148 183 225 275 327
#     4  10  22  38  58  82 107 142 193 238 276 330
#     4  10  20  37  59  83 111 147 190 233 277 330
#     4   8  16  32  54  80 106 138 180 220 263 319
#
# _framework density 19.08174
#
# number of rings (size 3 to 8) (size 9 to 14) (size 15 to 20)
#    0.000    2.167    0.000    4.000    1.167    5.333 
#    1.500    0.000    0.000    9.500    0.000    0.000 
#    0.000    0.000    0.000    0.000    0.000    0.000 
#
# Total GULP energy -595150.876807 kJ/mol
# GULP energy per Si atom -12398.976600 kJ/mol
# Density = 1.903831 g / cm^3
# Si number density = 19.081740 Si / 1000 Ang^3
#
#
#
# Elastic Constant Matrix: (Units=GPa)
#
#
# Indices 1 2 3 4 5 6 
#
# 1 46.5458 30.3077 22.3762 0.0000 0.0000 0.0000
# 2 30.3077 150.5234 61.1313 0.0000 0.0000 0.0000
# 3 22.3762 61.1313 134.1560 0.0000 0.0000 0.0000
# 4 0.0000 0.0000 0.0000 16.3006 0.0000 0.0000
# 5 0.0000 0.0000 0.0000 0.0000 36.6893 0.0000
# 6 0.0000 0.0000 0.0000 0.0000 0.0000 24.0572
#
#
#
# Elastic Compliance Matrix: (Units=1/GPa)
#
#
# Indices 1 2 3 4 5 6 
#
# 1 0.025306 -0.004149 -0.002330 0.000000 0.000000 0.000000
# 2 -0.004149 0.008832 -0.003333 0.000000 0.000000 0.000000
# 3 -0.002330 -0.003333 0.009361 0.000000 0.000000 0.000000
# 4 0.000000 0.000000 0.000000 0.061347 0.000000 0.000000
# 5 0.000000 0.000000 0.000000 0.000000 0.027256 0.000000
# 6 0.000000 0.000000 0.000000 0.000000 0.000000 0.041568
#
#
# Mechanical properties :
#
#
# Convention : Reuss Voigt Hill
#
# Bulk Modulus (GPa) = 41.88330 62.09507 51.98919
# Shear Modulus (GPa) = 24.84436 29.90342 27.37389
#
# Velocity S-wave (km/s) = 3.61223 3.96298 3.79167
# Velocity P-wave (km/s) = 6.27652 7.31796 6.81716
#
# Compressibility (1/GPa) = 0.02387586
#
# Stress axis : x y z
#
# Youngs Moduli (GPa) = 39.51629 113.22022 106.82299
#
# Poissons Ratio (x) = 0.46974 0.24893
# Poissons Ratio (y) = 0.16395 0.35600
# Poissons Ratio (z) = 0.09208 0.37732
#
# Static dielectric constant tensor:
#      x y z
#    x 3.428560 0.000000 0.000000 
#    y 0.000000 3.897300 0.000000 
#    z 0.000000 0.000000 1.778000 
# 
# 
# High freq. dielectric constant tensor:
#      x y z
#    x 1.733450 0.000000 0.000000 
#    y 0.000000 1.751700 0.000000 
#    z 0.000000 0.000000 1.743660 
# 
# From -- ./inp_files/25590.got.cif
#   From: 2010.03.12/outbox.cif.g09.slc.cpg/sg59_13_cif.got.tgz:25590.got - 2010.04.16 16:29:54.
