data_PCOD8243687
_publ_section_title
;
Structure prediction by ZEFSAII (Michael W. Deem and Ramdas Pophale) SiO2 
 PCOD8243687
Probable space group: P M M N
;
_chemical_formula_sum "Si O2"
_cell_formula_units_Z 56
_cell_length_a 8.423124
_cell_length_b 22.906931
_cell_length_c 14.764404
_cell_angle_alpha 90.000000
_cell_angle_beta 90.000000
_cell_angle_gamma 90.000000
_cell_volume 2848.761046
_symmetry_space_group_name_H-M "P M M N"
_symmetry_group_IT_number 59
_space_group.IT_coordinate_system_code '2'
_symmetry_cell_setting 'orthorhombic'
loop_
_space_group_symop_operation_xyz
x,y,z
1/2-x,1/2-y,z
1/2+x,-y,-z
-x,1/2+y,-z
-x,-y,-z
1/2+x,1/2+y,-z
1/2-x,y,z
x,1/2-y,z
loop_
_atom_site_type_symbol
_atom_site_label
_atom_site_fract_x
_atom_site_fract_y
_atom_site_fract_z
Si Si1 0.935600 0.584920 0.798562
Si Si2 0.065440 0.019754 0.904182
Si Si3 0.436003 0.186149 0.072866
Si Si4 0.937736 0.074019 0.583555
Si Si5 0.065615 0.642709 0.114155
Si Si6 0.064821 0.950611 0.620005
Si Si7 0.561564 0.314466 0.692815
O O1 0.750000 0.575166 0.818930
O O2 0.001819 0.641864 0.851088
O O3 0.039458 0.530741 0.831850
O O4 0.968871 0.589505 0.691446
O O5 0.250000 0.035861 0.912423
O O6 0.966012 0.074729 0.869524
O O7 0.000000 0.000000 0.000000
O O8 0.250000 0.190881 0.085208
O O9 0.514094 0.250000 0.088179
O O10 0.469435 0.164420 0.972074
O O11 0.750000 0.067684 0.597227
O O12 0.984830 0.073971 0.478037
O O13 0.004711 0.134067 0.627827
O O14 0.019171 0.018660 0.631486
O O15 0.250000 0.654182 0.096070
O O16 0.005662 0.676233 0.203712
O O17 0.250000 0.943096 0.637568
O O18 0.750000 0.317216 0.688940
O O19 0.501667 0.250000 0.661006
#
# Coordination Sequence:
#
# PCOD8243687 Si02
#       7
#     8   8   8   8   8   8   8
#     4  11  22  37  57  80 110 148 186 228 279 334
#     4  12  23  36  55  82 114 146 182 229 279 331
#     4  10  22  39  56  74 103 147 194 235 277 328
#     4   9  18  35  58  82 110 144 181 225 281 341
#     4  11  21  34  56  84 113 147 186 229 280 337
#     4  10  20  34  56  85 112 141 182 231 284 338
#     4   9  18  33  54  81 111 144 184 228 275 330
#
# _framework density 19.657668000000001
#
# number of rings (size 3 to 8) (size 9 to 14) (size 15 to 20)
#    0.000    1.714    1.429    3.857    0.000    3.143 
#    0.000    1.429    0.000    3.000    0.000    0.000 
#    0.000    0.000    0.000    0.000    0.000    0.000 
#
# Total GULP energy -694444.867800 kJ/mol
# GULP energy per Si atom -12400.801211 kJ/mol
# Density = 1.961293 g / cm^3
# Si number density = 19.657668 Si / 1000 Ang^3
#
#
#
# Elastic Constant Matrix: (Units=GPa)
#
#
# Indices 1 2 3 4 5 6 
#
# 1 23.1467 5.0387 11.4138 0.0000 0.0000 0.0000
# 2 5.0387 154.3800 68.9338 0.0000 0.0000 0.0000
# 3 11.4138 68.9338 120.3602 0.0000 0.0000 0.0000
# 4 0.0000 0.0000 0.0000 29.3864 0.0000 0.0000
# 5 0.0000 0.0000 0.0000 0.0000 25.4088 0.0000
# 6 0.0000 0.0000 0.0000 0.0000 0.0000 19.7170
#
#
#
# Elastic Compliance Matrix: (Units=1/GPa)
#
#
# Indices 1 2 3 4 5 6 
#
# 1 0.045362 0.000592 -0.004641 0.000000 0.000000 0.000000
# 2 0.000592 0.008711 -0.005045 0.000000 0.000000 0.000000
# 3 -0.004641 -0.005045 0.011638 0.000000 0.000000 0.000000
# 4 0.000000 0.000000 0.000000 0.034029 0.000000 0.000000
# 5 0.000000 0.000000 0.000000 0.000000 0.039356 0.000000
# 6 0.000000 0.000000 0.000000 0.000000 0.000000 0.050718
#
#
# Mechanical properties :
#
#
# Convention : Reuss Voigt Hill
#
# Bulk Modulus (GPa) = 21.04246 52.07330 36.55788
# Shear Modulus (GPa) = 22.33701 29.06915 25.70308
#
# Velocity S-wave (km/s) = 3.37456 3.84965 3.61991
# Velocity P-wave (km/s) = 5.09031 6.80495 6.00910
#
# Compressibility (1/GPa) = 0.04752296
#
# Stress axis : x y z
#
# Youngs Moduli (GPa) = 22.04475 114.79790 85.92587
#
# Poissons Ratio (x) = -0.06791 0.39874
# Poissons Ratio (y) = -0.01304 0.43351
# Poissons Ratio (z) = 0.10230 0.57917
#
# Static dielectric constant tensor:
#      x y z
#    x 3.388960 0.000000 0.000000 
#    y 0.000000 3.953220 0.000000 
#    z 0.000000 0.000000 3.768150 
# 
# 
# High freq. dielectric constant tensor:
#      x y z
#    x 1.749850 0.000000 0.000000 
#    y 0.000000 1.765750 0.000000 
#    z 0.000000 0.000000 1.768540 
# 
# From -- ./inp_files/20938.got.cif
#   From: 2010.03.12/outbox.cif.g09.slc.cpg/sg59_11_cif.got.tgz:20938.got - 2010.04.16 16:29:54.
