data_PCOD8243870
_publ_section_title
;
Structure prediction by ZEFSAII (Michael W. Deem and Ramdas Pophale) SiO2 
 PCOD8243870
Probable space group: P M M N
;
_chemical_formula_sum "Si O2"
_cell_formula_units_Z 64
_cell_length_a 8.933045
_cell_length_b 22.504461
_cell_length_c 17.439772
_cell_angle_alpha 90.000000
_cell_angle_beta 90.000000
_cell_angle_gamma 90.000000
_cell_volume 3505.976012
_symmetry_space_group_name_H-M "P M M N"
_symmetry_group_IT_number 59
_space_group.IT_coordinate_system_code '2'
_symmetry_cell_setting 'orthorhombic'
loop_
_space_group_symop_operation_xyz
x,y,z
1/2-x,1/2-y,z
1/2+x,-y,-z
-x,1/2+y,-z
-x,-y,-z
1/2+x,1/2+y,-z
1/2-x,y,z
x,1/2-y,z
loop_
_atom_site_type_symbol
_atom_site_label
_atom_site_fract_x
_atom_site_fract_y
_atom_site_fract_z
Si Si1 0.925851 0.516358 0.079779
Si Si2 0.921737 0.951318 0.660999
Si Si3 0.576944 0.412481 0.651303
Si Si4 0.579083 0.682547 0.945152
Si Si5 0.579425 0.581542 0.829020
Si Si6 0.427164 0.861224 0.096576
Si Si7 0.077080 0.316633 0.757671
Si Si8 0.922207 0.061658 0.484668
O O1 0.750000 0.524670 0.067907
O O2 0.959374 0.464784 0.139648
O O3 0.997669 0.575655 0.113347
O O4 0.000000 0.500000 0.000000
O O5 0.750000 0.954376 0.636270
O O6 0.947065 0.913779 0.738247
O O7 0.006546 0.913838 0.594404
O O8 0.977615 0.019993 0.669961
O O9 0.750000 0.405072 0.675545
O O10 0.480383 0.365066 0.697509
O O11 0.554585 0.397740 0.560414
O O12 0.750000 0.674226 0.973346
O O13 0.544165 0.750000 0.922658
O O14 0.548223 0.644807 0.868487
O O15 0.470883 0.662495 0.013069
O O16 0.750000 0.560159 0.846039
O O17 0.250000 0.867272 0.100662
O O18 0.485524 0.817853 0.162804
O O19 0.250000 0.330158 0.775428
O O20 0.056844 0.250000 0.723767
O O21 0.750000 0.050239 0.469120
O O22 0.000000 0.000000 0.500000
#
# Coordination Sequence:
#
# PCOD8243870 Si02
#       8
#     8   8   8   8   8   8   8   8
#     4  12  23  36  55  80 109 140 175 221 273 327
#     4   9  18  32  52  81 111 140 176 219 267 322
#     4   9  18  33  53  78 108 140 177 219 267 324
#     4  10  21  37  56  76 102 140 184 228 271 314
#     4  10  20  35  55  79 110 145 180 221 269 321
#     4  12  24  38  57  79 105 141 182 225 273 326
#     4  11  24  39  55  78 108 143 185 231 276 324
#     4   9  17  30  51  79 109 139 169 207 256 314
#
# _framework density 18.254546999999999
#
# number of rings (size 3 to 8) (size 9 to 14) (size 15 to 20)
#    0.000    1.750    1.250    4.875    0.000    6.750 
#    0.000    0.000    0.000    0.750    0.000    1.750 
#    0.000    0.000    0.000    0.000    0.000    0.000 
#
# Total GULP energy -793513.248231 kJ/mol
# GULP energy per Si atom -12398.644504 kJ/mol
# Density = 1.821300 g / cm^3
# Si number density = 18.254547 Si / 1000 Ang^3
#
#
#
# Elastic Constant Matrix: (Units=GPa)
#
#
# Indices 1 2 3 4 5 6 
#
# 1 118.3201 41.5987 55.1472 0.0000 0.0000 0.0000
# 2 41.5987 89.5416 43.3404 0.0000 0.0000 0.0000
# 3 55.1472 43.3404 127.3650 0.0000 0.0000 0.0000
# 4 0.0000 0.0000 0.0000 18.0300 0.0000 0.0000
# 5 0.0000 0.0000 0.0000 0.0000 30.6808 0.0000
# 6 0.0000 0.0000 0.0000 0.0000 0.0000 21.2644
#
#
#
# Elastic Compliance Matrix: (Units=1/GPa)
#
#
# Indices 1 2 3 4 5 6 
#
# 1 0.011432 -0.003490 -0.003762 0.000000 0.000000 0.000000
# 2 -0.003490 0.014436 -0.003401 0.000000 0.000000 0.000000
# 3 -0.003762 -0.003401 0.010638 0.000000 0.000000 0.000000
# 4 0.000000 0.000000 0.000000 0.055463 0.000000 0.000000
# 5 0.000000 0.000000 0.000000 0.000000 0.032594 0.000000
# 6 0.000000 0.000000 0.000000 0.000000 0.000000 0.047027
#
#
# Mechanical properties :
#
#
# Convention : Reuss Voigt Hill
#
# Bulk Modulus (GPa) = 65.79520 68.37768 67.08644
# Shear Modulus (GPa) = 25.25730 27.00440 26.13085
#
# Velocity S-wave (km/s) = 3.72374 3.85037 3.78758
# Velocity P-wave (km/s) = 7.38984 7.57010 7.48051
#
# Compressibility (1/GPa) = 0.01519868
#
# Stress axis : x y z
#
# Youngs Moduli (GPa) = 87.47172 69.27325 94.00400
#
# Poissons Ratio (x) = 0.24177 0.35368
# Poissons Ratio (y) = 0.30528 0.31971
# Poissons Ratio (z) = 0.32910 0.23560
#
# Static dielectric constant tensor:
#      x y z
#    x 3.606290 0.000000 0.000000 
#    y 0.000000 3.336460 0.000000 
#    z 0.000000 0.000000 1.659960 
# 
# 
# High freq. dielectric constant tensor:
#      x y z
#    x 1.712970 0.000000 0.000000 
#    y 0.000000 1.679760 0.000000 
#    z 0.000000 0.000000 1.713190 
# 
# From -- ./inp_files/26222.got.cif
#   From: 2010.03.12/outbox.cif.g09.slc.cpg/sg59_14_cif.got.tgz:26222.got - 2010.04.16 16:29:54.
