data_PCOD8243633
_publ_section_title
;
Structure prediction by ZEFSAII (Michael W. Deem and Ramdas Pophale) SiO2 
 PCOD8243633
Probable space group: P M M N
;
_chemical_formula_sum "Si O2"
_cell_formula_units_Z 40
_cell_length_a 8.624726
_cell_length_b 16.207624
_cell_length_c 13.984960
_cell_angle_alpha 90.000000
_cell_angle_beta 90.000000
_cell_angle_gamma 90.000000
_cell_volume 1954.906039
_symmetry_space_group_name_H-M "P M M N"
_symmetry_group_IT_number 59
_space_group.IT_coordinate_system_code '2'
_symmetry_cell_setting 'orthorhombic'
loop_
_space_group_symop_operation_xyz
x,y,z
1/2-x,1/2-y,z
1/2+x,-y,-z
-x,1/2+y,-z
-x,-y,-z
1/2+x,1/2+y,-z
1/2-x,y,z
x,1/2-y,z
loop_
_atom_site_type_symbol
_atom_site_label
_atom_site_fract_x
_atom_site_fract_y
_atom_site_fract_z
Si Si1 0.935368 0.903976 0.631643
Si Si2 0.574648 0.844387 0.432148
Si Si3 0.065336 0.250000 0.033048
Si Si4 0.568213 0.433154 0.731137
Si Si5 0.565739 0.750000 0.749206
Si Si6 0.564823 0.080719 0.946868
O O1 0.750000 0.901614 0.631700
O O2 0.993821 0.896245 0.521901
O O3 0.001731 0.830045 0.696165
O O4 0.003236 0.986834 0.678475
O O5 0.750000 0.871110 0.409285
O O6 0.566495 0.750000 0.464211
O O7 0.475700 0.856019 0.335623
O O8 0.250000 0.250000 0.022659
O O9 0.008624 0.250000 0.142075
O O10 0.998863 0.333340 0.987126
O O11 0.750000 0.442187 0.738857
O O12 0.502738 0.423601 0.837838
O O13 0.750000 0.750000 0.745765
O O14 0.750000 0.080264 0.953611
O O15 0.500000 0.000000 0.000000
#
# Coordination Sequence:
#
# PCOD8243633 Si02
#       6
#     8   8   4   8   4   8
#     4   9  16  32  56  83 112 145 188 239 289 347
#     4  10  20  34  55  85 115 146 188 238 289 345
#     4  11  23  39  64  93 122 164 209 253 312 373
#     4  10  22  37  57  82 114 155 195 236 292 357
#     4   9  16  31  58  85 110 144 193 243 290 351
#     4  11  24  43  64  91 124 161 208 261 312 365
#
# _framework density 20.461341999999998
#
# number of rings (size 3 to 8) (size 9 to 14) (size 15 to 20)
#    0.000    2.000    1.000    2.700    1.400    5.200 
#    0.000    0.000    0.000    2.400    0.000    0.000 
#    0.000    0.000    0.000    0.000    0.000    0.000 
#
# Total GULP energy -495917.228638 kJ/mol
# GULP energy per Si atom -12397.930716 kJ/mol
# Density = 2.041477 g / cm^3
# Si number density = 20.461342 Si / 1000 Ang^3
#
#
#
# Elastic Constant Matrix: (Units=GPa)
#
#
# Indices 1 2 3 4 5 6 
#
# 1 35.7180 26.0968 31.4416 0.0000 0.0000 0.0000
# 2 26.0968 118.0318 61.7079 0.0000 0.0000 0.0000
# 3 31.4416 61.7079 190.2672 0.0000 0.0000 0.0000
# 4 0.0000 0.0000 0.0000 41.1579 0.0000 0.0000
# 5 0.0000 0.0000 0.0000 0.0000 27.5705 0.0000
# 6 0.0000 0.0000 0.0000 0.0000 0.0000 30.2764
#
#
#
# Elastic Compliance Matrix: (Units=1/GPa)
#
#
# Indices 1 2 3 4 5 6 
#
# 1 0.035787 -0.005805 -0.004031 0.000000 0.000000 0.000000
# 2 -0.005805 0.011144 -0.002655 0.000000 0.000000 0.000000
# 3 -0.004031 -0.002655 0.006783 0.000000 0.000000 0.000000
# 4 0.000000 0.000000 0.000000 0.024297 0.000000 0.000000
# 5 0.000000 0.000000 0.000000 0.000000 0.036271 0.000000
# 6 0.000000 0.000000 0.000000 0.000000 0.000000 0.033029
#
#
# Mechanical properties :
#
#
# Convention : Reuss Voigt Hill
#
# Bulk Modulus (GPa) = 34.80487 64.72330 49.76408
# Shear Modulus (GPa) = 27.49233 34.78569 31.13901
#
# Velocity S-wave (km/s) = 3.66952 4.12766 3.90532
# Velocity P-wave (km/s) = 5.91615 7.37682 6.68649
#
# Compressibility (1/GPa) = 0.02873161
#
# Stress axis : x y z
#
# Youngs Moduli (GPa) = 27.94326 89.73620 147.42864
#
# Poissons Ratio (x) = 0.52092 0.59430
# Poissons Ratio (y) = 0.16221 0.39141
# Poissons Ratio (z) = 0.11264 0.23824
#
# Static dielectric constant tensor:
#      x y z
#    x 3.303320 0.000000 0.000000 
#    y 0.000000 3.855590 0.000000 
#    z 0.000000 0.000000 3.998540 
# 
# 
# High freq. dielectric constant tensor:
#      x y z
#    x 1.761080 0.000000 0.000000 
#    y 0.000000 1.812230 0.000000 
#    z 0.000000 0.000000 1.819880 
# 
# From -- ./inp_files/20022.got.cif
#   From: 2010.03.12/outbox.cif.g09.slc.cpg/sg59_11_cif.got.tgz:20022.got - 2010.04.16 16:29:54.
