data_PCOD8243731
_publ_section_title
;
Structure prediction by ZEFSAII (Michael W. Deem and Ramdas Pophale) SiO2 
 PCOD8243731
Probable space group: P M M N
;
_chemical_formula_sum "Si O2"
_cell_formula_units_Z 48
_cell_length_a 9.187168
_cell_length_b 7.842842
_cell_length_c 34.113822
_cell_angle_alpha 90.000000
_cell_angle_beta 90.000000
_cell_angle_gamma 90.000000
_cell_volume 2458.020514
_symmetry_space_group_name_H-M "P M M N"
_symmetry_group_IT_number 59
_space_group.IT_coordinate_system_code '2'
_symmetry_cell_setting 'orthorhombic'
loop_
_space_group_symop_operation_xyz
x,y,z
1/2-x,1/2-y,z
1/2+x,-y,-z
-x,1/2+y,-z
-x,-y,-z
1/2+x,1/2+y,-z
1/2-x,y,z
x,1/2-y,z
loop_
_atom_site_type_symbol
_atom_site_label
_atom_site_fract_x
_atom_site_fract_y
_atom_site_fract_z
Si Si1 0.579039 0.250000 0.242014
Si Si2 0.416382 0.440042 0.812755
Si Si3 0.576328 0.058861 0.622356
Si Si4 0.092136 0.550615 0.462994
Si Si5 0.076713 0.250000 0.324260
Si Si6 0.085022 0.055796 0.114434
Si Si7 0.917156 0.550269 0.039073
O O1 0.750000 0.250000 0.251201
O O2 0.531620 0.419618 0.218498
O O3 0.490139 0.250000 0.281620
O O4 0.250000 0.478127 0.825045
O O5 0.431684 0.250000 0.794370
O O6 0.513011 0.443450 0.851720
O O7 0.750000 0.061335 0.620833
O O8 0.519391 0.250000 0.633474
O O9 0.519944 0.000568 0.579010
O O10 0.520091 0.920141 0.653589
O O11 0.250000 0.461378 0.467266
O O12 0.113772 0.750000 0.462419
O O13 0.000000 0.500000 0.500000
O O14 0.250000 0.250000 0.321123
O O15 0.250000 0.992049 0.107089
O O16 0.083357 0.250000 0.128853
O O17 0.994405 0.044337 0.074693
O O18 0.750000 0.489595 0.036030
O O19 0.927130 0.750000 0.046520
O O20 0.000000 0.500000 0.000000
#
# Coordination Sequence:
#
# PCOD8243731 Si02
#       7
#     4   8   8   8   4   8   8
#     4  10  22  40  58  84 120 148 178 234 292 338
#     4  10  21  39  63  87 113 151 193 228 278 346
#     4   8  16  32  51  74 105 139 181 229 273 326
#     4   9  18  31  48  73 104 138 179 227 276 327
#     4  10  20  34  58  82 102 142 190 226 274 338
#     4  11  23  38  59  88 120 152 189 236 289 341
#     4  11  24  40  58  83 115 153 199 244 289 343
#
# _framework density 19.527909999999999
#
# number of rings (size 3 to 8) (size 9 to 14) (size 15 to 20)
#    0.000    2.167    0.833    3.000    1.167    8.333 
#    0.000    0.833    0.000    1.000    0.000    0.000 
#    0.000    0.000    0.000    0.000    0.000    0.000 
#
# Total GULP energy -595084.845073 kJ/mol
# GULP energy per Si atom -12397.600939 kJ/mol
# Density = 1.948346 g / cm^3
# Si number density = 19.527910 Si / 1000 Ang^3
#
#
#
# Elastic Constant Matrix: (Units=GPa)
#
#
# Indices 1 2 3 4 5 6 
#
# 1 87.1864 32.6105 55.8666 0.0000 0.0000 0.0000
# 2 32.6105 107.3744 62.8144 0.0000 0.0000 0.0000
# 3 55.8666 62.8144 156.1697 0.0000 0.0000 0.0000
# 4 0.0000 0.0000 0.0000 30.8903 0.0000 0.0000
# 5 0.0000 0.0000 0.0000 0.0000 37.3472 0.0000
# 6 0.0000 0.0000 0.0000 0.0000 0.0000 20.9731
#
#
#
# Elastic Compliance Matrix: (Units=1/GPa)
#
#
# Indices 1 2 3 4 5 6 
#
# 1 0.015163 -0.001873 -0.004671 0.000000 0.000000 0.000000
# 2 -0.001873 0.012410 -0.004322 0.000000 0.000000 0.000000
# 3 -0.004671 -0.004322 0.009813 0.000000 0.000000 0.000000
# 4 0.000000 0.000000 0.000000 0.032373 0.000000 0.000000
# 5 0.000000 0.000000 0.000000 0.000000 0.026776 0.000000
# 6 0.000000 0.000000 0.000000 0.000000 0.000000 0.047680
#
#
# Mechanical properties :
#
#
# Convention : Reuss Voigt Hill
#
# Bulk Modulus (GPa) = 63.87707 72.59039 68.23373
# Shear Modulus (GPa) = 29.21179 31.13804 30.17491
#
# Velocity S-wave (km/s) = 3.87188 3.99750 3.93519
# Velocity P-wave (km/s) = 7.26432 7.65245 7.46091
#
# Compressibility (1/GPa) = 0.01565507
#
# Stress axis : x y z
#
# Youngs Moduli (GPa) = 65.94902 80.57923 101.90995
#
# Poissons Ratio (x) = 0.15089 0.47604
# Poissons Ratio (y) = 0.12349 0.44043
# Poissons Ratio (z) = 0.30806 0.34824
#
# Static dielectric constant tensor:
#      x y z
#    x 3.389720 0.000000 0.000000 
#    y 0.000000 4.089480 0.000000 
#    z 0.000000 0.000000 3.303670 
# 
# 
# High freq. dielectric constant tensor:
#      x y z
#    x 1.739450 0.000000 0.000000 
#    y 0.000000 1.771950 0.000000 
#    z 0.000000 0.000000 1.758530 
# 
# From -- ./inp_files/33076.got.cif
#   From: 2010.03.12/outbox.cif.g09.slc.cpg/sg59_17_cif.got.tgz:33076.got - 2010.04.16 16:29:54.
