data_PCOD8243762
_publ_section_title
;
Structure prediction by ZEFSAII (Michael W. Deem and Ramdas Pophale) SiO2 
 PCOD8243762
Probable space group: P M M N
;
_chemical_formula_sum "Si O2"
_cell_formula_units_Z 64
_cell_length_a 23.712786
_cell_length_b 9.057240
_cell_length_c 16.395708
_cell_angle_alpha 90.000000
_cell_angle_beta 90.000000
_cell_angle_gamma 90.000000
_cell_volume 3521.345456
_symmetry_space_group_name_H-M "P M M N"
_symmetry_group_IT_number 59
_space_group.IT_coordinate_system_code '2'
_symmetry_cell_setting 'orthorhombic'
loop_
_space_group_symop_operation_xyz
x,y,z
1/2-x,1/2-y,z
1/2+x,-y,-z
-x,1/2+y,-z
-x,-y,-z
1/2+x,1/2+y,-z
1/2-x,y,z
x,1/2-y,z
loop_
_atom_site_type_symbol
_atom_site_label
_atom_site_fract_x
_atom_site_fract_y
_atom_site_fract_z
Si Si1 0.906186 0.580493 0.960445
Si Si2 0.184369 0.576210 0.765510
Si Si3 0.412085 0.077529 0.854219
Si Si4 0.816843 0.915856 0.397706
Si Si5 0.979046 0.575785 0.806778
Si Si6 0.314908 0.577115 0.440909
Si Si7 0.382947 0.922848 0.281519
Si Si8 0.312531 0.923119 0.124933
O O1 0.891008 0.750000 0.946432
O O2 0.952791 0.530338 0.894507
O O3 0.848803 0.490391 0.948165
O O4 0.928088 0.550081 0.051330
O O5 0.250000 0.539410 0.781462
O O6 0.173395 0.750000 0.765927
O O7 0.148024 0.498044 0.835874
O O8 0.163008 0.511643 0.679213
O O9 0.408488 0.250000 0.833295
O O10 0.460299 0.001678 0.799621
O O11 0.750000 0.913198 0.399842
O O12 0.841364 0.750000 0.390883
O O13 0.838707 0.991062 0.480611
O O14 0.986546 0.750000 0.797066
O O15 0.940114 0.514775 0.733451
O O16 0.250000 0.534865 0.420773
O O17 0.319337 0.750000 0.459056
O O18 0.354812 0.529752 0.366416
O O19 0.397672 0.750000 0.279387
O O20 0.338283 0.965674 0.212129
O O21 0.250000 0.990366 0.120885
O O22 0.311155 0.750000 0.112061
#
# Coordination Sequence:
#
# PCOD8243762 Si02
#       8
#     8   8   8   8   8   8   8   8
#     4   9  20  35  50  71  98 130 167 209 254 297
#     4  10  21  37  56  78 104 132 163 201 247 298
#     4  11  22  36  55  76  98 127 165 207 252 301
#     4   9  17  30  49  74 104 135 166 202 245 292
#     4  10  20  35  53  73  99 130 168 211 252 294
#     4   9  16  27  47  75 105 137 172 207 243 288
#     4   9  17  30  48  71 101 136 172 208 246 289
#     4   9  17  29  46  69  99 135 171 206 246 293
#
# _framework density 18.174872000000001
#
# number of rings (size 3 to 8) (size 9 to 14) (size 15 to 20)
#    0.000    2.500    0.000    2.250    0.000    6.500 
#    0.000    2.500    0.000    3.000    0.000    0.000 
#    0.000    0.000    0.000    0.000    0.000    0.000 
#
# Total GULP energy -793662.808219 kJ/mol
# GULP energy per Si atom -12400.981378 kJ/mol
# Density = 1.813350 g / cm^3
# Si number density = 18.174872 Si / 1000 Ang^3
#
#
#
# Elastic Constant Matrix: (Units=GPa)
#
#
# Indices 1 2 3 4 5 6 
#
# 1 85.4246 40.7396 23.7075 0.0000 0.0000 0.0000
# 2 40.7396 77.7562 34.1463 0.0000 0.0000 0.0000
# 3 23.7075 34.1463 70.1115 0.0000 0.0000 0.0000
# 4 0.0000 0.0000 0.0000 30.8572 0.0000 0.0000
# 5 0.0000 0.0000 0.0000 0.0000 19.8616 0.0000
# 6 0.0000 0.0000 0.0000 0.0000 0.0000 28.9156
#
#
#
# Elastic Compliance Matrix: (Units=1/GPa)
#
#
# Indices 1 2 3 4 5 6 
#
# 1 0.015757 -0.007525 -0.001663 0.000000 0.000000 0.000000
# 2 -0.007525 0.019954 -0.007173 0.000000 0.000000 0.000000
# 3 -0.001663 -0.007173 0.018319 0.000000 0.000000 0.000000
# 4 0.000000 0.000000 0.000000 0.032407 0.000000 0.000000
# 5 0.000000 0.000000 0.000000 0.000000 0.050348 0.000000
# 6 0.000000 0.000000 0.000000 0.000000 0.000000 0.034583
#
#
# Mechanical properties :
#
#
# Convention : Reuss Voigt Hill
#
# Bulk Modulus (GPa) = 46.93507 47.83103 47.38305
# Shear Modulus (GPa) = 23.67497 24.90680 24.29089
#
# Velocity S-wave (km/s) = 3.61310 3.70590 3.65980
# Velocity P-wave (km/s) = 6.57923 6.68475 6.63220
#
# Compressibility (1/GPa) = 0.02130603
#
# Stress axis : x y z
#
# Youngs Moduli (GPa) = 63.46559 50.11614 54.58831
#
# Poissons Ratio (x) = 0.37714 0.09078
# Poissons Ratio (y) = 0.47759 0.39158
# Poissons Ratio (z) = 0.10554 0.35950
#
# Static dielectric constant tensor:
#      x y z
#    x 3.239630 0.000000 0.000000 
#    y 0.000000 3.368600 0.000000 
#    z 0.000000 0.000000 3.323190 
# 
# 
# High freq. dielectric constant tensor:
#      x y z
#    x 1.686580 0.000000 0.000000 
#    y 0.000000 1.708230 0.000000 
#    z 0.000000 0.000000 1.694640 
# 
# From -- ./inp_files/28476.got.cif
#   From: 2010.03.12/outbox.cif.g09.slc.cpg/sg59_15_cif.got.tgz:28476.got - 2010.04.16 16:29:54.
