data_PCOD8243557
_publ_section_title
;
Structure prediction by ZEFSAII (Michael W. Deem and Ramdas Pophale) SiO2 
 PCOD8243557
Probable space group: P M M N
;
_chemical_formula_sum "Si O2"
_cell_formula_units_Z 56
_cell_length_a 14.910608
_cell_length_b 9.012906
_cell_length_c 21.519512
_cell_angle_alpha 90.000000
_cell_angle_beta 90.000000
_cell_angle_gamma 90.000000
_cell_volume 2891.962205
_symmetry_space_group_name_H-M "P M M N"
_symmetry_group_IT_number 59
_space_group.IT_coordinate_system_code '2'
_symmetry_cell_setting 'orthorhombic'
loop_
_space_group_symop_operation_xyz
x,y,z
1/2-x,1/2-y,z
1/2+x,-y,-z
-x,1/2+y,-z
-x,-y,-z
1/2+x,1/2+y,-z
1/2-x,y,z
x,1/2-y,z
loop_
_atom_site_type_symbol
_atom_site_label
_atom_site_fract_x
_atom_site_fract_y
_atom_site_fract_z
Si Si1 0.848169 0.081513 0.818927
Si Si2 0.991839 0.075201 0.590775
Si Si3 0.005906 0.425305 0.730855
Si Si4 0.645924 0.924763 0.503585
Si Si5 0.150038 0.584071 0.811433
Si Si6 0.589632 0.921862 0.932851
Si Si7 0.097634 0.421200 0.929105
O O1 0.750000 0.075098 0.787799
O O2 0.872111 0.250000 0.838885
O O3 0.918404 0.021215 0.768450
O O4 0.843657 0.975780 0.879315
O O5 0.975512 0.250000 0.588312
O O6 0.000135 0.014476 0.660792
O O7 0.085403 0.032576 0.556519
O O8 0.903062 0.000508 0.561971
O O9 0.014762 0.250000 0.730409
O O10 0.092837 0.489086 0.763861
O O11 0.750000 0.979846 0.495980
O O12 0.645309 0.750000 0.514644
O O13 0.250000 0.586515 0.784437
O O14 0.110368 0.750000 0.816112
O O15 0.154840 0.514480 0.880306
O O16 0.562981 0.750000 0.923951
O O17 0.504209 0.026393 0.925445
O O18 0.634637 0.944896 0.000760
O O19 0.102440 0.250000 0.909452
#
# Coordination Sequence:
#
# PCOD8243557 Si02
#       7
#     8   8   8   8   8   8   8
#     4  10  21  36  54  78 109 145 185 230 281 336
#     4   9  19  35  57  85 114 147 188 231 273 319
#     4  10  21  38  59  82 111 149 190 230 274 326
#     4   9  18  34  56  84 118 151 184 225 273 323
#     4  11  24  39  56  81 112 146 185 231 283 335
#     4  10  20  34  55  81 107 138 180 232 287 341
#     4  10  20  35  56  80 106 139 181 230 286 341
#
# _framework density 19.364015999999999
#
# number of rings (size 3 to 8) (size 9 to 14) (size 15 to 20)
#    0.000    2.143    1.429    1.286    0.000    5.714 
#    0.000    5.714    0.000    0.000    0.000    0.000 
#    0.000    0.000    0.000    0.000    0.000    0.000 
#
# Total GULP energy -694267.979817 kJ/mol
# GULP energy per Si atom -12397.642497 kJ/mol
# Density = 1.931994 g / cm^3
# Si number density = 19.364016 Si / 1000 Ang^3
#
#
#
# Elastic Constant Matrix: (Units=GPa)
#
#
# Indices 1 2 3 4 5 6 
#
# 1 118.7196 20.5984 58.0107 0.0000 0.0000 0.0000
# 2 20.5984 34.0377 35.8574 0.0000 0.0000 0.0000
# 3 58.0107 35.8574 148.8190 0.0000 0.0000 0.0000
# 4 0.0000 0.0000 0.0000 28.2653 0.0000 0.0000
# 5 0.0000 0.0000 0.0000 0.0000 2.6224 0.0000
# 6 0.0000 0.0000 0.0000 0.0000 0.0000 26.9333
#
#
#
# Elastic Compliance Matrix: (Units=1/GPa)
#
#
# Indices 1 2 3 4 5 6 
#
# 1 0.010595 -0.002762 -0.003465 0.000000 0.000000 0.000000
# 2 -0.002762 0.040093 -0.008584 0.000000 0.000000 0.000000
# 3 -0.003465 -0.008584 0.010138 0.000000 0.000000 0.000000
# 4 0.000000 0.000000 0.000000 0.035379 0.000000 0.000000
# 5 0.000000 0.000000 0.000000 0.000000 0.381328 0.000000
# 6 0.000000 0.000000 0.000000 0.000000 0.000000 0.037129
#
#
# Mechanical properties :
#
#
# Convention : Reuss Voigt Hill
#
# Bulk Modulus (GPa) = 32.04489 58.94549 45.49519
# Shear Modulus (GPa) = 9.01412 24.03819 16.52615
#
# Velocity S-wave (km/s) = 2.15991 3.52715 2.92455
# Velocity P-wave (km/s) = 4.77544 6.86255 5.91183
#
# Compressibility (1/GPa) = 0.03120622
#
# Stress axis : x y z
#
# Youngs Moduli (GPa) = 94.38068 24.94184 98.63571
#
# Poissons Ratio (x) = 0.06889 0.34174
# Poissons Ratio (y) = 0.26069 0.84666
# Poissons Ratio (z) = 0.32700 0.21409
#
# Static dielectric constant tensor:
#      x y z
#    x 3.458790 0.000000 0.000000 
#    y 0.000000 3.492060 0.000000 
#    z 0.000000 0.000000 3.680020 
# 
# 
# High freq. dielectric constant tensor:
#      x y z
#    x 1.751490 0.000000 0.000000 
#    y 0.000000 1.750900 0.000000 
#    z 0.000000 0.000000 1.748880 
# 
# From -- ./inp_files/29175.got.cif
#   From: 2010.03.12/outbox.cif.g09.slc.cpg/sg59_15_cif.got.tgz:29175.got - 2010.04.16 16:29:54.
