data_PCOD8243031
_publ_section_title
;
Structure prediction by ZEFSAII (Michael W. Deem and Ramdas Pophale) SiO2 
 PCOD8243031
Probable space group: P M M N
;
_chemical_formula_sum "Si O2"
_cell_formula_units_Z 56
_cell_length_a 21.293758
_cell_length_b 8.822129
_cell_length_c 16.580093
_cell_angle_alpha 90.000000
_cell_angle_beta 90.000000
_cell_angle_gamma 90.000000
_cell_volume 3114.674593
_symmetry_space_group_name_H-M "P M M N"
_symmetry_group_IT_number 59
_space_group.IT_coordinate_system_code '2'
_symmetry_cell_setting 'orthorhombic'
loop_
_space_group_symop_operation_xyz
x,y,z
1/2-x,1/2-y,z
1/2+x,-y,-z
-x,1/2+y,-z
-x,-y,-z
1/2+x,1/2+y,-z
1/2-x,y,z
x,1/2-y,z
loop_
_atom_site_type_symbol
_atom_site_label
_atom_site_fract_x
_atom_site_fract_y
_atom_site_fract_z
Si Si1 0.179271 0.575535 0.866226
Si Si2 0.058583 0.071131 0.452315
Si Si3 0.383902 0.926143 0.697957
Si Si4 0.983324 0.428487 0.703754
Si Si5 0.179229 0.425894 0.554750
Si Si6 0.524062 0.924156 0.871918
Si Si7 0.585924 0.923604 0.033065
O O1 0.250000 0.528362 0.847238
O O2 0.174126 0.750000 0.891704
O O3 0.138818 0.539415 0.787596
O O4 0.155571 0.472240 0.940525
O O5 0.048626 0.250000 0.451140
O O6 0.125862 0.026080 0.490653
O O7 0.061811 0.007023 0.361575
O O8 0.000000 0.000000 0.500000
O O9 0.399361 0.750000 0.685536
O O10 0.445971 0.023438 0.682851
O O11 0.330454 0.977227 0.635759
O O12 0.977112 0.250000 0.695758
O O13 0.961907 0.477777 0.792991
O O14 0.250000 0.459774 0.521843
O O15 0.172099 0.250000 0.576866
O O16 0.517536 0.750000 0.844952
O O17 0.459986 0.970038 0.915727
O O18 0.579720 0.949306 0.936872
O O19 0.571284 0.750000 0.055175
#
# Coordination Sequence:
#
# PCOD8243031 Si02
#       7
#     8   8   8   8   8   8   8
#     4  10  21  35  51  75 111 152 187 220 265 322
#     4  11  22  37  58  83 114 149 185 230 282 334
#     4  11  21  34  54  80 112 150 187 223 272 332
#     4  12  23  35  55  83 113 145 185 231 279 328
#     4  10  22  39  58  81 111 148 189 231 276 333
#     4  10  20  35  54  78 107 139 175 220 273 325
#     4  10  20  33  53  79 106 139 180 221 266 320
#
# _framework density 17.979406999999998
#
# number of rings (size 3 to 8) (size 9 to 14) (size 15 to 20)
#    0.000    1.429    2.857    3.429    0.000    4.000 
#    0.000    0.000    0.000    0.857    0.000    2.000 
#    0.000    0.000    0.000    0.000    0.000    0.000 
#
# Total GULP energy -694501.814585 kJ/mol
# GULP energy per Si atom -12401.818118 kJ/mol
# Density = 1.793848 g / cm^3
# Si number density = 17.979407 Si / 1000 Ang^3
#
#
#
# Elastic Constant Matrix: (Units=GPa)
#
#
# Indices 1 2 3 4 5 6 
#
# 1 93.4456 41.8692 45.2222 0.0000 0.0000 0.0000
# 2 41.8692 86.3221 45.2471 0.0000 0.0000 0.0000
# 3 45.2222 45.2471 100.6263 0.0000 0.0000 0.0000
# 4 0.0000 0.0000 0.0000 33.1732 0.0000 0.0000
# 5 0.0000 0.0000 0.0000 0.0000 24.0823 0.0000
# 6 0.0000 0.0000 0.0000 0.0000 0.0000 24.6339
#
#
#
# Elastic Compliance Matrix: (Units=1/GPa)
#
#
# Indices 1 2 3 4 5 6 
#
# 1 0.015130 -0.004938 -0.004579 0.000000 0.000000 0.000000
# 2 -0.004938 0.016769 -0.005321 0.000000 0.000000 0.000000
# 3 -0.004579 -0.005321 0.014388 0.000000 0.000000 0.000000
# 4 0.000000 0.000000 0.000000 0.030145 0.000000 0.000000
# 5 0.000000 0.000000 0.000000 0.000000 0.041524 0.000000
# 6 0.000000 0.000000 0.000000 0.000000 0.000000 0.040595
#
#
# Mechanical properties :
#
#
# Convention : Reuss Voigt Hill
#
# Bulk Modulus (GPa) = 60.20269 60.56342 60.38305
# Shear Modulus (GPa) = 25.80460 26.24825 26.02642
#
# Velocity S-wave (km/s) = 3.79255 3.82502 3.80882
# Velocity P-wave (km/s) = 7.26188 7.29833 7.28013
#
# Compressibility (1/GPa) = 0.01661055
#
# Stress axis : x y z
#
# Youngs Moduli (GPa) = 66.09343 59.63445 69.50192
#
# Poissons Ratio (x) = 0.29450 0.31825
# Poissons Ratio (y) = 0.32640 0.36980
# Poissons Ratio (z) = 0.30264 0.31730
#
# Static dielectric constant tensor:
#      x y z
#    x 3.306250 0.000000 0.000000 
#    y 0.000000 3.379460 0.000000 
#    z 0.000000 0.000000 3.491500 
# 
# 
# High freq. dielectric constant tensor:
#      x y z
#    x 1.674740 0.000000 0.000000 
#    y 0.000000 1.707640 0.000000 
#    z 0.000000 0.000000 1.695630 
# 
# From -- ./inp_files/24304.got.cif
#   From: 2010.03.12/outbox.cif.g09.slc.cpg/sg59_13_cif.got.tgz:24304.got - 2010.04.16 16:29:54.
