data_PCOD8243278
_publ_section_title
;
Structure prediction by ZEFSAII (Michael W. Deem and Ramdas Pophale) SiO2 
 PCOD8243278
Probable space group: P M M N
;
_chemical_formula_sum "Si O2"
_cell_formula_units_Z 48
_cell_length_a 9.032963
_cell_length_b 9.207995
_cell_length_c 30.895759
_cell_angle_alpha 90.000000
_cell_angle_beta 90.000000
_cell_angle_gamma 90.000000
_cell_volume 2569.769527
_symmetry_space_group_name_H-M "P M M N"
_symmetry_group_IT_number 59
_space_group.IT_coordinate_system_code '2'
_symmetry_cell_setting 'orthorhombic'
loop_
_space_group_symop_operation_xyz
x,y,z
1/2-x,1/2-y,z
1/2+x,-y,-z
-x,1/2+y,-z
-x,-y,-z
1/2+x,1/2+y,-z
1/2-x,y,z
x,1/2-y,z
loop_
_atom_site_type_symbol
_atom_site_label
_atom_site_fract_x
_atom_site_fract_y
_atom_site_fract_z
Si Si1 0.424386 0.916463 0.961220
Si Si2 0.920960 0.419825 0.788198
Si Si3 0.417003 0.077329 0.374715
Si Si4 0.421017 0.417756 0.875817
Si Si5 0.421565 0.921054 0.539206
Si Si6 0.920739 0.078785 0.289182
O O1 0.250000 0.931988 0.966961
O O2 0.476101 0.750000 0.961650
O O3 0.475605 0.986916 0.916107
O O4 0.500000 0.000000 0.000000
O O5 0.750000 0.463998 0.785119
O O6 0.945676 0.250000 0.780260
O O7 0.981196 0.465606 0.835071
O O8 0.012084 0.505869 0.752806
O O9 0.250000 0.016322 0.376384
O O10 0.417807 0.250000 0.374145
O O11 0.505688 0.020966 0.416482
O O12 0.496021 0.017975 0.331610
O O13 0.250000 0.448000 0.864499
O O14 0.447057 0.250000 0.887826
O O15 0.250000 0.963267 0.539963
O O16 0.445273 0.750000 0.533858
O O17 0.500000 0.000000 0.500000
O O18 0.750000 0.035645 0.293488
O O19 0.942193 0.250000 0.284683
#
# Coordination Sequence:
#
# PCOD8243278 Si02
#       6
#     8   8   8   8   8   8
#     4  10  21  36  55  80 109 140 175 216 261 309
#     4  10  21  36  54  78 108 140 173 212 260 311
#     4   9  17  31  52  76 103 136 172 212 260 312
#     4   9  18  34  54  74 101 139 178 214 255 306
#     4  10  20  34  53  77 105 137 174 216 262 313
#     4  10  20  34  54  79 105 135 173 215 257 305
#
# _framework density 18.678718
#
# number of rings (size 3 to 8) (size 9 to 14) (size 15 to 20)
#    0.000    2.333    0.000    2.500    0.000    7.333 
#    0.000    4.167    0.000    5.000    0.000    0.000 
#    0.000    0.000    0.000    0.000    0.000    0.000 
#
# Total GULP energy -595354.179597 kJ/mol
# GULP energy per Si atom -12403.212075 kJ/mol
# Density = 1.863620 g / cm^3
# Si number density = 18.678718 Si / 1000 Ang^3
#
#
#
# Elastic Constant Matrix: (Units=GPa)
#
#
# Indices 1 2 3 4 5 6 
#
# 1 126.9385 49.8936 87.5624 0.0000 0.0000 0.0000
# 2 49.8936 57.9030 65.7549 0.0000 0.0000 0.0000
# 3 87.5624 65.7549 173.3312 0.0000 0.0000 0.0000
# 4 0.0000 0.0000 0.0000 36.2025 0.0000 0.0000
# 5 0.0000 0.0000 0.0000 0.0000 44.5864 0.0000
# 6 0.0000 0.0000 0.0000 0.0000 0.0000 26.4473
#
#
#
# Elastic Compliance Matrix: (Units=1/GPa)
#
#
# Indices 1 2 3 4 5 6 
#
# 1 0.013465 -0.006813 -0.004218 0.000000 0.000000 0.000000
# 2 -0.006813 0.033789 -0.009376 0.000000 0.000000 0.000000
# 3 -0.004218 -0.009376 0.011457 0.000000 0.000000 0.000000
# 4 0.000000 0.000000 0.000000 0.027622 0.000000 0.000000
# 5 0.000000 0.000000 0.000000 0.000000 0.022428 0.000000
# 6 0.000000 0.000000 0.000000 0.000000 0.000000 0.037811
#
#
# Mechanical properties :
#
#
# Convention : Reuss Voigt Hill
#
# Bulk Modulus (GPa) = 55.87589 84.95494 70.41541
# Shear Modulus (GPa) = 25.85962 31.77802 28.81882
#
# Velocity S-wave (km/s) = 3.72485 4.12915 3.93220
# Velocity P-wave (km/s) = 6.96265 8.26524 7.64175
#
# Compressibility (1/GPa) = 0.01789681
#
# Stress axis : x y z
#
# Youngs Moduli (GPa) = 74.26674 29.59576 87.28337
#
# Poissons Ratio (x) = 0.20163 0.36813
# Poissons Ratio (y) = 0.50597 0.81840
# Poissons Ratio (z) = 0.31323 0.27750
#
# Static dielectric constant tensor:
#      x y z
#    x 3.385690 0.000000 0.000000 
#    y 0.000000 3.232290 0.000000 
#    z 0.000000 0.000000 3.578760 
# 
# 
# High freq. dielectric constant tensor:
#      x y z
#    x 1.735350 0.000000 0.000000 
#    y 0.000000 1.701440 0.000000 
#    z 0.000000 0.000000 1.741340 
# 
# From -- ./inp_files/32805.got.cif
#   From: 2010.03.12/outbox.cif.g09.slc.cpg/sg59_17_cif.got.tgz:32805.got - 2010.04.16 16:29:54.
