data_PCOD8243087
_publ_section_title
;
Structure prediction by ZEFSAII (Michael W. Deem and Ramdas Pophale) SiO2 
 PCOD8243087
Probable space group: P M M N
;
_chemical_formula_sum "Si O2"
_cell_formula_units_Z 48
_cell_length_a 27.898660
_cell_length_b 9.618045
_cell_length_c 9.950749
_cell_angle_alpha 90.000000
_cell_angle_beta 90.000000
_cell_angle_gamma 90.000000
_cell_volume 2670.090124
_symmetry_space_group_name_H-M "P M M N"
_symmetry_group_IT_number 59
_space_group.IT_coordinate_system_code '2'
_symmetry_cell_setting 'orthorhombic'
loop_
_space_group_symop_operation_xyz
x,y,z
1/2-x,1/2-y,z
1/2+x,-y,-z
-x,1/2+y,-z
-x,-y,-z
1/2+x,1/2+y,-z
1/2-x,y,z
x,1/2-y,z
loop_
_atom_site_type_symbol
_atom_site_label
_atom_site_fract_x
_atom_site_fract_y
_atom_site_fract_z
Si Si1 0.105361 0.409967 0.762499
Si Si2 0.006671 0.409369 0.632179
Si Si3 0.250000 0.088551 0.361623
Si Si4 0.349603 0.409032 0.484143
Si Si5 0.596389 0.091229 0.722927
Si Si6 0.750000 0.409888 0.904740
Si Si7 0.645746 0.088139 0.996717
O O1 0.104298 0.250000 0.809519
O O2 0.142869 0.432486 0.641978
O O3 0.122124 0.503316 0.884553
O O4 0.052777 0.459908 0.715609
O O5 0.014110 0.250000 0.585488
O O6 0.961064 0.423579 0.731047
O O7 0.000000 0.500000 0.500000
O O8 0.250000 0.250000 0.322235
O O9 0.204443 0.047324 0.450752
O O10 0.250000 0.003137 0.226025
O O11 0.360038 0.250000 0.444130
O O12 0.386558 0.502317 0.402956
O O13 0.612011 0.250000 0.697482
O O14 0.620882 0.036467 0.859075
O O15 0.750000 0.250000 0.856994
O O16 0.797295 0.442490 0.992139
O O17 0.635234 0.250000 0.021056
#
# Coordination Sequence:
#
# PCOD8243087 Si02
#       7
#     8   8   4   8   8   4   8
#     4  10  22  38  55  81 117 150 184 229 279 332
#     4  10  20  35  57  85 113 145 186 231 280 333
#     4  10  20  33  56  86 110 138 184 233 276 332
#     4  10  20  35  55  82 112 142 182 229 276 327
#     4  10  20  35  58  84 110 144 187 230 274 329
#     4  10  20  37  58  80 110 146 186 231 278 330
#     4  10  22  38  56  81 113 148 187 231 278 332
#
# _framework density 17.976921000000001
#
# number of rings (size 3 to 8) (size 9 to 14) (size 15 to 20)
#    0.000    2.000    3.333    0.000    0.000    4.000 
#    0.000    0.833    0.000    0.000    0.000    0.000 
#    0.000    0.000    0.000    0.000    0.000    0.000 
#
# Total GULP energy -595319.273920 kJ/mol
# GULP energy per Si atom -12402.484873 kJ/mol
# Density = 1.793600 g / cm^3
# Si number density = 17.976921 Si / 1000 Ang^3
#
#
#
# Elastic Constant Matrix: (Units=GPa)
#
#
# Indices 1 2 3 4 5 6 
#
# 1 117.3737 29.2698 35.6403 0.0000 0.0000 0.0000
# 2 29.2698 49.8439 37.8074 0.0000 0.0000 0.0000
# 3 35.6403 37.8074 83.2035 0.0000 0.0000 0.0000
# 4 0.0000 0.0000 0.0000 35.8351 0.0000 0.0000
# 5 0.0000 0.0000 0.0000 0.0000 33.5732 0.0000
# 6 0.0000 0.0000 0.0000 0.0000 0.0000 25.9421
#
#
#
# Elastic Compliance Matrix: (Units=1/GPa)
#
#
# Indices 1 2 3 4 5 6 
#
# 1 0.010323 -0.004132 -0.002544 0.000000 0.000000 0.000000
# 2 -0.004132 0.032268 -0.012893 0.000000 0.000000 0.000000
# 3 -0.002544 -0.012893 0.018967 0.000000 0.000000 0.000000
# 4 0.000000 0.000000 0.000000 0.027906 0.000000 0.000000
# 5 0.000000 0.000000 0.000000 0.000000 0.029786 0.000000
# 6 0.000000 0.000000 0.000000 0.000000 0.000000 0.038547
#
#
# Mechanical properties :
#
#
# Convention : Reuss Voigt Hill
#
# Bulk Modulus (GPa) = 44.60248 50.65067 47.62658
# Shear Modulus (GPa) = 24.46088 28.91698 26.68893
#
# Velocity S-wave (km/s) = 3.69275 4.01504 3.85726
# Velocity P-wave (km/s) = 6.56099 7.05199 6.81092
#
# Compressibility (1/GPa) = 0.02242028
#
# Stress axis : x y z
#
# Youngs Moduli (GPa) = 96.87347 30.99007 52.72336
#
# Poissons Ratio (x) = 0.12805 0.13414
# Poissons Ratio (y) = 0.40028 0.67975
# Poissons Ratio (z) = 0.24646 0.39955
#
# Static dielectric constant tensor:
#      x y z
#    x 3.809020 0.000000 0.000000 
#    y 0.000000 3.279340 0.000000 
#    z 0.000000 0.000000 3.147980 
# 
# 
# High freq. dielectric constant tensor:
#      x y z
#    x 1.715500 0.000000 0.000000 
#    y 0.000000 1.694330 0.000000 
#    z 0.000000 0.000000 1.682110 
# 
# From -- ./inp_files/6394.got.cif
#   From: 2010.03.12/outbox.cif.g09.slc.cpg/sg59_4_cif.got.tgz:6394.got - 2010.04.16 16:29:54.
