data_PCOD8243308
_publ_section_title
;
Structure prediction by ZEFSAII (Michael W. Deem and Ramdas Pophale) SiO2 
 PCOD8243308
Probable space group: P M M N
;
_chemical_formula_sum "Si O2"
_cell_formula_units_Z 64
_cell_length_a 8.766375
_cell_length_b 25.685572
_cell_length_c 15.220416
_cell_angle_alpha 90.000000
_cell_angle_beta 90.000000
_cell_angle_gamma 90.000000
_cell_volume 3427.171272
_symmetry_space_group_name_H-M "P M M N"
_symmetry_group_IT_number 59
_space_group.IT_coordinate_system_code '2'
_symmetry_cell_setting 'orthorhombic'
loop_
_space_group_symop_operation_xyz
x,y,z
1/2-x,1/2-y,z
1/2+x,-y,-z
-x,1/2+y,-z
-x,-y,-z
1/2+x,1/2+y,-z
1/2-x,y,z
x,1/2-y,z
loop_
_atom_site_type_symbol
_atom_site_label
_atom_site_fract_x
_atom_site_fract_y
_atom_site_fract_z
Si Si1 0.930182 0.309575 0.299388
Si Si2 0.070758 0.441581 0.990998
Si Si3 0.571076 0.690079 0.518134
Si Si4 0.586156 0.976394 0.753011
Si Si5 0.925452 0.108438 0.155437
Si Si6 0.078690 0.975708 0.418702
Si Si7 0.577297 0.406661 0.817251
Si Si8 0.928688 0.874901 0.351970
O O1 0.750000 0.314218 0.307020
O O2 0.983433 0.250000 0.283732
O O3 0.986136 0.343159 0.214740
O O4 0.997894 0.331755 0.391167
O O5 0.250000 0.450435 0.989595
O O6 0.020309 0.408887 0.905966
O O7 0.000000 0.500000 0.000000
O O8 0.024885 0.402102 0.069003
O O9 0.750000 0.680472 0.526097
O O10 0.526408 0.750000 0.508797
O O11 0.508117 0.663149 0.429019
O O12 0.750000 0.954312 0.788783
O O13 0.443225 0.943595 0.786502
O O14 0.587213 0.975865 0.648142
O O15 0.571552 0.035839 0.779777
O O16 0.750000 0.116138 0.128676
O O17 0.250000 0.953612 0.436498
O O18 0.964278 0.932304 0.384336
O O19 0.000000 0.000000 0.500000
O O20 0.750000 0.388943 0.838169
O O21 0.508919 0.366829 0.743721
O O22 0.750000 0.866437 0.337765
#
# Coordination Sequence:
#
# PCOD8243308 Si02
#       8
#     8   8   8   8   8   8   8   8
#     4   9  20  38  57  80 110 142 180 227 276 324
#     4  12  23  36  56  81 111 146 183 225 269 322
#     4   9  19  36  58  83 110 143 183 227 275 326
#     4   9  19  33  48  69 101 139 176 218 262 313
#     4  11  22  34  54  81 107 142 182 225 274 326
#     4  10  21  34  47  67 101 142 182 219 262 318
#     4  10  20  36  55  77 109 144 178 221 266 316
#     4  10  20  34  53  78 107 141 178 220 271 324
#
# _framework density 18.674292000000001
#
# number of rings (size 3 to 8) (size 9 to 14) (size 15 to 20)
#    0.000    2.000    1.250    3.375    1.750    4.500 
#    0.000    0.000    0.000    0.750    0.000    0.000 
#    0.000    0.000    0.000    0.000    0.000    0.000 
#
# Total GULP energy -793000.714145 kJ/mol
# GULP energy per Si atom -12390.636159 kJ/mol
# Density = 1.863179 g / cm^3
# Si number density = 18.674292 Si / 1000 Ang^3
#
#
#
# Elastic Constant Matrix: (Units=GPa)
#
#
# Indices 1 2 3 4 5 6 
#
# 1 85.1514 21.0557 54.3586 0.0000 0.0000 0.0000
# 2 21.0557 39.3813 49.0050 0.0000 0.0000 0.0000
# 3 54.3586 49.0050 163.7531 0.0000 0.0000 0.0000
# 4 0.0000 0.0000 0.0000 27.9388 0.0000 0.0000
# 5 0.0000 0.0000 0.0000 0.0000 28.9389 0.0000
# 6 0.0000 0.0000 0.0000 0.0000 0.0000 19.2140
#
#
#
# Elastic Compliance Matrix: (Units=1/GPa)
#
#
# Indices 1 2 3 4 5 6 
#
# 1 0.015110 -0.002927 -0.004140 0.000000 0.000000 0.000000
# 2 -0.002927 0.041027 -0.011306 0.000000 0.000000 0.000000
# 3 -0.004140 -0.011306 0.010864 0.000000 0.000000 0.000000
# 4 0.000000 0.000000 0.000000 0.035793 0.000000 0.000000
# 5 0.000000 0.000000 0.000000 0.000000 0.034556 0.000000
# 6 0.000000 0.000000 0.000000 0.000000 0.000000 0.052045
#
#
# Mechanical properties :
#
#
# Convention : Reuss Voigt Hill
#
# Bulk Modulus (GPa) = 33.05222 59.68049 46.36636
# Shear Modulus (GPa) = 21.16608 26.14276 23.65442
#
# Velocity S-wave (km/s) = 3.37030 3.74563 3.56291
# Velocity P-wave (km/s) = 5.73437 7.12280 6.46596
#
# Compressibility (1/GPa) = 0.03025515
#
# Stress axis : x y z
#
# Youngs Moduli (GPa) = 66.17915 24.37427 92.04310
#
# Poissons Ratio (x) = 0.07135 0.38105
# Poissons Ratio (y) = 0.19373 1.04064
# Poissons Ratio (z) = 0.27398 0.27558
#
# Static dielectric constant tensor:
#      x y z
#    x 3.514540 0.000000 0.000000 
#    y 0.000000 3.277370 0.000000 
#    z 0.000000 0.000000 3.949660 
# 
# 
# High freq. dielectric constant tensor:
#      x y z
#    x 1.729500 0.000000 0.000000 
#    y 0.000000 1.683340 0.000000 
#    z 0.000000 0.000000 1.741150 
# 
# From -- ./inp_files/21612.got.cif
#   From: 2010.03.12/outbox.cif.g09.slc.cpg/sg59_11_cif.got.tgz:21612.got - 2010.04.16 16:29:54.
