data_PCOD8243543
_publ_section_title
;
Structure prediction by ZEFSAII (Michael W. Deem and Ramdas Pophale) SiO2 
 PCOD8243543
Probable space group: P M M N
;
_chemical_formula_sum "Si O2"
_cell_formula_units_Z 48
_cell_length_a 8.844566
_cell_length_b 10.327243
_cell_length_c 27.927029
_cell_angle_alpha 90.000000
_cell_angle_beta 90.000000
_cell_angle_gamma 90.000000
_cell_volume 2550.854335
_symmetry_space_group_name_H-M "P M M N"
_symmetry_group_IT_number 59
_space_group.IT_coordinate_system_code '2'
_symmetry_cell_setting 'orthorhombic'
loop_
_space_group_symop_operation_xyz
x,y,z
1/2-x,1/2-y,z
1/2+x,-y,-z
-x,1/2+y,-z
-x,-y,-z
1/2+x,1/2+y,-z
1/2-x,y,z
x,1/2-y,z
loop_
_atom_site_type_symbol
_atom_site_label
_atom_site_fract_x
_atom_site_fract_y
_atom_site_fract_z
Si Si1 0.071383 0.993853 0.232439
Si Si2 0.929167 0.750000 0.283876
Si Si3 0.925932 0.399280 0.143251
Si Si4 0.570016 0.750000 0.607090
Si Si5 0.428579 0.999180 0.448190
Si Si6 0.070521 0.250000 0.285936
Si Si7 0.571584 0.250000 0.611944
Si Si8 0.071895 0.604699 0.965564
O O1 0.250000 0.973799 0.237000
O O2 0.988403 0.874399 0.256181
O O3 0.012281 0.122207 0.259284
O O4 0.025032 0.007285 0.176883
O O5 0.750000 0.750000 0.283887
O O6 0.986969 0.750000 0.337965
O O7 0.750000 0.427603 0.152089
O O8 0.963883 0.250000 0.154651
O O9 0.971775 0.431288 0.088796
O O10 0.750000 0.750000 0.609016
O O11 0.509377 0.623762 0.579932
O O12 0.503263 0.750000 0.660566
O O13 0.250000 0.003090 0.454172
O O14 0.479706 0.874053 0.418468
O O15 0.500000 0.000000 0.500000
O O16 0.250000 0.250000 0.286906
O O17 0.750000 0.250000 0.622254
O O18 0.250000 0.601019 0.971987
O O19 0.012881 0.750000 0.977743
O O20 0.000000 0.500000 0.000000
#
# Coordination Sequence:
#
# PCOD8243543 Si02
#       8
#     8   4   8   4   8   4   4   8
#     4  11  21  37  60  87 114 146 190 238 287 345
#     4  12  26  41  57  82 116 156 193 235 294 352
#     4   9  18  35  58  83 116 154 192 237 291 346
#     4   9  17  31  50  75 103 134 168 211 266 319
#     4  10  20  34  55  79 107 141 178 219 270 324
#     4   9  18  33  58  86 110 136 179 233 280 330
#     4  10  21  39  59  79 107 148 188 229 280 337
#     4   9  19  36  57  83 115 153 194 238 288 340
#
# _framework density 18.817224
#
# number of rings (size 3 to 8) (size 9 to 14) (size 15 to 20)
#    0.000    2.167    0.833    3.750    0.000    4.333 
#    1.500    1.667    0.000    2.000    0.000    0.000 
#    0.000    0.000    0.000    0.000    0.000    0.000 
#
# Total GULP energy -595260.178978 kJ/mol
# GULP energy per Si atom -12401.253729 kJ/mol
# Density = 1.877440 g / cm^3
# Si number density = 18.817224 Si / 1000 Ang^3
#
#
#
# Elastic Constant Matrix: (Units=GPa)
#
#
# Indices 1 2 3 4 5 6 
#
# 1 57.2991 48.3342 53.1379 0.0000 0.0000 0.0000
# 2 48.3342 171.3100 100.0439 0.0000 0.0000 0.0000
# 3 53.1379 100.0439 171.9287 0.0000 0.0000 0.0000
# 4 0.0000 0.0000 0.0000 40.2922 0.0000 0.0000
# 5 0.0000 0.0000 0.0000 0.0000 37.2683 0.0000
# 6 0.0000 0.0000 0.0000 0.0000 0.0000 15.2299
#
#
#
# Elastic Compliance Matrix: (Units=1/GPa)
#
#
# Indices 1 2 3 4 5 6 
#
# 1 0.026182 -0.004031 -0.005746 0.000000 0.000000 0.000000
# 2 -0.004031 0.009463 -0.004260 0.000000 0.000000 0.000000
# 3 -0.005746 -0.004260 0.010071 0.000000 0.000000 0.000000
# 4 0.000000 0.000000 0.000000 0.024819 0.000000 0.000000
# 5 0.000000 0.000000 0.000000 0.000000 0.026832 0.000000
# 6 0.000000 0.000000 0.000000 0.000000 0.000000 0.065660
#
#
# Mechanical properties :
#
#
# Convention : Reuss Voigt Hill
#
# Bulk Modulus (GPa) = 56.68865 89.28553 72.98709
# Shear Modulus (GPa) = 25.38286 31.82619 28.60452
#
# Velocity S-wave (km/s) = 3.67674 4.11704 3.90311
# Velocity P-wave (km/s) = 6.94377 8.37567 7.69311
#
# Compressibility (1/GPa) = 0.01764021
#
# Stress axis : x y z
#
# Youngs Moduli (GPa) = 38.19459 105.67684 99.29089
#
# Poissons Ratio (x) = 0.42601 0.57054
# Poissons Ratio (y) = 0.15397 0.42302
# Poissons Ratio (z) = 0.21947 0.45022
#
# Static dielectric constant tensor:
#      x y z
#    x 2.837420 0.000000 0.000000 
#    y 0.000000 3.186970 0.000000 
#    z 0.000000 0.000000 3.714920 
# 
# 
# High freq. dielectric constant tensor:
#      x y z
#    x 1.709190 0.000000 0.000000 
#    y 0.000000 1.737440 0.000000 
#    z 0.000000 0.000000 1.745520 
# 
# From -- ./inp_files/33129.got.cif
#   From: 2010.03.12/outbox.cif.g09.slc.cpg/sg59_17_cif.got.tgz:33129.got - 2010.04.16 16:29:54.
