data_PCOD8243954
_publ_section_title
;
Structure prediction by ZEFSAII (Michael W. Deem and Ramdas Pophale) SiO2 
 PCOD8243954
Probable space group: P M M N
;
_chemical_formula_sum "Si O2"
_cell_formula_units_Z 48
_cell_length_a 9.033562
_cell_length_b 17.862596
_cell_length_c 15.860071
_cell_angle_alpha 90.000000
_cell_angle_beta 90.000000
_cell_angle_gamma 90.000000
_cell_volume 2559.226550
_symmetry_space_group_name_H-M "P M M N"
_symmetry_group_IT_number 59
_space_group.IT_coordinate_system_code '2'
_symmetry_cell_setting 'orthorhombic'
loop_
_space_group_symop_operation_xyz
x,y,z
1/2-x,1/2-y,z
1/2+x,-y,-z
-x,1/2+y,-z
-x,-y,-z
1/2+x,1/2+y,-z
1/2-x,y,z
x,1/2-y,z
loop_
_atom_site_type_symbol
_atom_site_label
_atom_site_fract_x
_atom_site_fract_y
_atom_site_fract_z
Si Si1 0.922847 0.034873 0.129243
Si Si2 0.426470 0.250000 0.700332
Si Si3 0.923383 0.894019 0.015850
Si Si4 0.923504 0.117329 0.601674
Si Si5 0.073946 0.250000 0.890136
Si Si6 0.579074 0.836957 0.564899
Si Si7 0.919798 0.964715 0.694019
O O1 0.750000 0.049582 0.132610
O O2 0.998613 0.100559 0.075127
O O3 0.980213 0.031235 0.223807
O O4 0.965044 0.959258 0.080729
O O5 0.250000 0.250000 0.693181
O O6 0.487009 0.324579 0.658061
O O7 0.486268 0.250000 0.795399
O O8 0.750000 0.889875 0.998710
O O9 0.987758 0.820930 0.060298
O O10 0.750000 0.134864 0.607808
O O11 0.975317 0.127403 0.506007
O O12 0.960698 0.033223 0.631817
O O13 0.250000 0.250000 0.887231
O O14 0.750000 0.844060 0.536371
O O15 0.538017 0.750000 0.582072
O O16 0.549981 0.885339 0.648798
O O17 0.750000 0.971077 0.722458
#
# Coordination Sequence:
#
# PCOD8243954 Si02
#       7
#     8   4   8   8   4   8   8
#     4  10  20  35  56  82 110 145 185 227 275 329
#     4  11  21  35  57  84 117 150 185 231 278 335
#     4   9  18  35  57  79 108 143 182 227 277 329
#     4  11  22  36  56  84 116 147 184 231 286 333
#     4   9  18  33  55  82 105 138 185 227 268 325
#     4  10  21  39  60  81 109 149 192 231 276 330
#     4  10  22  38  57  83 113 148 190 233 275 330
#
# _framework density 18.755666000000002
#
# number of rings (size 3 to 8) (size 9 to 14) (size 15 to 20)
#    0.000    2.000    0.833    2.750    0.000    4.000 
#    1.500    2.083    0.000    0.000    0.000    0.000 
#    0.000    0.000    0.000    0.000    0.000    0.000 
#
# Total GULP energy -595264.863653 kJ/mol
# GULP energy per Si atom -12401.351326 kJ/mol
# Density = 1.871298 g / cm^3
# Si number density = 18.755666 Si / 1000 Ang^3
#
#
#
# Elastic Constant Matrix: (Units=GPa)
#
#
# Indices 1 2 3 4 5 6 
#
# 1 71.1427 40.7296 56.0256 0.0000 0.0000 0.0000
# 2 40.7296 100.0137 56.9579 0.0000 0.0000 0.0000
# 3 56.0256 56.9579 110.0157 0.0000 0.0000 0.0000
# 4 0.0000 0.0000 0.0000 7.5766 0.0000 0.0000
# 5 0.0000 0.0000 0.0000 0.0000 35.2706 0.0000
# 6 0.0000 0.0000 0.0000 0.0000 0.0000 1.7261
#
#
#
# Elastic Compliance Matrix: (Units=1/GPa)
#
#
# Indices 1 2 3 4 5 6 
#
# 1 0.024593 -0.004088 -0.010407 0.000000 0.000000 0.000000
# 2 -0.004088 0.014859 -0.005611 0.000000 0.000000 0.000000
# 3 -0.010407 -0.005611 0.017294 0.000000 0.000000 0.000000
# 4 0.000000 0.000000 0.000000 0.131985 0.000000 0.000000
# 5 0.000000 0.000000 0.000000 0.000000 0.028352 0.000000
# 6 0.000000 0.000000 0.000000 0.000000 0.000000 0.579349
#
#
# Mechanical properties :
#
#
# Convention : Reuss Voigt Hill
#
# Bulk Modulus (GPa) = 60.48419 65.39981 62.94200
# Shear Modulus (GPa) = 5.93715 17.41193 11.67454
#
# Velocity S-wave (km/s) = 1.78112 3.05020 2.49761
# Velocity P-wave (km/s) = 6.04552 6.88113 6.47682
#
# Compressibility (1/GPa) = 0.01653325
#
# Stress axis : x y z
#
# Youngs Moduli (GPa) = 40.66272 67.29959 57.82197
#
# Poissons Ratio (x) = 0.27513 0.60177
# Poissons Ratio (y) = 0.16623 0.32444
# Poissons Ratio (z) = 0.42319 0.37762
#
# Static dielectric constant tensor:
#      x y z
#    x 3.386940 0.000000 0.000000 
#    y 0.000000 3.660930 0.000000 
#    z 0.000000 0.000000 3.487760 
# 
# 
# High freq. dielectric constant tensor:
#      x y z
#    x 1.722800 0.000000 0.000000 
#    y 0.000000 1.733690 0.000000 
#    z 0.000000 0.000000 1.732660 
# 
# From -- ./inp_files/20526.got.cif
#   From: 2010.03.12/outbox.cif.g09.slc.cpg/sg59_11_cif.got.tgz:20526.got - 2010.04.16 16:29:54.
