data_PCOD8243564
_publ_section_title
;
Structure prediction by ZEFSAII (Michael W. Deem and Ramdas Pophale) SiO2 
 PCOD8243564
Probable space group: P M M N
;
_chemical_formula_sum "Si O2"
_cell_formula_units_Z 48
_cell_length_a 8.850540
_cell_length_b 30.546428
_cell_length_c 9.551822
_cell_angle_alpha 90.000000
_cell_angle_beta 90.000000
_cell_angle_gamma 90.000000
_cell_volume 2582.357838
_symmetry_space_group_name_H-M "P M M N"
_symmetry_group_IT_number 59
_space_group.IT_coordinate_system_code '2'
_symmetry_cell_setting 'orthorhombic'
loop_
_space_group_symop_operation_xyz
x,y,z
1/2-x,1/2-y,z
1/2+x,-y,-z
-x,1/2+y,-z
-x,-y,-z
1/2+x,1/2+y,-z
1/2-x,y,z
x,1/2-y,z
loop_
_atom_site_type_symbol
_atom_site_label
_atom_site_fract_x
_atom_site_fract_y
_atom_site_fract_z
Si Si1 0.575161 0.564721 0.288650
Si Si2 0.923209 0.374529 0.502987
Si Si3 0.428301 0.486861 0.146311
Si Si4 0.925945 0.200352 0.710240
Si Si5 0.425142 0.894819 0.808975
Si Si6 0.074629 0.358781 0.928115
O O1 0.750000 0.552196 0.298435
O O2 0.524813 0.586669 0.433847
O O3 0.480021 0.520720 0.265668
O O4 0.542265 0.597504 0.160606
O O5 0.750000 0.386405 0.536178
O O6 0.967289 0.328221 0.573369
O O7 0.952215 0.370388 0.338089
O O8 0.250000 0.487583 0.129590
O O9 0.479245 0.438975 0.191377
O O10 0.500000 0.500000 0.000000
O O11 0.750000 0.196634 0.747119
O O12 0.974105 0.250000 0.677759
O O13 0.018555 0.183563 0.844062
O O14 0.250000 0.906109 0.833606
O O15 0.482491 0.861818 0.927997
O O16 0.250000 0.353373 0.962427
#
# Coordination Sequence:
#
# PCOD8243564 Si02
#       6
#     8   8   8   8   8   8
#     4  10  20  35  55  79 107 146 190 231 274 323
#     4   9  20  37  56  81 112 147 185 227 279 332
#     4  12  23  35  54  79 109 147 191 238 280 325
#     4   9  18  36  62  86 108 138 179 226 274 330
#     4  11  22  36  55  80 113 150 187 231 279 330
#     4  10  20  34  55  81 111 143 180 226 273 327
#
# _framework density 18.587662999999999
#
# number of rings (size 3 to 8) (size 9 to 14) (size 15 to 20)
#    0.000    1.833    1.667    3.000    0.000    3.667 
#    0.000    0.833    0.000    3.000    0.000    0.000 
#    0.000    0.000    0.000    0.000    0.000    0.000 
#
# Total GULP energy -595425.535659 kJ/mol
# GULP energy per Si atom -12404.698660 kJ/mol
# Density = 1.854536 g / cm^3
# Si number density = 18.587663 Si / 1000 Ang^3
#
#
#
# Elastic Constant Matrix: (Units=GPa)
#
#
# Indices 1 2 3 4 5 6 
#
# 1 108.3688 41.6931 51.6626 0.0000 0.0000 0.0000
# 2 41.6931 105.2180 45.9511 0.0000 0.0000 0.0000
# 3 51.6626 45.9511 119.7683 0.0000 0.0000 0.0000
# 4 0.0000 0.0000 0.0000 20.3703 0.0000 0.0000
# 5 0.0000 0.0000 0.0000 0.0000 26.5758 0.0000
# 6 0.0000 0.0000 0.0000 0.0000 0.0000 27.6157
#
#
#
# Elastic Compliance Matrix: (Units=1/GPa)
#
#
# Indices 1 2 3 4 5 6 
#
# 1 0.012404 -0.003097 -0.004162 0.000000 0.000000 0.000000
# 2 -0.003097 0.012191 -0.003341 0.000000 0.000000 0.000000
# 3 -0.004162 -0.003341 0.011427 0.000000 0.000000 0.000000
# 4 0.000000 0.000000 0.000000 0.049091 0.000000 0.000000
# 5 0.000000 0.000000 0.000000 0.000000 0.037628 0.000000
# 6 0.000000 0.000000 0.000000 0.000000 0.000000 0.036211
#
#
# Mechanical properties :
#
#
# Convention : Reuss Voigt Hill
#
# Bulk Modulus (GPa) = 67.47669 67.99654 67.73661
# Shear Modulus (GPa) = 27.01359 27.84890 27.43125
#
# Velocity S-wave (km/s) = 3.81636 3.87492 3.84575
# Velocity P-wave (km/s) = 7.46995 7.52867 7.49937
#
# Compressibility (1/GPa) = 0.01481993
#
# Stress axis : x y z
#
# Youngs Moduli (GPa) = 80.62213 82.03096 87.51515
#
# Poissons Ratio (x) = 0.25408 0.36424
# Poissons Ratio (y) = 0.24971 0.29239
# Poissons Ratio (z) = 0.33555 0.27407
#
# Static dielectric constant tensor:
#      x y z
#    x 3.540320 0.000000 0.000000 
#    y 0.000000 3.392350 0.000000 
#    z 0.000000 0.000000 3.431960 
# 
# 
# High freq. dielectric constant tensor:
#      x y z
#    x 1.730740 0.000000 0.000000 
#    y 0.000000 1.706500 0.000000 
#    z 0.000000 0.000000 1.718180 
# 
# From -- ./inp_files/6239.got.cif
#   From: 2010.03.12/outbox.cif.g09.slc.cpg/sg59_4_cif.got.tgz:6239.got - 2010.04.16 16:29:54.
