data_PCOD8243437
_publ_section_title
;
Structure prediction by ZEFSAII (Michael W. Deem and Ramdas Pophale) SiO2 
 PCOD8243437
Probable space group: P M M N
;
_chemical_formula_sum "Si O2"
_cell_formula_units_Z 48
_cell_length_a 9.174010
_cell_length_b 9.012391
_cell_length_c 30.963232
_cell_angle_alpha 90.000000
_cell_angle_beta 90.000000
_cell_angle_gamma 90.000000
_cell_volume 2560.032750
_symmetry_space_group_name_H-M "P M M N"
_symmetry_group_IT_number 59
_space_group.IT_coordinate_system_code '2'
_symmetry_cell_setting 'orthorhombic'
loop_
_space_group_symop_operation_xyz
x,y,z
1/2-x,1/2-y,z
1/2+x,-y,-z
-x,1/2+y,-z
-x,-y,-z
1/2+x,1/2+y,-z
1/2-x,y,z
x,1/2-y,z
loop_
_atom_site_type_symbol
_atom_site_label
_atom_site_fract_x
_atom_site_fract_y
_atom_site_fract_z
Si Si1 0.418611 0.423144 0.375404
Si Si2 0.418935 0.423355 0.873150
Si Si3 0.423086 0.419343 0.204431
Si Si4 0.917184 0.075065 0.460982
Si Si5 0.076648 0.917198 0.289650
Si Si6 0.078926 0.579056 0.960956
O O1 0.250000 0.460775 0.384439
O O2 0.440638 0.250000 0.366250
O O3 0.510556 0.478038 0.416354
O O4 0.480232 0.509956 0.333903
O O5 0.250000 0.457011 0.864040
O O6 0.449793 0.250000 0.878299
O O7 0.512269 0.485765 0.834147
O O8 0.472044 0.503216 0.916640
O O9 0.250000 0.429433 0.201879
O O10 0.477154 0.250000 0.201388
O O11 0.481890 0.488092 0.249230
O O12 0.750000 0.023586 0.461193
O O13 0.932901 0.250000 0.466274
O O14 0.000000 0.000000 0.500000
O O15 0.250000 0.918981 0.289649
O O16 0.016114 0.750000 0.286084
O O17 0.250000 0.559458 0.967823
O O18 0.031917 0.750000 0.959357
O O19 0.000000 0.500000 0.000000
#
# Coordination Sequence:
#
# PCOD8243437 Si02
#       6
#     8   8   8   8   8   8
#     4   9  17  31  51  73  99 133 171 211 258 311
#     4  10  21  37  56  78 106 140 176 216 264 315
#     4  10  20  34  54  80 108 140 179 219 258 305
#     4  10  21  36  54  77 105 137 174 215 259 309
#     4   9  17  30  50  76 104 134 171 216 262 306
#     4  10  21  37  57  80 106 138 176 217 263 315
#
# _framework density 18.749759999999998
#
# number of rings (size 3 to 8) (size 9 to 14) (size 15 to 20)
#    0.000    2.333    0.000    2.500    0.000    7.333 
#    0.000    2.500    0.000    3.000    0.000    0.000 
#    0.000    0.000    0.000    0.000    0.000    0.000 
#
# Total GULP energy -595349.800783 kJ/mol
# GULP energy per Si atom -12403.120850 kJ/mol
# Density = 1.870708 g / cm^3
# Si number density = 18.749760 Si / 1000 Ang^3
#
#
#
# Elastic Constant Matrix: (Units=GPa)
#
#
# Indices 1 2 3 4 5 6 
#
# 1 53.4048 35.6384 55.2513 0.0000 0.0000 0.0000
# 2 35.6384 107.9681 74.3646 0.0000 0.0000 0.0000
# 3 55.2513 74.3646 180.4717 0.0000 0.0000 0.0000
# 4 0.0000 0.0000 0.0000 44.1903 0.0000 0.0000
# 5 0.0000 0.0000 0.0000 0.0000 32.1649 0.0000
# 6 0.0000 0.0000 0.0000 0.0000 0.0000 25.0360
#
#
#
# Elastic Compliance Matrix: (Units=1/GPa)
#
#
# Indices 1 2 3 4 5 6 
#
# 1 0.029115 -0.004846 -0.006916 0.000000 0.000000 0.000000
# 2 -0.004846 0.013739 -0.004178 0.000000 0.000000 0.000000
# 3 -0.006916 -0.004178 0.009380 0.000000 0.000000 0.000000
# 4 0.000000 0.000000 0.000000 0.022629 0.000000 0.000000
# 5 0.000000 0.000000 0.000000 0.000000 0.031090 0.000000
# 6 0.000000 0.000000 0.000000 0.000000 0.000000 0.039942
#
#
# Mechanical properties :
#
#
# Convention : Reuss Voigt Hill
#
# Bulk Modulus (GPa) = 49.13340 74.70592 61.91966
# Shear Modulus (GPa) = 27.09143 32.05094 29.57119
#
# Velocity S-wave (km/s) = 3.80530 4.13898 3.97564
# Velocity P-wave (km/s) = 6.75047 7.92286 7.36004
#
# Compressibility (1/GPa) = 0.02035275
#
# Stress axis : x y z
#
# Youngs Moduli (GPa) = 34.34702 72.78519 106.61132
#
# Poissons Ratio (x) = 0.35275 0.73737
# Poissons Ratio (y) = 0.16646 0.44537
# Poissons Ratio (z) = 0.23756 0.30406
#
# Static dielectric constant tensor:
#      x y z
#    x 3.228110 0.000000 0.000000 
#    y 0.000000 3.361860 0.000000 
#    z 0.000000 0.000000 3.497870 
# 
# 
# High freq. dielectric constant tensor:
#      x y z
#    x 1.702580 0.000000 0.000000 
#    y 0.000000 1.737940 0.000000 
#    z 0.000000 0.000000 1.745100 
# 
# From -- ./inp_files/32797.got.cif
#   From: 2010.03.12/outbox.cif.g09.slc.cpg/sg59_17_cif.got.tgz:32797.got - 2010.04.16 16:29:54.
