data_PCOD8243126
_publ_section_title
;
Structure prediction by ZEFSAII (Michael W. Deem and Ramdas Pophale) SiO2 
 PCOD8243126
Probable space group: P M M N
;
_chemical_formula_sum "Si O2"
_cell_formula_units_Z 64
_cell_length_a 9.156778
_cell_length_b 27.653540
_cell_length_c 13.953723
_cell_angle_alpha 90.000000
_cell_angle_beta 90.000000
_cell_angle_gamma 90.000000
_cell_volume 3533.324435
_symmetry_space_group_name_H-M "P M M N"
_symmetry_group_IT_number 59
_space_group.IT_coordinate_system_code '2'
_symmetry_cell_setting 'orthorhombic'
loop_
_space_group_symop_operation_xyz
x,y,z
1/2-x,1/2-y,z
1/2+x,-y,-z
-x,1/2+y,-z
-x,-y,-z
1/2+x,1/2+y,-z
1/2-x,y,z
x,1/2-y,z
loop_
_atom_site_type_symbol
_atom_site_label
_atom_site_fract_x
_atom_site_fract_y
_atom_site_fract_z
Si Si1 0.421573 0.029768 0.719732
Si Si2 0.910367 0.692786 0.144096
Si Si3 0.919470 0.072481 0.370355
Si Si4 0.079978 0.900196 0.419484
Si Si5 0.575539 0.803864 0.935044
Si Si6 0.077701 0.491008 0.100408
Si Si7 0.081859 0.696374 0.326613
Si Si8 0.579856 0.610533 0.804347
O O1 0.250000 0.036372 0.739578
O O2 0.484020 0.075049 0.662328
O O3 0.453841 0.982808 0.655092
O O4 0.505373 0.026204 0.820828
O O5 0.750000 0.669045 0.156184
O O6 0.896290 0.750000 0.148188
O O7 0.009420 0.674413 0.230860
O O8 0.979356 0.679108 0.040565
O O9 0.750000 0.084819 0.362661
O O10 0.977586 0.082864 0.477088
O O11 0.001214 0.107904 0.297593
O O12 0.250000 0.914086 0.405117
O O13 0.055880 0.842114 0.411760
O O14 0.750000 0.803473 0.938294
O O15 0.517354 0.750000 0.909155
O O16 0.516918 0.842080 0.857657
O O17 0.250000 0.501910 0.092933
O O18 0.046523 0.435837 0.130126
O O19 0.000000 0.500000 0.000000
O O20 0.250000 0.701085 0.301385
O O21 0.020594 0.750000 0.355356
O O22 0.750000 0.615551 0.783566
#
# Coordination Sequence:
#
# PCOD8243126 Si02
#       8
#     8   8   8   8   8   8   8   8
#     4  10  20  34  53  76  99 126 164 208 251 294
#     4   8  14  26  45  67  92 124 159 195 236 280
#     4   9  19  35  52  71  98 129 160 200 251 299
#     4  10  20  34  52  73  97 127 164 205 248 293
#     4   8  14  27  48  72  96 124 160 199 238 281
#     4  10  20  34  51  74 106 138 166 198 241 296
#     4   9  18  32  48  68  97 130 160 192 237 293
#     4   9  18  32  51  73  97 128 163 199 241 289
#
# _framework density 18.113251999999999
#
# number of rings (size 3 to 8) (size 9 to 14) (size 15 to 20)
#    0.000    2.875    0.000    1.875    0.000    3.000 
#    0.000    2.500    0.000    1.875    0.000    0.000 
#    0.000    0.000    0.000    0.000    0.000    0.000 
#
# Total GULP energy -793387.836080 kJ/mol
# GULP energy per Si atom -12396.684939 kJ/mol
# Density = 1.807203 g / cm^3
# Si number density = 18.113252 Si / 1000 Ang^3
#
#
#
# Elastic Constant Matrix: (Units=GPa)
#
#
# Indices 1 2 3 4 5 6 
#
# 1 58.8069 32.0156 49.3309 0.0000 0.0000 0.0000
# 2 32.0156 76.1695 55.6436 0.0000 0.0000 0.0000
# 3 49.3309 55.6436 133.6173 0.0000 0.0000 0.0000
# 4 0.0000 0.0000 0.0000 27.4659 0.0000 0.0000
# 5 0.0000 0.0000 0.0000 0.0000 32.5491 0.0000
# 6 0.0000 0.0000 0.0000 0.0000 0.0000 17.8493
#
#
#
# Elastic Compliance Matrix: (Units=1/GPa)
#
#
# Indices 1 2 3 4 5 6 
#
# 1 0.026239 -0.005680 -0.007322 0.000000 0.000000 0.000000
# 2 -0.005680 0.020098 -0.006273 0.000000 0.000000 0.000000
# 3 -0.007322 -0.006273 0.012800 0.000000 0.000000 0.000000
# 4 0.000000 0.000000 0.000000 0.036409 0.000000 0.000000
# 5 0.000000 0.000000 0.000000 0.000000 0.030723 0.000000
# 6 0.000000 0.000000 0.000000 0.000000 0.000000 0.056025
#
#
# Mechanical properties :
#
#
# Convention : Reuss Voigt Hill
#
# Bulk Modulus (GPa) = 48.57277 60.28600 54.42938
# Shear Modulus (GPa) = 21.95817 24.34643 23.15230
#
# Velocity S-wave (km/s) = 3.48555 3.67020 3.57907
# Velocity P-wave (km/s) = 6.56301 7.16349 6.86981
#
# Compressibility (1/GPa) = 0.02058767
#
# Stress axis : x y z
#
# Youngs Moduli (GPa) = 38.11080 49.75510 78.12767
#
# Poissons Ratio (x) = 0.28261 0.57205
# Poissons Ratio (y) = 0.21647 0.49008
# Poissons Ratio (z) = 0.27905 0.31210
#
# Static dielectric constant tensor:
#      x y z
#    x 3.289910 0.000000 0.000000 
#    y 0.000000 3.396940 0.000000 
#    z 0.000000 0.000000 3.467340 
# 
# 
# High freq. dielectric constant tensor:
#      x y z
#    x 1.686500 0.000000 0.000000 
#    y 0.000000 1.693640 0.000000 
#    z 0.000000 0.000000 1.699680 
# 
# From -- ./inp_files/15079.got.cif
#   From: 2010.03.12/outbox.cif.g09.slc.cpg/sg59_8_cif.got.tgz:15079.got - 2010.04.16 16:29:54.
