data_PCOD8243926
_publ_section_title
;
Structure prediction by ZEFSAII (Michael W. Deem and Ramdas Pophale) SiO2 
 PCOD8243926
Probable space group: P M M N
;
_chemical_formula_sum "Si O2"
_cell_formula_units_Z 64
_cell_length_a 9.389009
_cell_length_b 13.984730
_cell_length_c 26.541729
_cell_angle_alpha 90.000000
_cell_angle_beta 90.000000
_cell_angle_gamma 90.000000
_cell_volume 3485.002162
_symmetry_space_group_name_H-M "P M M N"
_symmetry_group_IT_number 59
_space_group.IT_coordinate_system_code '2'
_symmetry_cell_setting 'orthorhombic'
loop_
_space_group_symop_operation_xyz
x,y,z
1/2-x,1/2-y,z
1/2+x,-y,-z
-x,1/2+y,-z
-x,-y,-z
1/2+x,1/2+y,-z
1/2-x,y,z
x,1/2-y,z
loop_
_atom_site_type_symbol
_atom_site_label
_atom_site_fract_x
_atom_site_fract_y
_atom_site_fract_z
Si Si1 0.084012 0.522453 0.949555
Si Si2 0.912434 0.358877 0.327465
Si Si3 0.083626 0.545849 0.571404
Si Si4 0.082968 0.853303 0.222522
Si Si5 0.914460 0.638030 0.869749
Si Si6 0.406267 0.144535 0.874687
Si Si7 0.083243 0.059710 0.238577
Si Si8 0.415199 0.142075 0.516032
O O1 0.250000 0.548195 0.959701
O O2 0.065166 0.424718 0.920193
O O3 0.011615 0.606551 0.916830
O O4 0.000000 0.500000 0.000000
O O5 0.750000 0.382681 0.313660
O O6 0.929276 0.250000 0.346032
O O7 0.966520 0.428656 0.372147
O O8 0.003892 0.372590 0.277482
O O9 0.250000 0.567923 0.564926
O O10 0.048487 0.433986 0.560420
O O11 0.002991 0.615657 0.533373
O O12 0.250000 0.848853 0.216520
O O13 0.028033 0.750000 0.245332
O O14 0.024461 0.869392 0.167125
O O15 0.042340 0.949097 0.253396
O O16 0.750000 0.613820 0.881961
O O17 0.936575 0.750000 0.860848
O O18 0.964261 0.584250 0.818526
O O19 0.250000 0.126332 0.850305
O O20 0.415340 0.250000 0.898186
O O21 0.250000 0.079461 0.244432
O O22 0.250000 0.135064 0.501457
O O23 0.454357 0.250000 0.533966
#
# Coordination Sequence:
#
# PCOD8243926 Si02
#       8
#     8   8   8   8   8   8   8   8
#     4  11  23  37  55  79 108 139 173 212 257 313
#     4  10  21  35  51  74 105 141 180 221 264 310
#     4   9  18  33  51  73 105 142 178 220 269 318
#     4   9  17  31  54  80 102 126 159 202 251 302
#     4  10  21  38  58  79 106 139 175 217 265 314
#     4   9  18  33  53  76 100 127 160 201 249 298
#     4  10  20  35  56  80 107 138 175 216 262 314
#     4   9  17  30  51  78 105 136 177 223 269 319
#
# _framework density 18.364407
#
# number of rings (size 3 to 8) (size 9 to 14) (size 15 to 20)
#    0.000    2.375    1.250    1.125    0.000    4.250 
#    0.000    1.875    0.000    0.750    0.000    0.000 
#    0.000    0.000    0.000    0.000    0.000    0.000 
#
# Total GULP energy -793219.356560 kJ/mol
# GULP energy per Si atom -12394.052446 kJ/mol
# Density = 1.832261 g / cm^3
# Si number density = 18.364407 Si / 1000 Ang^3
#
#
#
# Elastic Constant Matrix: (Units=GPa)
#
#
# Indices 1 2 3 4 5 6 
#
# 1 37.8778 33.5072 31.8202 0.0000 0.0000 0.0000
# 2 33.5072 111.4151 35.9096 0.0000 0.0000 0.0000
# 3 31.8202 35.9096 83.3820 0.0000 0.0000 0.0000
# 4 0.0000 0.0000 0.0000 24.3158 0.0000 0.0000
# 5 0.0000 0.0000 0.0000 0.0000 28.7275 0.0000
# 6 0.0000 0.0000 0.0000 0.0000 0.0000 26.5169
#
#
#
# Elastic Compliance Matrix: (Units=1/GPa)
#
#
# Indices 1 2 3 4 5 6 
#
# 1 0.046195 -0.009534 -0.013523 0.000000 0.000000 0.000000
# 2 -0.009534 0.012390 -0.001697 0.000000 0.000000 0.000000
# 3 -0.013523 -0.001697 0.017885 0.000000 0.000000 0.000000
# 4 0.000000 0.000000 0.000000 0.041126 0.000000 0.000000
# 5 0.000000 0.000000 0.000000 0.000000 0.034810 0.000000
# 6 0.000000 0.000000 0.000000 0.000000 0.000000 0.037712
#
#
# Mechanical properties :
#
#
# Convention : Reuss Voigt Hill
#
# Bulk Modulus (GPa) = 37.09141 48.34990 42.72066
# Shear Modulus (GPa) = 20.11157 24.67455 22.39306
#
# Velocity S-wave (km/s) = 3.31288 3.66950 3.49574
# Velocity P-wave (km/s) = 5.90549 6.65874 6.29340
#
# Compressibility (1/GPa) = 0.02696042
#
# Stress axis : x y z
#
# Youngs Moduli (GPa) = 21.64727 80.71091 55.91394
#
# Poissons Ratio (x) = 0.76953 0.75612
# Poissons Ratio (y) = 0.20639 0.09491
# Poissons Ratio (z) = 0.29273 0.13700
#
# Static dielectric constant tensor:
#      x y z
#    x 3.441500 0.000000 0.000000 
#    y 0.000000 3.863160 0.000000 
#    z 0.000000 0.000000 3.115610 
# 
# 
# High freq. dielectric constant tensor:
#      x y z
#    x 1.710790 0.000000 0.000000 
#    y 0.000000 1.731260 0.000000 
#    z 0.000000 0.000000 1.683580 
# 
# From -- ./inp_files/31601.got.cif
#   From: 2010.03.12/outbox.cif.g09.slc.cpg/sg59_16_cif.got.tgz:31601.got - 2010.04.16 16:29:54.
