data_PCOD8243378
_publ_section_title
;
Structure prediction by ZEFSAII (Michael W. Deem and Ramdas Pophale) SiO2 
 PCOD8243378
Probable space group: P M M N
;
_chemical_formula_sum "Si O2"
_cell_formula_units_Z 48
_cell_length_a 9.544841
_cell_length_b 9.584063
_cell_length_c 28.749431
_cell_angle_alpha 90.000000
_cell_angle_beta 90.000000
_cell_angle_gamma 90.000000
_cell_volume 2629.950726
_symmetry_space_group_name_H-M "P M M N"
_symmetry_group_IT_number 59
_space_group.IT_coordinate_system_code '2'
_symmetry_cell_setting 'orthorhombic'
loop_
_space_group_symop_operation_xyz
x,y,z
1/2-x,1/2-y,z
1/2+x,-y,-z
-x,1/2+y,-z
-x,-y,-z
1/2+x,1/2+y,-z
1/2-x,y,z
x,1/2-y,z
loop_
_atom_site_type_symbol
_atom_site_label
_atom_site_fract_x
_atom_site_fract_y
_atom_site_fract_z
Si Si1 0.087565 0.412344 0.129739
Si Si2 0.407357 0.250000 0.452962
Si Si3 0.915765 0.250000 0.544999
Si Si4 0.413233 0.586322 0.037466
Si Si5 0.910537 0.491425 0.610782
Si Si6 0.409136 0.088424 0.693177
Si Si7 0.085327 0.409202 0.799677
O O1 0.250000 0.422153 0.143403
O O2 0.045862 0.250000 0.120281
O O3 0.054655 0.509393 0.085693
O O4 0.997493 0.475135 0.171484
O O5 0.250000 0.250000 0.473562
O O6 0.514333 0.250000 0.494939
O O7 0.435432 0.372836 0.418171
O O8 0.750000 0.250000 0.536504
O O9 0.969471 0.377846 0.575344
O O10 0.250000 0.575849 0.024495
O O11 0.459440 0.750000 0.039773
O O12 0.500000 0.500000 0.000000
O O13 0.750000 0.462451 0.624204
O O14 0.994353 0.500898 0.658976
O O15 0.250000 0.041118 0.685458
O O16 0.428702 0.250000 0.680900
O O17 0.453437 0.060985 0.746236
O O18 0.250000 0.428371 0.808480
O O19 0.041606 0.250000 0.812961
#
# Coordination Sequence:
#
# PCOD8243378 Si02
#       7
#     8   4   4   8   8   8   8
#     4  10  21  37  56  81 113 148 187 229 275 328
#     4  10  22  36  50  74 106 138 168 208 261 310
#     4  10  20  34  54  76 100 132 176 216 251 308
#     4  10  21  37  58  84 114 150 192 235 279 328
#     4  10  20  35  53  76 105 135 170 213 259 311
#     4   9  18  34  56  80 103 132 174 219 263 314
#     4   9  19  36  57  81 108 139 180 228 275 327
#
# _framework density 18.251291999999999
#
# number of rings (size 3 to 8) (size 9 to 14) (size 15 to 20)
#    0.000    2.333    0.833    2.500    0.000    5.000 
#    1.500    1.667    0.000    0.000    0.000    0.000 
#    0.000    0.000    0.000    0.000    0.000    0.000 
#
# Total GULP energy -595026.799462 kJ/mol
# GULP energy per Si atom -12396.391655 kJ/mol
# Density = 1.820975 g / cm^3
# Si number density = 18.251292 Si / 1000 Ang^3
#
#
#
# Elastic Constant Matrix: (Units=GPa)
#
#
# Indices 1 2 3 4 5 6 
#
# 1 65.1793 45.9083 64.4119 0.0000 0.0000 0.0000
# 2 45.9083 132.9165 60.4594 0.0000 0.0000 0.0000
# 3 64.4119 60.4594 117.4956 0.0000 0.0000 0.0000
# 4 0.0000 0.0000 0.0000 -59.8349 0.0000 0.0000
# 5 0.0000 0.0000 0.0000 0.0000 41.6549 0.0000
# 6 0.0000 0.0000 0.0000 0.0000 0.0000 42.0568
#
#
#
# Elastic Compliance Matrix: (Units=1/GPa)
#
#
# Indices 1 2 3 4 5 6 
#
# 1 0.035376 -0.004435 -0.017111 0.000000 0.000000 0.000000
# 2 -0.004435 0.010379 -0.002909 0.000000 0.000000 0.000000
# 3 -0.017111 -0.002909 0.019388 0.000000 0.000000 0.000000
# 4 0.000000 0.000000 0.000000 -0.016713 0.000000 0.000000
# 5 0.000000 0.000000 0.000000 0.000000 0.024007 0.000000
# 6 0.000000 0.000000 0.000000 0.000000 0.000000 0.023777
#
#
# Mechanical properties :
#
#
# Convention : Reuss Voigt Hill
#
# Bulk Modulus (GPa) = 61.60673 73.01672 67.31172
# Shear Modulus (GPa) = 33.21474 14.42948 23.82211
#
# Velocity S-wave (km/s) = 4.27061 2.81481 3.61671
# Velocity P-wave (km/s) = 7.62532 7.11740 7.37573
#
# Compressibility (1/GPa) = 0.01623199
#
# Stress axis : x y z
#
# Youngs Moduli (GPa) = 28.26792 96.35144 51.57764
#
# Poissons Ratio (x) = 0.42734 0.88255
# Poissons Ratio (y) = 0.12538 0.15004
# Poissons Ratio (z) = 0.48369 0.28029
#
# Static dielectric constant tensor:
#      x y z
#    x 3.285640 0.000000 0.000000 
#    y 0.000000 3.451060 0.000000 
#    z 0.000000 0.000000 3.330340 
# 
# 
# High freq. dielectric constant tensor:
#      x y z
#    x 1.700680 0.000000 0.000000 
#    y 0.000000 1.712900 0.000000 
#    z 0.000000 0.000000 1.713470 
# 
# From -- ./inp_files/32990.got.cif
#   From: 2010.03.12/outbox.cif.g09.slc.cpg/sg59_17_cif.got.tgz:32990.got - 2010.04.16 16:29:54.
