data_PCOD8243843
_publ_section_title
;
Structure prediction by ZEFSAII (Michael W. Deem and Ramdas Pophale) SiO2 
 PCOD8243843
Probable space group: P M M N
;
_chemical_formula_sum "Si O2"
_cell_formula_units_Z 64
_cell_length_a 8.817550
_cell_length_b 14.140847
_cell_length_c 25.820879
_cell_angle_alpha 90.000000
_cell_angle_beta 90.000000
_cell_angle_gamma 90.000000
_cell_volume 3219.544090
_symmetry_space_group_name_H-M "P M M N"
_symmetry_group_IT_number 59
_space_group.IT_coordinate_system_code '2'
_symmetry_cell_setting 'orthorhombic'
loop_
_space_group_symop_operation_xyz
x,y,z
1/2-x,1/2-y,z
1/2+x,-y,-z
-x,1/2+y,-z
-x,-y,-z
1/2+x,1/2+y,-z
1/2-x,y,z
x,1/2-y,z
loop_
_atom_site_type_symbol
_atom_site_label
_atom_site_fract_x
_atom_site_fract_y
_atom_site_fract_z
Si Si1 0.929735 0.901286 0.015797
Si Si2 0.576598 0.358430 0.875266
Si Si3 0.070125 0.035340 0.780004
Si Si4 0.430299 0.357099 0.678237
Si Si5 0.085845 0.852888 0.917764
Si Si6 0.928661 0.356559 0.477893
Si Si7 0.570814 0.546072 0.425610
Si Si8 0.927298 0.640099 0.816624
O O1 0.750000 0.899548 0.014305
O O2 0.995963 0.835087 0.971011
O O3 0.984763 0.870428 0.071793
O O4 0.000000 0.000000 0.000000
O O5 0.750000 0.390642 0.883975
O O6 0.567662 0.250000 0.857894
O O7 0.500977 0.419408 0.830829
O O8 0.250000 0.037418 0.784136
O O9 0.010646 0.092974 0.730338
O O10 0.012973 0.926391 0.774970
O O11 0.250000 0.354468 0.678020
O O12 0.494676 0.250000 0.675278
O O13 0.490581 0.419469 0.630033
O O14 0.250000 0.907047 0.924743
O O15 0.124035 0.750000 0.896102
O O16 0.982446 0.899364 0.873132
O O17 0.750000 0.359454 0.485902
O O18 0.980024 0.250000 0.460929
O O19 0.978105 0.436181 0.435509
O O20 0.003258 0.382868 0.532266
O O21 0.750000 0.556057 0.428755
O O22 0.750000 0.622076 0.813227
O O23 0.965818 0.750000 0.805715
#
# Coordination Sequence:
#
# PCOD8243843 Si02
#       8
#     8   8   8   8   8   8   8   8
#     4  12  24  37  54  76 105 138 173 214 263 321
#     4  11  24  41  59  80 109 144 182 224 272 328
#     4  11  22  37  58  82 108 138 178 228 277 325
#     4   9  18  33  54  80 108 139 179 226 271 316
#     4  10  20  35  55  78 103 129 161 204 254 311
#     4   9  17  29  47  76 114 149 181 223 274 321
#     4   9  17  31  52  77 106 145 190 228 266 319
#     4  10  21  38  59  81 107 140 177 218 268 327
#
# _framework density 19.878591
#
# number of rings (size 3 to 8) (size 9 to 14) (size 15 to 20)
#    0.000    1.875    0.000    4.500    0.000    5.250 
#    0.000    1.875    0.000    5.250    0.000    0.000 
#    0.000    0.000    0.000    0.000    0.000    0.000 
#
# Total GULP energy -793165.769048 kJ/mol
# GULP energy per Si atom -12393.215141 kJ/mol
# Density = 1.983335 g / cm^3
# Si number density = 19.878591 Si / 1000 Ang^3
#
#
#
# Elastic Constant Matrix: (Units=GPa)
#
#
# Indices 1 2 3 4 5 6 
#
# 1 95.1210 38.9281 31.2593 0.0000 0.0000 0.0000
# 2 38.9281 136.8599 70.3799 0.0000 0.0000 0.0000
# 3 31.2593 70.3799 118.8031 0.0000 0.0000 0.0000
# 4 0.0000 0.0000 0.0000 27.8331 0.0000 0.0000
# 5 0.0000 0.0000 0.0000 0.0000 24.1446 0.0000
# 6 0.0000 0.0000 0.0000 0.0000 0.0000 27.4789
#
#
#
# Elastic Compliance Matrix: (Units=1/GPa)
#
#
# Indices 1 2 3 4 5 6 
#
# 1 0.012118 -0.002599 -0.001649 0.000000 0.000000 0.000000
# 2 -0.002599 0.011065 -0.005871 0.000000 0.000000 0.000000
# 3 -0.001649 -0.005871 0.012329 0.000000 0.000000 0.000000
# 4 0.000000 0.000000 0.000000 0.035928 0.000000 0.000000
# 5 0.000000 0.000000 0.000000 0.000000 0.041417 0.000000
# 6 0.000000 0.000000 0.000000 0.000000 0.000000 0.036392
#
#
# Mechanical properties :
#
#
# Convention : Reuss Voigt Hill
#
# Bulk Modulus (GPa) = 65.46802 70.21318 67.84060
# Shear Modulus (GPa) = 28.64014 29.90578 29.27296
#
# Velocity S-wave (km/s) = 3.79984 3.88290 3.84159
# Velocity P-wave (km/s) = 7.22891 7.44984 7.34021
#
# Compressibility (1/GPa) = 0.01527463
#
# Stress axis : x y z
#
# Youngs Moduli (GPa) = 82.51888 90.37251 81.10702
#
# Poissons Ratio (x) = 0.23488 0.13374
# Poissons Ratio (y) = 0.21446 0.47621
# Poissons Ratio (z) = 0.13607 0.53061
#
# Static dielectric constant tensor:
#      x y z
#    x 3.630390 0.000000 0.000000 
#    y 0.000000 4.012960 0.000000 
#    z 0.000000 0.000000 3.554360 
# 
# 
# High freq. dielectric constant tensor:
#      x y z
#    x 1.770530 0.000000 0.000000 
#    y 0.000000 1.793360 0.000000 
#    z 0.000000 0.000000 1.754480 
# 
# From -- ./inp_files/31658.got.cif
#   From: 2010.03.12/outbox.cif.g09.slc.cpg/sg59_16_cif.got.tgz:31658.got - 2010.04.16 16:29:54.
