data_PCOD8243289
_publ_section_title
;
Structure prediction by ZEFSAII (Michael W. Deem and Ramdas Pophale) SiO2 
 PCOD8243289
Probable space group: P M M N
;
_chemical_formula_sum "Si O2"
_cell_formula_units_Z 64
_cell_length_a 13.682425
_cell_length_b 9.112868
_cell_length_c 26.350918
_cell_angle_alpha 90.000000
_cell_angle_beta 90.000000
_cell_angle_gamma 90.000000
_cell_volume 3285.594065
_symmetry_space_group_name_H-M "P M M N"
_symmetry_group_IT_number 59
_space_group.IT_coordinate_system_code '2'
_symmetry_cell_setting 'orthorhombic'
loop_
_space_group_symop_operation_xyz
x,y,z
1/2-x,1/2-y,z
1/2+x,-y,-z
-x,1/2+y,-z
-x,-y,-z
1/2+x,1/2+y,-z
1/2-x,y,z
x,1/2-y,z
loop_
_atom_site_type_symbol
_atom_site_label
_atom_site_fract_x
_atom_site_fract_y
_atom_site_fract_z
Si Si1 0.863260 0.423959 0.730505
Si Si2 0.865506 0.084223 0.523162
Si Si3 0.639976 0.418078 0.116431
Si Si4 0.451606 0.079885 0.174382
Si Si5 0.366595 0.415911 0.983168
Si Si6 0.141762 0.420981 0.576117
Si Si7 0.134487 0.914457 0.080464
Si Si8 0.048746 0.578458 0.373499
O O1 0.750000 0.468000 0.735500
O O2 0.877158 0.250000 0.734697
O O3 0.926515 0.498504 0.773966
O O4 0.905474 0.488969 0.677580
O O5 0.750000 0.080552 0.523371
O O6 0.905776 0.250000 0.518218
O O7 0.901591 0.011672 0.575929
O O8 0.903310 0.993404 0.474633
O O9 0.750000 0.464185 0.132839
O O10 0.638599 0.250000 0.097738
O O11 0.567572 0.440940 0.163957
O O12 0.599076 0.516507 0.070369
O O13 0.423129 0.250000 0.178923
O O14 0.389470 0.011329 0.129103
O O15 0.250000 0.420844 0.985440
O O16 0.405505 0.250000 0.987584
O O17 0.410682 0.510683 0.029798
O O18 0.250000 0.482455 0.589944
O O19 0.147314 0.250000 0.564575
O O20 0.068108 0.452972 0.622961
O O21 0.250000 0.906835 0.075241
O O22 0.091321 0.750000 0.086039
O O23 0.072714 0.750000 0.372328
#
# Coordination Sequence:
#
# PCOD8243289 Si02
#       8
#     8   8   8   8   8   8   8   8
#     4  10  21  38  58  77  99 130 169 212 257 306
#     4   9  16  27  46  72 100 131 168 207 246 292
#     4   9  19  37  57  75 100 135 171 205 247 305
#     4  11  23  37  55  78 102 131 168 213 263 306
#     4   9  17  30  51  80 110 137 168 210 255 296
#     4   9  17  29  46  71 104 137 166 201 248 298
#     4  10  20  34  53  77 107 143 177 207 247 305
#     4   9  17  31  51  72  96 131 173 210 246 296
#
# _framework density 19.478973
#
# number of rings (size 3 to 8) (size 9 to 14) (size 15 to 20)
#    0.000    2.500    0.000    2.250    0.000    7.000 
#    0.000    1.875    0.000    2.250    0.000    0.000 
#    0.000    0.000    0.000    0.000    0.000    0.000 
#
# Total GULP energy -793507.799801 kJ/mol
# GULP energy per Si atom -12398.559372 kJ/mol
# Density = 1.943464 g / cm^3
# Si number density = 19.478973 Si / 1000 Ang^3
#
#
#
# Elastic Constant Matrix: (Units=GPa)
#
#
# Indices 1 2 3 4 5 6 
#
# 1 62.4407 33.7177 55.7265 0.0000 0.0000 0.0000
# 2 33.7177 69.1346 46.1359 0.0000 0.0000 0.0000
# 3 55.7265 46.1359 133.3106 0.0000 0.0000 0.0000
# 4 0.0000 0.0000 0.0000 29.7145 0.0000 0.0000
# 5 0.0000 0.0000 0.0000 0.0000 32.8197 0.0000
# 6 0.0000 0.0000 0.0000 0.0000 0.0000 20.1031
#
#
#
# Elastic Compliance Matrix: (Units=1/GPa)
#
#
# Indices 1 2 3 4 5 6 
#
# 1 0.028386 -0.007705 -0.009199 0.000000 0.000000 0.000000
# 2 -0.007705 0.020900 -0.004012 0.000000 0.000000 0.000000
# 3 -0.009199 -0.004012 0.012735 0.000000 0.000000 0.000000
# 4 0.000000 0.000000 0.000000 0.033654 0.000000 0.000000
# 5 0.000000 0.000000 0.000000 0.000000 0.030470 0.000000
# 6 0.000000 0.000000 0.000000 0.000000 0.000000 0.049744
#
#
# Mechanical properties :
#
#
# Convention : Reuss Voigt Hill
#
# Bulk Modulus (GPa) = 49.53434 59.56067 54.54751
# Shear Modulus (GPa) = 22.27663 25.14785 23.71224
#
# Velocity S-wave (km/s) = 3.38542 3.59698 3.49280
# Velocity P-wave (km/s) = 6.38485 6.92057 6.65810
#
# Compressibility (1/GPa) = 0.02018801
#
# Stress axis : x y z
#
# Youngs Moduli (GPa) = 35.22848 47.84733 78.52203
#
# Poissons Ratio (x) = 0.36867 0.72235
# Poissons Ratio (y) = 0.27144 0.31503
# Poissons Ratio (z) = 0.32408 0.19197
#
# Static dielectric constant tensor:
#      x y z
#    x 3.717810 0.000000 0.000000 
#    y 0.000000 3.551990 0.000000 
#    z 0.000000 0.000000 3.511260 
# 
# 
# High freq. dielectric constant tensor:
#      x y z
#    x 1.772560 0.000000 0.000000 
#    y 0.000000 1.742680 0.000000 
#    z 0.000000 0.000000 1.740930 
# 
# From -- ./inp_files/31545.got.cif
#   From: 2010.03.12/outbox.cif.g09.slc.cpg/sg59_16_cif.got.tgz:31545.got - 2010.04.16 16:29:54.
