data_PCOD8243354
_publ_section_title
;
Structure prediction by ZEFSAII (Michael W. Deem and Ramdas Pophale) SiO2 
 PCOD8243354
Probable space group: P M M N
;
_chemical_formula_sum "Si O2"
_cell_formula_units_Z 64
_cell_length_a 8.874007
_cell_length_b 14.586878
_cell_length_c 24.929360
_cell_angle_alpha 90.000000
_cell_angle_beta 90.000000
_cell_angle_gamma 90.000000
_cell_volume 3226.957509
_symmetry_space_group_name_H-M "P M M N"
_symmetry_group_IT_number 59
_space_group.IT_coordinate_system_code '2'
_symmetry_cell_setting 'orthorhombic'
loop_
_space_group_symop_operation_xyz
x,y,z
1/2-x,1/2-y,z
1/2+x,-y,-z
-x,1/2+y,-z
-x,-y,-z
1/2+x,1/2+y,-z
1/2-x,y,z
x,1/2-y,z
loop_
_atom_site_type_symbol
_atom_site_label
_atom_site_fract_x
_atom_site_fract_y
_atom_site_fract_z
Si Si1 0.072749 0.594255 0.482851
Si Si2 0.928724 0.649060 0.972878
Si Si3 0.427772 0.354161 0.906495
Si Si4 0.572519 0.143398 0.221705
Si Si5 0.928517 0.350467 0.633587
Si Si6 0.917913 0.848870 0.581790
Si Si7 0.572512 0.535357 0.682155
Si Si8 0.571273 0.532364 0.874024
O O1 0.250000 0.584947 0.478993
O O2 0.006608 0.627905 0.425759
O O3 0.000000 0.500000 0.500000
O O4 0.026754 0.662213 0.530653
O O5 0.750000 0.650779 0.973431
O O6 0.988248 0.750000 0.955706
O O7 0.987432 0.573977 0.930643
O O8 0.985947 0.626874 0.032857
O O9 0.250000 0.367915 0.901780
O O10 0.471322 0.250000 0.889232
O O11 0.508644 0.428595 0.868263
O O12 0.750000 0.134574 0.213508
O O13 0.524177 0.250000 0.227382
O O14 0.525291 0.086114 0.273648
O O15 0.489348 0.098757 0.171600
O O16 0.750000 0.349276 0.628827
O O17 0.988272 0.250000 0.652253
O O18 0.973946 0.427736 0.677586
O O19 0.750000 0.875831 0.562055
O O20 0.916877 0.750000 0.610968
O O21 0.972627 0.923521 0.624497
O O22 0.750000 0.548654 0.694634
O O23 0.750000 0.529452 0.869819
#
# Coordination Sequence:
#
# PCOD8243354 Si02
#       8
#     8   8   8   8   8   8   8   8
#     4  11  20  33  53  79 114 151 187 223 269 327
#     4   8  15  29  51  81 116 153 192 232 278 336
#     4   9  18  34  55  80 116 159 195 232 281 331
#     4  11  25  43  61  83 111 142 182 233 287 343
#     4   9  18  34  57  83 111 144 183 225 269 323
#     4  10  20  34  53  80 112 144 181 224 274 333
#     4  10  20  38  61  82 107 142 184 230 282 334
#     4  11  21  34  57  86 115 150 192 237 284 338
#
# _framework density 19.832923000000001
#
# number of rings (size 3 to 8) (size 9 to 14) (size 15 to 20)
#    0.000    2.125    1.250    3.375    0.000    3.500 
#    0.000    1.250    0.000    5.625    0.000    0.000 
#    0.000    0.000    0.000    0.000    0.000    0.000 
#
# Total GULP energy -793225.028744 kJ/mol
# GULP energy per Si atom -12394.141074 kJ/mol
# Density = 1.978778 g / cm^3
# Si number density = 19.832923 Si / 1000 Ang^3
#
#
#
# Elastic Constant Matrix: (Units=GPa)
#
#
# Indices 1 2 3 4 5 6 
#
# 1 52.9200 39.7930 26.5645 0.0000 0.0000 0.0000
# 2 39.7930 171.1621 56.0238 0.0000 0.0000 0.0000
# 3 26.5645 56.0238 68.3838 0.0000 0.0000 0.0000
# 4 0.0000 0.0000 0.0000 32.8959 0.0000 0.0000
# 5 0.0000 0.0000 0.0000 0.0000 27.8694 0.0000
# 6 0.0000 0.0000 0.0000 0.0000 0.0000 27.0258
#
#
#
# Elastic Compliance Matrix: (Units=1/GPa)
#
#
# Indices 1 2 3 4 5 6 
#
# 1 0.024997 -0.003598 -0.006763 0.000000 0.000000 0.000000
# 2 -0.003598 0.008501 -0.005567 0.000000 0.000000 0.000000
# 3 -0.006763 -0.005567 0.021811 0.000000 0.000000 0.000000
# 4 0.000000 0.000000 0.000000 0.030399 0.000000 0.000000
# 5 0.000000 0.000000 0.000000 0.000000 0.035882 0.000000
# 6 0.000000 0.000000 0.000000 0.000000 0.000000 0.037002
#
#
# Mechanical properties :
#
#
# Convention : Reuss Voigt Hill
#
# Bulk Modulus (GPa) = 42.63690 59.69205 51.16447
# Shear Modulus (GPa) = 25.21898 28.89720 27.05809
#
# Velocity S-wave (km/s) = 3.56978 3.82125 3.69765
# Velocity P-wave (km/s) = 6.20772 7.04500 6.63957
#
# Compressibility (1/GPa) = 0.02345386
#
# Stress axis : x y z
#
# Youngs Moduli (GPa) = 40.00556 117.63356 45.84841
#
# Poissons Ratio (x) = 0.42323 0.31006
# Poissons Ratio (y) = 0.14393 0.25523
# Poissons Ratio (z) = 0.27054 0.65485
#
# Static dielectric constant tensor:
#      x y z
#    x 3.416240 0.000000 0.000000 
#    y 0.000000 4.189810 0.000000 
#    z 0.000000 0.000000 3.868900 
# 
# 
# High freq. dielectric constant tensor:
#      x y z
#    x 1.742520 0.000000 0.000000 
#    y 0.000000 1.796820 0.000000 
#    z 0.000000 0.000000 1.753440 
# 
# From -- ./inp_files/31549.got.cif
#   From: 2010.03.12/outbox.cif.g09.slc.cpg/sg59_16_cif.got.tgz:31549.got - 2010.04.16 16:29:54.
