data_PCOD8243138
_publ_section_title
;
Structure prediction by ZEFSAII (Michael W. Deem and Ramdas Pophale) SiO2 
 PCOD8243138
Probable space group: P M M N
;
_chemical_formula_sum "Si O2"
_cell_formula_units_Z 40
_cell_length_a 9.121850
_cell_length_b 18.752728
_cell_length_c 12.823667
_cell_angle_alpha 90.000000
_cell_angle_beta 90.000000
_cell_angle_gamma 90.000000
_cell_volume 2193.610987
_symmetry_space_group_name_H-M "P M M N"
_symmetry_group_IT_number 59
_space_group.IT_coordinate_system_code '2'
_symmetry_cell_setting 'orthorhombic'
loop_
_space_group_symop_operation_xyz
x,y,z
1/2-x,1/2-y,z
1/2+x,-y,-z
-x,1/2+y,-z
-x,-y,-z
1/2+x,1/2+y,-z
1/2-x,y,z
x,1/2-y,z
loop_
_atom_site_type_symbol
_atom_site_label
_atom_site_fract_x
_atom_site_fract_y
_atom_site_fract_z
Si Si1 0.079384 0.332386 0.307054
Si Si2 0.417185 0.334662 0.714907
Si Si3 0.419557 0.421878 0.107493
Si Si4 0.584654 0.334841 0.511860
Si Si5 0.420127 0.586796 0.102608
O O1 0.250000 0.343184 0.331333
O O2 0.042460 0.250000 0.284825
O O3 0.028754 0.377318 0.207365
O O4 0.991295 0.362398 0.406291
O O5 0.250000 0.361189 0.712753
O O6 0.426429 0.250000 0.719474
O O7 0.496745 0.364534 0.611465
O O8 0.496606 0.364567 0.815737
O O9 0.250000 0.407200 0.080381
O O10 0.447144 0.504632 0.131859
O O11 0.516863 0.395719 0.011260
O O12 0.750000 0.364361 0.516661
O O13 0.581759 0.250000 0.513114
O O14 0.250000 0.607003 0.104052
#
# Coordination Sequence:
#
# PCOD8243138 Si02
#       5
#     8   8   8   8   8
#     4   9  17  31  52  75  99 129 165 202 240 288
#     4  10  20  34  53  75  99 129 166 206 248 298
#     4   9  19  35  52  72 101 136 170 203 245 297
#     4   9  17  30  49  74 103 130 158 198 248 296
#     4  10  20  34  52  73 100 133 168 208 251 294
#
# _framework density 18.234774000000002
#
# number of rings (size 3 to 8) (size 9 to 14) (size 15 to 20)
#    0.000    2.600    0.000    1.800    0.000    6.000 
#    0.000    3.000    0.000    0.000    0.000    0.000 
#    0.000    0.000    0.000    0.000    0.000    0.000 
#
# Total GULP energy -496104.236015 kJ/mol
# GULP energy per Si atom -12402.605900 kJ/mol
# Density = 1.819327 g / cm^3
# Si number density = 18.234774 Si / 1000 Ang^3
#
#
#
# Elastic Constant Matrix: (Units=GPa)
#
#
# Indices 1 2 3 4 5 6 
#
# 1 132.1983 28.5049 87.7027 0.0000 0.0000 0.0000
# 2 28.5049 20.1562 32.4132 0.0000 0.0000 0.0000
# 3 87.7027 32.4132 143.4582 0.0000 0.0000 0.0000
# 4 0.0000 0.0000 0.0000 -0.8622 0.0000 0.0000
# 5 0.0000 0.0000 0.0000 0.0000 36.8369 0.0000
# 6 0.0000 0.0000 0.0000 0.0000 0.0000 19.2626
#
#
#
# Elastic Compliance Matrix: (Units=1/GPa)
#
#
# Indices 1 2 3 4 5 6 
#
# 1 0.013756 -0.009314 -0.006305 0.000000 0.000000 0.000000
# 2 -0.009314 0.084232 -0.013337 0.000000 0.000000 0.000000
# 3 -0.006305 -0.013337 0.013839 0.000000 0.000000 0.000000
# 4 0.000000 0.000000 0.000000 -1.159800 0.000000 0.000000
# 5 0.000000 0.000000 0.000000 0.000000 0.027147 0.000000
# 6 0.000000 0.000000 0.000000 0.000000 0.000000 0.051914
#
#
# Mechanical properties :
#
#
# Convention : Reuss Voigt Hill
#
# Bulk Modulus (GPa) = 18.54819 65.89491 42.22155
# Shear Modulus (GPa) = -5.59893 20.86026 7.63067
#
# Velocity S-wave (km/s) = -1.75418 3.38595 2.04787
# Velocity P-wave (km/s) = 2.46802 7.17646 5.36622
#
# Compressibility (1/GPa) = 0.05391361
#
# Stress axis : x y z
#
# Youngs Moduli (GPa) = 72.69786 11.87191 72.26124
#
# Poissons Ratio (x) = 0.11058 0.45560
# Poissons Ratio (y) = 0.67712 0.96378
# Poissons Ratio (z) = 0.45836 0.15834
#
# Static dielectric constant tensor:
#      x y z
#    x 3.553050 0.000000 0.000000 
#    y 0.000000 3.095500 0.000000 
#    z 0.000000 0.000000 3.466460 
# 
# 
# High freq. dielectric constant tensor:
#      x y z
#    x 1.716620 0.000000 0.000000 
#    y 0.000000 1.675140 0.000000 
#    z 0.000000 0.000000 1.719120 
# 
# From -- ./inp_files/5671.got.cif
#   From: 2010.03.12/outbox.cif.g09.slc.cpg/sg59_3_cif.got.tgz:5671.got - 2010.04.16 16:29:54.
