data_PCOD8243144
_publ_section_title
;
Structure prediction by ZEFSAII (Michael W. Deem and Ramdas Pophale) SiO2 
 PCOD8243144
Probable space group: P M M N
;
_chemical_formula_sum "Si O2"
_cell_formula_units_Z 56
_cell_length_a 18.228555
_cell_length_b 9.000091
_cell_length_c 18.487388
_cell_angle_alpha 90.000000
_cell_angle_beta 90.000000
_cell_angle_gamma 90.000000
_cell_volume 3033.015988
_symmetry_space_group_name_H-M "P M M N"
_symmetry_group_IT_number 59
_space_group.IT_coordinate_system_code '2'
_symmetry_cell_setting 'orthorhombic'
loop_
_space_group_symop_operation_xyz
x,y,z
1/2-x,1/2-y,z
1/2+x,-y,-z
-x,1/2+y,-z
-x,-y,-z
1/2+x,1/2+y,-z
1/2-x,y,z
x,1/2-y,z
loop_
_atom_site_type_symbol
_atom_site_label
_atom_site_fract_x
_atom_site_fract_y
_atom_site_fract_z
Si Si1 0.337596 0.916909 0.406135
Si Si2 0.837294 0.917235 0.735297
Si Si3 0.162788 0.081179 0.546081
Si Si4 0.337081 0.084972 0.701493
Si Si5 0.662987 0.419769 0.878789
Si Si6 0.078499 0.426664 0.994173
Si Si7 0.332364 0.427563 0.856131
O O1 0.250000 0.919592 0.406730
O O2 0.367191 0.750000 0.398478
O O3 0.368016 0.011262 0.338551
O O4 0.370089 0.984432 0.480579
O O5 0.750000 0.915795 0.733615
O O6 0.867990 0.750000 0.742498
O O7 0.865170 0.015463 0.802490
O O8 0.250000 0.081028 0.540423
O O9 0.134050 0.250000 0.538722
O O10 0.139165 0.009549 0.624697
O O11 0.250000 0.094109 0.705167
O O12 0.370245 0.250000 0.698411
O O13 0.361770 0.008698 0.777761
O O14 0.750000 0.429870 0.884530
O O15 0.635656 0.250000 0.885439
O O16 0.629953 0.520025 0.941455
O O17 0.071771 0.250000 0.996980
O O18 0.113888 0.482872 0.918982
O O19 0.000000 0.500000 0.000000
O O20 0.250000 0.486118 0.872700
O O21 0.331059 0.250000 0.851929
#
# Coordination Sequence:
#
# PCOD8243144 Si02
#       7
#     8   8   8   8   8   8   8
#     4   9  15  21  30  48  79 117 151 182 219 263
#     4   9  16  26  41  61  85 115 153 192 228 270
#     4   8  12  18  30  49  75 108 143 178 218 264
#     4   7  10  18  34  57  82 107 141 186 229 267
#     4  10  20  34  52  73  97 124 156 196 242 290
#     4  11  22  35  51  71  97 127 160 198 241 289
#     4   8  14  26  46  70  92 117 154 198 239 280
#
# _framework density 18.463470999999998
#
# number of rings (size 3 to 8) (size 9 to 14) (size 15 to 20)
#    0.000    3.143    0.000    3.857    0.000    4.857 
#    0.000    0.000    0.000    1.714    0.000    6.000 
#    0.000    1.143    0.000    3.143    0.000    7.429 
#
# Total GULP energy -693753.835311 kJ/mol
# GULP energy per Si atom -12388.461345 kJ/mol
# Density = 1.842145 g / cm^3
# Si number density = 18.463471 Si / 1000 Ang^3
#
#
#
# Elastic Constant Matrix: (Units=GPa)
#
#
# Indices 1 2 3 4 5 6 
#
# 1 17.2769 17.5450 23.6395 0.0000 0.0000 0.0000
# 2 17.5450 87.5790 56.2121 0.0000 0.0000 0.0000
# 3 23.6395 56.2121 188.0401 0.0000 0.0000 0.0000
# 4 0.0000 0.0000 0.0000 16.5231 0.0000 0.0000
# 5 0.0000 0.0000 0.0000 0.0000 -0.1919 0.0000
# 6 0.0000 0.0000 0.0000 0.0000 0.0000 14.5672
#
#
#
# Elastic Compliance Matrix: (Units=1/GPa)
#
#
# Indices 1 2 3 4 5 6 
#
# 1 0.078408 -0.011608 -0.006387 0.000000 0.000000 0.000000
# 2 -0.011608 0.015848 -0.003278 0.000000 0.000000 0.000000
# 3 -0.006387 -0.003278 0.007101 0.000000 0.000000 0.000000
# 4 0.000000 0.000000 0.000000 0.060521 0.000000 0.000000
# 5 0.000000 0.000000 0.000000 0.000000 -5.211993 0.000000
# 6 0.000000 0.000000 0.000000 0.000000 0.000000 0.068647
#
#
# Mechanical properties :
#
#
# Convention : Reuss Voigt Hill
#
# Bulk Modulus (GPa) = 17.00389 54.18768 35.59579
# Shear Modulus (GPa) = -1.01640 19.21299 9.09829
#
# Velocity S-wave (km/s) = -0.74276 3.22932 2.22226
# Velocity P-wave (km/s) = 2.91443 6.58157 5.08974
#
# Compressibility (1/GPa) = 0.05881008
#
# Stress axis : x y z
#
# Youngs Moduli (GPa) = 12.75377 63.09995 140.82688
#
# Poissons Ratio (x) = 0.73249 0.89945
# Poissons Ratio (y) = 0.14805 0.46165
# Poissons Ratio (z) = 0.08146 0.20685
#
# Static dielectric constant tensor:
#      x y z
#    x 2.704900 0.000000 0.000000 
#    y 0.000000 3.270550 0.000000 
#    z 0.000000 0.000000 4.075410 
# 
# 
# High freq. dielectric constant tensor:
#      x y z
#    x 1.639310 0.000000 0.000000 
#    y 0.000000 1.691490 0.000000 
#    z 0.000000 0.000000 1.748690 
# 
# From -- ./inp_files/30556.got.cif
#   From: 2010.03.12/outbox.cif.g09.slc.cpg/sg59_16_cif.got.tgz:30556.got - 2010.04.16 16:29:54.
