data_PCOD8243405
_publ_section_title
;
Structure prediction by ZEFSAII (Michael W. Deem and Ramdas Pophale) SiO2 
 PCOD8243405
Probable space group: P M M N
;
_chemical_formula_sum "Si O2"
_cell_formula_units_Z 48
_cell_length_a 10.111679
_cell_length_b 9.132071
_cell_length_c 28.891474
_cell_angle_alpha 90.000000
_cell_angle_beta 90.000000
_cell_angle_gamma 90.000000
_cell_volume 2667.855193
_symmetry_space_group_name_H-M "P M M N"
_symmetry_group_IT_number 59
_space_group.IT_coordinate_system_code '2'
_symmetry_cell_setting 'orthorhombic'
loop_
_space_group_symop_operation_xyz
x,y,z
1/2-x,1/2-y,z
1/2+x,-y,-z
-x,1/2+y,-z
-x,-y,-z
1/2+x,1/2+y,-z
1/2-x,y,z
x,1/2-y,z
loop_
_atom_site_type_symbol
_atom_site_label
_atom_site_fract_x
_atom_site_fract_y
_atom_site_fract_z
Si Si1 0.097056 0.420977 0.195931
Si Si2 0.598136 0.078327 0.465065
Si Si3 0.250000 0.419827 0.948414
Si Si4 0.750000 0.077561 0.954527
Si Si5 0.901663 0.079718 0.710576
Si Si6 0.008003 0.921514 0.107653
Si Si7 0.099242 0.418817 0.629773
O O1 0.250000 0.456317 0.185806
O O2 0.067747 0.250000 0.197606
O O3 0.054237 0.489101 0.244692
O O4 0.010068 0.493114 0.155877
O O5 0.750000 0.044561 0.479213
O O6 0.569082 0.250000 0.465693
O O7 0.500000 0.000000 0.500000
O O8 0.568390 0.018637 0.414134
O O9 0.250000 0.250000 0.961548
O O10 0.374406 0.463955 0.917847
O O11 0.250000 0.507579 0.995486
O O12 0.750000 0.250000 0.961637
O O13 0.623576 0.023616 0.926025
O O14 0.750000 0.044636 0.696443
O O15 0.919551 0.250000 0.722243
O O16 0.998335 0.030536 0.669462
O O17 0.020661 0.750000 0.118500
O O18 0.250000 0.441627 0.647076
O O19 0.074444 0.250000 0.616038
#
# Coordination Sequence:
#
# PCOD8243405 Si02
#       7
#     8   8   4   4   8   8   8
#     4  10  20  34  54  79 103 132 173 218 261 306
#     4  10  21  36  55  80 111 148 188 230 275 323
#     4  10  22  36  52  78 108 134 166 210 255 302
#     4  10  20  34  56  78 100 136 174 206 249 306
#     4   9  18  33  54  77 102 135 174 217 262 313
#     4  10  20  36  55  76 103 136 171 208 253 307
#     4   9  18  34  54  77 107 142 179 219 267 321
#
# _framework density 17.991979000000001
#
# number of rings (size 3 to 8) (size 9 to 14) (size 15 to 20)
#    0.000    2.333    0.833    1.500    0.000    4.333 
#    1.500    1.667    0.000    0.000    0.000    0.000 
#    0.000    0.000    0.000    0.000    0.000    0.000 
#
# Total GULP energy -595356.268386 kJ/mol
# GULP energy per Si atom -12403.255591 kJ/mol
# Density = 1.795103 g / cm^3
# Si number density = 17.991979 Si / 1000 Ang^3
#
#
#
# Elastic Constant Matrix: (Units=GPa)
#
#
# Indices 1 2 3 4 5 6 
#
# 1 126.1355 52.7299 92.0998 0.0000 0.0000 0.0000
# 2 52.7299 78.9144 76.3964 0.0000 0.0000 0.0000
# 3 92.0998 76.3964 158.3986 0.0000 0.0000 0.0000
# 4 0.0000 0.0000 0.0000 38.2866 0.0000 0.0000
# 5 0.0000 0.0000 0.0000 0.0000 22.2963 0.0000
# 6 0.0000 0.0000 0.0000 0.0000 0.0000 99.4813
#
#
#
# Elastic Compliance Matrix: (Units=1/GPa)
#
#
# Indices 1 2 3 4 5 6 
#
# 1 0.014096 -0.002784 -0.006853 0.000000 0.000000 0.000000
# 2 -0.002784 0.024321 -0.010111 0.000000 0.000000 0.000000
# 3 -0.006853 -0.010111 0.015174 0.000000 0.000000 0.000000
# 4 0.000000 0.000000 0.000000 0.026119 0.000000 0.000000
# 5 0.000000 0.000000 0.000000 0.000000 0.044850 0.000000
# 6 0.000000 0.000000 0.000000 0.000000 0.000000 0.010052
#
#
# Mechanical properties :
#
#
# Convention : Reuss Voigt Hill
#
# Bulk Modulus (GPa) = 70.95118 89.54454 80.24786
# Shear Modulus (GPa) = 27.96299 41.49433 34.72866
#
# Velocity S-wave (km/s) = 3.94660 4.80757 4.39820
# Velocity P-wave (km/s) = 7.76454 8.98299 8.39590
#
# Compressibility (1/GPa) = 0.01409420
#
# Stress axis : x y z
#
# Youngs Moduli (GPa) = 70.94330 41.11674 65.90010
#
# Poissons Ratio (x) = 0.11448 0.45161
# Poissons Ratio (y) = 0.19753 0.66633
# Poissons Ratio (z) = 0.48617 0.41574
#
# Static dielectric constant tensor:
#      x y z
#    x 3.410410 0.000000 0.000000 
#    y 0.000000 3.269240 0.000000 
#    z 0.000000 0.000000 3.271780 
# 
# 
# High freq. dielectric constant tensor:
#      x y z
#    x 1.696420 0.000000 0.000000 
#    y 0.000000 1.695440 0.000000 
#    z 0.000000 0.000000 1.700770 
# 
# From -- ./inp_files/32930.got.cif
#   From: 2010.03.12/outbox.cif.g09.slc.cpg/sg59_17_cif.got.tgz:32930.got - 2010.04.16 16:29:54.
