data_PCOD8243826
_publ_section_title
;
Structure prediction by ZEFSAII (Michael W. Deem and Ramdas Pophale) SiO2 
 PCOD8243826
Probable space group: P M M N
;
_chemical_formula_sum "Si O2"
_cell_formula_units_Z 48
_cell_length_a 9.073801
_cell_length_b 17.971652
_cell_length_c 15.708959
_cell_angle_alpha 90.000000
_cell_angle_beta 90.000000
_cell_angle_gamma 90.000000
_cell_volume 2561.678699
_symmetry_space_group_name_H-M "P M M N"
_symmetry_group_IT_number 59
_space_group.IT_coordinate_system_code '2'
_symmetry_cell_setting 'orthorhombic'
loop_
_space_group_symop_operation_xyz
x,y,z
1/2-x,1/2-y,z
1/2+x,-y,-z
-x,1/2+y,-z
-x,-y,-z
1/2+x,1/2+y,-z
1/2-x,y,z
x,1/2-y,z
loop_
_atom_site_type_symbol
_atom_site_label
_atom_site_fract_x
_atom_site_fract_y
_atom_site_fract_z
Si Si1 0.425319 0.927277 0.349783
Si Si2 0.424330 0.095439 0.333766
Si Si3 0.080099 0.838603 0.825098
Si Si4 0.920014 0.164633 0.489535
Si Si5 0.075563 0.832173 0.009011
Si Si6 0.074772 0.834817 0.192265
O O1 0.250000 0.923062 0.346861
O O2 0.483623 0.886250 0.434427
O O3 0.492727 0.886105 0.266719
O O4 0.481334 0.011876 0.351279
O O5 0.250000 0.100197 0.337465
O O6 0.476089 0.120630 0.241279
O O7 0.489882 0.150131 0.404102
O O8 0.250000 0.858701 0.805884
O O9 0.057905 0.750000 0.820564
O O10 0.029222 0.869892 0.919054
O O11 0.750000 0.146091 0.470907
O O12 0.939939 0.250000 0.517096
O O13 0.250000 0.825259 0.006958
O O14 0.006489 0.750000 0.010677
O O15 0.026637 0.869527 0.099257
O O16 0.250000 0.834755 0.199200
O O17 0.017422 0.750000 0.202745
#
# Coordination Sequence:
#
# PCOD8243826 Si02
#       6
#     8   8   8   8   8   8
#     4   9  18  31  46  68  98 126 150 184 235 286
#     4  11  22  33  46  68 100 131 154 183 230 285
#     4   9  17  31  50  70  93 123 161 200 231 264
#     4  10  20  35  55  74  90 115 156 200 235 271
#     4   7  11  21  41  69  94 116 149 195 238 267
#     4   8  12  22  44  71  95 119 152 195 236 272
#
# _framework density 18.737712999999999
#
# number of rings (size 3 to 8) (size 9 to 14) (size 15 to 20)
#    0.000    3.000    0.000    4.000    0.000    4.667 
#    0.000    1.667    0.000    0.000    0.000    2.333 
#    0.000    6.667    0.000    0.000    0.000    0.000 
#
# Total GULP energy -594706.244055 kJ/mol
# GULP energy per Si atom -12389.713418 kJ/mol
# Density = 1.869506 g / cm^3
# Si number density = 18.737713 Si / 1000 Ang^3
#
#
#
# Elastic Constant Matrix: (Units=GPa)
#
#
# Indices 1 2 3 4 5 6 
#
# 1 33.0642 20.1922 26.1780 0.0000 0.0000 0.0000
# 2 20.1922 62.4850 30.8924 0.0000 0.0000 0.0000
# 3 26.1780 30.8924 141.3753 0.0000 0.0000 0.0000
# 4 0.0000 0.0000 0.0000 14.8339 0.0000 0.0000
# 5 0.0000 0.0000 0.0000 0.0000 9.9196 0.0000
# 6 0.0000 0.0000 0.0000 0.0000 0.0000 16.6583
#
#
#
# Elastic Compliance Matrix: (Units=1/GPa)
#
#
# Indices 1 2 3 4 5 6 
#
# 1 0.040884 -0.010616 -0.005251 0.000000 0.000000 0.000000
# 2 -0.010616 0.020699 -0.002557 0.000000 0.000000 0.000000
# 3 -0.005251 -0.002557 0.008604 0.000000 0.000000 0.000000
# 4 0.000000 0.000000 0.000000 0.067413 0.000000 0.000000
# 5 0.000000 0.000000 0.000000 0.000000 0.100811 0.000000
# 6 0.000000 0.000000 0.000000 0.000000 0.000000 0.060030
#
#
# Mechanical properties :
#
#
# Convention : Reuss Voigt Hill
#
# Bulk Modulus (GPa) = 29.99419 43.49442 36.74431
# Shear Modulus (GPa) = 14.43405 18.92647 16.68026
#
# Velocity S-wave (km/s) = 2.77848 3.18161 2.98685
# Velocity P-wave (km/s) = 5.13180 6.06296 5.61671
#
# Compressibility (1/GPa) = 0.03333979
#
# Stress axis : x y z
#
# Youngs Moduli (GPa) = 24.45915 48.31224 116.21939
#
# Poissons Ratio (x) = 0.51288 0.61023
# Poissons Ratio (y) = 0.25966 0.29720
# Poissons Ratio (z) = 0.12843 0.12355
#
# Static dielectric constant tensor:
#      x y z
#    x 2.859280 0.000000 0.000000 
#    y 0.000000 3.333300 0.000000 
#    z 0.000000 0.000000 3.967380 
# 
# 
# High freq. dielectric constant tensor:
#      x y z
#    x 1.667640 0.000000 0.000000 
#    y 0.000000 1.705500 0.000000 
#    z 0.000000 0.000000 1.756820 
# 
# From -- ./inp_files/20432.got.cif
#   From: 2010.03.12/outbox.cif.g09.slc.cpg/sg59_11_cif.got.tgz:20432.got - 2010.04.16 16:29:54.
