data_PCOD8243823
_publ_section_title
;
Structure prediction by ZEFSAII (Michael W. Deem and Ramdas Pophale) SiO2 
 PCOD8243823
Probable space group: P M M N
;
_chemical_formula_sum "Si O2"
_cell_formula_units_Z 64
_cell_length_a 20.921737
_cell_length_b 8.826614
_cell_length_c 17.340244
_cell_angle_alpha 90.000000
_cell_angle_beta 90.000000
_cell_angle_gamma 90.000000
_cell_volume 3202.189856
_symmetry_space_group_name_H-M "P M M N"
_symmetry_group_IT_number 59
_space_group.IT_coordinate_system_code '2'
_symmetry_cell_setting 'orthorhombic'
loop_
_space_group_symop_operation_xyz
x,y,z
1/2-x,1/2-y,z
1/2+x,-y,-z
-x,1/2+y,-z
-x,-y,-z
1/2+x,1/2+y,-z
1/2-x,y,z
x,1/2-y,z
loop_
_atom_site_type_symbol
_atom_site_label
_atom_site_fract_x
_atom_site_fract_y
_atom_site_fract_z
Si Si1 0.141757 0.578777 0.353843
Si Si2 0.435878 0.424858 0.092548
Si Si3 0.001103 0.922066 0.415796
Si Si4 0.679362 0.419831 0.488877
Si Si5 0.110385 0.930378 0.656896
Si Si6 0.176370 0.930096 0.812558
Si Si7 0.567288 0.924872 0.089084
Si Si8 0.676567 0.070722 0.812016
O O1 0.167496 0.750000 0.346067
O O2 0.068081 0.570420 0.373576
O O3 0.176432 0.498201 0.427506
O O4 0.160072 0.501176 0.272769
O O5 0.439651 0.250000 0.115808
O O6 0.501796 0.501777 0.122486
O O7 0.372290 0.496702 0.128311
O O8 0.429692 0.449022 0.001797
O O9 0.978123 0.750000 0.427531
O O10 0.000000 0.000000 0.500000
O O11 0.960928 0.007326 0.349047
O O12 0.750000 0.411295 0.456268
O O13 0.650435 0.250000 0.500613
O O14 0.640282 0.501873 0.421598
O O15 0.112601 0.750000 0.656629
O O16 0.148673 0.990470 0.731043
O O17 0.250000 0.985237 0.822503
O O18 0.173145 0.750000 0.817320
O O19 0.131261 0.997503 0.878544
O O20 0.567029 0.750000 0.112956
O O21 0.750000 0.029493 0.833573
O O22 0.665436 0.250000 0.814939
#
# Coordination Sequence:
#
# PCOD8243823 Si02
#       8
#     8   8   8   8   8   8   8   8
#     4   9  18  32  51  79 110 142 187 238 283 335
#     4  10  22  41  64  90 119 154 195 240 293 352
#     4  11  21  35  54  79 109 146 193 245 298 350
#     4   9  15  27  51  76 100 138 185 229 272 321
#     4  10  20  35  54  81 113 147 189 237 288 343
#     4  10  22  39  60  90 125 157 195 244 297 355
#     4  10  22  41  65  90 118 154 197 241 289 351
#     4  10  21  37  59  89 121 153 194 243 294 350
#
# _framework density 19.986322999999999
#
# number of rings (size 3 to 8) (size 9 to 14) (size 15 to 20)
#    0.000    2.125    1.250    1.875    1.750    6.000 
#    0.000    3.125    0.000    1.125    0.000    0.000 
#    0.000    0.000    0.000    0.000    0.000    0.000 
#
# Total GULP energy -793096.555660 kJ/mol
# GULP energy per Si atom -12392.133682 kJ/mol
# Density = 1.994083 g / cm^3
# Si number density = 19.986323 Si / 1000 Ang^3
#
#
#
# Elastic Constant Matrix: (Units=GPa)
#
#
# Indices 1 2 3 4 5 6 
#
# 1 134.7898 39.9156 44.2473 0.0000 0.0000 0.0000
# 2 39.9156 50.2458 31.5721 0.0000 0.0000 0.0000
# 3 44.2473 31.5721 62.5727 0.0000 0.0000 0.0000
# 4 0.0000 0.0000 0.0000 22.0684 0.0000 0.0000
# 5 0.0000 0.0000 0.0000 0.0000 37.1698 0.0000
# 6 0.0000 0.0000 0.0000 0.0000 0.0000 30.5994
#
#
#
# Elastic Compliance Matrix: (Units=1/GPa)
#
#
# Indices 1 2 3 4 5 6 
#
# 1 0.010584 -0.005425 -0.004747 0.000000 0.000000 0.000000
# 2 -0.005425 0.031922 -0.012271 0.000000 0.000000 0.000000
# 3 -0.004747 -0.012271 0.025529 0.000000 0.000000 0.000000
# 4 0.000000 0.000000 0.000000 0.045314 0.000000 0.000000
# 5 0.000000 0.000000 0.000000 0.000000 0.026904 0.000000
# 6 0.000000 0.000000 0.000000 0.000000 0.000000 0.032680
#
#
# Mechanical properties :
#
#
# Convention : Reuss Voigt Hill
#
# Bulk Modulus (GPa) = 43.19599 53.23091 48.21345
# Shear Modulus (GPa) = 22.16954 26.75906 24.46430
#
# Velocity S-wave (km/s) = 3.33413 3.66303 3.50244
# Velocity P-wave (km/s) = 6.04000 6.67696 6.36645
#
# Compressibility (1/GPa) = 0.02315030
#
# Stress axis : x y z
#
# Youngs Moduli (GPa) = 94.48453 31.32620 39.17061
#
# Poissons Ratio (x) = 0.16995 0.18593
# Poissons Ratio (y) = 0.51259 0.48064
# Poissons Ratio (z) = 0.44850 0.38439
#
# Static dielectric constant tensor:
#      x y z
#    x 3.737810 0.000000 0.000000 
#    y 0.000000 3.424190 0.000000 
#    z 0.000000 0.000000 3.781680 
# 
# 
# High freq. dielectric constant tensor:
#      x y z
#    x 1.795470 0.000000 0.000000 
#    y 0.000000 1.742470 0.000000 
#    z 0.000000 0.000000 1.786210 
# 
# From -- ./inp_files/28295.got.cif
#   From: 2010.03.12/outbox.cif.g09.slc.cpg/sg59_15_cif.got.tgz:28295.got - 2010.04.16 16:29:54.
