data_PCOD8243763
_publ_section_title
;
Structure prediction by ZEFSAII (Michael W. Deem and Ramdas Pophale) SiO2 
 PCOD8243763
Probable space group: P M M N
;
_chemical_formula_sum "Si O2"
_cell_formula_units_Z 48
_cell_length_a 8.881936
_cell_length_b 20.729218
_cell_length_c 15.050759
_cell_angle_alpha 90.000000
_cell_angle_beta 90.000000
_cell_angle_gamma 90.000000
_cell_volume 2771.079337
_symmetry_space_group_name_H-M "P M M N"
_symmetry_group_IT_number 59
_space_group.IT_coordinate_system_code '2'
_symmetry_cell_setting 'orthorhombic'
loop_
_space_group_symop_operation_xyz
x,y,z
1/2-x,1/2-y,z
1/2+x,-y,-z
-x,1/2+y,-z
-x,-y,-z
1/2+x,1/2+y,-z
1/2-x,y,z
x,1/2-y,z
loop_
_atom_site_type_symbol
_atom_site_label
_atom_site_fract_x
_atom_site_fract_y
_atom_site_fract_z
Si Si1 0.925628 0.041051 0.423452
Si Si2 0.573754 0.856390 0.806456
Si Si3 0.573158 0.449894 0.931483
Si Si4 0.423960 0.820543 0.630887
Si Si5 0.427217 0.988081 0.774535
Si Si6 0.078996 0.819915 0.976298
O O1 0.750000 0.033303 0.436235
O O2 0.971635 0.117552 0.429414
O O3 0.977194 0.011353 0.328815
O O4 0.000000 0.000000 0.500000
O O5 0.750000 0.871495 0.802141
O O6 0.525173 0.818202 0.718554
O O7 0.478781 0.921428 0.817916
O O8 0.532840 0.815142 0.892582
O O9 0.750000 0.462919 0.930851
O O10 0.508614 0.456484 0.831411
O O11 0.500000 0.500000 0.000000
O O12 0.530834 0.376805 0.957410
O O13 0.250000 0.830769 0.659176
O O14 0.444635 0.750000 0.582935
O O15 0.250000 0.996032 0.784408
O O16 0.250000 0.831738 0.943035
O O17 0.066517 0.750000 0.024942
#
# Coordination Sequence:
#
# PCOD8243763 Si02
#       6
#     8   8   8   8   8   8
#     4   9  19  34  54  78 102 131 167 210 259 308
#     4  11  20  29  46  74 104 133 168 208 253 304
#     4  11  21  33  53  77 102 135 176 217 254 300
#     4   9  18  33  51  71 101 138 169 201 251 313
#     4  10  20  35  53  74 102 136 173 212 258 311
#     4  10  21  35  49  67  99 141 176 209 255 307
#
# _framework density 17.321770999999998
#
# number of rings (size 3 to 8) (size 9 to 14) (size 15 to 20)
#    0.000    2.000    1.667    4.000    0.000    6.667 
#    0.000    0.000    0.000    1.000    0.000    7.000 
#    0.000    0.000    0.000    0.000    0.000    0.000 
#
# Total GULP energy -594919.083622 kJ/mol
# GULP energy per Si atom -12394.147575 kJ/mol
# Density = 1.728235 g / cm^3
# Si number density = 17.321771 Si / 1000 Ang^3
#
#
#
# Elastic Constant Matrix: (Units=GPa)
#
#
# Indices 1 2 3 4 5 6 
#
# 1 62.2017 40.0837 37.9609 0.0000 0.0000 0.0000
# 2 40.0837 148.3473 74.0349 0.0000 0.0000 0.0000
# 3 37.9609 74.0349 93.0703 0.0000 0.0000 0.0000
# 4 0.0000 0.0000 0.0000 22.4848 0.0000 0.0000
# 5 0.0000 0.0000 0.0000 0.0000 29.6927 0.0000
# 6 0.0000 0.0000 0.0000 0.0000 0.0000 22.1831
#
#
#
# Elastic Compliance Matrix: (Units=1/GPa)
#
#
# Indices 1 2 3 4 5 6 
#
# 1 0.021917 -0.002422 -0.007013 0.000000 0.000000 0.000000
# 2 -0.002422 0.011447 -0.008117 0.000000 0.000000 0.000000
# 3 -0.007013 -0.008117 0.020062 0.000000 0.000000 0.000000
# 4 0.000000 0.000000 0.000000 0.044475 0.000000 0.000000
# 5 0.000000 0.000000 0.000000 0.000000 0.033678 0.000000
# 6 0.000000 0.000000 0.000000 0.000000 0.000000 0.045079
#
#
# Mechanical properties :
#
#
# Convention : Reuss Voigt Hill
#
# Bulk Modulus (GPa) = 54.58148 67.53092 61.05620
# Shear Modulus (GPa) = 22.94944 24.97476 23.96210
#
# Velocity S-wave (km/s) = 3.64385 3.80124 3.72338
# Velocity P-wave (km/s) = 7.02013 7.63785 7.33550
#
# Compressibility (1/GPa) = 0.01832123
#
# Stress axis : x y z
#
# Youngs Moduli (GPa) = 45.62571 87.36227 49.84550
#
# Poissons Ratio (x) = 0.21163 0.34955
# Poissons Ratio (y) = 0.11052 0.40462
# Poissons Ratio (z) = 0.31995 0.70916
#
# Static dielectric constant tensor:
#      x y z
#    x 3.244780 0.000000 0.000000 
#    y 0.000000 3.443400 0.000000 
#    z 0.000000 0.000000 3.087730 
# 
# 
# High freq. dielectric constant tensor:
#      x y z
#    x 1.673060 0.000000 0.000000 
#    y 0.000000 1.672700 0.000000 
#    z 0.000000 0.000000 1.631630 
# 
# From -- ./inp_files/20716.got.cif
#   From: 2010.03.12/outbox.cif.g09.slc.cpg/sg59_11_cif.got.tgz:20716.got - 2010.04.16 16:29:54.
