data_PCOD8243679
_publ_section_title
;
Structure prediction by ZEFSAII (Michael W. Deem and Ramdas Pophale) SiO2 
 PCOD8243679
Probable space group: P M M N
;
_chemical_formula_sum "Si O2"
_cell_formula_units_Z 48
_cell_length_a 30.920871
_cell_length_b 8.911434
_cell_length_c 8.977143
_cell_angle_alpha 90.000000
_cell_angle_beta 90.000000
_cell_angle_gamma 90.000000
_cell_volume 2473.645480
_symmetry_space_group_name_H-M "P M M N"
_symmetry_group_IT_number 59
_space_group.IT_coordinate_system_code '2'
_symmetry_cell_setting 'orthorhombic'
loop_
_space_group_symop_operation_xyz
x,y,z
1/2-x,1/2-y,z
1/2+x,-y,-z
-x,1/2+y,-z
-x,-y,-z
1/2+x,1/2+y,-z
1/2-x,y,z
x,1/2-y,z
loop_
_atom_site_type_symbol
_atom_site_label
_atom_site_fract_x
_atom_site_fract_y
_atom_site_fract_z
Si Si1 0.837503 0.072685 0.829312
Si Si2 0.750000 0.917773 0.180863
Si Si3 0.418348 0.075937 0.322576
Si Si4 0.585097 0.921783 0.328596
Si Si5 0.750000 0.579973 0.826985
Si Si6 0.498070 0.573117 0.160199
Si Si7 0.663650 0.425191 0.173219
O O1 0.838404 0.250000 0.804467
O O2 0.874046 0.994684 0.733009
O O3 0.792104 0.008008 0.769248
O O4 0.844816 0.029324 0.001931
O O5 0.750000 0.750000 0.244842
O O6 0.793167 0.998768 0.239085
O O7 0.750000 0.920711 0.003911
O O8 0.419966 0.250000 0.277309
O O9 0.421880 0.052349 0.497885
O O10 0.457841 0.990532 0.249213
O O11 0.596957 0.750000 0.291926
O O12 0.541358 0.970908 0.247244
O O13 0.623309 0.026236 0.271568
O O14 0.750000 0.750000 0.764812
O O15 0.492298 0.750000 0.143768
O O16 0.500000 0.500000 0.000000
O O17 0.670809 0.250000 0.188120
#
# Coordination Sequence:
#
# PCOD8243679 Si02
#       7
#     8   4   8   8   4   8   8
#     4  10  20  35  56  84 115 148 187 233 281 331
#     4   9  17  31  54  81 112 147 184 228 278 327
#     4  11  23  39  58  82 113 149 187 229 277 331
#     4  10  23  40  57  80 113 150 186 226 277 332
#     4   9  17  31  54  83 112 147 188 232 280 329
#     4  11  23  40  62  87 113 144 184 230 277 330
#     4  10  20  34  56  84 113 145 186 232 277 327
#
# _framework density 19.40456
#
# number of rings (size 3 to 8) (size 9 to 14) (size 15 to 20)
#    0.000    1.833    0.000    4.000    0.000    9.333 
#    0.000    0.833    0.000    5.000    0.000    0.000 
#    0.000    0.000    0.000    0.000    0.000    0.000 
#
# Total GULP energy -595414.335165 kJ/mol
# GULP energy per Si atom -12404.465316 kJ/mol
# Density = 1.936039 g / cm^3
# Si number density = 19.404560 Si / 1000 Ang^3
#
#
#
# Elastic Constant Matrix: (Units=GPa)
#
#
# Indices 1 2 3 4 5 6 
#
# 1 174.8467 73.7587 58.1934 0.0000 0.0000 0.0000
# 2 73.7587 106.7623 47.0072 0.0000 0.0000 0.0000
# 3 58.1934 47.0072 75.9748 0.0000 0.0000 0.0000
# 4 0.0000 0.0000 0.0000 28.0752 0.0000 0.0000
# 5 0.0000 0.0000 0.0000 0.0000 -231.8743 0.0000
# 6 0.0000 0.0000 0.0000 0.0000 0.0000 41.3950
#
#
#
# Elastic Compliance Matrix: (Units=1/GPa)
#
#
# Indices 1 2 3 4 5 6 
#
# 1 0.008935 -0.004342 -0.004157 0.000000 0.000000 0.000000
# 2 -0.004342 0.014984 -0.005945 0.000000 0.000000 0.000000
# 3 -0.004157 -0.005945 0.020024 0.000000 0.000000 0.000000
# 4 0.000000 0.000000 0.000000 0.035619 0.000000 0.000000
# 5 0.000000 0.000000 0.000000 0.000000 -0.004313 0.000000
# 6 0.000000 0.000000 0.000000 0.000000 0.000000 0.024158
#
#
# Mechanical properties :
#
#
# Convention : Reuss Voigt Hill
#
# Bulk Modulus (GPa) = 66.42327 79.50028 72.96177
# Shear Modulus (GPa) = 37.50565 -20.57253 8.46656
#
# Velocity S-wave (km/s) = 4.40116 -3.25959 2.09109
# Velocity P-wave (km/s) = 7.75448 5.18578 6.59637
#
# Compressibility (1/GPa) = 0.01505497
#
# Stress axis : x y z
#
# Youngs Moduli (GPa) = 111.92422 66.73702 49.93905
#
# Poissons Ratio (x) = 0.28980 0.20759
# Poissons Ratio (y) = 0.48602 0.29688
# Poissons Ratio (z) = 0.46524 0.39675
#
# Static dielectric constant tensor:
#      x y z
#    x 3.510600 0.000000 0.000000 
#    y 0.000000 3.705630 0.000000 
#    z 0.000000 0.000000 3.591920 
# 
# 
# High freq. dielectric constant tensor:
#      x y z
#    x 1.775010 0.000000 0.000000 
#    y 0.000000 1.770100 0.000000 
#    z 0.000000 0.000000 1.738480 
# 
# From -- ./inp_files/13030.got.cif
#   From: 2010.03.12/outbox.cif.g09.slc.cpg/sg59_7_cif.got.tgz:13030.got - 2010.04.16 16:29:54.
