data_PCOD8243105
_publ_section_title
;
Structure prediction by ZEFSAII (Michael W. Deem and Ramdas Pophale) SiO2 
 PCOD8243105
Probable space group: P M M N
;
_chemical_formula_sum "Si O2"
_cell_formula_units_Z 40
_cell_length_a 18.285197
_cell_length_b 9.190184
_cell_length_c 13.601249
_cell_angle_alpha 90.000000
_cell_angle_beta 90.000000
_cell_angle_gamma 90.000000
_cell_volume 2285.612706
_symmetry_space_group_name_H-M "P M M N"
_symmetry_group_IT_number 59
_space_group.IT_coordinate_system_code '2'
_symmetry_cell_setting 'orthorhombic'
loop_
_space_group_symop_operation_xyz
x,y,z
1/2-x,1/2-y,z
1/2+x,-y,-z
-x,1/2+y,-z
-x,-y,-z
1/2+x,1/2+y,-z
1/2-x,y,z
x,1/2-y,z
loop_
_atom_site_type_symbol
_atom_site_label
_atom_site_fract_x
_atom_site_fract_y
_atom_site_fract_z
Si Si1 0.166529 0.917769 0.676837
Si Si2 0.100634 0.580771 0.884144
Si Si3 0.965783 0.921225 0.407615
Si Si4 0.169398 0.577715 0.085228
Si Si5 0.968531 0.419826 0.798726
O O1 0.250000 0.955635 0.651350
O O2 0.148515 0.750000 0.652544
O O3 0.153288 0.949689 0.791712
O O4 0.115911 0.019577 0.609755
O O5 0.082969 0.750000 0.896120
O O6 0.023721 0.500698 0.871327
O O7 0.140486 0.517886 0.980667
O O8 0.962016 0.750000 0.426900
O O9 0.016765 0.961006 0.314430
O O10 0.000000 0.000000 0.500000
O O11 0.250000 0.511704 0.107397
O O12 0.175369 0.750000 0.078121
O O13 0.113921 0.532329 0.172604
O O14 0.980769 0.250000 0.816657
#
# Coordination Sequence:
#
# PCOD8243105 Si02
#       5
#     8   8   8   8   8
#     4   9  17  30  49  74 100 123 152 192 236 282
#     4   9  16  27  47  72  96 124 155 186 224 273
#     4  10  20  34  51  70  93 123 161 202 245 290
#     4   9  16  27  45  69  96 125 156 188 222 267
#     4   9  18  31  47  68  93 122 157 195 234 278
#
# _framework density 17.500778
#
# number of rings (size 3 to 8) (size 9 to 14) (size 15 to 20)
#    0.000    2.800    0.000    1.800    0.000    3.600 
#    0.000    1.000    0.000    7.200    0.000    0.000 
#    0.000    0.000    0.000    0.000    0.000    0.000 
#
# Total GULP energy -495952.121469 kJ/mol
# GULP energy per Si atom -12398.803037 kJ/mol
# Density = 1.746095 g / cm^3
# Si number density = 17.500778 Si / 1000 Ang^3
#
#
#
# Elastic Constant Matrix: (Units=GPa)
#
#
# Indices 1 2 3 4 5 6 
#
# 1 164.5677 49.5499 79.2494 0.0000 0.0000 0.0000
# 2 49.5499 48.5298 39.9923 0.0000 0.0000 0.0000
# 3 79.2494 39.9923 101.4732 0.0000 0.0000 0.0000
# 4 0.0000 0.0000 0.0000 19.1029 0.0000 0.0000
# 5 0.0000 0.0000 0.0000 0.0000 24.0418 0.0000
# 6 0.0000 0.0000 0.0000 0.0000 0.0000 26.5882
#
#
#
# Elastic Compliance Matrix: (Units=1/GPa)
#
#
# Indices 1 2 3 4 5 6 
#
# 1 0.010818 -0.006047 -0.006066 0.000000 0.000000 0.000000
# 2 -0.006047 0.033898 -0.008637 0.000000 0.000000 0.000000
# 3 -0.006066 -0.008637 0.017996 0.000000 0.000000 0.000000
# 4 0.000000 0.000000 0.000000 0.052348 0.000000 0.000000
# 5 0.000000 0.000000 0.000000 0.000000 0.041594 0.000000
# 6 0.000000 0.000000 0.000000 0.000000 0.000000 0.037611
#
#
# Mechanical properties :
#
#
# Convention : Reuss Voigt Hill
#
# Bulk Modulus (GPa) = 47.14207 72.46155 59.80181
# Shear Modulus (GPa) = 20.59012 23.66517 22.12764
#
# Velocity S-wave (km/s) = 3.43377 3.68126 3.55967
# Velocity P-wave (km/s) = 6.53580 7.71775 7.15123
#
# Compressibility (1/GPa) = 0.02121248
#
# Stress axis : x y z
#
# Youngs Moduli (GPa) = 92.43653 29.50069 55.56785
#
# Poissons Ratio (x) = 0.17839 0.33706
# Poissons Ratio (y) = 0.55897 0.47994
# Poissons Ratio (z) = 0.56069 0.25480
#
# Static dielectric constant tensor:
#      x y z
#    x 3.568950 0.000000 0.000000 
#    y 0.000000 3.079180 0.000000 
#    z 0.000000 0.000000 3.220250 
# 
# 
# High freq. dielectric constant tensor:
#      x y z
#    x 1.680380 0.000000 0.000000 
#    y 0.000000 1.654490 0.000000 
#    z 0.000000 0.000000 1.666650 
# 
# From -- ./inp_files/14080.got.cif
#   From: 2010.03.12/outbox.cif.g09.slc.cpg/sg59_8_cif.got.tgz:14080.got - 2010.04.16 16:29:54.
