data_PCOD8243842
_publ_section_title
;
Structure prediction by ZEFSAII (Michael W. Deem and Ramdas Pophale) SiO2 
 PCOD8243842
Probable space group: P M M N
;
_chemical_formula_sum "Si O2"
_cell_formula_units_Z 56
_cell_length_a 8.901454
_cell_length_b 15.335261
_cell_length_c 20.906256
_cell_angle_alpha 90.000000
_cell_angle_beta 90.000000
_cell_angle_gamma 90.000000
_cell_volume 2853.831898
_symmetry_space_group_name_H-M "P M M N"
_symmetry_group_IT_number 59
_space_group.IT_coordinate_system_code '2'
_symmetry_cell_setting 'orthorhombic'
loop_
_space_group_symop_operation_xyz
x,y,z
1/2-x,1/2-y,z
1/2+x,-y,-z
-x,1/2+y,-z
-x,-y,-z
1/2+x,1/2+y,-z
1/2-x,y,z
x,1/2-y,z
loop_
_atom_site_type_symbol
_atom_site_label
_atom_site_fract_x
_atom_site_fract_y
_atom_site_fract_z
Si Si1 0.924213 0.150895 0.862146
Si Si2 0.573281 0.494297 0.208120
Si Si3 0.920963 0.652178 0.872007
Si Si4 0.078165 0.079989 0.468530
Si Si5 0.426175 0.009948 0.340982
Si Si6 0.576177 0.846225 0.403844
Si Si7 0.077439 0.408448 0.988445
O O1 0.750000 0.125939 0.867788
O O2 0.946215 0.250000 0.837692
O O3 0.997243 0.142649 0.931635
O O4 0.999905 0.086026 0.811560
O O5 0.750000 0.506904 0.208227
O O6 0.531519 0.417605 0.159268
O O7 0.517746 0.466565 0.277951
O O8 0.750000 0.629381 0.852054
O O9 0.963171 0.750000 0.849342
O O10 0.937300 0.649695 0.948366
O O11 0.250000 0.054377 0.464825
O O12 0.028088 0.085487 0.393637
O O13 0.048778 0.158961 0.518167
O O14 0.000000 0.000000 0.500000
O O15 0.250000 0.009905 0.324582
O O16 0.470384 0.914544 0.367859
O O17 0.750000 0.871288 0.390632
O O18 0.539231 0.750000 0.377187
O O19 0.250000 0.424436 0.969256
O O20 0.000000 0.500000 0.000000
#
# Coordination Sequence:
#
# PCOD8243842 Si02
#       7
#     8   8   8   8   8   8   8
#     4  11  24  41  61  86 118 155 196 244 297 353
#     4  12  25  40  60  84 115 156 199 246 294 348
#     4  10  22  41  64  87 115 152 193 239 291 348
#     4   8  15  29  50  75 101 134 173 214 262 316
#     4  10  20  35  55  77 108 148 189 230 276 337
#     4   9  17  31  53  82 113 141 177 226 277 333
#     4  11  21  36  62  92 121 153 190 236 293 350
#
# _framework density 19.622737999999998
#
# number of rings (size 3 to 8) (size 9 to 14) (size 15 to 20)
#    0.000    1.857    1.429    3.000    0.000    4.000 
#    0.000    0.714    0.000    2.571    0.000    0.000 
#    0.000    0.000    0.000    0.000    0.000    0.000 
#
# Total GULP energy -694009.897349 kJ/mol
# GULP energy per Si atom -12393.033881 kJ/mol
# Density = 1.957808 g / cm^3
# Si number density = 19.622738 Si / 1000 Ang^3
#
#
#
# Elastic Constant Matrix: (Units=GPa)
#
#
# Indices 1 2 3 4 5 6 
#
# 1 106.8086 26.2224 34.0345 0.0000 0.0000 0.0000
# 2 26.2224 62.7094 2.9331 0.0000 0.0000 0.0000
# 3 34.0345 2.9331 85.9262 0.0000 0.0000 0.0000
# 4 0.0000 0.0000 0.0000 17.5740 0.0000 0.0000
# 5 0.0000 0.0000 0.0000 0.0000 33.5532 0.0000
# 6 0.0000 0.0000 0.0000 0.0000 0.0000 21.2085
#
#
#
# Elastic Compliance Matrix: (Units=1/GPa)
#
#
# Indices 1 2 3 4 5 6 
#
# 1 0.012005 -0.004805 -0.004591 0.000000 0.000000 0.000000
# 2 -0.004805 0.017896 0.001292 0.000000 0.000000 0.000000
# 3 -0.004591 0.001292 0.013412 0.000000 0.000000 0.000000
# 4 0.000000 0.000000 0.000000 0.056902 0.000000 0.000000
# 5 0.000000 0.000000 0.000000 0.000000 0.029803 0.000000
# 6 0.000000 0.000000 0.000000 0.000000 0.000000 0.047151
#
#
# Mechanical properties :
#
#
# Convention : Reuss Voigt Hill
#
# Bulk Modulus (GPa) = 36.89346 42.42489 39.65917
# Shear Modulus (GPa) = 24.70200 27.28409 25.99305
#
# Velocity S-wave (km/s) = 3.55187 3.73290 3.64351
# Velocity P-wave (km/s) = 5.97187 6.34402 6.16075
#
# Compressibility (1/GPa) = 0.02710508
#
# Stress axis : x y z
#
# Youngs Moduli (GPa) = 83.29687 55.87997 74.55852
#
# Poissons Ratio (x) = 0.26852 0.34231
# Poissons Ratio (y) = 0.40027 -0.09637
# Poissons Ratio (z) = 0.38243 -0.07222
#
# Static dielectric constant tensor:
#      x y z
#    x 3.544810 0.000000 0.000000 
#    y 0.000000 4.341520 0.000000 
#    z 0.000000 0.000000 3.893620 
# 
# 
# High freq. dielectric constant tensor:
#      x y z
#    x 1.769010 0.000000 0.000000 
#    y 0.000000 1.749950 0.000000 
#    z 0.000000 0.000000 1.768820 
# 
# From -- ./inp_files/29123.got.cif
#   From: 2010.03.12/outbox.cif.g09.slc.cpg/sg59_15_cif.got.tgz:29123.got - 2010.04.16 16:29:54.
