data_PCOD8243519
_publ_section_title
;
Structure prediction by ZEFSAII (Michael W. Deem and Ramdas Pophale) SiO2 
 PCOD8243519
Probable space group: P M M N
;
_chemical_formula_sum "Si O2"
_cell_formula_units_Z 56
_cell_length_a 9.051885
_cell_length_b 14.271567
_cell_length_c 23.614947
_cell_angle_alpha 90.000000
_cell_angle_beta 90.000000
_cell_angle_gamma 90.000000
_cell_volume 3050.687087
_symmetry_space_group_name_H-M "P M M N"
_symmetry_group_IT_number 59
_space_group.IT_coordinate_system_code '2'
_symmetry_cell_setting 'orthorhombic'
loop_
_space_group_symop_operation_xyz
x,y,z
1/2-x,1/2-y,z
1/2+x,-y,-z
-x,1/2+y,-z
-x,-y,-z
1/2+x,1/2+y,-z
1/2-x,y,z
x,1/2-y,z
loop_
_atom_site_type_symbol
_atom_site_label
_atom_site_fract_x
_atom_site_fract_y
_atom_site_fract_z
Si Si1 0.915559 0.360416 0.932189
Si Si2 0.920988 0.142216 0.348527
Si Si3 0.575335 0.993863 0.145273
Si Si4 0.921511 0.142244 0.643290
Si Si5 0.925727 0.353442 0.057324
Si Si6 0.577474 0.510639 0.735010
Si Si7 0.922197 0.989580 0.440504
O O1 0.750000 0.400633 0.922652
O O2 0.912186 0.250000 0.926128
O O3 0.025484 0.398142 0.884364
O O4 0.976204 0.387716 0.994818
O O5 0.750000 0.132180 0.331228
O O6 0.964513 0.250000 0.359577
O O7 0.018535 0.102145 0.297460
O O8 0.954994 0.084109 0.405345
O O9 0.750000 0.995818 0.151925
O O10 0.514527 0.077603 0.105580
O O11 0.504672 0.002740 0.206177
O O12 0.750000 0.132907 0.627164
O O13 0.966631 0.250000 0.653967
O O14 0.014891 0.101521 0.591294
O O15 0.957610 0.083757 0.699882
O O16 0.750000 0.349873 0.057412
O O17 0.989605 0.250000 0.070387
O O18 0.750000 0.523304 0.745710
O O19 0.750000 0.973712 0.450214
O O20 0.000000 0.000000 0.500000
#
# Coordination Sequence:
#
# PCOD8243519 Si02
#       7
#     8   8   8   8   8   8   8
#     4   9  18  34  54  73  97 132 171 211 258 312
#     4   9  19  37  58  77 102 140 180 217 261 308
#     4  11  21  32  51  78 105 134 169 212 262 312
#     4   9  19  37  58  76  99 137 180 220 264 309
#     4   8  16  32  52  73  98 131 170 209 255 314
#     4  10  21  36  53  76 105 136 175 220 262 309
#     4  10  20  34  54  83 115 143 174 213 256 304
#
# _framework density 18.356521000000001
#
# number of rings (size 3 to 8) (size 9 to 14) (size 15 to 20)
#    0.000    2.571    0.000    2.571    0.000    3.714 
#    0.000    5.000    0.000    3.000    0.000    0.000 
#    0.000    0.000    0.000    0.000    0.000    0.000 
#
# Total GULP energy -694418.011275 kJ/mol
# GULP energy per Si atom -12400.321630 kJ/mol
# Density = 1.831474 g / cm^3
# Si number density = 18.356521 Si / 1000 Ang^3
#
#
#
# Elastic Constant Matrix: (Units=GPa)
#
#
# Indices 1 2 3 4 5 6 
#
# 1 80.5192 46.8926 70.4622 0.0000 0.0000 0.0000
# 2 46.8926 113.1885 60.4038 0.0000 0.0000 0.0000
# 3 70.4622 60.4038 153.0631 0.0000 0.0000 0.0000
# 4 0.0000 0.0000 0.0000 4.9773 0.0000 0.0000
# 5 0.0000 0.0000 0.0000 0.0000 32.1547 0.0000
# 6 0.0000 0.0000 0.0000 0.0000 0.0000 28.1172
#
#
#
# Elastic Compliance Matrix: (Units=1/GPa)
#
#
# Indices 1 2 3 4 5 6 
#
# 1 0.022725 -0.004854 -0.008546 0.000000 0.000000 0.000000
# 2 -0.004854 0.012229 -0.002591 0.000000 0.000000 0.000000
# 3 -0.008546 -0.002591 0.011490 0.000000 0.000000 0.000000
# 4 0.000000 0.000000 0.000000 0.200914 0.000000 0.000000
# 5 0.000000 0.000000 0.000000 0.000000 0.031100 0.000000
# 6 0.000000 0.000000 0.000000 0.000000 0.000000 0.035565
#
#
# Mechanical properties :
#
#
# Convention : Reuss Voigt Hill
#
# Bulk Modulus (GPa) = 69.15107 78.03200 73.59153
# Shear Modulus (GPa) = 14.25215 24.31733 19.28474
#
# Velocity S-wave (km/s) = 2.78943 3.64362 3.24476
# Velocity P-wave (km/s) = 6.93740 7.76549 7.36309
#
# Compressibility (1/GPa) = 0.01446109
#
# Stress axis : x y z
#
# Youngs Moduli (GPa) = 44.00526 81.77513 87.03370
#
# Poissons Ratio (x) = 0.39694 0.74376
# Poissons Ratio (y) = 0.21361 0.22553
# Poissons Ratio (z) = 0.37605 0.21190
#
# Static dielectric constant tensor:
#      x y z
#    x 3.350640 0.000000 0.000000 
#    y 0.000000 3.533290 0.000000 
#    z 0.000000 0.000000 3.416710 
# 
# 
# High freq. dielectric constant tensor:
#      x y z
#    x 1.703920 0.000000 0.000000 
#    y 0.000000 1.714410 0.000000 
#    z 0.000000 0.000000 1.713630 
# 
# From -- ./inp_files/29089.got.cif
#   From: 2010.03.12/outbox.cif.g09.slc.cpg/sg59_15_cif.got.tgz:29089.got - 2010.04.16 16:29:54.
