data_PCOD8243157
_publ_section_title
;
Structure prediction by ZEFSAII (Michael W. Deem and Ramdas Pophale) SiO2 
 PCOD8243157
Probable space group: P M M N
;
_chemical_formula_sum "Si O2"
_cell_formula_units_Z 56
_cell_length_a 13.400134
_cell_length_b 9.178483
_cell_length_c 23.787410
_cell_angle_alpha 90.000000
_cell_angle_beta 90.000000
_cell_angle_gamma 90.000000
_cell_volume 2925.682590
_symmetry_space_group_name_H-M "P M M N"
_symmetry_group_IT_number 59
_space_group.IT_coordinate_system_code '2'
_symmetry_cell_setting 'orthorhombic'
loop_
_space_group_symop_operation_xyz
x,y,z
1/2-x,1/2-y,z
1/2+x,-y,-z
-x,1/2+y,-z
-x,-y,-z
1/2+x,1/2+y,-z
1/2-x,y,z
x,1/2-y,z
loop_
_atom_site_type_symbol
_atom_site_label
_atom_site_fract_x
_atom_site_fract_y
_atom_site_fract_z
Si Si1 0.639713 0.917855 0.022897
Si Si2 0.441450 0.920784 0.080798
Si Si3 0.869197 0.585141 0.482435
Si Si4 0.448324 0.081670 0.306909
Si Si5 0.367034 0.912410 0.410987
Si Si6 0.366246 0.921214 0.201186
Si Si7 0.862040 0.083939 0.373359
O O1 0.750000 0.947670 0.048137
O O2 0.625244 0.750000 0.006661
O O3 0.628538 0.007022 0.965663
O O4 0.557273 0.963420 0.069249
O O5 0.422515 0.750000 0.076855
O O6 0.409600 0.977336 0.141918
O O7 0.750000 0.580113 0.484879
O O8 0.908664 0.750000 0.487325
O O9 0.914796 0.491640 0.534243
O O10 0.904431 0.517510 0.423149
O O11 0.416190 0.250000 0.304162
O O12 0.566274 0.064219 0.319732
O O13 0.384611 0.005660 0.355347
O O14 0.427563 0.006250 0.247986
O O15 0.250000 0.900062 0.420218
O O16 0.413174 0.750000 0.405056
O O17 0.250000 0.960677 0.205301
O O18 0.383961 0.750000 0.209474
O O19 0.750000 0.038739 0.355215
O O20 0.863958 0.250000 0.395386
#
# Coordination Sequence:
#
# PCOD8243157 Si02
#       7
#     8   8   8   8   8   8   8
#     4   9  17  30  51  81 114 143 173 215 262 300
#     4   9  18  33  53  77 107 144 182 214 250 303
#     4   9  17  30  51  78 103 127 161 206 252 301
#     4  11  23  36  53  76  99 128 169 215 258 299
#     4  10  20  34  52  74 103 137 167 200 250 309
#     4  10  21  37  55  75 103 139 174 208 250 302
#     4   9  19  37  56  72  95 128 164 204 255 313
#
# _framework density 19.140833000000001
#
# number of rings (size 3 to 8) (size 9 to 14) (size 15 to 20)
#    0.000    2.429    0.000    2.143    0.000    7.714 
#    0.000    0.714    0.000    0.857    0.000    0.000 
#    0.000    0.000    0.000    0.000    0.000    0.000 
#
# Total GULP energy -694475.265678 kJ/mol
# GULP energy per Si atom -12401.344030 kJ/mol
# Density = 1.909727 g / cm^3
# Si number density = 19.140833 Si / 1000 Ang^3
#
#
#
# Elastic Constant Matrix: (Units=GPa)
#
#
# Indices 1 2 3 4 5 6 
#
# 1 79.1846 34.9077 43.6748 0.0000 0.0000 0.0000
# 2 34.9077 89.3490 58.1717 0.0000 0.0000 0.0000
# 3 43.6748 58.1717 131.0328 0.0000 0.0000 0.0000
# 4 0.0000 0.0000 0.0000 34.7259 0.0000 0.0000
# 5 0.0000 0.0000 0.0000 0.0000 27.5563 0.0000
# 6 0.0000 0.0000 0.0000 0.0000 0.0000 21.8219
#
#
#
# Elastic Compliance Matrix: (Units=1/GPa)
#
#
# Indices 1 2 3 4 5 6 
#
# 1 0.016438 -0.004016 -0.003696 0.000000 0.000000 0.000000
# 2 -0.004016 0.016723 -0.006086 0.000000 0.000000 0.000000
# 3 -0.003696 -0.006086 0.011565 0.000000 0.000000 0.000000
# 4 0.000000 0.000000 0.000000 0.028797 0.000000 0.000000
# 5 0.000000 0.000000 0.000000 0.000000 0.036289 0.000000
# 6 0.000000 0.000000 0.000000 0.000000 0.000000 0.045825
#
#
# Mechanical properties :
#
#
# Convention : Reuss Voigt Hill
#
# Bulk Modulus (GPa) = 58.37313 63.67497 61.02405
# Shear Modulus (GPa) = 26.46299 27.67497 27.06898
#
# Velocity S-wave (km/s) = 3.72229 3.80657 3.76467
# Velocity P-wave (km/s) = 7.00263 7.25664 7.13076
#
# Compressibility (1/GPa) = 0.01713117
#
# Stress axis : x y z
#
# Youngs Moduli (GPa) = 60.83622 59.79748 86.46490
#
# Poissons Ratio (x) = 0.24012 0.31959
# Poissons Ratio (y) = 0.24429 0.52620
# Poissons Ratio (z) = 0.22486 0.36391
#
# Static dielectric constant tensor:
#      x y z
#    x 3.628830 0.000000 0.000000 
#    y 0.000000 3.618910 0.000000 
#    z 0.000000 0.000000 3.357770 
# 
# 
# High freq. dielectric constant tensor:
#      x y z
#    x 1.756580 0.000000 0.000000 
#    y 0.000000 1.748070 0.000000 
#    z 0.000000 0.000000 1.722650 
# 
# From -- ./inp_files/30347.got.cif
#   From: 2010.03.12/outbox.cif.g09.slc.cpg/sg59_16_cif.got.tgz:30347.got - 2010.04.16 16:29:54.
