data_PCOD8243407
_publ_section_title
;
Structure prediction by ZEFSAII (Michael W. Deem and Ramdas Pophale) SiO2 
 PCOD8243407
Probable space group: P M M N
;
_chemical_formula_sum "Si O2"
_cell_formula_units_Z 40
_cell_length_a 9.546057
_cell_length_b 9.480210
_cell_length_c 23.567660
_cell_angle_alpha 90.000000
_cell_angle_beta 90.000000
_cell_angle_gamma 90.000000
_cell_volume 2132.840825
_symmetry_space_group_name_H-M "P M M N"
_symmetry_group_IT_number 59
_space_group.IT_coordinate_system_code '2'
_symmetry_cell_setting 'orthorhombic'
loop_
_space_group_symop_operation_xyz
x,y,z
1/2-x,1/2-y,z
1/2+x,-y,-z
-x,1/2+y,-z
-x,-y,-z
1/2+x,1/2+y,-z
1/2-x,y,z
x,1/2-y,z
loop_
_atom_site_type_symbol
_atom_site_label
_atom_site_fract_x
_atom_site_fract_y
_atom_site_fract_z
Si Si1 0.588936 0.038658 0.130630
Si Si2 0.915502 0.916110 0.547406
Si Si3 0.411680 0.750000 0.965340
Si Si4 0.083862 0.590205 0.342851
Si Si5 0.909545 0.592470 0.760641
Si Si6 0.090092 0.250000 0.922040
O O1 0.750000 0.070271 0.146021
O O2 0.556464 0.876907 0.119903
O O3 0.548187 0.114718 0.072067
O O4 0.497102 0.092259 0.182126
O O5 0.750000 0.934583 0.536780
O O6 0.955950 0.750000 0.548224
O O7 0.963812 0.990196 0.605705
O O8 0.000000 0.000000 0.500000
O O9 0.250000 0.750000 0.982985
O O10 0.497624 0.750000 0.022485
O O11 0.250000 0.595830 0.341034
O O12 0.023117 0.750000 0.348841
O O13 0.027859 0.518384 0.284902
O O14 0.750000 0.552402 0.775693
O O15 0.916392 0.750000 0.734256
O O16 0.250000 0.250000 0.943236
#
# Coordination Sequence:
#
# PCOD8243407 Si02
#       6
#     8   8   4   8   8   4
#     4  10  21  37  54  76 107 140 171 212 269 322
#     4  10  20  35  57  84 116 153 191 232 278 328
#     4  10  20  36  56  76 102 138 175 212 259 320
#     4   9  18  33  54  80 110 144 182 226 275 321
#     4  10  20  34  54  79 104 135 179 224 264 316
#     4  10  22  36  54  78 106 136 171 214 263 316
#
# _framework density 18.754328999999998
#
# number of rings (size 3 to 8) (size 9 to 14) (size 15 to 20)
#    0.000    2.200    1.000    1.800    1.400    5.200 
#    0.000    1.000    0.000    3.600    0.000    0.000 
#    0.000    0.000    0.000    0.000    0.000    0.000 
#
# Total GULP energy -495919.622403 kJ/mol
# GULP energy per Si atom -12397.990560 kJ/mol
# Density = 1.871164 g / cm^3
# Si number density = 18.754329 Si / 1000 Ang^3
#
#
#
# Elastic Constant Matrix: (Units=GPa)
#
#
# Indices 1 2 3 4 5 6 
#
# 1 49.0658 32.8064 44.6908 0.0000 0.0000 0.0000
# 2 32.8064 144.2283 44.9485 0.0000 0.0000 0.0000
# 3 44.6908 44.9485 104.6162 0.0000 0.0000 0.0000
# 4 0.0000 0.0000 0.0000 -5.8201 0.0000 0.0000
# 5 0.0000 0.0000 0.0000 0.0000 28.5513 0.0000
# 6 0.0000 0.0000 0.0000 0.0000 0.0000 25.5059
#
#
#
# Elastic Compliance Matrix: (Units=1/GPa)
#
#
# Indices 1 2 3 4 5 6 
#
# 1 0.035097 -0.003822 -0.013351 0.000000 0.000000 0.000000
# 2 -0.003822 0.008422 -0.001985 0.000000 0.000000 0.000000
# 3 -0.013351 -0.001985 0.016115 0.000000 0.000000 0.000000
# 4 0.000000 0.000000 0.000000 -0.171817 0.000000 0.000000
# 5 0.000000 0.000000 0.000000 0.000000 0.035025 0.000000
# 6 0.000000 0.000000 0.000000 0.000000 0.000000 0.039207
#
#
# Mechanical properties :
#
#
# Convention : Reuss Voigt Hill
#
# Bulk Modulus (GPa) = 46.91229 60.31131 53.61180
# Shear Modulus (GPa) = 669.33409 21.34504 345.33956
#
# Velocity S-wave (km/s) = 18.91218 3.37729 13.58449
# Velocity P-wave (km/s) = 22.40452 6.88742 16.57406
#
# Compressibility (1/GPa) = 0.02131638
#
# Stress axis : x y z
#
# Youngs Moduli (GPa) = 28.49266 118.74105 62.05385
#
# Poissons Ratio (x) = 0.45389 0.82846
# Poissons Ratio (y) = 0.10891 0.12321
# Poissons Ratio (z) = 0.38039 0.23576
#
# Static dielectric constant tensor:
#      x y z
#    x 3.174550 0.000000 0.000000 
#    y 0.000000 3.880680 0.000000 
#    z 0.000000 0.000000 3.344580 
# 
# 
# High freq. dielectric constant tensor:
#      x y z
#    x 1.697740 0.000000 0.000000 
#    y 0.000000 1.752790 0.000000 
#    z 0.000000 0.000000 1.729240 
# 
# From -- ./inp_files/29961.got.cif
#   From: 2010.03.12/outbox.cif.g09.slc.cpg/sg59_15_cif.got.tgz:29961.got - 2010.04.16 16:29:54.
