data_PCOD8243866
_publ_section_title
;
Structure prediction by ZEFSAII (Michael W. Deem and Ramdas Pophale) SiO2 
 PCOD8243866
Probable space group: P M M N
;
_chemical_formula_sum "Si O2"
_cell_formula_units_Z 64
_cell_length_a 15.291678
_cell_length_b 9.015623
_cell_length_c 24.231503
_cell_angle_alpha 90.000000
_cell_angle_beta 90.000000
_cell_angle_gamma 90.000000
_cell_volume 3340.652024
_symmetry_space_group_name_H-M "P M M N"
_symmetry_group_IT_number 59
_space_group.IT_coordinate_system_code '2'
_symmetry_cell_setting 'orthorhombic'
loop_
_space_group_symop_operation_xyz
x,y,z
1/2-x,1/2-y,z
1/2+x,-y,-z
-x,1/2+y,-z
-x,-y,-z
1/2+x,1/2+y,-z
1/2-x,y,z
x,1/2-y,z
loop_
_atom_site_type_symbol
_atom_site_label
_atom_site_fract_x
_atom_site_fract_y
_atom_site_fract_z
Si Si1 0.496956 0.573754 0.310985
Si Si2 0.347844 0.919062 0.392031
Si Si3 0.353668 0.583876 0.999938
Si Si4 0.406929 0.425324 0.498680
Si Si5 0.849788 0.577199 0.109840
Si Si6 0.148360 0.424650 0.110148
Si Si7 0.509427 0.075255 0.813521
Si Si8 0.654794 0.925847 0.382552
O O1 0.501885 0.750000 0.309468
O O2 0.411557 0.519723 0.344344
O O3 0.494294 0.513529 0.248796
O O4 0.581491 0.505784 0.342207
O O5 0.250000 0.928067 0.368165
O O6 0.373674 0.750000 0.407444
O O7 0.352572 0.018060 0.446567
O O8 0.250000 0.585653 0.999625
O O9 0.392104 0.750000 0.003336
O O10 0.386733 0.491985 0.052607
O O11 0.386202 0.507769 0.943780
O O12 0.500000 0.500000 0.500000
O O13 0.417328 0.250000 0.494877
O O14 0.358159 0.475399 0.554308
O O15 0.750000 0.529588 0.125622
O O16 0.852083 0.750000 0.095581
O O17 0.915386 0.537135 0.159493
O O18 0.250000 0.466114 0.120697
O O19 0.134995 0.250000 0.107712
O O20 0.090328 0.492482 0.158562
O O21 0.528317 0.250000 0.816308
O O22 0.750000 0.982414 0.362812
O O23 0.649154 0.750000 0.379290
#
# Coordination Sequence:
#
# PCOD8243866 Si02
#       8
#     8   8   8   8   8   8   8   8
#     4   9  18  34  52  75 106 139 180 224 266 313
#     4  10  20  35  55  79 109 145 181 221 272 325
#     4   9  17  31  54  82 108 137 176 218 261 318
#     4  11  20  33  55  82 113 144 177 220 272 326
#     4   9  18  33  52  78 112 143 172 214 269 322
#     4  10  21  37  56  78 107 141 174 218 275 325
#     4  10  21  35  55  80 105 140 185 227 264 313
#     4   9  17  30  52  80 107 135 171 218 268 316
#
# _framework density 19.157937
#
# number of rings (size 3 to 8) (size 9 to 14) (size 15 to 20)
#    0.000    2.375    1.250    1.500    0.000    5.000 
#    0.000    4.375    0.000    0.000    0.000    0.000 
#    0.000    0.000    0.000    0.000    0.000    0.000 
#
# Total GULP energy -793549.703456 kJ/mol
# GULP energy per Si atom -12399.214116 kJ/mol
# Density = 1.911433 g / cm^3
# Si number density = 19.157937 Si / 1000 Ang^3
#
#
#
# Elastic Constant Matrix: (Units=GPa)
#
#
# Indices 1 2 3 4 5 6 
#
# 1 127.1047 35.5248 77.1775 0.0000 0.0000 0.0000
# 2 35.5248 58.9588 47.0992 0.0000 0.0000 0.0000
# 3 77.1775 47.0992 176.2758 0.0000 0.0000 0.0000
# 4 0.0000 0.0000 0.0000 25.6522 0.0000 0.0000
# 5 0.0000 0.0000 0.0000 0.0000 21.8528 0.0000
# 6 0.0000 0.0000 0.0000 0.0000 0.0000 20.4740
#
#
#
# Elastic Compliance Matrix: (Units=1/GPa)
#
#
# Indices 1 2 3 4 5 6 
#
# 1 0.011296 -0.003630 -0.003976 0.000000 0.000000 0.000000
# 2 -0.003630 0.022730 -0.004484 0.000000 0.000000 0.000000
# 3 -0.003976 -0.004484 0.008612 0.000000 0.000000 0.000000
# 4 0.000000 0.000000 0.000000 0.038983 0.000000 0.000000
# 5 0.000000 0.000000 0.000000 0.000000 0.045761 0.000000
# 6 0.000000 0.000000 0.000000 0.000000 0.000000 0.048843
#
#
# Mechanical properties :
#
#
# Convention : Reuss Voigt Hill
#
# Bulk Modulus (GPa) = 54.17626 75.77136 64.97381
# Shear Modulus (GPa) = 24.20635 27.09831 25.65233
#
# Velocity S-wave (km/s) = 3.55845 3.76502 3.66319
# Velocity P-wave (km/s) = 6.72485 7.65097 7.20281
#
# Compressibility (1/GPa) = 0.01845827
#
# Stress axis : x y z
#
# Youngs Moduli (GPa) = 88.52490 43.99401 116.12182
#
# Poissons Ratio (x) = 0.15972 0.46167
# Poissons Ratio (y) = 0.32138 0.52067
# Poissons Ratio (z) = 0.35195 0.19726
#
# Static dielectric constant tensor:
#      x y z
#    x 3.628300 0.000000 0.000000 
#    y 0.000000 3.365070 0.000000 
#    z 0.000000 0.000000 3.717150 
# 
# 
# High freq. dielectric constant tensor:
#      x y z
#    x 1.753200 0.000000 0.000000 
#    y 0.000000 1.715870 0.000000 
#    z 0.000000 0.000000 1.742970 
# 
# From -- ./inp_files/32172.got.cif
#   From: 2010.03.12/outbox.cif.g09.slc.cpg/sg59_17_cif.got.tgz:32172.got - 2010.04.16 16:29:54.
