data_PCOD8243819
_publ_section_title
;
Structure prediction by ZEFSAII (Michael W. Deem and Ramdas Pophale) SiO2 
 PCOD8243819
Probable space group: P M M N
;
_chemical_formula_sum "Si O2"
_cell_formula_units_Z 32
_cell_length_a 17.410221
_cell_length_b 8.914309
_cell_length_c 11.477823
_cell_angle_alpha 90.000000
_cell_angle_beta 90.000000
_cell_angle_gamma 90.000000
_cell_volume 1781.359160
_symmetry_space_group_name_H-M "P M M N"
_symmetry_group_IT_number 59
_space_group.IT_coordinate_system_code '2'
_symmetry_cell_setting 'orthorhombic'
loop_
_space_group_symop_operation_xyz
x,y,z
1/2-x,1/2-y,z
1/2+x,-y,-z
-x,1/2+y,-z
-x,-y,-z
1/2+x,1/2+y,-z
1/2-x,y,z
x,1/2-y,z
loop_
_atom_site_type_symbol
_atom_site_label
_atom_site_fract_x
_atom_site_fract_y
_atom_site_fract_z
Si Si1 0.335441 0.079573 0.821476
Si Si2 0.750000 0.571665 0.703965
Si Si3 0.951195 0.423278 0.340913
Si Si4 0.602209 0.424257 0.598496
Si Si5 0.250000 0.074640 0.037984
O O1 0.250000 0.066928 0.763705
O O2 0.365899 0.250000 0.807250
O O3 0.394036 0.965347 0.763078
O O4 0.325868 0.035633 0.959488
O O5 0.750000 0.750000 0.705703
O O6 0.675623 0.516658 0.636769
O O7 0.750000 0.498766 0.834825
O O8 0.973894 0.250000 0.330514
O O9 0.909314 0.458032 0.462296
O O10 0.028366 0.520251 0.329315
O O11 0.615403 0.250000 0.623862
O O12 0.250000 0.250000 0.059918
#
# Coordination Sequence:
#
# PCOD8243819 Si02
#       5
#     8   4   8   8   4
#     4   8  16  32  55  78 103 136 171 212 261 306
#     4  11  21  36  57  78 104 139 178 213 256 311
#     4  10  20  35  54  80 108 135 174 218 259 305
#     4  10  22  37  53  76 110 142 171 212 261 313
#     4   7  16  34  53  76 104 137 176 217 254 303
#
# _framework density 17.963811
#
# number of rings (size 3 to 8) (size 9 to 14) (size 15 to 20)
#    0.750    2.000    0.000    1.875    1.750    3.500 
#    0.000    3.750    0.000    0.000    0.000    0.000 
#    0.000    0.000    0.000    0.000    0.000    0.000 
#
# Total GULP energy -396553.109032 kJ/mol
# GULP energy per Si atom -12392.284657 kJ/mol
# Density = 1.792292 g / cm^3
# Si number density = 17.963811 Si / 1000 Ang^3
#
#
#
# Elastic Constant Matrix: (Units=GPa)
#
#
# Indices 1 2 3 4 5 6 
#
# 1 106.6218 45.9725 51.6965 0.0000 0.0000 0.0000
# 2 45.9725 73.2874 39.5906 0.0000 0.0000 0.0000
# 3 51.6965 39.5906 70.5697 0.0000 0.0000 0.0000
# 4 0.0000 0.0000 0.0000 21.1262 0.0000 0.0000
# 5 0.0000 0.0000 0.0000 0.0000 192.3833 0.0000
# 6 0.0000 0.0000 0.0000 0.0000 0.0000 26.9220
#
#
#
# Elastic Compliance Matrix: (Units=1/GPa)
#
#
# Indices 1 2 3 4 5 6 
#
# 1 0.015845 -0.005264 -0.008654 0.000000 0.000000 0.000000
# 2 -0.005264 0.021328 -0.008109 0.000000 0.000000 0.000000
# 3 -0.008654 -0.008109 0.025059 0.000000 0.000000 0.000000
# 4 0.000000 0.000000 0.000000 0.047335 0.000000 0.000000
# 5 0.000000 0.000000 0.000000 0.000000 0.005198 0.000000
# 6 0.000000 0.000000 0.000000 0.000000 0.000000 0.037144
#
#
# Mechanical properties :
#
#
# Convention : Reuss Voigt Hill
#
# Bulk Modulus (GPa) = 55.01288 58.33314 56.67301
# Shear Modulus (GPa) = 24.74998 55.63427 40.19212
#
# Velocity S-wave (km/s) = 3.71586 5.57112 4.73524
# Velocity P-wave (km/s) = 7.00720 8.59804 7.84306
#
# Compressibility (1/GPa) = 0.01817756
#
# Stress axis : x y z
#
# Youngs Moduli (GPa) = 63.11284 46.88778 39.90608
#
# Poissons Ratio (x) = 0.24683 0.34534
# Poissons Ratio (y) = 0.33225 0.32358
# Poissons Ratio (z) = 0.54616 0.38020
#
# Static dielectric constant tensor:
#      x y z
#    x 3.220070 0.000000 0.000000 
#    y 0.000000 3.181570 0.000000 
#    z 0.000000 0.000000 3.402480 
# 
# 
# High freq. dielectric constant tensor:
#      x y z
#    x 1.686620 0.000000 0.000000 
#    y 0.000000 1.692240 0.000000 
#    z 0.000000 0.000000 1.684640 
# 
# From -- ./inp_files/17427.got.cif
#   From: 2010.03.12/outbox.cif.g09.slc.cpg/sg59_9_cif.got.tgz:17427.got - 2010.04.16 16:29:54.
