data_PCOD8243426
_publ_section_title
;
Structure prediction by ZEFSAII (Michael W. Deem and Ramdas Pophale) SiO2 
 PCOD8243426
Probable space group: P M M N
;
_chemical_formula_sum "Si O2"
_cell_formula_units_Z 48
_cell_length_a 17.736823
_cell_length_b 9.223516
_cell_length_c 15.317220
_cell_angle_alpha 90.000000
_cell_angle_beta 90.000000
_cell_angle_gamma 90.000000
_cell_volume 2505.833943
_symmetry_space_group_name_H-M "P M M N"
_symmetry_group_IT_number 59
_space_group.IT_coordinate_system_code '2'
_symmetry_cell_setting 'orthorhombic'
loop_
_space_group_symop_operation_xyz
x,y,z
1/2-x,1/2-y,z
1/2+x,-y,-z
-x,1/2+y,-z
-x,-y,-z
1/2+x,1/2+y,-z
1/2-x,y,z
x,1/2-y,z
loop_
_atom_site_type_symbol
_atom_site_label
_atom_site_fract_x
_atom_site_fract_y
_atom_site_fract_z
Si Si1 0.836518 0.415681 0.486314
Si Si2 0.576138 0.082327 0.656057
Si Si3 0.164556 0.421335 0.196300
Si Si4 0.660657 0.589762 0.997388
Si Si5 0.161215 0.582124 0.835770
Si Si6 0.598522 0.581351 0.327443
O O1 0.750000 0.428493 0.514929
O O2 0.857713 0.250000 0.462480
O O3 0.886363 0.473753 0.566622
O O4 0.849734 0.514525 0.402477
O O5 0.595654 0.250000 0.671113
O O6 0.487767 0.054036 0.647688
O O7 0.608060 0.994723 0.737064
O O8 0.250000 0.477371 0.211868
O O9 0.161485 0.250000 0.209102
O O10 0.135600 0.463025 0.098950
O O11 0.750000 0.600896 0.996993
O O12 0.627336 0.750000 0.018015
O O13 0.633219 0.476244 0.070229
O O14 0.250000 0.556521 0.822350
O O15 0.139931 0.750000 0.829570
O O16 0.115887 0.495412 0.763345
O O17 0.617938 0.750000 0.318261
#
# Coordination Sequence:
#
# PCOD8243426 Si02
#       6
#     8   8   8   8   8   8
#     4  10  21  38  59  81 105 135 173 218 267 316
#     4  10  22  38  55  78 109 144 178 214 261 315
#     4   9  18  33  55  83 111 140 177 220 265 313
#     4   8  15  30  52  78 108 139 173 218 267 310
#     4  10  20  34  54  80 107 138 179 223 267 316
#     4  11  23  37  54  78 108 142 179 217 261 315
#
# _framework density 19.155301000000001
#
# number of rings (size 3 to 8) (size 9 to 14) (size 15 to 20)
#    0.000    2.333    0.000    3.500    0.000    7.000 
#    0.000    2.500    0.000    0.000    0.000    0.000 
#    0.000    0.000    0.000    0.000    0.000    0.000 
#
# Total GULP energy -595292.816864 kJ/mol
# GULP energy per Si atom -12401.933685 kJ/mol
# Density = 1.911170 g / cm^3
# Si number density = 19.155301 Si / 1000 Ang^3
#
#
#
# Elastic Constant Matrix: (Units=GPa)
#
#
# Indices 1 2 3 4 5 6 
#
# 1 46.5019 26.0219 22.4253 0.0000 0.0000 0.0000
# 2 26.0219 83.7319 51.5407 0.0000 0.0000 0.0000
# 3 22.4253 51.5407 121.5103 0.0000 0.0000 0.0000
# 4 0.0000 0.0000 0.0000 37.5884 0.0000 0.0000
# 5 0.0000 0.0000 0.0000 0.0000 11.3367 0.0000
# 6 0.0000 0.0000 0.0000 0.0000 0.0000 26.7334
#
#
#
# Elastic Compliance Matrix: (Units=1/GPa)
#
#
# Indices 1 2 3 4 5 6 
#
# 1 0.026345 -0.007030 -0.001880 0.000000 0.000000 0.000000
# 2 -0.007030 0.018039 -0.006354 0.000000 0.000000 0.000000
# 3 -0.001880 -0.006354 0.011272 0.000000 0.000000 0.000000
# 4 0.000000 0.000000 0.000000 0.026604 0.000000 0.000000
# 5 0.000000 0.000000 0.000000 0.000000 0.088209 0.000000
# 6 0.000000 0.000000 0.000000 0.000000 0.000000 0.037406
#
#
# Mechanical properties :
#
#
# Convention : Reuss Voigt Hill
#
# Bulk Modulus (GPa) = 39.79741 50.19109 44.99425
# Shear Modulus (GPa) = 20.26098 25.24879 22.75489
#
# Velocity S-wave (km/s) = 3.25579 3.63452 3.45035
# Velocity P-wave (km/s) = 5.91226 6.62360 6.27801
#
# Compressibility (1/GPa) = 0.02512726
#
# Stress axis : x y z
#
# Youngs Moduli (GPa) = 37.95767 55.43576 88.71582
#
# Poissons Ratio (x) = 0.38972 0.16680
# Poissons Ratio (y) = 0.26685 0.56371
# Poissons Ratio (z) = 0.07137 0.35224
#
# Static dielectric constant tensor:
#      x y z
#    x 3.311010 0.000000 0.000000 
#    y 0.000000 3.610300 0.000000 
#    z 0.000000 0.000000 3.693630 
# 
# 
# High freq. dielectric constant tensor:
#      x y z
#    x 1.726630 0.000000 0.000000 
#    y 0.000000 1.743410 0.000000 
#    z 0.000000 0.000000 1.758650 
# 
# From -- ./inp_files/20300.got.cif
#   From: 2010.03.12/outbox.cif.g09.slc.cpg/sg59_11_cif.got.tgz:20300.got - 2010.04.16 16:29:54.
