data_PCOD8243899
_publ_section_title
;
Structure prediction by ZEFSAII (Michael W. Deem and Ramdas Pophale) SiO2 
 PCOD8243899
Probable space group: P M M N
;
_chemical_formula_sum "Si O2"
_cell_formula_units_Z 56
_cell_length_a 14.142830
_cell_length_b 9.136828
_cell_length_c 21.709003
_cell_angle_alpha 90.000000
_cell_angle_beta 90.000000
_cell_angle_gamma 90.000000
_cell_volume 2805.250505
_symmetry_space_group_name_H-M "P M M N"
_symmetry_group_IT_number 59
_space_group.IT_coordinate_system_code '2'
_symmetry_cell_setting 'orthorhombic'
loop_
_space_group_symop_operation_xyz
x,y,z
1/2-x,1/2-y,z
1/2+x,-y,-z
-x,1/2+y,-z
-x,-y,-z
1/2+x,1/2+y,-z
1/2-x,y,z
x,1/2-y,z
loop_
_atom_site_type_symbol
_atom_site_label
_atom_site_fract_x
_atom_site_fract_y
_atom_site_fract_z
Si Si1 0.648836 0.921336 0.142185
Si Si2 0.139611 0.080564 0.163434
Si Si3 0.944304 0.584190 0.706081
Si Si4 0.851278 0.411033 0.263283
Si Si5 0.465764 0.580656 0.409837
Si Si6 0.021935 0.925636 0.064456
Si Si7 0.859583 0.079837 0.464867
O O1 0.750000 0.972076 0.114557
O O2 0.638493 0.750000 0.139679
O O3 0.566054 0.989120 0.102615
O O4 0.640241 0.966292 0.212282
O O5 0.250000 0.056727 0.174823
O O6 0.115119 0.250000 0.150508
O O7 0.086437 0.025869 0.226055
O O8 0.111775 0.986678 0.102663
O O9 0.906352 0.750000 0.698966
O O10 0.909070 0.485189 0.649519
O O11 0.057564 0.574871 0.694216
O O12 0.750000 0.430452 0.299394
O O13 0.852909 0.250000 0.231712
O O14 0.484768 0.750000 0.397717
O O15 0.569014 0.508826 0.420980
O O16 0.393405 0.552995 0.465336
O O17 0.029576 0.750000 0.057852
O O18 0.000000 0.000000 0.000000
O O19 0.750000 0.027194 0.458020
O O20 0.867966 0.250000 0.446992
#
# Coordination Sequence:
#
# PCOD8243899 Si02
#       7
#     8   8   8   8   8   8   8
#     4   9  18  33  53  77 104 134 170 217 275 331
#     4  10  22  41  62  84 115 155 198 243 288 336
#     4  10  20  35  55  81 116 154 191 230 283 347
#     4   9  17  30  51  77 103 135 176 221 270 329
#     4  10  21  35  55  86 117 147 191 241 286 335
#     4  11  23  38  59  85 114 148 190 237 289 346
#     4   9  19  38  60  80 110 153 195 237 288 341
#
# _framework density 19.962567
#
# number of rings (size 3 to 8) (size 9 to 14) (size 15 to 20)
#    0.000    2.286    1.429    0.857    0.000    4.571 
#    0.000    2.857    0.000    0.000    0.000    0.000 
#    0.000    0.000    0.000    0.000    0.000    0.000 
#
# Total GULP energy -693769.700805 kJ/mol
# GULP energy per Si atom -12388.744657 kJ/mol
# Density = 1.991713 g / cm^3
# Si number density = 19.962567 Si / 1000 Ang^3
#
#
#
# Elastic Constant Matrix: (Units=GPa)
#
#
# Indices 1 2 3 4 5 6 
#
# 1 84.6276 29.4448 19.3920 0.0000 0.0000 0.0000
# 2 29.4448 53.5118 43.9184 0.0000 0.0000 0.0000
# 3 19.3920 43.9184 105.6020 0.0000 0.0000 0.0000
# 4 0.0000 0.0000 0.0000 35.6271 0.0000 0.0000
# 5 0.0000 0.0000 0.0000 0.0000 12.8269 0.0000
# 6 0.0000 0.0000 0.0000 0.0000 0.0000 25.7007
#
#
#
# Elastic Compliance Matrix: (Units=1/GPa)
#
#
# Indices 1 2 3 4 5 6 
#
# 1 0.014685 -0.008907 0.001008 0.000000 0.000000 0.000000
# 2 -0.008907 0.033775 -0.012411 0.000000 0.000000 0.000000
# 3 0.001008 -0.012411 0.014446 0.000000 0.000000 0.000000
# 4 0.000000 0.000000 0.000000 0.028069 0.000000 0.000000
# 5 0.000000 0.000000 0.000000 0.000000 0.077961 0.000000
# 6 0.000000 0.000000 0.000000 0.000000 0.000000 0.038909
#
#
# Mechanical properties :
#
#
# Convention : Reuss Voigt Hill
#
# Bulk Modulus (GPa) = 44.87393 47.69465 46.28429
# Shear Modulus (GPa) = 19.53943 24.89669 22.21806
#
# Velocity S-wave (km/s) = 3.13198 3.53536 3.33976
# Velocity P-wave (km/s) = 5.96715 6.37251 6.17316
#
# Compressibility (1/GPa) = 0.02228465
#
# Stress axis : x y z
#
# Youngs Moduli (GPa) = 68.09796 29.60809 69.22394
#
# Poissons Ratio (x) = 0.26373 -0.06977
# Poissons Ratio (y) = 0.60658 0.85912
# Poissons Ratio (z) = -0.06864 0.36746
#
# Static dielectric constant tensor:
#      x y z
#    x 3.940300 0.000000 0.000000 
#    y 0.000000 3.574240 0.000000 
#    z 0.000000 0.000000 3.623390 
# 
# 
# High freq. dielectric constant tensor:
#      x y z
#    x 1.784100 0.000000 0.000000 
#    y 0.000000 1.769680 0.000000 
#    z 0.000000 0.000000 1.770950 
# 
# From -- ./inp_files/30312.got.cif
#   From: 2010.03.12/outbox.cif.g09.slc.cpg/sg59_16_cif.got.tgz:30312.got - 2010.04.16 16:29:54.
