data_PCOD8243660
_publ_section_title
;
Structure prediction by ZEFSAII (Michael W. Deem and Ramdas Pophale) SiO2 
 PCOD8243660
Probable space group: P M M N
;
_chemical_formula_sum "Si O2"
_cell_formula_units_Z 64
_cell_length_a 14.761557
_cell_length_b 9.313864
_cell_length_c 24.266370
_cell_angle_alpha 90.000000
_cell_angle_beta 90.000000
_cell_angle_gamma 90.000000
_cell_volume 3336.313672
_symmetry_space_group_name_H-M "P M M N"
_symmetry_group_IT_number 59
_space_group.IT_coordinate_system_code '2'
_symmetry_cell_setting 'orthorhombic'
loop_
_space_group_symop_operation_xyz
x,y,z
1/2-x,1/2-y,z
1/2+x,-y,-z
-x,1/2+y,-z
-x,-y,-z
1/2+x,1/2+y,-z
1/2-x,y,z
x,1/2-y,z
loop_
_atom_site_type_symbol
_atom_site_label
_atom_site_fract_x
_atom_site_fract_y
_atom_site_fract_z
Si Si1 0.142792 0.585169 0.726905
Si Si2 0.354376 0.093063 0.624716
Si Si3 0.005429 0.083751 0.921592
Si Si4 0.351063 0.579835 0.285814
Si Si5 0.907359 0.580743 0.496144
Si Si6 0.648094 0.405074 0.595417
Si Si7 0.494584 0.081601 0.794889
Si Si8 0.144947 0.581271 0.991445
O O1 0.250000 0.568493 0.734154
O O2 0.112987 0.750000 0.727455
O O3 0.106455 0.518759 0.668946
O O4 0.096034 0.501444 0.776941
O O5 0.250000 0.112036 0.637340
O O6 0.402034 0.250000 0.631177
O O7 0.365181 0.036105 0.562391
O O8 0.028674 0.250000 0.930722
O O9 0.986026 0.047265 0.858333
O O10 0.094107 0.996248 0.940912
O O11 0.912875 0.042017 0.953798
O O12 0.250000 0.514055 0.275937
O O13 0.345745 0.750000 0.281020
O O14 0.393427 0.538180 0.346516
O O15 0.419755 0.520848 0.239582
O O16 0.916099 0.750000 0.502675
O O17 0.849905 0.521591 0.547088
O O18 0.000000 0.500000 0.500000
O O19 0.750000 0.372131 0.612224
O O20 0.603482 0.250000 0.577314
O O21 0.478661 0.250000 0.784512
O O22 0.250000 0.529004 0.997385
O O23 0.143265 0.750000 0.979725
#
# Coordination Sequence:
#
# PCOD8243660 Si02
#       8
#     8   8   8   8   8   8   8   8
#     4  10  22  38  55  77 106 140 179 223 272 323
#     4   9  19  37  57  73  94 129 172 217 265 320
#     4   9  19  34  52  81 114 143 182 226 267 312
#     4   8  16  32  54  79 105 136 175 216 263 319
#     4  11  23  35  50  75 104 132 168 214 266 326
#     4   9  18  34  54  74  99 131 167 211 264 323
#     4  10  20  34  56  82 110 144 180 222 266 313
#     4   9  18  34  56  80 110 148 185 223 267 313
#
# _framework density 19.182848
#
# number of rings (size 3 to 8) (size 9 to 14) (size 15 to 20)
#    0.000    2.625    0.000    1.875    1.750    4.250 
#    0.000    6.250    0.000    1.125    0.000    1.750 
#    0.000    0.000    0.000    0.000    0.000    0.000 
#
# Total GULP energy -793116.550774 kJ/mol
# GULP energy per Si atom -12392.446106 kJ/mol
# Density = 1.913919 g / cm^3
# Si number density = 19.182848 Si / 1000 Ang^3
#
#
#
# Elastic Constant Matrix: (Units=GPa)
#
#
# Indices 1 2 3 4 5 6 
#
# 1 86.4392 34.3185 39.7071 0.0000 0.0000 0.0000
# 2 34.3185 68.1394 48.1828 0.0000 0.0000 0.0000
# 3 39.7071 48.1828 130.2365 0.0000 0.0000 0.0000
# 4 0.0000 0.0000 0.0000 28.3385 0.0000 0.0000
# 5 0.0000 0.0000 0.0000 0.0000 27.7970 0.0000
# 6 0.0000 0.0000 0.0000 0.0000 0.0000 21.5812
#
#
#
# Elastic Compliance Matrix: (Units=1/GPa)
#
#
# Indices 1 2 3 4 5 6 
#
# 1 0.014998 -0.005851 -0.002408 0.000000 0.000000 0.000000
# 2 -0.005851 0.022158 -0.006414 0.000000 0.000000 0.000000
# 3 -0.002408 -0.006414 0.010785 0.000000 0.000000 0.000000
# 4 0.000000 0.000000 0.000000 0.035288 0.000000 0.000000
# 5 0.000000 0.000000 0.000000 0.000000 0.035975 0.000000
# 6 0.000000 0.000000 0.000000 0.000000 0.000000 0.046337
#
#
# Mechanical properties :
#
#
# Convention : Reuss Voigt Hill
#
# Bulk Modulus (GPa) = 53.77567 58.80356 56.28962
# Shear Modulus (GPa) = 24.86514 26.38380 25.62447
#
# Velocity S-wave (km/s) = 3.60421 3.71264 3.65883
# Velocity P-wave (km/s) = 6.73903 7.00707 6.87436
#
# Compressibility (1/GPa) = 0.01859577
#
# Stress axis : x y z
#
# Youngs Moduli (GPa) = 66.67574 45.13050 92.71826
#
# Poissons Ratio (x) = 0.26406 0.22326
# Poissons Ratio (y) = 0.39012 0.59467
# Poissons Ratio (z) = 0.16055 0.28946
#
# Static dielectric constant tensor:
#      x y z
#    x 3.538760 0.000000 0.000000 
#    y 0.000000 4.529280 0.000000 
#    z 0.000000 0.000000 2.933070 
# 
# 
# High freq. dielectric constant tensor:
#      x y z
#    x 1.746760 0.000000 0.000000 
#    y 0.000000 1.724870 0.000000 
#    z 0.000000 0.000000 1.747410 
# 
# From -- ./inp_files/32219.got.cif
#   From: 2010.03.12/outbox.cif.g09.slc.cpg/sg59_17_cif.got.tgz:32219.got - 2010.04.16 16:29:54.
