data_PCOD8243056
_publ_section_title
;
Structure prediction by ZEFSAII (Michael W. Deem and Ramdas Pophale) SiO2 
 PCOD8243056
Probable space group: P M M N
;
_chemical_formula_sum "Si O2"
_cell_formula_units_Z 48
_cell_length_a 17.672324
_cell_length_b 9.315974
_cell_length_c 15.275356
_cell_angle_alpha 90.000000
_cell_angle_beta 90.000000
_cell_angle_gamma 90.000000
_cell_volume 2514.856874
_symmetry_space_group_name_H-M "P M M N"
_symmetry_group_IT_number 59
_space_group.IT_coordinate_system_code '2'
_symmetry_cell_setting 'orthorhombic'
loop_
_space_group_symop_operation_xyz
x,y,z
1/2-x,1/2-y,z
1/2+x,-y,-z
-x,1/2+y,-z
-x,-y,-z
1/2+x,1/2+y,-z
1/2-x,y,z
x,1/2-y,z
loop_
_atom_site_type_symbol
_atom_site_label
_atom_site_fract_x
_atom_site_fract_y
_atom_site_fract_z
Si Si1 0.162603 0.418309 0.833490
Si Si2 0.904944 0.083216 0.323171
Si Si3 0.419838 0.415713 0.346414
Si Si4 0.836901 0.586203 0.478967
Si Si5 0.839786 0.591454 0.971307
Si Si6 0.661189 0.416458 0.806370
O O1 0.250000 0.461768 0.819506
O O2 0.151816 0.250000 0.814764
O O3 0.110227 0.509856 0.769731
O O4 0.134438 0.456853 0.931701
O O5 0.884905 0.250000 0.316140
O O6 0.991260 0.056861 0.349254
O O7 0.851865 0.013709 0.396233
O O8 0.399555 0.250000 0.327956
O O9 0.387364 0.465698 0.439688
O O10 0.382498 0.510795 0.272253
O O11 0.750000 0.570951 0.507181
O O12 0.856478 0.750000 0.453138
O O13 0.750000 0.598650 0.971890
O O14 0.872107 0.750000 0.949369
O O15 0.868996 0.480902 0.898199
O O16 0.750000 0.445504 0.794385
O O17 0.641397 0.250000 0.806911
#
# Coordination Sequence:
#
# PCOD8243056 Si02
#       6
#     8   8   8   8   8   8
#     4   9  18  34  56  80 106 141 184 222 260 314
#     4  11  23  36  53  80 111 141 174 217 268 315
#     4  10  22  39  56  76 106 145 183 214 254 315
#     4  10  21  38  60  81 101 134 179 220 261 315
#     4   8  15  30  53  78 104 138 179 220 261 309
#     4  10  20  33  53  83 112 137 172 221 272 315
#
# _framework density 19.086573999999999
#
# number of rings (size 3 to 8) (size 9 to 14) (size 15 to 20)
#    0.000    2.333    0.000    3.500    0.000    7.000 
#    0.000    2.500    0.000    0.000    0.000    0.000 
#    0.000    0.000    0.000    0.000    0.000    0.000 
#
# Total GULP energy -595305.490927 kJ/mol
# GULP energy per Si atom -12402.197728 kJ/mol
# Density = 1.904313 g / cm^3
# Si number density = 19.086574 Si / 1000 Ang^3
#
#
#
# Elastic Constant Matrix: (Units=GPa)
#
#
# Indices 1 2 3 4 5 6 
#
# 1 44.2866 31.1109 24.4463 0.0000 0.0000 0.0000
# 2 31.1109 85.5313 60.2213 0.0000 0.0000 0.0000
# 3 24.4463 60.2213 123.2515 0.0000 0.0000 0.0000
# 4 0.0000 0.0000 0.0000 22.6191 0.0000 0.0000
# 5 0.0000 0.0000 0.0000 0.0000 73.7261 0.0000
# 6 0.0000 0.0000 0.0000 0.0000 0.0000 27.6681
#
#
#
# Elastic Compliance Matrix: (Units=1/GPa)
#
#
# Indices 1 2 3 4 5 6 
#
# 1 0.030404 -0.010386 -0.000956 0.000000 0.000000 0.000000
# 2 -0.010386 0.021371 -0.008382 0.000000 0.000000 0.000000
# 3 -0.000956 -0.008382 0.012399 0.000000 0.000000 0.000000
# 4 0.000000 0.000000 0.000000 0.044210 0.000000 0.000000
# 5 0.000000 0.000000 0.000000 0.000000 0.013564 0.000000
# 6 0.000000 0.000000 0.000000 0.000000 0.000000 0.036143
#
#
# Mechanical properties :
#
#
# Convention : Reuss Voigt Hill
#
# Bulk Modulus (GPa) = 40.44351 53.84740 47.14545
# Shear Modulus (GPa) = 24.29780 33.95539 29.12660
#
# Velocity S-wave (km/s) = 3.57183 4.22242 3.91068
# Velocity P-wave (km/s) = 6.18434 7.21424 6.71905
#
# Compressibility (1/GPa) = 0.02472584
#
# Stress axis : x y z
#
# Youngs Moduli (GPa) = 32.89048 46.79227 80.65463
#
# Poissons Ratio (x) = 0.48599 0.07709
# Poissons Ratio (y) = 0.34160 0.67605
# Poissons Ratio (z) = 0.03144 0.39221
#
# Static dielectric constant tensor:
#      x y z
#    x 3.325860 0.000000 0.000000 
#    y 0.000000 3.572510 0.000000 
#    z 0.000000 0.000000 3.681830 
# 
# 
# High freq. dielectric constant tensor:
#      x y z
#    x 1.723280 0.000000 0.000000 
#    y 0.000000 1.740960 0.000000 
#    z 0.000000 0.000000 1.756120 
# 
# From -- ./inp_files/20302.got.cif
#   From: 2010.03.12/outbox.cif.g09.slc.cpg/sg59_11_cif.got.tgz:20302.got - 2010.04.16 16:29:54.
