data_PCOD8243228
_publ_section_title
;
Structure prediction by ZEFSAII (Michael W. Deem and Ramdas Pophale) SiO2 
 PCOD8243228
Probable space group: P M M N
;
_chemical_formula_sum "Si O2"
_cell_formula_units_Z 48
_cell_length_a 9.007657
_cell_length_b 9.332330
_cell_length_c 31.014934
_cell_angle_alpha 90.000000
_cell_angle_beta 90.000000
_cell_angle_gamma 90.000000
_cell_volume 2607.190645
_symmetry_space_group_name_H-M "P M M N"
_symmetry_group_IT_number 59
_space_group.IT_coordinate_system_code '2'
_symmetry_cell_setting 'orthorhombic'
loop_
_space_group_symop_operation_xyz
x,y,z
1/2-x,1/2-y,z
1/2+x,-y,-z
-x,1/2+y,-z
-x,-y,-z
1/2+x,1/2+y,-z
1/2-x,y,z
x,1/2-y,z
loop_
_atom_site_type_symbol
_atom_site_label
_atom_site_fract_x
_atom_site_fract_y
_atom_site_fract_z
Si Si1 0.074867 0.416004 0.461224
Si Si2 0.077245 0.583072 0.790620
Si Si3 0.917420 0.920448 0.875519
Si Si4 0.922770 0.582184 0.386313
Si Si5 0.422786 0.581969 0.961470
Si Si6 0.073805 0.408105 0.710101
O O1 0.250000 0.432691 0.465532
O O2 0.026932 0.250000 0.462907
O O3 0.000000 0.500000 0.500000
O O4 0.022612 0.484375 0.416557
O O5 0.250000 0.548581 0.797045
O O6 0.047294 0.750000 0.785684
O O7 0.011647 0.512098 0.747198
O O8 0.992387 0.518968 0.832041
O O9 0.750000 0.978819 0.878659
O O10 0.921610 0.750000 0.874242
O O11 0.008336 0.975566 0.916806
O O12 0.750000 0.547577 0.394404
O O13 0.952638 0.750000 0.395183
O O14 0.972056 0.540312 0.337687
O O15 0.250000 0.545284 0.961177
O O16 0.452638 0.750000 0.967317
O O17 0.500000 0.500000 0.000000
O O18 0.250000 0.403275 0.711919
O O19 0.008912 0.250000 0.718813
#
# Coordination Sequence:
#
# PCOD8243228 Si02
#       6
#     8   8   8   8   8   8
#     4  11  24  39  55  78 106 135 170 211 254 302
#     4   9  16  27  46  71  95 122 162 206 242 284
#     4   9  17  30  48  69  95 129 166 204 249 298
#     4   9  18  34  56  80 105 135 172 211 251 299
#     4  10  20  34  53  76 101 130 166 208 253 303
#     4   8  15  29  49  73 101 131 162 199 245 295
#
# _framework density 18.410622
#
# number of rings (size 3 to 8) (size 9 to 14) (size 15 to 20)
#    0.000    2.667    0.000    3.000    0.000    7.333 
#    0.000    3.333    0.000    6.500    0.000    0.000 
#    0.000    0.000    0.000    0.000    0.000    0.000 
#
# Total GULP energy -595134.254417 kJ/mol
# GULP energy per Si atom -12398.630300 kJ/mol
# Density = 1.836872 g / cm^3
# Si number density = 18.410622 Si / 1000 Ang^3
#
#
#
# Elastic Constant Matrix: (Units=GPa)
#
#
# Indices 1 2 3 4 5 6 
#
# 1 86.2827 49.3169 71.0698 0.0000 0.0000 0.0000
# 2 49.3169 70.5540 73.6527 0.0000 0.0000 0.0000
# 3 71.0698 73.6527 191.6215 0.0000 0.0000 0.0000
# 4 0.0000 0.0000 0.0000 35.8004 0.0000 0.0000
# 5 0.0000 0.0000 0.0000 0.0000 33.3268 0.0000
# 6 0.0000 0.0000 0.0000 0.0000 0.0000 21.9967
#
#
#
# Elastic Compliance Matrix: (Units=1/GPa)
#
#
# Indices 1 2 3 4 5 6 
#
# 1 0.020633 -0.010745 -0.003522 0.000000 0.000000 0.000000
# 2 -0.010745 0.029268 -0.007264 0.000000 0.000000 0.000000
# 3 -0.003522 -0.007264 0.009317 0.000000 0.000000 0.000000
# 4 0.000000 0.000000 0.000000 0.027933 0.000000 0.000000
# 5 0.000000 0.000000 0.000000 0.000000 0.030006 0.000000
# 6 0.000000 0.000000 0.000000 0.000000 0.000000 0.045461
#
#
# Mechanical properties :
#
#
# Convention : Reuss Voigt Hill
#
# Bulk Modulus (GPa) = 61.90395 81.83745 71.87070
# Shear Modulus (GPa) = 23.68933 28.51938 26.10435
#
# Velocity S-wave (km/s) = 3.59098 3.94009 3.76958
# Velocity P-wave (km/s) = 7.13376 8.07755 7.62028
#
# Compressibility (1/GPa) = 0.01615406
#
# Stress axis : x y z
#
# Youngs Moduli (GPa) = 48.46669 34.16743 107.32911
#
# Poissons Ratio (x) = 0.36713 0.37805
# Poissons Ratio (y) = 0.52078 0.77967
# Poissons Ratio (z) = 0.17072 0.24820
#
# Static dielectric constant tensor:
#      x y z
#    x 3.951090 0.000000 0.000000 
#    y 0.000000 3.209910 0.000000 
#    z 0.000000 0.000000 3.752400 
# 
# 
# High freq. dielectric constant tensor:
#      x y z
#    x 1.699590 0.000000 0.000000 
#    y 0.000000 1.690740 0.000000 
#    z 0.000000 0.000000 1.733800 
# 
# From -- ./inp_files/32898.got.cif
#   From: 2010.03.12/outbox.cif.g09.slc.cpg/sg59_17_cif.got.tgz:32898.got - 2010.04.16 16:29:54.
