data_PCOD8243561
_publ_section_title
;
Structure prediction by ZEFSAII (Michael W. Deem and Ramdas Pophale) SiO2 
 PCOD8243561
Probable space group: P M M N
;
_chemical_formula_sum "Si O2"
_cell_formula_units_Z 56
_cell_length_a 21.072990
_cell_length_b 8.696816
_cell_length_c 16.668403
_cell_angle_alpha 90.000000
_cell_angle_beta 90.000000
_cell_angle_gamma 90.000000
_cell_volume 3054.783491
_symmetry_space_group_name_H-M "P M M N"
_symmetry_group_IT_number 59
_space_group.IT_coordinate_system_code '2'
_symmetry_cell_setting 'orthorhombic'
loop_
_space_group_symop_operation_xyz
x,y,z
1/2-x,1/2-y,z
1/2+x,-y,-z
-x,1/2+y,-z
-x,-y,-z
1/2+x,1/2+y,-z
1/2-x,y,z
x,1/2-y,z
loop_
_atom_site_type_symbol
_atom_site_label
_atom_site_fract_x
_atom_site_fract_y
_atom_site_fract_z
Si Si1 0.178748 0.072275 0.054439
Si Si2 0.382822 0.928279 0.200097
Si Si3 0.031604 0.429279 0.619396
Si Si4 0.596081 0.071662 0.524624
Si Si5 0.175593 0.424196 0.350984
Si Si6 0.016473 0.569090 0.792005
Si Si7 0.941643 0.931477 0.049973
O O1 0.250000 0.040011 0.021116
O O2 0.171148 0.250000 0.078701
O O3 0.169724 0.971719 0.134455
O O4 0.126018 0.025240 0.989321
O O5 0.401282 0.750000 0.195056
O O6 0.356529 0.961653 0.288043
O O7 0.444934 0.028708 0.182659
O O8 0.046480 0.250000 0.618720
O O9 0.084031 0.514271 0.565512
O O10 0.962920 0.465790 0.582785
O O11 0.036166 0.490975 0.709070
O O12 0.612539 0.250000 0.521980
O O13 0.655441 0.978153 0.560263
O O14 0.250000 0.437757 0.343044
O O15 0.152620 0.250000 0.335225
O O16 0.024551 0.750000 0.783840
O O17 0.061845 0.505175 0.861793
O O18 0.951655 0.750000 0.055946
O O19 0.000000 0.000000 0.000000
#
# Coordination Sequence:
#
# PCOD8243561 Si02
#       7
#     8   8   8   8   8   8   8
#     4  10  22  40  60  82 112 152 193 233 283 344
#     4  12  23  35  54  82 115 151 190 232 283 340
#     4  10  20  35  56  82 111 142 179 227 279 333
#     4  10  20  34  55  81 110 145 183 226 274 325
#     4  11  23  37  54  78 113 155 192 228 275 333
#     4  12  23  36  57  83 116 151 187 236 287 338
#     4  11  22  37  59  85 115 150 190 237 288 343
#
# _framework density 18.331904999999999
#
# number of rings (size 3 to 8) (size 9 to 14) (size 15 to 20)
#    0.000    1.143    2.857    4.714    0.000    4.857 
#    0.000    0.000    0.000    0.857    0.000    2.000 
#    0.000    0.000    0.000    0.000    0.000    0.000 
#
# Total GULP energy -694675.681238 kJ/mol
# GULP energy per Si atom -12404.922879 kJ/mol
# Density = 1.829018 g / cm^3
# Si number density = 18.331905 Si / 1000 Ang^3
#
#
#
# Elastic Constant Matrix: (Units=GPa)
#
#
# Indices 1 2 3 4 5 6 
#
# 1 76.9677 24.2135 37.4280 0.0000 0.0000 0.0000
# 2 24.2135 67.1504 22.6242 0.0000 0.0000 0.0000
# 3 37.4280 22.6242 110.1601 0.0000 0.0000 0.0000
# 4 0.0000 0.0000 0.0000 36.1489 0.0000 0.0000
# 5 0.0000 0.0000 0.0000 0.0000 24.6329 0.0000
# 6 0.0000 0.0000 0.0000 0.0000 0.0000 23.8029
#
#
#
# Elastic Compliance Matrix: (Units=1/GPa)
#
#
# Indices 1 2 3 4 5 6 
#
# 1 0.016700 -0.004416 -0.004767 0.000000 0.000000 0.000000
# 2 -0.004416 0.017167 -0.002025 0.000000 0.000000 0.000000
# 3 -0.004767 -0.002025 0.011113 0.000000 0.000000 0.000000
# 4 0.000000 0.000000 0.000000 0.027663 0.000000 0.000000
# 5 0.000000 0.000000 0.000000 0.000000 0.040596 0.000000
# 6 0.000000 0.000000 0.000000 0.000000 0.000000 0.042012
#
#
# Mechanical properties :
#
#
# Convention : Reuss Voigt Hill
#
# Bulk Modulus (GPa) = 44.31920 46.97886 45.64903
# Shear Modulus (GPa) = 26.99962 28.25111 27.62536
#
# Velocity S-wave (km/s) = 3.84190 3.92993 3.88616
# Velocity P-wave (km/s) = 6.62637 6.80257 6.71504
#
# Compressibility (1/GPa) = 0.02256358
#
# Stress axis : x y z
#
# Youngs Moduli (GPa) = 59.88125 58.25296 89.98217
#
# Poissons Ratio (x) = 0.25722 0.42895
# Poissons Ratio (y) = 0.26441 0.18225
# Poissons Ratio (z) = 0.28546 0.11798
#
# Static dielectric constant tensor:
#      x y z
#    x 3.319930 0.000000 0.000000 
#    y 0.000000 3.513360 0.000000 
#    z 0.000000 0.000000 3.463320 
# 
# 
# High freq. dielectric constant tensor:
#      x y z
#    x 1.686660 0.000000 0.000000 
#    y 0.000000 1.726280 0.000000 
#    z 0.000000 0.000000 1.711940 
# 
# From -- ./inp_files/24232.got.cif
#   From: 2010.03.12/outbox.cif.g09.slc.cpg/sg59_13_cif.got.tgz:24232.got - 2010.04.16 16:29:54.
