data_PCOD8243082
_publ_section_title
;
Structure prediction by ZEFSAII (Michael W. Deem and Ramdas Pophale) SiO2 
 PCOD8243082
Probable space group: P M M N
;
_chemical_formula_sum "Si O2"
_cell_formula_units_Z 64
_cell_length_a 29.602619
_cell_length_b 9.321084
_cell_length_c 11.940884
_cell_angle_alpha 90.000000
_cell_angle_beta 90.000000
_cell_angle_gamma 90.000000
_cell_volume 3294.830191
_symmetry_space_group_name_H-M "P M M N"
_symmetry_group_IT_number 59
_space_group.IT_coordinate_system_code '2'
_symmetry_cell_setting 'orthorhombic'
loop_
_space_group_symop_operation_xyz
x,y,z
1/2-x,1/2-y,z
1/2+x,-y,-z
-x,1/2+y,-z
-x,-y,-z
1/2+x,1/2+y,-z
1/2-x,y,z
x,1/2-y,z
loop_
_atom_site_type_symbol
_atom_site_label
_atom_site_fract_x
_atom_site_fract_y
_atom_site_fract_z
Si Si1 0.300691 0.916583 0.697948
Si Si2 0.436185 0.913427 0.041197
Si Si3 0.535415 0.918641 0.421055
Si Si4 0.699468 0.579941 0.667770
Si Si5 0.531465 0.586667 0.161536
Si Si6 0.862038 0.918054 0.465476
Si Si7 0.857378 0.586069 0.874256
Si Si8 0.700392 0.592483 0.088373
O O1 0.250000 0.951962 0.652358
O O2 0.311302 0.750000 0.687476
O O3 0.339456 0.003750 0.637764
O O4 0.304495 0.962968 0.826007
O O5 0.422028 0.750000 0.018800
O O6 0.482061 0.923371 0.110054
O O7 0.401673 0.988856 0.126349
O O8 0.437077 0.990543 0.919340
O O9 0.525026 0.750000 0.428973
O O10 0.531964 0.968859 0.290560
O O11 0.584984 0.956013 0.469578
O O12 0.500000 0.000000 0.500000
O O13 0.750000 0.514377 0.650985
O O14 0.703185 0.750000 0.664225
O O15 0.664222 0.524600 0.574731
O O16 0.678944 0.527500 0.785239
O O17 0.549815 0.750000 0.158073
O O18 0.855036 0.750000 0.448835
O O19 0.870940 0.750000 0.845565
O O20 0.836797 0.570372 0.995791
O O21 0.750000 0.586642 0.032086
O O22 0.693883 0.750000 0.145888
#
# Coordination Sequence:
#
# PCOD8243082 Si02
#       8
#     8   8   8   8   8   8   8   8
#     4  10  21  36  55  82 116 150 185 230 282 335
#     4  10  21  36  57  84 111 146 187 230 283 340
#     4  10  23  40  60  86 117 151 191 237 289 343
#     4   9  18  34  57  84 113 146 188 237 282 330
#     4   9  20  40  59  79 113 151 188 233 284 338
#     4  10  21  37  59  86 112 147 194 238 281 338
#     4  10  20  33  55  83 112 143 181 229 279 333
#     4   9  18  33  53  77 107 144 181 217 266 328
#
# _framework density 19.424368999999999
#
# number of rings (size 3 to 8) (size 9 to 14) (size 15 to 20)
#    0.000    2.375    0.000    1.500    3.500    4.750 
#    0.000    0.625    0.000    1.875    0.000    0.000 
#    0.000    0.000    0.000    0.000    0.000    0.000 
#
# Total GULP energy -793387.609251 kJ/mol
# GULP energy per Si atom -12396.681395 kJ/mol
# Density = 1.938016 g / cm^3
# Si number density = 19.424369 Si / 1000 Ang^3
#
#
#
# Elastic Constant Matrix: (Units=GPa)
#
#
# Indices 1 2 3 4 5 6 
#
# 1 97.8771 45.4758 50.8800 0.0000 0.0000 0.0000
# 2 45.4758 61.9007 34.2440 0.0000 0.0000 0.0000
# 3 50.8800 34.2440 102.4986 0.0000 0.0000 0.0000
# 4 0.0000 0.0000 0.0000 17.0083 0.0000 0.0000
# 5 0.0000 0.0000 0.0000 0.0000 29.2121 0.0000
# 6 0.0000 0.0000 0.0000 0.0000 0.0000 26.0057
#
#
#
# Elastic Compliance Matrix: (Units=1/GPa)
#
#
# Indices 1 2 3 4 5 6 
#
# 1 0.017684 -0.009980 -0.005444 0.000000 0.000000 0.000000
# 2 -0.009980 0.025450 -0.003549 0.000000 0.000000 0.000000
# 3 -0.005444 -0.003549 0.013644 0.000000 0.000000 0.000000
# 4 0.000000 0.000000 0.000000 0.058795 0.000000 0.000000
# 5 0.000000 0.000000 0.000000 0.000000 0.034232 0.000000
# 6 0.000000 0.000000 0.000000 0.000000 0.000000 0.038453
#
#
# Mechanical properties :
#
#
# Convention : Reuss Voigt Hill
#
# Bulk Modulus (GPa) = 53.09871 58.16400 55.63135
# Shear Modulus (GPa) = 21.50719 23.22366 22.36543
#
# Velocity S-wave (km/s) = 3.33111 3.46149 3.39693
# Velocity P-wave (km/s) = 6.49543 6.78120 6.63985
#
# Compressibility (1/GPa) = 0.01883285
#
# Stress axis : x y z
#
# Youngs Moduli (GPa) = 56.54922 39.29299 73.29146
#
# Poissons Ratio (x) = 0.39214 0.39899
# Poissons Ratio (y) = 0.56435 0.26008
# Poissons Ratio (z) = 0.30785 0.13944
#
# Static dielectric constant tensor:
#      x y z
#    x 3.673500 0.000000 0.000000 
#    y 0.000000 3.420970 0.000000 
#    z 0.000000 0.000000 3.540260 
# 
# 
# High freq. dielectric constant tensor:
#      x y z
#    x 1.766070 0.000000 0.000000 
#    y 0.000000 1.734410 0.000000 
#    z 0.000000 0.000000 1.754740 
# 
# From -- ./inp_files/19312.got.cif
#   From: 2010.03.12/outbox.cif.g09.slc.cpg/sg59_10_cif.got.tgz:19312.got - 2010.04.16 16:29:54.
