data_PCOD8243326
_publ_section_title
;
Structure prediction by ZEFSAII (Michael W. Deem and Ramdas Pophale) SiO2 
 PCOD8243326
Probable space group: P M M N
;
_chemical_formula_sum "Si O2"
_cell_formula_units_Z 56
_cell_length_a 8.913412
_cell_length_b 23.959463
_cell_length_c 14.674974
_cell_angle_alpha 90.000000
_cell_angle_beta 90.000000
_cell_angle_gamma 90.000000
_cell_volume 3133.995739
_symmetry_space_group_name_H-M "P M M N"
_symmetry_group_IT_number 59
_space_group.IT_coordinate_system_code '2'
_symmetry_cell_setting 'orthorhombic'
loop_
_space_group_symop_operation_xyz
x,y,z
1/2-x,1/2-y,z
1/2+x,-y,-z
-x,1/2+y,-z
-x,-y,-z
1/2+x,1/2+y,-z
1/2-x,y,z
x,1/2-y,z
loop_
_atom_site_type_symbol
_atom_site_label
_atom_site_fract_x
_atom_site_fract_y
_atom_site_fract_z
Si Si1 0.923300 0.532751 0.127945
Si Si2 0.423691 0.637253 0.465657
Si Si3 0.922645 0.062740 0.367252
Si Si4 0.924011 0.047928 0.687276
Si Si5 0.572493 0.750000 0.502983
Si Si6 0.578043 0.921992 0.937586
Si Si7 0.573250 0.750000 0.709208
Si Si8 0.078814 0.645249 0.796131
O O1 0.750000 0.514037 0.138714
O O2 0.981738 0.559511 0.221330
O O3 0.023565 0.479897 0.104459
O O4 0.940478 0.578144 0.047108
O O5 0.250000 0.651644 0.480854
O O6 0.484550 0.603232 0.553477
O O7 0.450813 0.601460 0.375422
O O8 0.512736 0.694784 0.452973
O O9 0.750000 0.046950 0.387231
O O10 0.940145 0.092307 0.269920
O O11 0.019864 0.006685 0.366486
O O12 0.750000 0.040016 0.711292
O O13 0.750000 0.750000 0.498388
O O14 0.510595 0.750000 0.606416
O O15 0.750000 0.913702 0.908851
O O16 0.480710 0.871688 0.896022
O O17 0.750000 0.750000 0.708562
O O18 0.518301 0.804176 0.760788
O O19 0.250000 0.664728 0.803232
#
# Coordination Sequence:
#
# PCOD8243326 Si02
#       8
#     8   8   8   8   4   8   4   8
#     4  10  20  34  53  78 109 144 177 217 270 322
#     4  10  22  39  56  76 108 148 184 224 274 325
#     4  10  20  34  53  78 111 148 181 218 270 327
#     4  11  22  34  54  82 111 146 185 226 272 322
#     4  11  23  37  57  82 103 138 187 233 272 312
#     4  10  20  34  54  79 108 141 178 221 268 320
#     4  11  23  37  55  80 111 144 185 229 270 320
#     4  11  21  34  56  82 110 146 183 221 273 327
#
# _framework density 17.868563000000002
#
# number of rings (size 3 to 8) (size 9 to 14) (size 15 to 20)
#    0.000    1.571    2.857    2.571    0.000    4.571 
#    0.000    0.000    0.000    0.857    0.000    4.000 
#    0.000    0.000    0.000    0.000    0.000    0.000 
#
# Total GULP energy -694634.377781 kJ/mol
# GULP energy per Si atom -12404.185318 kJ/mol
# Density = 1.782789 g / cm^3
# Si number density = 17.868563 Si / 1000 Ang^3
#
#
#
# Elastic Constant Matrix: (Units=GPa)
#
#
# Indices 1 2 3 4 5 6 
#
# 1 66.8642 34.4572 33.6135 0.0000 0.0000 0.0000
# 2 34.4572 92.6465 32.9886 0.0000 0.0000 0.0000
# 3 33.6135 32.9886 89.4742 0.0000 0.0000 0.0000
# 4 0.0000 0.0000 0.0000 252.7582 0.0000 0.0000
# 5 0.0000 0.0000 0.0000 0.0000 29.5944 0.0000
# 6 0.0000 0.0000 0.0000 0.0000 0.0000 31.0149
#
#
#
# Elastic Compliance Matrix: (Units=1/GPa)
#
#
# Indices 1 2 3 4 5 6 
#
# 1 0.020752 -0.005689 -0.005699 0.000000 0.000000 0.000000
# 2 -0.005689 0.013984 -0.003019 0.000000 0.000000 0.000000
# 3 -0.005699 -0.003019 0.014430 0.000000 0.000000 0.000000
# 4 0.000000 0.000000 0.000000 0.003956 0.000000 0.000000
# 5 0.000000 0.000000 0.000000 0.000000 0.033790 0.000000
# 6 0.000000 0.000000 0.000000 0.000000 0.000000 0.032243
#
#
# Mechanical properties :
#
#
# Convention : Reuss Voigt Hill
#
# Bulk Modulus (GPa) = 49.13022 50.12261 49.62642
# Shear Modulus (GPa) = 32.30942 72.53521 52.42232
#
# Velocity S-wave (km/s) = 4.25687 6.37824 5.42231
# Velocity P-wave (km/s) = 7.19141 9.07492 8.18750
#
# Compressibility (1/GPa) = 0.02035407
#
# Stress axis : x y z
#
# Youngs Moduli (GPa) = 48.18760 71.50783 69.29890
#
# Poissons Ratio (x) = 0.40681 0.39491
# Poissons Ratio (y) = 0.27414 0.20919
# Poissons Ratio (z) = 0.27460 0.21586
#
# Static dielectric constant tensor:
#      x y z
#    x 3.386450 0.000000 0.000000 
#    y 0.000000 2.324330 0.000000 
#    z 0.000000 0.000000 3.426940 
# 
# 
# High freq. dielectric constant tensor:
#      x y z
#    x 1.703400 0.000000 0.000000 
#    y 0.000000 1.670910 0.000000 
#    z 0.000000 0.000000 1.690060 
# 
# From -- ./inp_files/21235.got.cif
#   From: 2010.03.12/outbox.cif.g09.slc.cpg/sg59_11_cif.got.tgz:21235.got - 2010.04.16 16:29:54.
