data_PCOD8243476
_publ_section_title
;
Structure prediction by ZEFSAII (Michael W. Deem and Ramdas Pophale) SiO2 
 PCOD8243476
Probable space group: P M M N
;
_chemical_formula_sum "Si O2"
_cell_formula_units_Z 64
_cell_length_a 8.894413
_cell_length_b 19.616049
_cell_length_c 19.169414
_cell_angle_alpha 90.000000
_cell_angle_beta 90.000000
_cell_angle_gamma 90.000000
_cell_volume 3344.549793
_symmetry_space_group_name_H-M "P M M N"
_symmetry_group_IT_number 59
_space_group.IT_coordinate_system_code '2'
_symmetry_cell_setting 'orthorhombic'
loop_
_space_group_symop_operation_xyz
x,y,z
1/2-x,1/2-y,z
1/2+x,-y,-z
-x,1/2+y,-z
-x,-y,-z
1/2+x,1/2+y,-z
1/2-x,y,z
x,1/2-y,z
loop_
_atom_site_type_symbol
_atom_site_label
_atom_site_fract_x
_atom_site_fract_y
_atom_site_fract_z
Si Si1 0.074109 0.939838 0.714024
Si Si2 0.920661 0.169935 0.676310
Si Si3 0.422984 0.556420 0.080594
Si Si4 0.572407 0.176565 0.521926
Si Si5 0.076514 0.419601 0.786592
Si Si6 0.076314 0.587602 0.928350
Si Si7 0.572237 0.829086 0.808748
Si Si8 0.427063 0.547790 0.557591
O O1 0.250000 0.923031 0.708975
O O2 0.013787 0.961021 0.636817
O O3 0.993634 0.872684 0.744316
O O4 0.040056 0.002724 0.764762
O O5 0.750000 0.143604 0.688059
O O6 0.928999 0.250000 0.690700
O O7 0.980102 0.152548 0.598626
O O8 0.036056 0.131849 0.725699
O O9 0.250000 0.534208 0.086857
O O10 0.475578 0.600987 0.146590
O O11 0.525204 0.489493 0.083790
O O12 0.448168 0.601734 0.010938
O O13 0.750000 0.184087 0.526483
O O14 0.500841 0.250000 0.502790
O O15 0.523748 0.124191 0.462701
O O16 0.250000 0.410579 0.805408
O O17 0.250000 0.593157 0.906142
O O18 0.985562 0.642244 0.882952
O O19 0.750000 0.836179 0.807490
O O20 0.522573 0.750000 0.801131
O O21 0.500000 0.500000 0.500000
O O22 0.250000 0.535751 0.553182
#
# Coordination Sequence:
#
# PCOD8243476 Si02
#       8
#     8   8   8   8   8   8   8   8
#     4  10  22  37  54  81 114 149 192 235 282 342
#     4   9  18  33  53  76 103 138 181 228 281 341
#     4  10  20  34  57  85 112 144 182 224 271 326
#     4   8  15  30  52  75  98 132 181 227 268 325
#     4  11  21  33  52  80 113 147 185 229 275 328
#     4  10  20  36  58  85 112 141 182 229 278 330
#     4  11  24  40  59  84 115 154 198 241 287 341
#     4  10  20  34  54  81 111 143 181 231 286 338
#
# _framework density 19.13561
#
# number of rings (size 3 to 8) (size 9 to 14) (size 15 to 20)
#    0.000    2.125    1.250    3.000    0.000    4.250 
#    0.000    1.875    0.000    1.875    0.000    0.000 
#    0.000    0.000    0.000    0.000    0.000    0.000 
#
# Total GULP energy -793427.208209 kJ/mol
# GULP energy per Si atom -12397.300128 kJ/mol
# Density = 1.909206 g / cm^3
# Si number density = 19.135610 Si / 1000 Ang^3
#
#
#
# Elastic Constant Matrix: (Units=GPa)
#
#
# Indices 1 2 3 4 5 6 
#
# 1 59.0894 32.5221 46.2166 0.0000 0.0000 0.0000
# 2 32.5221 57.8622 37.9055 0.0000 0.0000 0.0000
# 3 46.2166 37.9055 127.9584 0.0000 0.0000 0.0000
# 4 0.0000 0.0000 0.0000 18.1218 0.0000 0.0000
# 5 0.0000 0.0000 0.0000 0.0000 27.7266 0.0000
# 6 0.0000 0.0000 0.0000 0.0000 0.0000 25.0624
#
#
#
# Elastic Compliance Matrix: (Units=1/GPa)
#
#
# Indices 1 2 3 4 5 6 
#
# 1 0.028742 -0.011606 -0.006943 0.000000 0.000000 0.000000
# 2 -0.011606 0.026131 -0.003549 0.000000 0.000000 0.000000
# 3 -0.006943 -0.003549 0.011374 0.000000 0.000000 0.000000
# 4 0.000000 0.000000 0.000000 0.055182 0.000000 0.000000
# 5 0.000000 0.000000 0.000000 0.000000 0.036066 0.000000
# 6 0.000000 0.000000 0.000000 0.000000 0.000000 0.039900
#
#
# Mechanical properties :
#
#
# Convention : Reuss Voigt Hill
#
# Bulk Modulus (GPa) = 45.35048 53.13315 49.24182
# Shear Modulus (GPa) = 20.08500 22.73320 21.40910
#
# Velocity S-wave (km/s) = 3.24329 3.45048 3.34849
# Velocity P-wave (km/s) = 6.14623 6.61070 6.38269
#
# Compressibility (1/GPa) = 0.02205048
#
# Stress axis : x y z
#
# Youngs Moduli (GPa) = 34.79236 38.26911 87.92001
#
# Poissons Ratio (x) = 0.44417 0.61042
# Poissons Ratio (y) = 0.40381 0.31200
# Poissons Ratio (z) = 0.24156 0.13581
#
# Static dielectric constant tensor:
#      x y z
#    x 3.371960 0.000000 0.000000 
#    y 0.000000 3.285900 0.000000 
#    z 0.000000 0.000000 3.835490 
# 
# 
# High freq. dielectric constant tensor:
#      x y z
#    x 1.732970 0.000000 0.000000 
#    y 0.000000 1.727560 0.000000 
#    z 0.000000 0.000000 1.759230 
# 
# From -- ./inp_files/26293.got.cif
#   From: 2010.03.12/outbox.cif.g09.slc.cpg/sg59_14_cif.got.tgz:26293.got - 2010.04.16 16:29:54.
