data_PCOD8243680
_publ_section_title
;
Structure prediction by ZEFSAII (Michael W. Deem and Ramdas Pophale) SiO2 
 PCOD8243680
Probable space group: P M M N
;
_chemical_formula_sum "Si O2"
_cell_formula_units_Z 64
_cell_length_a 8.800547
_cell_length_b 19.214660
_cell_length_c 19.388573
_cell_angle_alpha 90.000000
_cell_angle_beta 90.000000
_cell_angle_gamma 90.000000
_cell_volume 3278.598357
_symmetry_space_group_name_H-M "P M M N"
_symmetry_group_IT_number 59
_space_group.IT_coordinate_system_code '2'
_symmetry_cell_setting 'orthorhombic'
loop_
_space_group_symop_operation_xyz
x,y,z
1/2-x,1/2-y,z
1/2+x,-y,-z
-x,1/2+y,-z
-x,-y,-z
1/2+x,1/2+y,-z
1/2-x,y,z
x,1/2-y,z
loop_
_atom_site_type_symbol
_atom_site_label
_atom_site_fract_x
_atom_site_fract_y
_atom_site_fract_z
Si Si1 0.928898 0.409070 0.436398
Si Si2 0.428548 0.068710 0.576198
Si Si3 0.920453 0.832092 0.167167
Si Si4 0.074109 0.831598 0.027789
Si Si5 0.429772 0.170437 0.310745
Si Si6 0.429141 0.586975 0.283611
Si Si7 0.930202 0.554338 0.946296
Si Si8 0.570046 0.551997 0.790579
O O1 0.750000 0.399255 0.436506
O O2 0.977802 0.487933 0.418918
O O3 0.993247 0.392021 0.512196
O O4 0.999084 0.355974 0.381896
O O5 0.250000 0.077594 0.568522
O O6 0.487715 0.105044 0.645254
O O7 0.750000 0.863408 0.172022
O O8 0.913056 0.750000 0.164365
O O9 0.002535 0.860230 0.098686
O O10 0.023338 0.852852 0.231435
O O11 0.250000 0.852975 0.027424
O O12 0.050716 0.750000 0.018075
O O13 0.984785 0.868371 0.965934
O O14 0.250000 0.164459 0.318456
O O15 0.480654 0.250000 0.296869
O O16 0.487938 0.122819 0.246711
O O17 0.250000 0.587192 0.295267
O O18 0.488112 0.513177 0.254111
O O19 0.750000 0.548540 0.949494
O O20 0.992542 0.543390 0.868419
O O21 0.000000 0.500000 0.000000
O O22 0.750000 0.552632 0.793776
#
# Coordination Sequence:
#
# PCOD8243680 Si02
#       8
#     8   8   8   8   8   8   8   8
#     4  10  20  35  56  83 113 146 185 233 282 332
#     4  10  20  34  56  84 113 147 187 230 277 333
#     4  10  21  37  57  82 112 146 186 232 285 349
#     4  10  21  38  58  80 109 147 192 239 289 348
#     4  10  20  37  60  83 113 154 196 240 288 341
#     4  11  20  34  58  85 116 150 186 235 286 337
#     4  11  22  37  58  85 116 152 192 243 297 350
#     4   9  20  36  55  82 113 147 192 235 280 340
#
# _framework density 19.520536
#
# number of rings (size 3 to 8) (size 9 to 14) (size 15 to 20)
#    0.000    1.875    1.250    3.000    0.000    4.250 
#    0.000    5.000    0.000    3.750    0.000    0.000 
#    0.000    0.000    0.000    0.000    0.000    0.000 
#
# Total GULP energy -793733.001774 kJ/mol
# GULP energy per Si atom -12402.078153 kJ/mol
# Density = 1.947611 g / cm^3
# Si number density = 19.520536 Si / 1000 Ang^3
#
#
#
# Elastic Constant Matrix: (Units=GPa)
#
#
# Indices 1 2 3 4 5 6 
#
# 1 45.3171 30.9779 24.4028 0.0000 0.0000 0.0000
# 2 30.9779 47.5587 39.9468 0.0000 0.0000 0.0000
# 3 24.4028 39.9468 144.8764 0.0000 0.0000 0.0000
# 4 0.0000 0.0000 0.0000 28.9370 0.0000 0.0000
# 5 0.0000 0.0000 0.0000 0.0000 33.6214 0.0000
# 6 0.0000 0.0000 0.0000 0.0000 0.0000 28.5548
#
#
#
# Elastic Compliance Matrix: (Units=1/GPa)
#
#
# Indices 1 2 3 4 5 6 
#
# 1 0.039816 -0.026420 0.000578 0.000000 0.000000 0.000000
# 2 -0.026420 0.044896 -0.007929 0.000000 0.000000 0.000000
# 3 0.000578 -0.007929 0.008991 0.000000 0.000000 0.000000
# 4 0.000000 0.000000 0.000000 0.034558 0.000000 0.000000
# 5 0.000000 0.000000 0.000000 0.000000 0.029743 0.000000
# 6 0.000000 0.000000 0.000000 0.000000 0.000000 0.035020
#
#
# Mechanical properties :
#
#
# Convention : Reuss Voigt Hill
#
# Bulk Modulus (GPa) = 38.22478 47.60081 42.91280
# Shear Modulus (GPa) = 18.56768 27.71762 23.14265
#
# Velocity S-wave (km/s) = 3.08748 3.77227 3.44692
# Velocity P-wave (km/s) = 5.68633 6.58873 6.15409
#
# Compressibility (1/GPa) = 0.02616104
#
# Stress axis : x y z
#
# Youngs Moduli (GPa) = 25.11580 22.27394 111.21928
#
# Poissons Ratio (x) = 0.58848 -0.06432
# Poissons Ratio (y) = 0.66356 0.88184
# Poissons Ratio (z) = -0.01453 0.17661
#
# Static dielectric constant tensor:
#      x y z
#    x 3.532200 0.000000 0.000000 
#    y 0.000000 3.491190 0.000000 
#    z 0.000000 0.000000 3.799950 
# 
# 
# High freq. dielectric constant tensor:
#      x y z
#    x 1.758010 0.000000 0.000000 
#    y 0.000000 1.746110 0.000000 
#    z 0.000000 0.000000 1.770960 
# 
# From -- ./inp_files/26316.got.cif
#   From: 2010.03.12/outbox.cif.g09.slc.cpg/sg59_14_cif.got.tgz:26316.got - 2010.04.16 16:29:54.
