data_PCOD8243804
_publ_section_title
;
Structure prediction by ZEFSAII (Michael W. Deem and Ramdas Pophale) SiO2 
 PCOD8243804
Probable space group: P M M N
;
_chemical_formula_sum "Si O2"
_cell_formula_units_Z 64
_cell_length_a 9.701338
_cell_length_b 28.684561
_cell_length_c 12.559485
_cell_angle_alpha 90.000000
_cell_angle_beta 90.000000
_cell_angle_gamma 90.000000
_cell_volume 3495.036174
_symmetry_space_group_name_H-M "P M M N"
_symmetry_group_IT_number 59
_space_group.IT_coordinate_system_code '2'
_symmetry_cell_setting 'orthorhombic'
loop_
_space_group_symop_operation_xyz
x,y,z
1/2-x,1/2-y,z
1/2+x,-y,-z
-x,1/2+y,-z
-x,-y,-z
1/2+x,1/2+y,-z
1/2-x,y,z
x,1/2-y,z
loop_
_atom_site_type_symbol
_atom_site_label
_atom_site_fract_x
_atom_site_fract_y
_atom_site_fract_z
Si Si1 0.412503 0.300817 0.386050
Si Si2 0.092397 0.697274 0.035455
Si Si3 0.907515 0.457841 0.038109
Si Si4 0.087944 0.399402 0.449982
Si Si5 0.410805 0.440676 0.674548
Si Si6 0.589535 0.047091 0.280539
Si Si7 0.905420 0.108842 0.845121
Si Si8 0.901520 0.695331 0.848471
O O1 0.250000 0.294872 0.376031
O O2 0.473319 0.250000 0.424205
O O3 0.449425 0.344076 0.463504
O O4 0.466722 0.314460 0.268039
O O5 0.250000 0.695249 0.996788
O O6 0.050196 0.750000 0.067818
O O7 0.070435 0.664166 0.138029
O O8 0.003314 0.676211 0.938646
O O9 0.750000 0.475524 0.037629
O O10 0.947537 0.442488 0.157755
O O11 0.930962 0.414808 0.959558
O O12 0.000000 0.500000 0.000000
O O13 0.250000 0.406080 0.426591
O O14 0.042699 0.425801 0.556617
O O15 0.003493 0.419535 0.351503
O O16 0.250000 0.431629 0.692471
O O17 0.450950 0.494060 0.692109
O O18 0.489163 0.408663 0.757966
O O19 0.750000 0.056339 0.305660
O O20 0.750000 0.098560 0.805352
O O21 0.750000 0.671832 0.861375
O O22 0.886396 0.750000 0.864114
#
# Coordination Sequence:
#
# PCOD8243804 Si02
#       8
#     8   8   8   8   8   8   8   8
#     4   8  15  30  50  73 103 134 165 209 262 308
#     4   9  18  32  49  72 103 136 169 209 259 309
#     4  10  20  35  54  78 107 138 172 211 261 317
#     4  10  21  35  55  81 103 133 181 221 255 312
#     4  10  21  38  55  75 105 140 178 222 267 307
#     4  10  21  36  54  77 110 142 168 214 272 315
#     4  10  21  35  54  77 103 139 179 214 254 315
#     4   8  14  26  45  68  95 128 163 199 245 301
#
# _framework density 18.311684
#
# number of rings (size 3 to 8) (size 9 to 14) (size 15 to 20)
#    0.000    2.625    1.250    1.125    1.750    2.000 
#    0.000    0.625    0.000    1.125    0.000    0.000 
#    0.000    0.000    0.000    0.000    0.000    0.000 
#
# Total GULP energy -793309.053202 kJ/mol
# GULP energy per Si atom -12395.453956 kJ/mol
# Density = 1.827001 g / cm^3
# Si number density = 18.311684 Si / 1000 Ang^3
#
#
#
# Elastic Constant Matrix: (Units=GPa)
#
#
# Indices 1 2 3 4 5 6 
#
# 1 48.6424 31.2790 37.7506 0.0000 0.0000 0.0000
# 2 31.2790 85.5990 38.0986 0.0000 0.0000 0.0000
# 3 37.7506 38.0986 93.5502 0.0000 0.0000 0.0000
# 4 0.0000 0.0000 0.0000 13.3040 0.0000 0.0000
# 5 0.0000 0.0000 0.0000 0.0000 25.1628 0.0000
# 6 0.0000 0.0000 0.0000 0.0000 0.0000 16.4226
#
#
#
# Elastic Compliance Matrix: (Units=1/GPa)
#
#
# Indices 1 2 3 4 5 6 
#
# 1 0.033558 -0.007616 -0.010440 0.000000 0.000000 0.000000
# 2 -0.007616 0.015997 -0.003442 0.000000 0.000000 0.000000
# 3 -0.010440 -0.003442 0.016304 0.000000 0.000000 0.000000
# 4 0.000000 0.000000 0.000000 0.075165 0.000000 0.000000
# 5 0.000000 0.000000 0.000000 0.000000 0.039741 0.000000
# 6 0.000000 0.000000 0.000000 0.000000 0.000000 0.060892
#
#
# Mechanical properties :
#
#
# Convention : Reuss Voigt Hill
#
# Bulk Modulus (GPa) = 43.73722 49.11646 46.42684
# Shear Modulus (GPa) = 17.10728 19.02213 18.06470
#
# Velocity S-wave (km/s) = 3.05983 3.22653 3.14429
# Velocity P-wave (km/s) = 6.03491 6.38446 6.21215
#
# Compressibility (1/GPa) = 0.02286382
#
# Stress axis : x y z
#
# Youngs Moduli (GPa) = 29.79929 62.51132 61.33452
#
# Poissons Ratio (x) = 0.47607 0.64034
# Poissons Ratio (y) = 0.22694 0.21109
# Poissons Ratio (z) = 0.31111 0.21514
#
# Static dielectric constant tensor:
#      x y z
#    x 3.364420 0.000000 0.000000 
#    y 0.000000 3.565240 0.000000 
#    z 0.000000 0.000000 3.321670 
# 
# 
# High freq. dielectric constant tensor:
#      x y z
#    x 1.694930 0.000000 0.000000 
#    y 0.000000 1.714770 0.000000 
#    z 0.000000 0.000000 1.694330 
# 
# From -- ./inp_files/15023.got.cif
#   From: 2010.03.12/outbox.cif.g09.slc.cpg/sg59_8_cif.got.tgz:15023.got - 2010.04.16 16:29:54.
