data_PCOD8243020
_publ_section_title
;
Structure prediction by ZEFSAII (Michael W. Deem and Ramdas Pophale) SiO2 
 PCOD8243020
Probable space group: P M M N
;
_chemical_formula_sum "Si O2"
_cell_formula_units_Z 64
_cell_length_a 8.901892
_cell_length_b 20.270454
_cell_length_c 19.518368
_cell_angle_alpha 90.000000
_cell_angle_beta 90.000000
_cell_angle_gamma 90.000000
_cell_volume 3521.999571
_symmetry_space_group_name_H-M "P M M N"
_symmetry_group_IT_number 59
_space_group.IT_coordinate_system_code '2'
_symmetry_cell_setting 'orthorhombic'
loop_
_space_group_symop_operation_xyz
x,y,z
1/2-x,1/2-y,z
1/2+x,-y,-z
-x,1/2+y,-z
-x,-y,-z
1/2+x,1/2+y,-z
1/2-x,y,z
x,1/2-y,z
loop_
_atom_site_type_symbol
_atom_site_label
_atom_site_fract_x
_atom_site_fract_y
_atom_site_fract_z
Si Si1 0.423193 0.976690 0.825223
Si Si2 0.921916 0.369318 0.687163
Si Si3 0.576772 0.631877 0.175331
Si Si4 0.077223 0.675058 0.459979
Si Si5 0.072394 0.060855 0.039725
Si Si6 0.078139 0.476999 0.312438
Si Si7 0.573681 0.560644 0.538849
Si Si8 0.422455 0.674780 0.042077
O O1 0.250000 0.958185 0.835297
O O2 0.451845 0.054258 0.833992
O O3 0.475241 0.952678 0.750285
O O4 0.520695 0.938638 0.881598
O O5 0.750000 0.353388 0.706126
O O6 0.973458 0.331069 0.619090
O O7 0.946131 0.446173 0.672583
O O8 0.024964 0.344797 0.749592
O O9 0.750000 0.650357 0.165249
O O10 0.478489 0.670174 0.119985
O O11 0.250000 0.652090 0.466371
O O12 0.055130 0.750000 0.484203
O O13 0.976281 0.630227 0.508407
O O14 0.250000 0.053984 0.034440
O O15 0.023354 0.129639 0.006583
O O16 0.000000 0.000000 0.000000
O O17 0.250000 0.462031 0.292886
O O18 0.028040 0.438978 0.381057
O O19 0.500000 0.500000 0.500000
O O20 0.750000 0.551726 0.530743
O O21 0.250000 0.651161 0.038579
O O22 0.438630 0.750000 0.016943
#
# Coordination Sequence:
#
# PCOD8243020 Si02
#       8
#     8   8   8   8   8   8   8   8
#     4  10  20  34  55  85 115 144 181 229 279 328
#     4   9  17  32  51  74 109 149 188 226 270 328
#     4  10  20  33  52  80 113 148 186 229 274 325
#     4  10  21  37  55  78 111 150 190 230 278 333
#     4  12  23  37  60  86 114 148 186 231 277 327
#     4   9  18  33  53  79 110 144 181 228 280 331
#     4  11  21  35  57  83 112 144 186 232 280 331
#     4  11  24  40  58  81 112 151 191 230 276 330
#
# _framework density 18.171493999999999
#
# number of rings (size 3 to 8) (size 9 to 14) (size 15 to 20)
#    0.000    1.750    2.500    2.625    0.000    4.250 
#    0.000    1.250    0.000    0.750    0.000    3.500 
#    0.000    0.000    0.000    0.000    0.000    0.000 
#
# Total GULP energy -793859.727373 kJ/mol
# GULP energy per Si atom -12404.058240 kJ/mol
# Density = 1.813013 g / cm^3
# Si number density = 18.171494 Si / 1000 Ang^3
#
#
#
# Elastic Constant Matrix: (Units=GPa)
#
#
# Indices 1 2 3 4 5 6 
#
# 1 112.4662 40.0182 62.3737 0.0000 0.0000 0.0000
# 2 40.0182 69.4987 47.9023 0.0000 0.0000 0.0000
# 3 62.3737 47.9023 118.5152 0.0000 0.0000 0.0000
# 4 0.0000 0.0000 0.0000 23.5280 0.0000 0.0000
# 5 0.0000 0.0000 0.0000 0.0000 36.7413 0.0000
# 6 0.0000 0.0000 0.0000 0.0000 0.0000 25.4106
#
#
#
# Elastic Compliance Matrix: (Units=1/GPa)
#
#
# Indices 1 2 3 4 5 6 
#
# 1 0.013286 -0.003924 -0.005406 0.000000 0.000000 0.000000
# 2 -0.003924 0.021104 -0.006465 0.000000 0.000000 0.000000
# 3 -0.005406 -0.006465 0.013896 0.000000 0.000000 0.000000
# 4 0.000000 0.000000 0.000000 0.042503 0.000000 0.000000
# 5 0.000000 0.000000 0.000000 0.000000 0.027217 0.000000
# 6 0.000000 0.000000 0.000000 0.000000 0.000000 0.039354
#
#
# Mechanical properties :
#
#
# Convention : Reuss Voigt Hill
#
# Bulk Modulus (GPa) = 59.89470 66.78541 63.34005
# Shear Modulus (GPa) = 25.70484 27.14837 26.42661
#
# Velocity S-wave (km/s) = 3.76516 3.86943 3.81765
# Velocity P-wave (km/s) = 7.20654 7.53631 7.37327
#
# Compressibility (1/GPa) = 0.01669597
#
# Stress axis : x y z
#
# Youngs Moduli (GPa) = 75.26608 47.38399 71.96259
#
# Poissons Ratio (x) = 0.18593 0.38906
# Poissons Ratio (y) = 0.29534 0.46523
# Poissons Ratio (z) = 0.40692 0.30633
#
# Static dielectric constant tensor:
#      x y z
#    x 3.423020 0.000000 0.000000 
#    y 0.000000 3.136730 0.000000 
#    z 0.000000 0.000000 3.482110 
# 
# 
# High freq. dielectric constant tensor:
#      x y z
#    x 1.711460 0.000000 0.000000 
#    y 0.000000 1.676390 0.000000 
#    z 0.000000 0.000000 1.709160 
# 
# From -- ./inp_files/26308.got.cif
#   From: 2010.03.12/outbox.cif.g09.slc.cpg/sg59_14_cif.got.tgz:26308.got - 2010.04.16 16:29:54.
