data_PCOD8243868
_publ_section_title
;
Structure prediction by ZEFSAII (Michael W. Deem and Ramdas Pophale) SiO2 
 PCOD8243868
Probable space group: P M M N
;
_chemical_formula_sum "Si O2"
_cell_formula_units_Z 64
_cell_length_a 9.229706
_cell_length_b 28.429962
_cell_length_c 12.687305
_cell_angle_alpha 90.000000
_cell_angle_beta 90.000000
_cell_angle_gamma 90.000000
_cell_volume 3329.151253
_symmetry_space_group_name_H-M "P M M N"
_symmetry_group_IT_number 59
_space_group.IT_coordinate_system_code '2'
_symmetry_cell_setting 'orthorhombic'
loop_
_space_group_symop_operation_xyz
x,y,z
1/2-x,1/2-y,z
1/2+x,-y,-z
-x,1/2+y,-z
-x,-y,-z
1/2+x,1/2+y,-z
1/2-x,y,z
x,1/2-y,z
loop_
_atom_site_type_symbol
_atom_site_label
_atom_site_fract_x
_atom_site_fract_y
_atom_site_fract_z
Si Si1 0.083227 0.304674 0.414904
Si Si2 0.582950 0.803346 0.995605
Si Si3 0.583112 0.165473 0.207131
Si Si4 0.579180 0.981838 0.102651
Si Si5 0.585935 0.545187 0.533608
Si Si6 0.415017 0.937689 0.736517
Si Si7 0.577425 0.621728 0.166530
Si Si8 0.914354 0.634004 0.396994
O O1 0.250000 0.320909 0.395645
O O2 0.074380 0.250000 0.439531
O O3 0.013876 0.331337 0.516532
O O4 0.990115 0.317057 0.313629
O O5 0.750000 0.814657 0.969565
O O6 0.565172 0.750000 0.037207
O O7 0.492353 0.809155 0.889964
O O8 0.523470 0.838894 0.084461
O O9 0.750000 0.180921 0.209876
O O10 0.567532 0.109212 0.193291
O O11 0.750000 0.982355 0.081089
O O12 0.521947 0.929694 0.130918
O O13 0.537438 0.016800 0.197503
O O14 0.500000 0.000000 0.000000
O O15 0.500000 0.500000 0.500000
O O16 0.750000 0.531173 0.559608
O O17 0.517526 0.568826 0.636421
O O18 0.577723 0.580628 0.436344
O O19 0.250000 0.943387 0.696973
O O20 0.750000 0.620271 0.174555
O O21 0.511012 0.635295 0.281393
O O22 0.750000 0.651205 0.384059
#
# Coordination Sequence:
#
# PCOD8243868 Si02
#       8
#     8   8   8   8   8   8   8   8
#     4  10  20  35  57  84 112 143 185 235 281 334
#     4  10  21  36  56  82 109 140 183 233 281 336
#     4  11  22  36  56  81 113 148 184 231 283 339
#     4  10  20  35  55  79 109 145 186 232 280 333
#     4  11  21  34  55  81 112 149 187 228 276 334
#     4  10  21  36  54  79 111 146 186 233 281 334
#     4   9  18  34  56  80 109 143 179 225 279 331
#     4   9  18  34  55  81 111 144 182 228 284 335
#
# _framework density 19.224119999999999
#
# number of rings (size 3 to 8) (size 9 to 14) (size 15 to 20)
#    0.000    2.000    1.250    2.625    0.000    5.500 
#    0.000    2.500    0.000    3.000    0.000    1.750 
#    0.000    0.000    0.000    0.000    0.000    0.000 
#
# Total GULP energy -793658.393061 kJ/mol
# GULP energy per Si atom -12400.912392 kJ/mol
# Density = 1.918036 g / cm^3
# Si number density = 19.224120 Si / 1000 Ang^3
#
#
#
# Elastic Constant Matrix: (Units=GPa)
#
#
# Indices 1 2 3 4 5 6 
#
# 1 63.2277 28.3378 42.4481 0.0000 0.0000 0.0000
# 2 28.3378 112.3589 53.0596 0.0000 0.0000 0.0000
# 3 42.4481 53.0596 149.6179 0.0000 0.0000 0.0000
# 4 0.0000 0.0000 0.0000 34.2186 0.0000 0.0000
# 5 0.0000 0.0000 0.0000 0.0000 18.2851 0.0000
# 6 0.0000 0.0000 0.0000 0.0000 0.0000 24.1665
#
#
#
# Elastic Compliance Matrix: (Units=1/GPa)
#
#
# Indices 1 2 3 4 5 6 
#
# 1 0.020285 -0.002881 -0.004733 0.000000 0.000000 0.000000
# 2 -0.002881 0.011099 -0.003119 0.000000 0.000000 0.000000
# 3 -0.004733 -0.003119 0.009133 0.000000 0.000000 0.000000
# 4 0.000000 0.000000 0.000000 0.029224 0.000000 0.000000
# 5 0.000000 0.000000 0.000000 0.000000 0.054689 0.000000
# 6 0.000000 0.000000 0.000000 0.000000 0.000000 0.041380
#
#
# Mechanical properties :
#
#
# Convention : Reuss Voigt Hill
#
# Bulk Modulus (GPa) = 52.49133 63.65506 58.07319
# Shear Modulus (GPa) = 25.82297 28.75798 27.29048
#
# Velocity S-wave (km/s) = 3.66903 3.87192 3.77184
# Velocity P-wave (km/s) = 6.73151 7.29198 7.01734
#
# Compressibility (1/GPa) = 0.01905076
#
# Stress axis : x y z
#
# Youngs Moduli (GPa) = 49.29820 90.09442 109.49678
#
# Poissons Ratio (x) = 0.25954 0.51829
# Poissons Ratio (y) = 0.14201 0.34152
# Poissons Ratio (z) = 0.23335 0.28100
#
# Static dielectric constant tensor:
#      x y z
#    x 3.261260 0.000000 0.000000 
#    y 0.000000 3.903870 0.000000 
#    z 0.000000 0.000000 3.872690 
# 
# 
# High freq. dielectric constant tensor:
#      x y z
#    x 1.716110 0.000000 0.000000 
#    y 0.000000 1.762750 0.000000 
#    z 0.000000 0.000000 1.752890 
# 
# From -- ./inp_files/14883.got.cif
#   From: 2010.03.12/outbox.cif.g09.slc.cpg/sg59_8_cif.got.tgz:14883.got - 2010.04.16 16:29:54.
