data_PCOD8243706
_publ_section_title
;
Structure prediction by ZEFSAII (Michael W. Deem and Ramdas Pophale) SiO2 
 PCOD8243706
Probable space group: P M M N
;
_chemical_formula_sum "Si O2"
_cell_formula_units_Z 56
_cell_length_a 16.081877
_cell_length_b 14.330519
_cell_length_c 12.022753
_cell_angle_alpha 90.000000
_cell_angle_beta 90.000000
_cell_angle_gamma 90.000000
_cell_volume 2770.783421
_symmetry_space_group_name_H-M "P M M N"
_symmetry_group_IT_number 59
_space_group.IT_coordinate_system_code '2'
_symmetry_cell_setting 'orthorhombic'
loop_
_space_group_symop_operation_xyz
x,y,z
1/2-x,1/2-y,z
1/2+x,-y,-z
-x,1/2+y,-z
-x,-y,-z
1/2+x,1/2+y,-z
1/2-x,y,z
x,1/2-y,z
loop_
_atom_site_type_symbol
_atom_site_label
_atom_site_fract_x
_atom_site_fract_y
_atom_site_fract_z
Si Si1 0.656311 0.640530 0.543506
Si Si2 0.422778 0.050819 0.250438
Si Si3 0.567447 0.353622 0.113045
Si Si4 0.844831 0.003722 0.967574
Si Si5 0.846585 0.855586 0.148647
Si Si6 0.655057 0.352758 0.330859
Si Si7 0.430644 0.461058 0.648438
O O1 0.750000 0.602815 0.518151
O O2 0.655503 0.750000 0.530014
O O3 0.630981 0.615085 0.668391
O O4 0.587494 0.602148 0.457840
O O5 0.487328 0.112582 0.180823
O O6 0.359027 0.004782 0.163996
O O7 0.471378 0.971381 0.322679
O O8 0.550705 0.250000 0.066459
O O9 0.645428 0.355437 0.197243
O O10 0.589633 0.419548 0.010011
O O11 0.750000 0.035598 0.988273
O O12 0.862687 0.905221 0.029971
O O13 0.750000 0.850654 0.177329
O O14 0.883419 0.750000 0.145018
O O15 0.887312 0.918599 0.243248
O O16 0.750000 0.369745 0.362675
O O17 0.625369 0.250000 0.374443
O O18 0.601634 0.435408 0.384628
#
# Coordination Sequence:
#
# PCOD8243706 Si02
#       7
#     8   8   8   8   8   8   8
#     4  11  24  42  65  90 119 160 204 248 303 369
#     4  11  23  40  58  89 124 159 196 253 301 358
#     4  10  20  34  58  86 117 156 198 246 295 350
#     4  11  22  39  60  86 123 164 204 242 295 364
#     4  10  20  34  56  88 123 160 203 252 304 357
#     4   9  16  28  51  83 114 147 192 243 294 347
#     4  11  21  37  60  85 122 153 202 255 308 359
#
# _framework density 20.210889999999999
#
# number of rings (size 3 to 8) (size 9 to 14) (size 15 to 20)
#    0.000    1.571    2.857    3.857    0.000    3.714 
#    0.000    2.143    0.000    0.857    0.000    0.000 
#    0.000    0.000    0.000    0.000    0.000    0.000 
#
# Total GULP energy -694280.195040 kJ/mol
# GULP energy per Si atom -12397.860626 kJ/mol
# Density = 2.016489 g / cm^3
# Si number density = 20.210890 Si / 1000 Ang^3
#
#
#
# Elastic Constant Matrix: (Units=GPa)
#
#
# Indices 1 2 3 4 5 6 
#
# 1 53.2643 35.3411 28.1476 0.0000 0.0000 0.0000
# 2 35.3411 99.7467 30.6819 0.0000 0.0000 0.0000
# 3 28.1476 30.6819 90.2232 0.0000 0.0000 0.0000
# 4 0.0000 0.0000 0.0000 24.4317 0.0000 0.0000
# 5 0.0000 0.0000 0.0000 0.0000 19.1516 0.0000
# 6 0.0000 0.0000 0.0000 0.0000 0.0000 17.6146
#
#
#
# Elastic Compliance Matrix: (Units=1/GPa)
#
#
# Indices 1 2 3 4 5 6 
#
# 1 0.026992 -0.007788 -0.005773 0.000000 0.000000 0.000000
# 2 -0.007788 0.013444 -0.002142 0.000000 0.000000 0.000000
# 3 -0.005773 -0.002142 0.013613 0.000000 0.000000 0.000000
# 4 0.000000 0.000000 0.000000 0.040930 0.000000 0.000000
# 5 0.000000 0.000000 0.000000 0.000000 0.052215 0.000000
# 6 0.000000 0.000000 0.000000 0.000000 0.000000 0.056771
#
#
# Mechanical properties :
#
#
# Convention : Reuss Voigt Hill
#
# Bulk Modulus (GPa) = 44.16242 47.95282 46.05762
# Shear Modulus (GPa) = 20.58307 22.17716 21.38012
#
# Velocity S-wave (km/s) = 3.19472 3.31613 3.25599
# Velocity P-wave (km/s) = 5.95874 6.20000 6.08057
#
# Compressibility (1/GPa) = 0.02264369
#
# Stress axis : x y z
#
# Youngs Moduli (GPa) = 37.04783 74.38467 73.45944
#
# Poissons Ratio (x) = 0.57930 0.42405
# Poissons Ratio (y) = 0.28853 0.15736
# Poissons Ratio (z) = 0.21386 0.15934
#
# Static dielectric constant tensor:
#      x y z
#    x 3.710000 0.000000 0.000000 
#    y 0.000000 3.847070 0.000000 
#    z 0.000000 0.000000 3.491840 
# 
# 
# High freq. dielectric constant tensor:
#      x y z
#    x 1.785780 0.000000 0.000000 
#    y 0.000000 1.790250 0.000000 
#    z 0.000000 0.000000 1.771780 
# 
# From -- ./inp_files/16915.got.cif
#   From: 2010.03.12/outbox.cif.g09.slc.cpg/sg59_9_cif.got.tgz:16915.got - 2010.04.16 16:29:54.
