data_PCOD8243427
_publ_section_title
;
Structure prediction by ZEFSAII (Michael W. Deem and Ramdas Pophale) SiO2 
 PCOD8243427
Probable space group: P M M N
;
_chemical_formula_sum "Si O2"
_cell_formula_units_Z 48
_cell_length_a 9.367006
_cell_length_b 9.131287
_cell_length_c 28.951829
_cell_angle_alpha 90.000000
_cell_angle_beta 90.000000
_cell_angle_gamma 90.000000
_cell_volume 2476.331582
_symmetry_space_group_name_H-M "P M M N"
_symmetry_group_IT_number 59
_space_group.IT_coordinate_system_code '2'
_symmetry_cell_setting 'orthorhombic'
loop_
_space_group_symop_operation_xyz
x,y,z
1/2-x,1/2-y,z
1/2+x,-y,-z
-x,1/2+y,-z
-x,-y,-z
1/2+x,1/2+y,-z
1/2-x,y,z
x,1/2-y,z
loop_
_atom_site_type_symbol
_atom_site_label
_atom_site_fract_x
_atom_site_fract_y
_atom_site_fract_z
Si Si1 0.418145 0.077439 0.124198
Si Si2 0.411113 0.576209 0.785412
Si Si3 0.250000 0.920874 0.469159
Si Si4 0.418533 0.424031 0.958108
Si Si5 0.591038 0.916104 0.701015
Si Si6 0.961501 0.420045 0.608124
Si Si7 0.250000 0.419079 0.565571
O O1 0.250000 0.037412 0.123169
O O2 0.439581 0.250000 0.114495
O O3 0.486542 0.028796 0.172766
O O4 0.506173 0.984103 0.087488
O O5 0.250000 0.513155 0.791300
O O6 0.406405 0.750000 0.782938
O O7 0.480804 0.514309 0.738056
O O8 0.250000 0.750000 0.479558
O O9 0.384878 0.970953 0.438876
O O10 0.250000 0.997157 0.517966
O O11 0.250000 0.464958 0.958582
O O12 0.438582 0.250000 0.961381
O O13 0.500000 0.500000 0.000000
O O14 0.750000 0.923265 0.722613
O O15 0.546579 0.750000 0.690402
O O16 0.593573 0.000072 0.653090
O O17 0.932234 0.250000 0.616639
O O18 0.123329 0.461770 0.599470
O O19 0.250000 0.250000 0.551590
#
# Coordination Sequence:
#
# PCOD8243427 Si02
#       7
#     8   8   4   8   8   8   4
#     4  10  20  36  60  88 118 154 195 238 288 344
#     4   9  18  33  55  83 114 147 184 229 280 330
#     4  10  20  36  56  76 102 138 176 214 261 322
#     4  11  24  40  59  86 120 157 200 247 293 344
#     4  10  20  34  54  80 107 139 182 227 268 319
#     4  10  21  37  54  76 107 140 172 214 269 324
#     4  10  22  36  54  78 106 136 172 216 265 318
#
# _framework density 19.383510999999999
#
# number of rings (size 3 to 8) (size 9 to 14) (size 15 to 20)
#    0.000    2.000    0.833    2.500    1.167    7.667 
#    0.000    0.833    0.000    3.000    0.000    0.000 
#    0.000    0.000    0.000    0.000    0.000    0.000 
#
# Total GULP energy -595039.201657 kJ/mol
# GULP energy per Si atom -12396.650035 kJ/mol
# Density = 1.933939 g / cm^3
# Si number density = 19.383511 Si / 1000 Ang^3
#
#
#
# Elastic Constant Matrix: (Units=GPa)
#
#
# Indices 1 2 3 4 5 6 
#
# 1 153.2111 42.8557 53.2253 0.0000 0.0000 0.0000
# 2 42.8557 52.3381 42.9124 0.0000 0.0000 0.0000
# 3 53.2253 42.9124 119.2950 0.0000 0.0000 0.0000
# 4 0.0000 0.0000 0.0000 26.1920 0.0000 0.0000
# 5 0.0000 0.0000 0.0000 0.0000 73.0869 0.0000
# 6 0.0000 0.0000 0.0000 0.0000 0.0000 24.9846
#
#
#
# Elastic Compliance Matrix: (Units=1/GPa)
#
#
# Indices 1 2 3 4 5 6 
#
# 1 0.008754 -0.005625 -0.001883 0.000000 0.000000 0.000000
# 2 -0.005625 0.030713 -0.008538 0.000000 0.000000 0.000000
# 3 -0.001883 -0.008538 0.012294 0.000000 0.000000 0.000000
# 4 0.000000 0.000000 0.000000 0.038180 0.000000 0.000000
# 5 0.000000 0.000000 0.000000 0.000000 0.013682 0.000000
# 6 0.000000 0.000000 0.000000 0.000000 0.000000 0.040025
#
#
# Mechanical properties :
#
#
# Convention : Reuss Voigt Hill
#
# Bulk Modulus (GPa) = 50.83943 66.98121 58.91032
# Shear Modulus (GPa) = 27.42803 37.24276 32.33540
#
# Velocity S-wave (km/s) = 3.76575 4.38809 4.08878
# Velocity P-wave (km/s) = 6.72257 7.76560 7.26284
#
# Compressibility (1/GPa) = 0.01966977
#
# Stress axis : x y z
#
# Youngs Moduli (GPa) = 114.23020 32.55970 81.34114
#
# Poissons Ratio (x) = 0.18314 0.15313
# Poissons Ratio (y) = 0.64251 0.69452
# Poissons Ratio (z) = 0.21504 0.27801
#
# Static dielectric constant tensor:
#      x y z
#    x 3.870890 0.000000 0.000000 
#    y 0.000000 3.291390 0.000000 
#    z 0.000000 0.000000 3.592870 
# 
# 
# High freq. dielectric constant tensor:
#      x y z
#    x 1.777810 0.000000 0.000000 
#    y 0.000000 1.725260 0.000000 
#    z 0.000000 0.000000 1.764470 
# 
# From -- ./inp_files/33061.got.cif
#   From: 2010.03.12/outbox.cif.g09.slc.cpg/sg59_17_cif.got.tgz:33061.got - 2010.04.16 16:29:54.
