data_PCOD8243219
_publ_section_title
;
Structure prediction by ZEFSAII (Michael W. Deem and Ramdas Pophale) SiO2 
 PCOD8243219
Probable space group: P M M N
;
_chemical_formula_sum "Si O2"
_cell_formula_units_Z 56
_cell_length_a 18.339751
_cell_length_b 9.038112
_cell_length_c 18.991395
_cell_angle_alpha 90.000000
_cell_angle_beta 90.000000
_cell_angle_gamma 90.000000
_cell_volume 3147.951412
_symmetry_space_group_name_H-M "P M M N"
_symmetry_group_IT_number 59
_space_group.IT_coordinate_system_code '2'
_symmetry_cell_setting 'orthorhombic'
loop_
_space_group_symop_operation_xyz
x,y,z
1/2-x,1/2-y,z
1/2+x,-y,-z
-x,1/2+y,-z
-x,-y,-z
1/2+x,1/2+y,-z
1/2-x,y,z
x,1/2-y,z
loop_
_atom_site_type_symbol
_atom_site_label
_atom_site_fract_x
_atom_site_fract_y
_atom_site_fract_z
Si Si1 0.411130 0.576594 0.780200
Si Si2 0.976020 0.073382 0.428121
Si Si3 0.329512 0.576659 0.641153
Si Si4 0.663260 0.583451 0.939426
Si Si5 0.832228 0.420595 0.801596
Si Si6 0.333289 0.923586 0.922465
Si Si7 0.537072 0.077657 0.704711
O O1 0.431440 0.750000 0.777749
O O2 0.350180 0.539995 0.721588
O O3 0.380342 0.527138 0.855407
O O4 0.482497 0.480301 0.764839
O O5 0.981919 0.250000 0.432481
O O6 0.893226 0.019502 0.411029
O O7 0.029031 0.015944 0.366624
O O8 0.000000 0.000000 0.500000
O O9 0.250000 0.504038 0.624142
O O10 0.322925 0.750000 0.630781
O O11 0.750000 0.573912 0.939974
O O12 0.633960 0.750000 0.940829
O O13 0.634467 0.508271 0.868070
O O14 0.632864 0.501574 0.008710
O O15 0.750000 0.472910 0.783272
O O16 0.833223 0.250000 0.823671
O O17 0.881142 0.448937 0.732777
O O18 0.250000 0.973294 0.909353
O O19 0.337852 0.750000 0.934847
O O20 0.521951 0.250000 0.689351
#
# Coordination Sequence:
#
# PCOD8243219 Si02
#       7
#     8   8   8   8   8   8   8
#     4   9  17  29  47  71  99 130 162 198 240 286
#     4  10  20  35  56  78 103 134 162 193 235 284
#     4   8  14  27  49  75  98 124 163 202 231 268
#     4   9  17  28  44  68  96 125 159 204 256 298
#     4   9  18  34  54  72  91 121 164 208 245 287
#     4   9  16  27  45  68  95 130 170 206 239 283
#     4  10  20  34  53  75  98 124 156 196 242 292
#
# _framework density 17.789346999999999
#
# number of rings (size 3 to 8) (size 9 to 14) (size 15 to 20)
#    0.000    2.857    0.000    2.571    0.000    5.143 
#    0.000    1.429    0.000   18.429    0.000    0.000 
#    0.000    0.000    0.000    0.000    0.000    0.000 
#
# Total GULP energy -694228.746090 kJ/mol
# GULP energy per Si atom -12396.941894 kJ/mol
# Density = 1.774886 g / cm^3
# Si number density = 17.789347 Si / 1000 Ang^3
#
#
#
# Elastic Constant Matrix: (Units=GPa)
#
#
# Indices 1 2 3 4 5 6 
#
# 1 88.0483 34.8914 64.3025 0.0000 0.0000 0.0000
# 2 34.8914 69.0603 53.6165 0.0000 0.0000 0.0000
# 3 64.3025 53.6165 135.2982 0.0000 0.0000 0.0000
# 4 0.0000 0.0000 0.0000 31.9838 0.0000 0.0000
# 5 0.0000 0.0000 0.0000 0.0000 23.0375 0.0000
# 6 0.0000 0.0000 0.0000 0.0000 0.0000 21.1193
#
#
#
# Elastic Compliance Matrix: (Units=1/GPa)
#
#
# Indices 1 2 3 4 5 6 
#
# 1 0.017974 -0.003537 -0.007141 0.000000 0.000000 0.000000
# 2 -0.003537 0.021611 -0.006883 0.000000 0.000000 0.000000
# 3 -0.007141 -0.006883 0.013512 0.000000 0.000000 0.000000
# 4 0.000000 0.000000 0.000000 0.031266 0.000000 0.000000
# 5 0.000000 0.000000 0.000000 0.000000 0.043407 0.000000
# 6 0.000000 0.000000 0.000000 0.000000 0.000000 0.047350
#
#
# Mechanical properties :
#
#
# Convention : Reuss Voigt Hill
#
# Bulk Modulus (GPa) = 55.63072 66.44752 61.03912
# Shear Modulus (GPa) = 23.12306 24.53454 23.82880
#
# Velocity S-wave (km/s) = 3.60922 3.71775 3.66389
# Velocity P-wave (km/s) = 6.97914 7.47411 7.23087
#
# Compressibility (1/GPa) = 0.01797568
#
# Stress axis : x y z
#
# Youngs Moduli (GPa) = 55.63592 46.27285 74.00605
#
# Poissons Ratio (x) = 0.16368 0.52845
# Poissons Ratio (y) = 0.19679 0.50938
# Poissons Ratio (z) = 0.39728 0.31849
#
# Static dielectric constant tensor:
#      x y z
#    x 3.366480 0.000000 0.000000 
#    y 0.000000 3.211570 0.000000 
#    z 0.000000 0.000000 3.261250 
# 
# 
# High freq. dielectric constant tensor:
#      x y z
#    x 1.672460 0.000000 0.000000 
#    y 0.000000 1.677690 0.000000 
#    z 0.000000 0.000000 1.684390 
# 
# From -- ./inp_files/28118.got.cif
#   From: 2010.03.12/outbox.cif.g09.slc.cpg/sg59_15_cif.got.tgz:28118.got - 2010.04.16 16:29:54.
