data_PCOD8243987
_publ_section_title
;
Structure prediction by ZEFSAII (Michael W. Deem and Ramdas Pophale) SiO2 
 PCOD8243987
Probable space group: P M M N
;
_chemical_formula_sum "Si O2"
_cell_formula_units_Z 56
_cell_length_a 22.542868
_cell_length_b 8.612314
_cell_length_c 14.498761
_cell_angle_alpha 90.000000
_cell_angle_beta 90.000000
_cell_angle_gamma 90.000000
_cell_volume 2814.880189
_symmetry_space_group_name_H-M "P M M N"
_symmetry_group_IT_number 59
_space_group.IT_coordinate_system_code '2'
_symmetry_cell_setting 'orthorhombic'
loop_
_space_group_symop_operation_xyz
x,y,z
1/2-x,1/2-y,z
1/2+x,-y,-z
-x,1/2+y,-z
-x,-y,-z
1/2+x,1/2+y,-z
1/2-x,y,z
x,1/2-y,z
loop_
_atom_site_type_symbol
_atom_site_label
_atom_site_fract_x
_atom_site_fract_y
_atom_site_fract_z
Si Si1 0.183678 0.929407 0.001030
Si Si2 0.750000 0.066522 0.676776
Si Si3 0.651980 0.932994 0.808057
Si Si4 0.144643 0.430113 0.651975
Si Si5 0.250000 0.063862 0.528702
Si Si6 0.481399 0.427574 0.214599
Si Si7 0.102352 0.066036 0.845727
Si Si8 0.970515 0.072265 0.412547
O O1 0.250000 0.953930 0.959169
O O2 0.172145 0.750000 0.023729
O O3 0.132760 0.987518 0.932923
O O4 0.181040 0.025835 0.094860
O O5 0.750000 0.250000 0.678850
O O6 0.690217 0.008268 0.726311
O O7 0.750000 0.008873 0.571991
O O8 0.653033 0.750000 0.791594
O O9 0.583873 0.994393 0.808504
O O10 0.157112 0.250000 0.662342
O O11 0.195836 0.503068 0.589388
O O12 0.137969 0.498521 0.755817
O O13 0.085022 0.461514 0.598313
O O14 0.250000 0.250000 0.518336
O O15 0.487569 0.250000 0.181821
O O16 0.532705 0.522436 0.161188
O O17 0.486895 0.441610 0.324629
O O18 0.107167 0.250000 0.855338
O O19 0.951194 0.250000 0.428964
O O20 0.000000 0.000000 0.500000
#
# Coordination Sequence:
#
# PCOD8243987 Si02
#       8
#     8   4   8   8   4   8   8   8
#     4  11  24  41  62  90 124 162 199 248 304 357
#     4  12  26  42  59  88 125 158 199 252 302 358
#     4  11  23  42  67  90 116 159 206 251 299 357
#     4   9  20  38  59  86 118 154 198 246 292 346
#     4  10  22  40  61  84 117 160 201 242 294 352
#     4   9  21  40  61  86 119 156 198 247 302 356
#     4  10  21  38  64  94 123 157 200 248 301 362
#     4  10  20  35  56  83 116 154 196 244 295 355
#
# _framework density 19.894276000000001
#
# number of rings (size 3 to 8) (size 9 to 14) (size 15 to 20)
#    0.000    1.857    0.714    2.357    3.000    4.286 
#    0.000    0.000    0.000    0.000    0.000    0.000 
#    0.000    0.000    0.000    0.000    0.000    0.000 
#
# Total GULP energy -694279.537789 kJ/mol
# GULP energy per Si atom -12397.848889 kJ/mol
# Density = 1.984900 g / cm^3
# Si number density = 19.894276 Si / 1000 Ang^3
#
#
#
# Elastic Constant Matrix: (Units=GPa)
#
#
# Indices 1 2 3 4 5 6 
#
# 1 128.7881 32.5212 57.8218 0.0000 0.0000 0.0000
# 2 32.5212 58.9200 28.5864 0.0000 0.0000 0.0000
# 3 57.8218 28.5864 90.1739 0.0000 0.0000 0.0000
# 4 0.0000 0.0000 0.0000 26.9012 0.0000 0.0000
# 5 0.0000 0.0000 0.0000 0.0000 29.2280 0.0000
# 6 0.0000 0.0000 0.0000 0.0000 0.0000 28.4991
#
#
#
# Elastic Compliance Matrix: (Units=1/GPa)
#
#
# Indices 1 2 3 4 5 6 
#
# 1 0.011406 -0.003247 -0.006285 0.000000 0.000000 0.000000
# 2 -0.003247 0.020981 -0.004570 0.000000 0.000000 0.000000
# 3 -0.006285 -0.004570 0.016568 0.000000 0.000000 0.000000
# 4 0.000000 0.000000 0.000000 0.037173 0.000000 0.000000
# 5 0.000000 0.000000 0.000000 0.000000 0.034214 0.000000
# 6 0.000000 0.000000 0.000000 0.000000 0.000000 0.035089
#
#
# Mechanical properties :
#
#
# Convention : Reuss Voigt Hill
#
# Bulk Modulus (GPa) = 48.18372 57.30454 52.74413
# Shear Modulus (GPa) = 26.23972 27.52248 26.88110
#
# Velocity S-wave (km/s) = 3.63569 3.72349 3.67985
# Velocity P-wave (km/s) = 6.47277 6.88135 6.68018
#
# Compressibility (1/GPa) = 0.02075390
#
# Stress axis : x y z
#
# Youngs Moduli (GPa) = 87.67208 47.66183 60.35643
#
# Poissons Ratio (x) = 0.15473 0.37932
# Poissons Ratio (y) = 0.28463 0.27580
# Poissons Ratio (z) = 0.55099 0.21779
#
# Static dielectric constant tensor:
#      x y z
#    x 4.106120 0.000000 0.000000 
#    y 0.000000 3.662230 0.000000 
#    z 0.000000 0.000000 3.720180 
# 
# 
# High freq. dielectric constant tensor:
#      x y z
#    x 1.786230 0.000000 0.000000 
#    y 0.000000 1.773460 0.000000 
#    z 0.000000 0.000000 1.779900 
# 
# From -- ./inp_files/24400.got.cif
#   From: 2010.03.12/outbox.cif.g09.slc.cpg/sg59_13_cif.got.tgz:24400.got - 2010.04.16 16:29:54.
