data_PCOD8243343
_publ_section_title
;
Structure prediction by ZEFSAII (Michael W. Deem and Ramdas Pophale) SiO2 
 PCOD8243343
Probable space group: P M M N
;
_chemical_formula_sum "Si O2"
_cell_formula_units_Z 56
_cell_length_a 14.177426
_cell_length_b 8.838984
_cell_length_c 24.273506
_cell_angle_alpha 90.000000
_cell_angle_beta 90.000000
_cell_angle_gamma 90.000000
_cell_volume 3041.811140
_symmetry_space_group_name_H-M "P M M N"
_symmetry_group_IT_number 59
_space_group.IT_coordinate_system_code '2'
_symmetry_cell_setting 'orthorhombic'
loop_
_space_group_symop_operation_xyz
x,y,z
1/2-x,1/2-y,z
1/2+x,-y,-z
-x,1/2+y,-z
-x,-y,-z
1/2+x,1/2+y,-z
1/2-x,y,z
x,1/2-y,z
loop_
_atom_site_type_symbol
_atom_site_label
_atom_site_fract_x
_atom_site_fract_y
_atom_site_fract_z
Si Si1 0.487586 0.928675 0.559215
Si Si2 0.483464 0.926745 0.272122
Si Si3 0.065808 0.924999 0.150748
Si Si4 0.061797 0.073291 0.952902
Si Si5 0.855027 0.571883 0.643865
Si Si6 0.142607 0.428357 0.645062
Si Si7 0.750000 0.429819 0.014413
Si Si8 0.750000 0.928283 0.893678
O O1 0.478557 0.750000 0.553867
O O2 0.579439 0.979798 0.593461
O O3 0.500000 0.000000 0.500000
O O4 0.394692 0.991479 0.589684
O O5 0.470841 0.750000 0.280195
O O6 0.483918 0.971696 0.208000
O O7 0.580468 0.979924 0.301935
O O8 0.393012 0.004685 0.299227
O O9 0.097481 0.750000 0.150488
O O10 0.987374 0.956516 0.105095
O O11 0.157839 0.026036 0.140753
O O12 0.075493 0.250000 0.965391
O O13 0.161363 0.990005 0.951584
O O14 0.000000 0.000000 0.000000
O O15 0.750000 0.509978 0.632722
O O16 0.855394 0.750000 0.650267
O O17 0.250000 0.479734 0.655923
O O18 0.135990 0.250000 0.635470
O O19 0.750000 0.250000 0.012355
O O20 0.750000 0.488466 0.952098
O O21 0.750000 0.750000 0.903978
#
# Coordination Sequence:
#
# PCOD8243343 Si02
#       8
#     8   8   8   8   8   8   4   4
#     4  10  20  34  53  79 111 145 181 226 273 323
#     4   9  19  36  56  81 108 140 180 224 272 323
#     4  10  22  39  58  83 116 147 181 231 286 334
#     4  11  22  38  60  85 114 151 190 231 285 345
#     4   9  19  35  53  75 106 143 178 216 268 322
#     4   9  18  35  58  81 107 143 187 230 274 325
#     4  12  24  40  60  82 114 150 188 237 288 341
#     4  12  24  36  58  86 112 146 190 229 276 347
#
# _framework density 18.410084999999999
#
# number of rings (size 3 to 8) (size 9 to 14) (size 15 to 20)
#    0.000    2.000    1.429    2.143    1.000    2.857 
#    1.286    1.429    0.000    0.000    0.000    0.000 
#    0.000    0.000    0.000    0.000    0.000    0.000 
#
# Total GULP energy -694520.956981 kJ/mol
# GULP energy per Si atom -12402.159946 kJ/mol
# Density = 1.836818 g / cm^3
# Si number density = 18.410085 Si / 1000 Ang^3
#
#
#
# Elastic Constant Matrix: (Units=GPa)
#
#
# Indices 1 2 3 4 5 6 
#
# 1 154.8527 53.1940 67.2845 0.0000 0.0000 0.0000
# 2 53.1940 74.5618 47.2673 0.0000 0.0000 0.0000
# 3 67.2845 47.2673 145.1466 0.0000 0.0000 0.0000
# 4 0.0000 0.0000 0.0000 28.2657 0.0000 0.0000
# 5 0.0000 0.0000 0.0000 0.0000 19.6549 0.0000
# 6 0.0000 0.0000 0.0000 0.0000 0.0000 31.6282
#
#
#
# Elastic Compliance Matrix: (Units=1/GPa)
#
#
# Indices 1 2 3 4 5 6 
#
# 1 0.009335 -0.004935 -0.002720 0.000000 0.000000 0.000000
# 2 -0.004935 0.019510 -0.004066 0.000000 0.000000 0.000000
# 3 -0.002720 -0.004066 0.009475 0.000000 0.000000 0.000000
# 4 0.000000 0.000000 0.000000 0.035379 0.000000 0.000000
# 5 0.000000 0.000000 0.000000 0.000000 0.050878 0.000000
# 6 0.000000 0.000000 0.000000 0.000000 0.000000 0.031617
#
#
# Mechanical properties :
#
#
# Convention : Reuss Voigt Hill
#
# Bulk Modulus (GPa) = 67.21671 78.89473 73.05572
# Shear Modulus (GPa) = 27.08634 29.69745 28.39189
#
# Velocity S-wave (km/s) = 3.83988 4.02071 3.93134
# Velocity P-wave (km/s) = 7.49998 8.03131 7.77019
#
# Compressibility (1/GPa) = 0.01487725
#
# Stress axis : x y z
#
# Youngs Moduli (GPa) = 107.12300 51.25559 105.54628
#
# Poissons Ratio (x) = 0.25297 0.28710
# Poissons Ratio (y) = 0.52870 0.42911
# Poissons Ratio (z) = 0.29139 0.20839
#
# Static dielectric constant tensor:
#      x y z
#    x 3.691110 0.000000 0.000000 
#    y 0.000000 3.414480 0.000000 
#    z 0.000000 0.000000 3.436560 
# 
# 
# High freq. dielectric constant tensor:
#      x y z
#    x 1.720130 0.000000 0.000000 
#    y 0.000000 1.715050 0.000000 
#    z 0.000000 0.000000 1.714470 
# 
# From -- ./inp_files/30432.got.cif
#   From: 2010.03.12/outbox.cif.g09.slc.cpg/sg59_16_cif.got.tgz:30432.got - 2010.04.16 16:29:54.
