data_PCOD8243862
_publ_section_title
;
Structure prediction by ZEFSAII (Michael W. Deem and Ramdas Pophale) SiO2 
 PCOD8243862
Probable space group: P M M N
;
_chemical_formula_sum "Si O2"
_cell_formula_units_Z 48
_cell_length_a 8.658401
_cell_length_b 30.569189
_cell_length_c 9.400287
_cell_angle_alpha 90.000000
_cell_angle_beta 90.000000
_cell_angle_gamma 90.000000
_cell_volume 2488.070751
_symmetry_space_group_name_H-M "P M M N"
_symmetry_group_IT_number 59
_space_group.IT_coordinate_system_code '2'
_symmetry_cell_setting 'orthorhombic'
loop_
_space_group_symop_operation_xyz
x,y,z
1/2-x,1/2-y,z
1/2+x,-y,-z
-x,1/2+y,-z
-x,-y,-z
1/2+x,1/2+y,-z
1/2-x,y,z
x,1/2-y,z
loop_
_atom_site_type_symbol
_atom_site_label
_atom_site_fract_x
_atom_site_fract_y
_atom_site_fract_z
Si Si1 0.923841 0.384489 0.291506
Si Si2 0.078633 0.250000 0.675441
Si Si3 0.580112 0.323448 0.534008
Si Si4 0.070697 0.750000 0.027906
Si Si5 0.065589 0.547121 0.466966
Si Si6 0.429104 0.344302 0.025930
Si Si7 0.931344 0.889784 0.269195
O O1 0.750000 0.395467 0.241815
O O2 0.928123 0.337469 0.370380
O O3 0.984146 0.422459 0.397494
O O4 0.029016 0.377097 0.153859
O O5 0.250000 0.250000 0.740586
O O6 0.056206 0.209423 0.571759
O O7 0.958662 0.250000 0.803567
O O8 0.750000 0.303775 0.567793
O O9 0.550921 0.365576 0.628317
O O10 0.250000 0.750000 0.994709
O O11 0.006062 0.704056 0.965396
O O12 0.250000 0.547048 0.446905
O O13 0.000000 0.500000 0.500000
O O14 0.980191 0.561095 0.317028
O O15 0.250000 0.334130 0.027053
O O16 0.474532 0.373211 0.888066
O O17 0.750000 0.881505 0.299448
#
# Coordination Sequence:
#
# PCOD8243862 Si02
#       7
#     8   4   8   4   8   8   8
#     4   9  21  39  58  83 116 150 189 235 289 349
#     4  12  22  33  52  81 112 144 192 246 288 337
#     4  10  20  35  55  79 107 147 193 237 285 339
#     4  12  24  37  58  81 114 160 200 242 288 339
#     4  10  21  39  64  91 117 148 191 240 292 357
#     4  11  23  38  58  86 120 156 198 242 289 345
#     4  10  20  35  57  84 115 149 188 238 287 343
#
# _framework density 19.292057
#
# number of rings (size 3 to 8) (size 9 to 14) (size 15 to 20)
#    0.000    1.667    1.667    4.500    0.000    6.667 
#    0.000    1.667    0.000    0.000    0.000    0.000 
#    0.000    0.000    0.000    0.000    0.000    0.000 
#
# Total GULP energy -594628.865979 kJ/mol
# GULP energy per Si atom -12388.101375 kJ/mol
# Density = 1.924815 g / cm^3
# Si number density = 19.292057 Si / 1000 Ang^3
#
#
#
# Elastic Constant Matrix: (Units=GPa)
#
#
# Indices 1 2 3 4 5 6 
#
# 1 87.7290 29.6897 43.8778 0.0000 0.0000 0.0000
# 2 29.6897 108.6472 46.7401 0.0000 0.0000 0.0000
# 3 43.8778 46.7401 106.0003 0.0000 0.0000 0.0000
# 4 0.0000 0.0000 0.0000 61.2547 0.0000 0.0000
# 5 0.0000 0.0000 0.0000 0.0000 30.0377 0.0000
# 6 0.0000 0.0000 0.0000 0.0000 0.0000 32.5031
#
#
#
# Elastic Compliance Matrix: (Units=1/GPa)
#
#
# Indices 1 2 3 4 5 6 
#
# 1 0.014630 -0.001719 -0.005298 0.000000 0.000000 0.000000
# 2 -0.001719 0.011561 -0.004386 0.000000 0.000000 0.000000
# 3 -0.005298 -0.004386 0.013561 0.000000 0.000000 0.000000
# 4 0.000000 0.000000 0.000000 0.016325 0.000000 0.000000
# 5 0.000000 0.000000 0.000000 0.000000 0.033291 0.000000
# 6 0.000000 0.000000 0.000000 0.000000 0.000000 0.030766
#
#
# Mechanical properties :
#
#
# Convention : Reuss Voigt Hill
#
# Bulk Modulus (GPa) = 59.01110 60.33241 59.67176
# Shear Modulus (GPa) = 33.64964 36.89704 35.27334
#
# Velocity S-wave (km/s) = 4.18092 4.37802 4.28060
# Velocity P-wave (km/s) = 7.34585 7.54302 7.44509
#
# Compressibility (1/GPa) = 0.01694596
#
# Stress axis : x y z
#
# Youngs Moduli (GPa) = 68.35129 86.49994 73.74006
#
# Poissons Ratio (x) = 0.14867 0.39069
# Poissons Ratio (y) = 0.11747 0.32344
# Poissons Ratio (z) = 0.36214 0.37940
#
# Static dielectric constant tensor:
#      x y z
#    x 3.501190 0.000000 0.000000 
#    y 0.000000 3.172980 0.000000 
#    z 0.000000 0.000000 3.520300 
# 
# 
# High freq. dielectric constant tensor:
#      x y z
#    x 1.760120 0.000000 0.000000 
#    y 0.000000 1.744170 0.000000 
#    z 0.000000 0.000000 1.739640 
# 
# From -- ./inp_files/6362.got.cif
#   From: 2010.03.12/outbox.cif.g09.slc.cpg/sg59_4_cif.got.tgz:6362.got - 2010.04.16 16:29:54.
