data_PCOD8243869
_publ_section_title
;
Structure prediction by ZEFSAII (Michael W. Deem and Ramdas Pophale) SiO2 
 PCOD8243869
Probable space group: P M M N
;
_chemical_formula_sum "Si O2"
_cell_formula_units_Z 64
_cell_length_a 9.168285
_cell_length_b 19.634292
_cell_length_c 19.765019
_cell_angle_alpha 90.000000
_cell_angle_beta 90.000000
_cell_angle_gamma 90.000000
_cell_volume 3557.956112
_symmetry_space_group_name_H-M "P M M N"
_symmetry_group_IT_number 59
_space_group.IT_coordinate_system_code '2'
_symmetry_cell_setting 'orthorhombic'
loop_
_space_group_symop_operation_xyz
x,y,z
1/2-x,1/2-y,z
1/2+x,-y,-z
-x,1/2+y,-z
-x,-y,-z
1/2+x,1/2+y,-z
1/2-x,y,z
x,1/2-y,z
loop_
_atom_site_type_symbol
_atom_site_label
_atom_site_fract_x
_atom_site_fract_y
_atom_site_fract_z
Si Si1 0.924370 0.082360 0.848590
Si Si2 0.915615 0.611399 0.387181
Si Si3 0.920820 0.828527 0.040173
Si Si4 0.916181 0.173032 0.096291
Si Si5 0.419134 0.065493 0.471964
Si Si6 0.580000 0.458948 0.346810
Si Si7 0.080215 0.949248 0.806858
Si Si8 0.582403 0.326062 0.726390
O O1 0.750000 0.081415 0.854612
O O2 0.980514 0.121861 0.781812
O O3 0.989256 0.121061 0.912651
O O4 0.985949 0.006089 0.845439
O O5 0.750000 0.623788 0.366319
O O6 0.937108 0.621710 0.468248
O O7 0.963616 0.536473 0.362626
O O8 0.008418 0.666352 0.346586
O O9 0.750000 0.845141 0.045351
O O10 0.953212 0.750000 0.060005
O O11 0.973679 0.843196 0.964278
O O12 0.750000 0.162812 0.070586
O O13 0.939454 0.250000 0.122924
O O14 0.951161 0.122810 0.158062
O O15 0.250000 0.048382 0.460175
O O16 0.491983 0.088444 0.400785
O O17 0.500000 0.000000 0.500000
O O18 0.750000 0.445058 0.358014
O O19 0.530131 0.441177 0.270933
O O20 0.250000 0.970335 0.810521
O O21 0.750000 0.341584 0.714727
O O22 0.555313 0.250000 0.753722
#
# Coordination Sequence:
#
# PCOD8243869 Si02
#       8
#     8   8   8   8   8   8   8   8
#     4  11  22  35  53  78 108 140 177 220 264 312
#     4   9  17  30  47  69  97 130 170 213 254 300
#     4  10  21  37  57  79 105 140 179 218 260 311
#     4   9  19  37  60  82 103 133 172 215 266 320
#     4   9  17  28  45  70  98 129 168 209 252 302
#     4   9  17  30  48  73 103 133 166 208 258 305
#     4  10  20  35  55  79 110 140 171 216 265 317
#     4  10  21  34  48  70 101 137 175 215 260 309
#
# _framework density 17.987856000000001
#
# number of rings (size 3 to 8) (size 9 to 14) (size 15 to 20)
#    0.000    2.375    1.250    2.250    0.000    6.000 
#    0.000    0.000    0.000    0.750    0.000    1.750 
#    0.000    0.000    0.000    0.000    0.000    0.000 
#
# Total GULP energy -793455.544134 kJ/mol
# GULP energy per Si atom -12397.742877 kJ/mol
# Density = 1.794691 g / cm^3
# Si number density = 17.987856 Si / 1000 Ang^3
#
#
#
# Elastic Constant Matrix: (Units=GPa)
#
#
# Indices 1 2 3 4 5 6 
#
# 1 72.4141 40.7089 52.6106 0.0000 0.0000 0.0000
# 2 40.7089 75.9472 57.6484 0.0000 0.0000 0.0000
# 3 52.6106 57.6484 127.2059 0.0000 0.0000 0.0000
# 4 0.0000 0.0000 0.0000 20.2379 0.0000 0.0000
# 5 0.0000 0.0000 0.0000 0.0000 32.2794 0.0000
# 6 0.0000 0.0000 0.0000 0.0000 0.0000 23.1540
#
#
#
# Elastic Compliance Matrix: (Units=1/GPa)
#
#
# Indices 1 2 3 4 5 6 
#
# 1 0.022249 -0.007532 -0.005789 0.000000 0.000000 0.000000
# 2 -0.007532 0.022622 -0.007137 0.000000 0.000000 0.000000
# 3 -0.005789 -0.007137 0.013490 0.000000 0.000000 0.000000
# 4 0.000000 0.000000 0.000000 0.049412 0.000000 0.000000
# 5 0.000000 0.000000 0.000000 0.000000 0.030980 0.000000
# 6 0.000000 0.000000 0.000000 0.000000 0.000000 0.043189
#
#
# Mechanical properties :
#
#
# Convention : Reuss Voigt Hill
#
# Bulk Modulus (GPa) = 57.32043 64.16699 60.74371
# Shear Modulus (GPa) = 21.86546 23.44087 22.65316
#
# Velocity S-wave (km/s) = 3.49028 3.61383 3.55259
# Velocity P-wave (km/s) = 6.94105 7.29129 7.11832
#
# Compressibility (1/GPa) = 0.01744579
#
# Stress axis : x y z
#
# Youngs Moduli (GPa) = 44.94526 44.20567 74.13128
#
# Poissons Ratio (x) = 0.33296 0.42911
# Poissons Ratio (y) = 0.33853 0.52905
# Poissons Ratio (z) = 0.26017 0.31548
#
# Static dielectric constant tensor:
#      x y z
#    x 3.353270 0.000000 0.000000 
#    y 0.000000 3.100530 0.000000 
#    z 0.000000 0.000000 3.635810 
# 
# 
# High freq. dielectric constant tensor:
#      x y z
#    x 1.699550 0.000000 0.000000 
#    y 0.000000 1.663520 0.000000 
#    z 0.000000 0.000000 1.703480 
# 
# From -- ./inp_files/26321.got.cif
#   From: 2010.03.12/outbox.cif.g09.slc.cpg/sg59_14_cif.got.tgz:26321.got - 2010.04.16 16:29:54.
