data_PCOD8243586
_publ_section_title
;
Structure prediction by ZEFSAII (Michael W. Deem and Ramdas Pophale) SiO2 
 PCOD8243586
Probable space group: P M M N
;
_chemical_formula_sum "Si O2"
_cell_formula_units_Z 40
_cell_length_a 9.066061
_cell_length_b 8.923985
_cell_length_c 25.801609
_cell_angle_alpha 90.000000
_cell_angle_beta 90.000000
_cell_angle_gamma 90.000000
_cell_volume 2087.489300
_symmetry_space_group_name_H-M "P M M N"
_symmetry_group_IT_number 59
_space_group.IT_coordinate_system_code '2'
_symmetry_cell_setting 'orthorhombic'
loop_
_space_group_symop_operation_xyz
x,y,z
1/2-x,1/2-y,z
1/2+x,-y,-z
-x,1/2+y,-z
-x,-y,-z
1/2+x,1/2+y,-z
1/2-x,y,z
x,1/2-y,z
loop_
_atom_site_type_symbol
_atom_site_label
_atom_site_fract_x
_atom_site_fract_y
_atom_site_fract_z
Si Si1 0.076896 0.923084 0.738049
Si Si2 0.574941 0.583708 0.159522
Si Si3 0.920333 0.426823 0.451635
Si Si4 0.577519 0.424921 0.644252
Si Si5 0.585004 0.573269 0.046527
O O1 0.250000 0.954706 0.729493
O O2 0.038863 0.750000 0.728514
O O3 0.026720 0.967288 0.796109
O O4 0.983996 0.025689 0.699590
O O5 0.750000 0.592201 0.155015
O O6 0.514429 0.750000 0.173434
O O7 0.514843 0.531153 0.103014
O O8 0.750000 0.475257 0.451840
O O9 0.937815 0.250000 0.455737
O O10 0.000000 0.500000 0.500000
O O11 0.993726 0.481526 0.399064
O O12 0.750000 0.461503 0.641038
O O13 0.546658 0.250000 0.635706
O O14 0.750000 0.510222 0.043569
O O15 0.581737 0.750000 0.039694
O O16 0.500000 0.500000 0.000000
#
# Coordination Sequence:
#
# PCOD8243586 Si02
#       5
#     8   8   8   8   8
#     4  10  20  34  55  83 109 135 174 222 270 322
#     4   8  15  30  51  73 100 136 176 218 264 315
#     4  11  24  41  62  89 118 148 185 226 268 317
#     4  11  24  40  58  82 112 147 186 224 265 317
#     4   9  18  32  50  74 103 135 174 218 264 318
#
# _framework density 19.161774999999999
#
# number of rings (size 3 to 8) (size 9 to 14) (size 15 to 20)
#    0.000    2.200    0.000    4.200    0.000   10.400 
#    0.000    3.000    0.000    1.200    0.000    0.000 
#    0.000    0.000    0.000    0.000    0.000    0.000 
#
# Total GULP energy -495958.537963 kJ/mol
# GULP energy per Si atom -12398.963449 kJ/mol
# Density = 1.911816 g / cm^3
# Si number density = 19.161775 Si / 1000 Ang^3
#
#
#
# Elastic Constant Matrix: (Units=GPa)
#
#
# Indices 1 2 3 4 5 6 
#
# 1 89.8086 45.5947 56.6533 0.0000 0.0000 0.0000
# 2 45.5947 57.1314 38.5633 0.0000 0.0000 0.0000
# 3 56.6533 38.5633 144.2826 0.0000 0.0000 0.0000
# 4 0.0000 0.0000 0.0000 43.0986 0.0000 0.0000
# 5 0.0000 0.0000 0.0000 0.0000 33.7607 0.0000
# 6 0.0000 0.0000 0.0000 0.0000 0.0000 27.8109
#
#
#
# Elastic Compliance Matrix: (Units=1/GPa)
#
#
# Indices 1 2 3 4 5 6 
#
# 1 0.020939 -0.013618 -0.004582 0.000000 0.000000 0.000000
# 2 -0.013618 0.030213 -0.002728 0.000000 0.000000 0.000000
# 3 -0.004582 -0.002728 0.009459 0.000000 0.000000 0.000000
# 4 0.000000 0.000000 0.000000 0.023203 0.000000 0.000000
# 5 0.000000 0.000000 0.000000 0.000000 0.029620 0.000000
# 6 0.000000 0.000000 0.000000 0.000000 0.000000 0.035957
#
#
# Mechanical properties :
#
#
# Convention : Reuss Voigt Hill
#
# Bulk Modulus (GPa) = 53.31895 63.64946 58.48421
# Shear Modulus (GPa) = 25.31674 30.96148 28.13911
#
# Velocity S-wave (km/s) = 3.63879 4.02405 3.83626
# Velocity P-wave (km/s) = 6.74837 7.40808 7.08591
#
# Compressibility (1/GPa) = 0.01875506
#
# Stress axis : x y z
#
# Youngs Moduli (GPa) = 47.75833 33.09864 105.71765
#
# Poissons Ratio (x) = 0.45073 0.48440
# Poissons Ratio (y) = 0.65036 0.28841
# Poissons Ratio (z) = 0.21883 0.09030
#
# Static dielectric constant tensor:
#      x y z
#    x 3.455720 0.000000 0.000000 
#    y 0.000000 3.472540 0.000000 
#    z 0.000000 0.000000 3.870600 
# 
# 
# High freq. dielectric constant tensor:
#      x y z
#    x 1.722550 0.000000 0.000000 
#    y 0.000000 1.747680 0.000000 
#    z 0.000000 0.000000 1.766950 
# 
# From -- ./inp_files/31111.got.cif
#   From: 2010.03.12/outbox.cif.g09.slc.cpg/sg59_16_cif.got.tgz:31111.got - 2010.04.16 16:29:54.
