data_PCOD8243720
_publ_section_title
;
Structure prediction by ZEFSAII (Michael W. Deem and Ramdas Pophale) SiO2 
 PCOD8243720
Probable space group: P M M N
;
_chemical_formula_sum "Si O2"
_cell_formula_units_Z 64
_cell_length_a 8.789504
_cell_length_b 15.376903
_cell_length_c 23.701504
_cell_angle_alpha 90.000000
_cell_angle_beta 90.000000
_cell_angle_gamma 90.000000
_cell_volume 3203.385079
_symmetry_space_group_name_H-M "P M M N"
_symmetry_group_IT_number 59
_space_group.IT_coordinate_system_code '2'
_symmetry_cell_setting 'orthorhombic'
loop_
_space_group_symop_operation_xyz
x,y,z
1/2-x,1/2-y,z
1/2+x,-y,-z
-x,1/2+y,-z
-x,-y,-z
1/2+x,1/2+y,-z
1/2-x,y,z
x,1/2-y,z
loop_
_atom_site_type_symbol
_atom_site_label
_atom_site_fract_x
_atom_site_fract_y
_atom_site_fract_z
Si Si1 0.073065 0.150197 0.571774
Si Si2 0.931037 0.846365 0.555325
Si Si3 0.576553 0.652692 0.830148
Si Si4 0.575021 0.401026 0.062528
Si Si5 0.073977 0.584586 0.063136
Si Si6 0.429489 0.496487 0.363577
Si Si7 0.075218 0.346477 0.831616
Si Si8 0.427871 0.992536 0.757003
O O1 0.250000 0.127753 0.577123
O O2 0.042244 0.250000 0.588689
O O3 0.014047 0.132410 0.508224
O O4 0.982685 0.090053 0.614925
O O5 0.750000 0.845935 0.556051
O O6 0.989876 0.750000 0.573297
O O7 0.998154 0.919111 0.597355
O O8 0.750000 0.620152 0.824592
O O9 0.560118 0.750000 0.805424
O O10 0.528831 0.655609 0.895883
O O11 0.466024 0.588207 0.797086
O O12 0.750000 0.387941 0.079671
O O13 0.533567 0.501686 0.070022
O O14 0.546239 0.371110 0.997952
O O15 0.250000 0.556759 0.069187
O O16 0.027125 0.650995 0.112091
O O17 0.250000 0.492754 0.365561
O O18 0.482208 0.480361 0.300451
O O19 0.250000 0.364785 0.848079
O O20 0.056005 0.250000 0.805203
O O21 0.019291 0.417502 0.786253
O O22 0.250000 0.993793 0.743831
#
# Coordination Sequence:
#
# PCOD8243720 Si02
#       8
#     8   8   8   8   8   8   8   8
#     4   9  18  35  59  85 116 155 195 234 280 339
#     4   8  16  33  57  85 117 153 191 231 282 344
#     4  11  24  41  62  87 115 150 192 241 295 346
#     4  10  20  35  57  86 118 152 186 228 285 348
#     4  10  20  34  57  87 118 149 185 232 288 347
#     4  11  22  35  57  87 118 152 191 240 293 342
#     4  10  22  40  61  83 109 146 192 241 295 351
#     4  11  24  42  61  82 113 155 200 244 289 340
#
# _framework density 19.978864000000002
#
# number of rings (size 3 to 8) (size 9 to 14) (size 15 to 20)
#    0.000    2.000    1.250    3.000    0.000    5.000 
#    0.000    5.625    0.000    2.625    0.000    0.000 
#    0.000    0.000    0.000    0.000    0.000    0.000 
#
# Total GULP energy -793665.971714 kJ/mol
# GULP energy per Si atom -12401.030808 kJ/mol
# Density = 1.993339 g / cm^3
# Si number density = 19.978864 Si / 1000 Ang^3
#
#
#
# Elastic Constant Matrix: (Units=GPa)
#
#
# Indices 1 2 3 4 5 6 
#
# 1 48.0064 22.9953 20.8781 0.0000 0.0000 0.0000
# 2 22.9953 98.3787 38.0179 0.0000 0.0000 0.0000
# 3 20.8781 38.0179 88.2679 0.0000 0.0000 0.0000
# 4 0.0000 0.0000 0.0000 13.1262 0.0000 0.0000
# 5 0.0000 0.0000 0.0000 0.0000 31.7961 0.0000
# 6 0.0000 0.0000 0.0000 0.0000 0.0000 26.4275
#
#
#
# Elastic Compliance Matrix: (Units=1/GPa)
#
#
# Indices 1 2 3 4 5 6 
#
# 1 0.024584 -0.004198 -0.004007 0.000000 0.000000 0.000000
# 2 -0.004198 0.012911 -0.004568 0.000000 0.000000 0.000000
# 3 -0.004007 -0.004568 0.014244 0.000000 0.000000 0.000000
# 4 0.000000 0.000000 0.000000 0.076183 0.000000 0.000000
# 5 0.000000 0.000000 0.000000 0.000000 0.031450 0.000000
# 6 0.000000 0.000000 0.000000 0.000000 0.000000 0.037839
#
#
# Mechanical properties :
#
#
# Convention : Reuss Voigt Hill
#
# Bulk Modulus (GPa) = 38.17658 44.27062 41.22360
# Shear Modulus (GPa) = 21.59923 24.45409 23.02666
#
# Velocity S-wave (km/s) = 3.29158 3.50236 3.39861
# Velocity P-wave (km/s) = 5.79620 6.20985 6.00659
#
# Compressibility (1/GPa) = 0.02619407
#
# Stress axis : x y z
#
# Youngs Moduli (GPa) = 40.67701 77.45128 70.20303
#
# Poissons Ratio (x) = 0.32513 0.28129
# Poissons Ratio (y) = 0.17076 0.32069
# Poissons Ratio (z) = 0.16298 0.35381
#
# Static dielectric constant tensor:
#      x y z
#    x 3.455680 0.000000 0.000000 
#    y 0.000000 3.652370 0.000000 
#    z 0.000000 0.000000 3.662600 
# 
# 
# High freq. dielectric constant tensor:
#      x y z
#    x 1.768700 0.000000 0.000000 
#    y 0.000000 1.780780 0.000000 
#    z 0.000000 0.000000 1.775800 
# 
# From -- ./inp_files/31517.got.cif
#   From: 2010.03.12/outbox.cif.g09.slc.cpg/sg59_16_cif.got.tgz:31517.got - 2010.04.16 16:29:54.
