data_PCOD8243617
_publ_section_title
;
Structure prediction by ZEFSAII (Michael W. Deem and Ramdas Pophale) SiO2 
 PCOD8243617
Probable space group: P M M N
;
_chemical_formula_sum "Si O2"
_cell_formula_units_Z 64
_cell_length_a 8.913512
_cell_length_b 18.451954
_cell_length_c 20.064231
_cell_angle_alpha 90.000000
_cell_angle_beta 90.000000
_cell_angle_gamma 90.000000
_cell_volume 3299.998451
_symmetry_space_group_name_H-M "P M M N"
_symmetry_group_IT_number 59
_space_group.IT_coordinate_system_code '2'
_symmetry_cell_setting 'orthorhombic'
loop_
_space_group_symop_operation_xyz
x,y,z
1/2-x,1/2-y,z
1/2+x,-y,-z
-x,1/2+y,-z
-x,-y,-z
1/2+x,1/2+y,-z
1/2-x,y,z
x,1/2-y,z
loop_
_atom_site_type_symbol
_atom_site_label
_atom_site_fract_x
_atom_site_fract_y
_atom_site_fract_z
Si Si1 0.921065 0.333180 0.912124
Si Si2 0.421983 0.931769 0.965885
Si Si3 0.925586 0.923410 0.199004
Si Si4 0.072572 0.426943 0.173767
Si Si5 0.925636 0.088013 0.557436
Si Si6 0.072684 0.075358 0.421253
Si Si7 0.921547 0.666750 0.327393
Si Si8 0.071878 0.168273 0.296949
O O1 0.750000 0.342624 0.886701
O O2 0.971447 0.250000 0.911538
O O3 0.032868 0.378125 0.866206
O O4 0.935769 0.361933 0.987239
O O5 0.250000 0.953059 0.952223
O O6 0.498651 0.909725 0.896872
O O7 0.500000 0.000000 0.000000
O O8 0.750000 0.941119 0.196782
O O9 0.972732 0.878269 0.263485
O O10 0.019700 0.996498 0.202245
O O11 0.250000 0.429005 0.164426
O O12 0.021517 0.365764 0.226488
O O13 0.750000 0.091056 0.545595
O O14 0.003921 0.109024 0.488153
O O15 0.973404 0.147420 0.610924
O O16 0.976515 0.008790 0.583985
O O17 0.250000 0.083076 0.425534
O O18 0.008383 0.119351 0.357736
O O19 0.750000 0.649821 0.346739
O O20 0.944849 0.750000 0.308636
O O21 0.250000 0.169185 0.301244
O O22 0.007460 0.250000 0.302257
#
# Coordination Sequence:
#
# PCOD8243617 Si02
#       8
#     8   8   8   8   8   8   8   8
#     4  10  22  39  59  84 115 150 187 232 288 343
#     4  11  22  38  60  86 116 151 191 233 281 340
#     4  11  22  37  59  84 112 148 192 237 280 336
#     4  11  22  37  60  87 116 149 189 238 287 340
#     4  10  20  34  55  84 114 146 189 237 284 339
#     4   9  18  35  58  82 111 149 190 237 286 336
#     4  10  22  38  54  77 111 148 185 228 280 339
#     4   9  19  36  58  84 113 149 196 242 287 344
#
# _framework density 19.393948000000002
#
# number of rings (size 3 to 8) (size 9 to 14) (size 15 to 20)
#    0.000    1.875    1.250    2.625    0.000    5.000 
#    0.000    2.500    0.000    2.625    0.000    0.000 
#    0.000    0.000    0.000    0.000    0.000    0.000 
#
# Total GULP energy -793834.007732 kJ/mol
# GULP energy per Si atom -12403.656371 kJ/mol
# Density = 1.934981 g / cm^3
# Si number density = 19.393948 Si / 1000 Ang^3
#
#
#
# Elastic Constant Matrix: (Units=GPa)
#
#
# Indices 1 2 3 4 5 6 
#
# 1 61.0327 24.6343 40.5620 0.0000 0.0000 0.0000
# 2 24.6343 94.0907 48.1915 0.0000 0.0000 0.0000
# 3 40.5620 48.1915 143.3178 0.0000 0.0000 0.0000
# 4 0.0000 0.0000 0.0000 21.5386 0.0000 0.0000
# 5 0.0000 0.0000 0.0000 0.0000 30.0663 0.0000
# 6 0.0000 0.0000 0.0000 0.0000 0.0000 16.4169
#
#
#
# Elastic Compliance Matrix: (Units=1/GPa)
#
#
# Indices 1 2 3 4 5 6 
#
# 1 0.020833 -0.002941 -0.004907 0.000000 0.000000 0.000000
# 2 -0.002941 0.013254 -0.003625 0.000000 0.000000 0.000000
# 3 -0.004907 -0.003625 0.009585 0.000000 0.000000 0.000000
# 4 0.000000 0.000000 0.000000 0.046428 0.000000 0.000000
# 5 0.000000 0.000000 0.000000 0.000000 0.033260 0.000000
# 6 0.000000 0.000000 0.000000 0.000000 0.000000 0.060913
#
#
# Mechanical properties :
#
#
# Convention : Reuss Voigt Hill
#
# Bulk Modulus (GPa) = 48.24608 58.35741 53.30174
# Shear Modulus (GPa) = 23.35051 25.94126 24.64588
#
# Velocity S-wave (km/s) = 3.47365 3.66128 3.56870
# Velocity P-wave (km/s) = 6.40462 6.93031 6.67264
#
# Compressibility (1/GPa) = 0.02072707
#
# Stress axis : x y z
#
# Youngs Moduli (GPa) = 48.00063 75.44633 104.32816
#
# Poissons Ratio (x) = 0.22189 0.51197
# Poissons Ratio (y) = 0.14117 0.37814
# Poissons Ratio (z) = 0.23555 0.27346
#
# Static dielectric constant tensor:
#      x y z
#    x 3.438610 0.000000 0.000000 
#    y 0.000000 3.631750 0.000000 
#    z 0.000000 0.000000 3.681240 
# 
# 
# High freq. dielectric constant tensor:
#      x y z
#    x 1.745250 0.000000 0.000000 
#    y 0.000000 1.754850 0.000000 
#    z 0.000000 0.000000 1.766600 
# 
# From -- ./inp_files/26281.got.cif
#   From: 2010.03.12/outbox.cif.g09.slc.cpg/sg59_14_cif.got.tgz:26281.got - 2010.04.16 16:29:54.
