data_PCOD8243778
_publ_section_title
;
Structure prediction by ZEFSAII (Michael W. Deem and Ramdas Pophale) SiO2 
 PCOD8243778
Probable space group: P M M N
;
_chemical_formula_sum "Si O2"
_cell_formula_units_Z 48
_cell_length_a 30.706502
_cell_length_b 8.947754
_cell_length_c 9.694788
_cell_angle_alpha 90.000000
_cell_angle_beta 90.000000
_cell_angle_gamma 90.000000
_cell_volume 2663.683974
_symmetry_space_group_name_H-M "P M M N"
_symmetry_group_IT_number 59
_space_group.IT_coordinate_system_code '2'
_symmetry_cell_setting 'orthorhombic'
loop_
_space_group_symop_operation_xyz
x,y,z
1/2-x,1/2-y,z
1/2+x,-y,-z
-x,1/2+y,-z
-x,-y,-z
1/2+x,1/2+y,-z
1/2-x,y,z
x,1/2-y,z
loop_
_atom_site_type_symbol
_atom_site_label
_atom_site_fract_x
_atom_site_fract_y
_atom_site_fract_z
Si Si1 0.394234 0.924488 0.808733
Si Si2 0.634317 0.426229 0.491893
Si Si3 0.514792 0.571641 0.141951
Si Si4 0.643871 0.079965 0.906885
Si Si5 0.700035 0.574508 0.687756
Si Si6 0.066721 0.920289 0.296320
O O1 0.407117 0.750000 0.815820
O O2 0.368628 0.964314 0.668956
O O3 0.437627 0.021593 0.813171
O O4 0.361726 0.967211 0.933374
O O5 0.637826 0.250000 0.520303
O O6 0.677277 0.500048 0.555409
O O7 0.591522 0.492910 0.571850
O O8 0.512822 0.750000 0.126863
O O9 0.480643 0.511966 0.259266
O O10 0.500000 0.500000 0.000000
O O11 0.660275 0.250000 0.893660
O O12 0.596632 0.060699 0.838648
O O13 0.679232 0.976386 0.832841
O O14 0.750000 0.524536 0.686549
O O15 0.694487 0.750000 0.674790
O O16 0.058888 0.750000 0.334789
#
# Coordination Sequence:
#
# PCOD8243778 Si02
#       6
#     8   8   8   8   8   8
#     4  10  20  35  53  78 109 139 175 221 267 308
#     4   9  19  36  57  77 104 142 177 215 264 317
#     4  11  20  31  49  74 107 145 186 227 263 304
#     4   9  17  33  55  76 103 135 171 215 257 306
#     4  10  21  37  57  81 106 131 167 215 262 316
#     4   8  15  30  49  71 101 137 176 217 254 292
#
# _framework density 18.020154999999999
#
# number of rings (size 3 to 8) (size 9 to 14) (size 15 to 20)
#    0.000    2.500    1.667    2.000    0.000    3.333 
#    0.000    1.667    0.000    5.000    0.000    0.000 
#    0.000    0.000    0.000    0.000    0.000    0.000 
#
# Total GULP energy -594982.891335 kJ/mol
# GULP energy per Si atom -12395.476903 kJ/mol
# Density = 1.797914 g / cm^3
# Si number density = 18.020155 Si / 1000 Ang^3
#
#
#
# Elastic Constant Matrix: (Units=GPa)
#
#
# Indices 1 2 3 4 5 6 
#
# 1 116.3006 44.9162 52.4948 0.0000 0.0000 0.0000
# 2 44.9162 53.0009 30.5943 0.0000 0.0000 0.0000
# 3 52.4948 30.5943 133.1719 0.0000 0.0000 0.0000
# 4 0.0000 0.0000 0.0000 18.2733 0.0000 0.0000
# 5 0.0000 0.0000 0.0000 0.0000 18.6906 0.0000
# 6 0.0000 0.0000 0.0000 0.0000 0.0000 29.3121
#
#
#
# Elastic Compliance Matrix: (Units=1/GPa)
#
#
# Indices 1 2 3 4 5 6 
#
# 1 0.013865 -0.009909 -0.003189 0.000000 0.000000 0.000000
# 2 -0.009909 0.028834 -0.002718 0.000000 0.000000 0.000000
# 3 -0.003189 -0.002718 0.009391 0.000000 0.000000 0.000000
# 4 0.000000 0.000000 0.000000 0.054725 0.000000 0.000000
# 5 0.000000 0.000000 0.000000 0.000000 0.053503 0.000000
# 6 0.000000 0.000000 0.000000 0.000000 0.000000 0.034116
#
#
# Mechanical properties :
#
#
# Convention : Reuss Voigt Hill
#
# Bulk Modulus (GPa) = 48.88238 62.05378 55.46808
# Shear Modulus (GPa) = 21.46991 24.88640 23.17816
#
# Velocity S-wave (km/s) = 3.45547 3.72025 3.59030
# Velocity P-wave (km/s) = 6.56550 7.27765 6.93073
#
# Compressibility (1/GPa) = 0.02045727
#
# Stress axis : x y z
#
# Youngs Moduli (GPa) = 72.12545 34.68098 106.48984
#
# Poissons Ratio (x) = 0.34366 0.33958
# Poissons Ratio (y) = 0.71470 0.28946
# Poissons Ratio (z) = 0.23000 0.09427
#
# Static dielectric constant tensor:
#      x y z
#    x 3.325020 0.000000 0.000000 
#    y 0.000000 3.181580 0.000000 
#    z 0.000000 0.000000 3.475470 
# 
# 
# High freq. dielectric constant tensor:
#      x y z
#    x 1.686360 0.000000 0.000000 
#    y 0.000000 1.679510 0.000000 
#    z 0.000000 0.000000 1.701210 
# 
# From -- ./inp_files/12970.got.cif
#   From: 2010.03.12/outbox.cif.g09.slc.cpg/sg59_7_cif.got.tgz:12970.got - 2010.04.16 16:29:54.
