data_PCOD8243383
_publ_section_title
;
Structure prediction by ZEFSAII (Michael W. Deem and Ramdas Pophale) SiO2 
 PCOD8243383
Probable space group: P M M N
;
_chemical_formula_sum "Si O2"
_cell_formula_units_Z 56
_cell_length_a 9.222843
_cell_length_b 18.411243
_cell_length_c 19.085489
_cell_angle_alpha 90.000000
_cell_angle_beta 90.000000
_cell_angle_gamma 90.000000
_cell_volume 3240.792443
_symmetry_space_group_name_H-M "P M M N"
_symmetry_group_IT_number 59
_space_group.IT_coordinate_system_code '2'
_symmetry_cell_setting 'orthorhombic'
loop_
_space_group_symop_operation_xyz
x,y,z
1/2-x,1/2-y,z
1/2+x,-y,-z
-x,1/2+y,-z
-x,-y,-z
1/2+x,1/2+y,-z
1/2-x,y,z
x,1/2-y,z
loop_
_atom_site_type_symbol
_atom_site_label
_atom_site_fract_x
_atom_site_fract_y
_atom_site_fract_z
Si Si1 0.083560 0.406346 0.270723
Si Si2 0.416848 0.432747 0.420485
Si Si3 0.078117 0.329724 0.703990
Si Si4 0.079889 0.332511 0.131433
Si Si5 0.079105 0.965486 0.934347
Si Si6 0.080337 0.418028 0.573190
Si Si7 0.418194 0.036524 0.790333
O O1 0.250000 0.426218 0.259161
O O2 0.054625 0.381631 0.351709
O O3 0.039442 0.345355 0.213641
O O4 0.997222 0.479985 0.259263
O O5 0.250000 0.457455 0.422398
O O6 0.510512 0.504533 0.412999
O O7 0.454555 0.391105 0.493332
O O8 0.250000 0.323228 0.701395
O O9 0.009443 0.250000 0.716899
O O10 0.019872 0.360012 0.629286
O O11 0.030899 0.382597 0.767994
O O12 0.250000 0.346143 0.117601
O O13 0.037015 0.250000 0.112649
O O14 0.987667 0.386436 0.082632
O O15 0.250000 0.956452 0.948590
O O16 0.046803 0.021648 0.871459
O O17 0.000000 0.000000 0.000000
O O18 0.250000 0.428310 0.585332
O O19 0.250000 0.026009 0.774709
#
# Coordination Sequence:
#
# PCOD8243383 Si02
#       7
#     8   8   8   8   8   8   8
#     4   9  16  27  45  68  94 122 155 196 239 281
#     4   9  16  25  40  64  90 117 153 197 240 282
#     4   9  16  27  44  65  90 120 156 199 239 273
#     4   9  18  33  52  74 101 133 164 196 242 296
#     4  10  20  34  54  78 102 128 161 200 241 289
#     4   9  16  26  41  61  87 119 157 196 237 283
#     4   9  17  30  48  69  91 119 158 195 229 278
#
# _framework density 17.279724000000002
#
# number of rings (size 3 to 8) (size 9 to 14) (size 15 to 20)
#    0.000    2.857    1.429    0.429    0.000    0.857 
#    0.000    1.429    0.000    8.571    0.000    0.000 
#    0.000    3.429    0.000    0.000    0.000    0.000 
#
# Total GULP energy -693845.606389 kJ/mol
# GULP energy per Si atom -12390.100114 kJ/mol
# Density = 1.724039 g / cm^3
# Si number density = 17.279724 Si / 1000 Ang^3
#
#
#
# Elastic Constant Matrix: (Units=GPa)
#
#
# Indices 1 2 3 4 5 6 
#
# 1 40.7353 34.0965 39.4891 0.0000 0.0000 0.0000
# 2 34.0965 119.1361 65.1209 0.0000 0.0000 0.0000
# 3 39.4891 65.1209 133.2396 0.0000 0.0000 0.0000
# 4 0.0000 0.0000 0.0000 22.0644 0.0000 0.0000
# 5 0.0000 0.0000 0.0000 0.0000 19.9710 0.0000
# 6 0.0000 0.0000 0.0000 0.0000 0.0000 18.9933
#
#
#
# Elastic Compliance Matrix: (Units=1/GPa)
#
#
# Indices 1 2 3 4 5 6 
#
# 1 0.037701 -0.006389 -0.008051 0.000000 0.000000 0.000000
# 2 -0.006389 0.012536 -0.004234 0.000000 0.000000 0.000000
# 3 -0.008051 -0.004234 0.011961 0.000000 0.000000 0.000000
# 4 0.000000 0.000000 0.000000 0.045322 0.000000 0.000000
# 5 0.000000 0.000000 0.000000 0.000000 0.050073 0.000000
# 6 0.000000 0.000000 0.000000 0.000000 0.000000 0.052650
#
#
# Mechanical properties :
#
#
# Convention : Reuss Voigt Hill
#
# Bulk Modulus (GPa) = 40.24035 63.39155 51.81595
# Shear Modulus (GPa) = 19.54082 22.49937 21.02009
#
# Velocity S-wave (km/s) = 3.36646 3.61233 3.49156
# Velocity P-wave (km/s) = 6.20072 7.35960 6.80488
#
# Compressibility (1/GPa) = 0.02485068
#
# Stress axis : x y z
#
# Youngs Moduli (GPa) = 26.52415 79.76730 83.60795
#
# Poissons Ratio (x) = 0.50966 0.67313
# Poissons Ratio (y) = 0.16947 0.35396
# Poissons Ratio (z) = 0.21355 0.33770
#
# Static dielectric constant tensor:
#      x y z
#    x 3.118530 0.000000 0.000000 
#    y 0.000000 3.250490 0.000000 
#    z 0.000000 0.000000 3.531210 
# 
# 
# High freq. dielectric constant tensor:
#      x y z
#    x 1.651650 0.000000 0.000000 
#    y 0.000000 1.637710 0.000000 
#    z 0.000000 0.000000 1.678200 
# 
# From -- ./inp_files/29314.got.cif
#   From: 2010.03.12/outbox.cif.g09.slc.cpg/sg59_15_cif.got.tgz:29314.got - 2010.04.16 16:29:54.
