data_PCOD8243086
_publ_section_title
;
Structure prediction by ZEFSAII (Michael W. Deem and Ramdas Pophale) SiO2 
 PCOD8243086
Probable space group: P M M N
;
_chemical_formula_sum "Si O2"
_cell_formula_units_Z 38
_cell_length_a 7.861547
_cell_length_b 19.234465
_cell_length_c 11.057999
_cell_angle_alpha 90.000000
_cell_angle_beta 90.000000
_cell_angle_gamma 90.000000
_cell_volume 1672.109339
_symmetry_space_group_name_H-M "P M M N"
_symmetry_group_IT_number 59
_space_group.IT_coordinate_system_code '2'
_symmetry_cell_setting 'orthorhombic'
loop_
_space_group_symop_operation_xyz
x,y,z
1/2-x,1/2-y,z
1/2+x,-y,-z
-x,1/2+y,-z
-x,-y,-z
1/2+x,1/2+y,-z
1/2-x,y,z
x,1/2-y,z
loop_
_atom_site_type_symbol
_atom_site_label
_atom_site_fract_x
_atom_site_fract_y
_atom_site_fract_z
Si Si1 0.250000 0.103141 0.604446
Si Si2 0.558839 0.250000 0.285731
Si Si3 0.250000 0.324597 0.843614
Si Si4 0.058210 0.524884 0.316771
Si Si5 0.063471 0.891023 0.071152
Si Si6 0.449641 0.392474 0.181286
Si Si7 0.250000 0.250000 0.467148
O O1 0.250000 0.114814 0.746788
O O2 0.424368 0.058214 0.585592
O O3 0.250000 0.177217 0.539197
O O4 0.750000 0.250000 0.340145
O O5 0.535437 0.318256 0.204648
O O6 0.422361 0.250000 0.392575
O O7 0.250000 0.250000 0.778797
O O8 0.421013 0.330754 0.922426
O O9 0.250000 0.534810 0.369445
O O10 0.047227 0.555663 0.181552
O O11 0.017723 0.443190 0.296545
O O12 0.250000 0.856449 0.075313
O O13 0.032581 0.926447 0.939840
O O14 0.250000 0.382656 0.162010
#
# Coordination Sequence:
#
# PCOD8243086 Si02
#       7
#     4   4   4   8   8   8   2
#     4  10  22  42  71  91 119 165 202 273 327 370
#     4  12  28  46  67  91 124 165 209 268 333 382
#     4  10  20  35  54  88 127 166 215 247 298 365
#     4   9  21  38  63  98 134 166 212 251 305 373
#     4  10  20  33  55  92 134 175 207 241 294 364
#     4  11  21  40  64  91 134 173 212 254 304 374
#     4  12  26  52  70  94 118 154 218 270 346 382
#
# _framework density 22.725785999999999
#
# number of rings (size 3 to 8) (size 9 to 14) (size 15 to 20)
#    0.000    1.684    2.632    1.263    4.421    1.263 
#    0.000    1.053    0.000    0.000    0.000    0.000 
#    0.000    0.000    0.000    0.000    0.000    0.000 
#
# Total GULP energy -470815.072131 kJ/mol
# GULP energy per Si atom -12389.870319 kJ/mol
# Density = 2.267406 g / cm^3
# Si number density = 22.725786 Si / 1000 Ang^3
#
#
#
# Elastic Constant Matrix: (Units=GPa)
#
#
# Indices 1 2 3 4 5 6 
#
# 1 181.0838 34.7509 14.0986 0.0000 0.0000 0.0000
# 2 34.7509 90.4953 -7.9163 0.0000 0.0000 0.0000
# 3 14.0986 -7.9163 21.1361 0.0000 0.0000 0.0000
# 4 0.0000 0.0000 0.0000 12.1740 0.0000 0.0000
# 5 0.0000 0.0000 0.0000 0.0000 29.1857 0.0000
# 6 0.0000 0.0000 0.0000 0.0000 0.0000 22.0922
#
#
#
# Elastic Compliance Matrix: (Units=1/GPa)
#
#
# Indices 1 2 3 4 5 6 
#
# 1 0.006520 -0.002982 -0.005466 0.000000 0.000000 0.000000
# 2 -0.002982 0.012788 0.006779 0.000000 0.000000 0.000000
# 3 -0.005466 0.006779 0.053497 0.000000 0.000000 0.000000
# 4 0.000000 0.000000 0.000000 0.082142 0.000000 0.000000
# 5 0.000000 0.000000 0.000000 0.000000 0.034263 0.000000
# 6 0.000000 0.000000 0.000000 0.000000 0.000000 0.045265
#
#
# Mechanical properties :
#
#
# Convention : Reuss Voigt Hill
#
# Bulk Modulus (GPa) = 14.39524 41.62020 28.00772
# Shear Modulus (GPa) = 19.15925 29.47583 24.31754
#
# Velocity S-wave (km/s) = 2.90670 3.60533 3.27470
# Velocity P-wave (km/s) = 4.19682 5.97369 5.16228
#
# Compressibility (1/GPa) = 0.06946740
#
# Stress axis : x y z
#
# Youngs Moduli (GPa) = 153.37143 78.19609 18.69255
#
# Poissons Ratio (x) = 0.23318 0.10217
# Poissons Ratio (y) = 0.45734 -0.12671
# Poissons Ratio (z) = 0.83833 -0.53007
#
# Static dielectric constant tensor:
#      x y z
#    x 4.542410 0.000000 0.000000 
#    y 0.000000 3.971940 0.000000 
#    z 0.000000 0.000000 3.762320 
# 
# 
# High freq. dielectric constant tensor:
#      x y z
#    x 1.914700 0.000000 0.000000 
#    y 0.000000 1.886480 0.000000 
#    z 0.000000 0.000000 1.879390 
# 
# From -- ./inp_files/13923.got.cif
#   From: 2010.03.12/outbox.cif.g09.slc.cpg/sg59_7_cif.got.tgz:13923.got - 2010.04.16 16:29:54.
