data_PCOD8243507
_publ_section_title
;
Structure prediction by ZEFSAII (Michael W. Deem and Ramdas Pophale) SiO2 
 PCOD8243507
Probable space group: P M M N
;
_chemical_formula_sum "Si O2"
_cell_formula_units_Z 56
_cell_length_a 8.793479
_cell_length_b 23.062826
_cell_length_c 15.277021
_cell_angle_alpha 90.000000
_cell_angle_beta 90.000000
_cell_angle_gamma 90.000000
_cell_volume 3098.217686
_symmetry_space_group_name_H-M "P M M N"
_symmetry_group_IT_number 59
_space_group.IT_coordinate_system_code '2'
_symmetry_cell_setting 'orthorhombic'
loop_
_space_group_symop_operation_xyz
x,y,z
1/2-x,1/2-y,z
1/2+x,-y,-z
-x,1/2+y,-z
-x,-y,-z
1/2+x,1/2+y,-z
1/2-x,y,z
x,1/2-y,z
loop_
_atom_site_type_symbol
_atom_site_label
_atom_site_fract_x
_atom_site_fract_y
_atom_site_fract_z
Si Si1 0.425044 0.881386 0.335826
Si Si2 0.428990 0.183640 0.177667
Si Si3 0.428319 0.109401 0.343346
Si Si4 0.071108 0.004129 0.595753
Si Si5 0.420891 0.681191 0.999022
Si Si6 0.927017 0.817778 0.176327
Si Si7 0.575671 0.183539 0.488974
O O1 0.250000 0.900662 0.329173
O O2 0.525983 0.937126 0.356195
O O3 0.476450 0.853728 0.245313
O O4 0.448875 0.833322 0.410406
O O5 0.250000 0.179668 0.163485
O O6 0.478768 0.250000 0.195698
O O7 0.484123 0.145542 0.259433
O O8 0.508125 0.157505 0.091219
O O9 0.250000 0.097282 0.340438
O O10 0.465144 0.145122 0.430509
O O11 0.515376 0.048591 0.343777
O O12 0.250000 0.000808 0.584214
O O13 0.000000 0.000000 0.500000
O O14 0.250000 0.657165 0.009575
O O15 0.422508 0.750000 0.995123
O O16 0.522313 0.660154 0.080519
O O17 0.750000 0.830701 0.189123
O O18 0.964161 0.750000 0.188106
O O19 0.750000 0.172689 0.460455
O O20 0.528352 0.250000 0.477449
#
# Coordination Sequence:
#
# PCOD8243507 Si02
#       7
#     8   8   8   8   8   8   8
#     4  11  22  37  57  80 108 144 184 229 274 322
#     4   9  18  33  53  80 113 146 180 220 269 324
#     4  11  22  36  56  80 108 145 185 227 272 324
#     4  12  24  40  59  79 104 141 188 233 275 323
#     4   9  17  30  51  79 110 145 183 223 268 321
#     4  10  20  34  54  82 115 149 183 222 271 327
#     4  10  21  35  52  77 110 145 178 219 272 324
#
# _framework density 18.074907
#
# number of rings (size 3 to 8) (size 9 to 14) (size 15 to 20)
#    0.000    1.714    1.429    3.857    0.000    5.714 
#    0.000    1.429    0.000    0.857    0.000    0.000 
#    0.000    0.000    0.000    0.000    0.000    0.000 
#
# Total GULP energy -694626.629651 kJ/mol
# GULP energy per Si atom -12404.046958 kJ/mol
# Density = 1.803377 g / cm^3
# Si number density = 18.074907 Si / 1000 Ang^3
#
#
#
# Elastic Constant Matrix: (Units=GPa)
#
#
# Indices 1 2 3 4 5 6 
#
# 1 86.7825 31.4051 38.5660 0.0000 0.0000 0.0000
# 2 31.4051 72.8481 28.3944 0.0000 0.0000 0.0000
# 3 38.5660 28.3944 114.6737 0.0000 0.0000 0.0000
# 4 0.0000 0.0000 0.0000 11.6197 0.0000 0.0000
# 5 0.0000 0.0000 0.0000 0.0000 31.2811 0.0000
# 6 0.0000 0.0000 0.0000 0.0000 0.0000 28.0963
#
#
#
# Elastic Compliance Matrix: (Units=1/GPa)
#
#
# Indices 1 2 3 4 5 6 
#
# 1 0.015025 -0.004989 -0.003818 0.000000 0.000000 0.000000
# 2 -0.004989 0.016850 -0.002494 0.000000 0.000000 0.000000
# 3 -0.003818 -0.002494 0.010622 0.000000 0.000000 0.000000
# 4 0.000000 0.000000 0.000000 0.086061 0.000000 0.000000
# 5 0.000000 0.000000 0.000000 0.000000 0.031968 0.000000
# 6 0.000000 0.000000 0.000000 0.000000 0.000000 0.035592
#
#
# Mechanical properties :
#
#
# Convention : Reuss Voigt Hill
#
# Bulk Modulus (GPa) = 50.26475 52.33727 51.30101
# Shear Modulus (GPa) = 22.18741 25.92866 24.05804
#
# Velocity S-wave (km/s) = 3.50741 3.79160 3.65227
# Velocity P-wave (km/s) = 6.65372 6.94168 6.79923
#
# Compressibility (1/GPa) = 0.01989466
#
# Stress axis : x y z
#
# Youngs Moduli (GPa) = 66.55473 59.34584 94.14454
#
# Poissons Ratio (x) = 0.29610 0.35942
# Poissons Ratio (y) = 0.33207 0.23483
# Poissons Ratio (z) = 0.25409 0.14803
#
# Static dielectric constant tensor:
#      x y z
#    x 3.438990 0.000000 0.000000 
#    y 0.000000 3.398280 0.000000 
#    z 0.000000 0.000000 3.419320 
# 
# 
# High freq. dielectric constant tensor:
#      x y z
#    x 1.711130 0.000000 0.000000 
#    y 0.000000 1.677940 0.000000 
#    z 0.000000 0.000000 1.704510 
# 
# From -- ./inp_files/20948.got.cif
#   From: 2010.03.12/outbox.cif.g09.slc.cpg/sg59_11_cif.got.tgz:20948.got - 2010.04.16 16:29:54.
