data_PCOD8243127
_publ_section_title
;
Structure prediction by ZEFSAII (Michael W. Deem and Ramdas Pophale) SiO2 
 PCOD8243127
Probable space group: P M M N
;
_chemical_formula_sum "Si O2"
_cell_formula_units_Z 64
_cell_length_a 8.763539
_cell_length_b 24.743474
_cell_length_c 15.290709
_cell_angle_alpha 90.000000
_cell_angle_beta 90.000000
_cell_angle_gamma 90.000000
_cell_volume 3315.643447
_symmetry_space_group_name_H-M "P M M N"
_symmetry_group_IT_number 59
_space_group.IT_coordinate_system_code '2'
_symmetry_cell_setting 'orthorhombic'
loop_
_space_group_symop_operation_xyz
x,y,z
1/2-x,1/2-y,z
1/2+x,-y,-z
-x,1/2+y,-z
-x,-y,-z
1/2+x,1/2+y,-z
1/2-x,y,z
x,1/2-y,z
loop_
_atom_site_type_symbol
_atom_site_label
_atom_site_fract_x
_atom_site_fract_y
_atom_site_fract_z
Si Si1 0.570345 0.812427 0.300538
Si Si2 0.072498 0.987503 0.590108
Si Si3 0.928001 0.440003 0.012912
Si Si4 0.072509 0.108739 0.853461
Si Si5 0.083741 0.405006 0.182694
Si Si6 0.922739 0.186179 0.518193
Si Si7 0.429099 0.376871 0.366371
Si Si8 0.917503 0.023776 0.748602
O O1 0.750000 0.820592 0.312156
O O2 0.527805 0.750000 0.283265
O O3 0.512048 0.845937 0.215160
O O4 0.492668 0.834884 0.389444
O O5 0.250000 0.999727 0.591704
O O6 0.040400 0.925802 0.611709
O O7 0.000000 0.000000 0.500000
O O8 0.990653 0.030317 0.653654
O O9 0.750000 0.448718 0.999450
O O10 0.959684 0.412172 0.106771
O O11 0.000000 0.500000 0.000000
O O12 0.986823 0.393349 0.946455
O O13 0.250000 0.116542 0.871594
O O14 0.036321 0.049686 0.815582
O O15 0.250000 0.389899 0.141806
O O16 0.041951 0.362850 0.262073
O O17 0.099242 0.461144 0.232690
O O18 0.750000 0.164066 0.509807
O O19 0.925899 0.250000 0.521042
O O20 0.022164 0.170210 0.433153
O O21 0.250000 0.390393 0.380527
O O22 0.750000 0.051658 0.753564
#
# Coordination Sequence:
#
# PCOD8243127 Si02
#       8
#     8   8   8   8   8   8   8   8
#     4   9  20  39  60  82 110 145 187 234 281 332
#     4  11  22  35  50  71 105 146 187 225 270 328
#     4  12  23  35  55  81 113 149 187 230 277 333
#     4  11  22  35  56  82 109 145 188 233 283 334
#     4   9  19  36  55  77 109 144 181 226 272 323
#     4  10  21  37  59  87 116 147 186 233 284 338
#     4  10  21  37  57  80 109 144 184 229 280 334
#     4  10  20  34  51  74 107 144 182 225 273 324
#
# _framework density 19.302437000000001
#
# number of rings (size 3 to 8) (size 9 to 14) (size 15 to 20)
#    0.000    1.750    1.250    4.500    1.750    4.250 
#    0.000    0.000    0.000    0.750    0.000    1.750 
#    0.000    0.000    0.000    0.000    0.000    0.000 
#
# Total GULP energy -792998.494095 kJ/mol
# GULP energy per Si atom -12390.601470 kJ/mol
# Density = 1.925850 g / cm^3
# Si number density = 19.302437 Si / 1000 Ang^3
#
#
#
# Elastic Constant Matrix: (Units=GPa)
#
#
# Indices 1 2 3 4 5 6 
#
# 1 102.5101 22.4047 60.5928 0.0000 0.0000 0.0000
# 2 22.4047 33.2150 30.7444 0.0000 0.0000 0.0000
# 3 60.5928 30.7444 153.6658 0.0000 0.0000 0.0000
# 4 0.0000 0.0000 0.0000 29.5303 0.0000 0.0000
# 5 0.0000 0.0000 0.0000 0.0000 34.8494 0.0000
# 6 0.0000 0.0000 0.0000 0.0000 0.0000 21.7457
#
#
#
# Elastic Compliance Matrix: (Units=1/GPa)
#
#
# Indices 1 2 3 4 5 6 
#
# 1 0.013385 -0.005085 -0.004260 0.000000 0.000000 0.000000
# 2 -0.005085 0.038881 -0.005774 0.000000 0.000000 0.000000
# 3 -0.004260 -0.005774 0.009343 0.000000 0.000000 0.000000
# 4 0.000000 0.000000 0.000000 0.033864 0.000000 0.000000
# 5 0.000000 0.000000 0.000000 0.000000 0.028695 0.000000
# 6 0.000000 0.000000 0.000000 0.000000 0.000000 0.045986
#
#
# Mechanical properties :
#
#
# Convention : Reuss Voigt Hill
#
# Bulk Modulus (GPa) = 31.87743 57.43050 44.65397
# Shear Modulus (GPa) = 23.71360 28.93502 26.32431
#
# Velocity S-wave (km/s) = 3.50884 3.87594 3.69695
# Velocity P-wave (km/s) = 5.74165 7.06032 6.43485
#
# Compressibility (1/GPa) = 0.03137015
#
# Stress axis : x y z
#
# Youngs Moduli (GPa) = 74.71134 25.71918 107.03391
#
# Poissons Ratio (x) = 0.13078 0.45602
# Poissons Ratio (y) = 0.37990 0.61802
# Poissons Ratio (z) = 0.31831 0.14850
#
# Static dielectric constant tensor:
#      x y z
#    x 3.497260 0.000000 0.000000 
#    y 0.000000 3.172840 0.000000 
#    z 0.000000 0.000000 3.951520 
# 
# 
# High freq. dielectric constant tensor:
#      x y z
#    x 1.759440 0.000000 0.000000 
#    y 0.000000 1.704670 0.000000 
#    z 0.000000 0.000000 1.767320 
# 
# From -- ./inp_files/21514.got.cif
#   From: 2010.03.12/outbox.cif.g09.slc.cpg/sg59_11_cif.got.tgz:21514.got - 2010.04.16 16:29:54.
