data_PCOD8243576
_publ_section_title
;
Structure prediction by ZEFSAII (Michael W. Deem and Ramdas Pophale) SiO2 
 PCOD8243576
Probable space group: P M M N
;
_chemical_formula_sum "Si O2"
_cell_formula_units_Z 64
_cell_length_a 9.225028
_cell_length_b 15.736898
_cell_length_c 23.420707
_cell_angle_alpha 90.000000
_cell_angle_beta 90.000000
_cell_angle_gamma 90.000000
_cell_volume 3400.061902
_symmetry_space_group_name_H-M "P M M N"
_symmetry_group_IT_number 59
_space_group.IT_coordinate_system_code '2'
_symmetry_cell_setting 'orthorhombic'
loop_
_space_group_symop_operation_xyz
x,y,z
1/2-x,1/2-y,z
1/2+x,-y,-z
-x,1/2+y,-z
-x,-y,-z
1/2+x,1/2+y,-z
1/2-x,y,z
x,1/2-y,z
loop_
_atom_site_type_symbol
_atom_site_label
_atom_site_fract_x
_atom_site_fract_y
_atom_site_fract_z
Si Si1 0.416044 0.844777 0.161432
Si Si2 0.085254 0.656656 0.564776
Si Si3 0.916410 0.498602 0.360065
Si Si4 0.581365 0.097354 0.059697
Si Si5 0.081600 0.101163 0.946017
Si Si6 0.082514 0.079338 0.525903
Si Si7 0.920155 0.494924 0.756113
Si Si8 0.917178 0.654041 0.830739
O O1 0.250000 0.865296 0.144276
O O2 0.428481 0.750000 0.188439
O O3 0.514686 0.845670 0.105455
O O4 0.472985 0.915666 0.205530
O O5 0.250000 0.631947 0.548755
O O6 0.075232 0.750000 0.592535
O O7 0.026878 0.588946 0.610928
O O8 0.992495 0.658960 0.505665
O O9 0.750000 0.488760 0.341368
O O10 0.935266 0.576601 0.405241
O O11 0.009196 0.518152 0.304984
O O12 0.750000 0.120380 0.054419
O O13 0.514687 0.145876 0.113329
O O14 0.555695 0.997475 0.067552
O O15 0.499843 0.129723 0.003353
O O16 0.250000 0.123323 0.952907
O O17 0.250000 0.076499 0.508833
O O18 0.000000 0.000000 0.500000
O O19 0.750000 0.492231 0.746993
O O20 0.968676 0.584883 0.783876
O O21 0.750000 0.636177 0.847343
O O22 0.936097 0.750000 0.806220
#
# Coordination Sequence:
#
# PCOD8243576 Si02
#       8
#     8   8   8   8   8   8   8   8
#     4  10  21  38  59  80 103 136 179 226 276 327
#     4   9  18  33  53  80 113 144 176 220 270 319
#     4   9  19  34  53  76 105 142 181 218 263 318
#     4  10  20  34  55  82 110 141 176 216 266 328
#     4  10  20  34  56  83 109 138 173 218 273 330
#     4   9  17  31  51  76 105 138 174 214 258 310
#     4  10  21  37  56  78 107 142 182 230 273 315
#     4  10  21  37  56  78 107 143 180 221 271 323
#
# _framework density 18.823186
#
# number of rings (size 3 to 8) (size 9 to 14) (size 15 to 20)
#    0.000    2.375    1.250    1.875    0.000    6.250 
#    0.000    0.625    0.000    2.250    0.000    0.000 
#    0.000    0.000    0.000    0.000    0.000    0.000 
#
# Total GULP energy -793430.828538 kJ/mol
# GULP energy per Si atom -12397.356696 kJ/mol
# Density = 1.878034 g / cm^3
# Si number density = 18.823186 Si / 1000 Ang^3
#
#
#
# Elastic Constant Matrix: (Units=GPa)
#
#
# Indices 1 2 3 4 5 6 
#
# 1 79.5175 23.8646 49.2234 0.0000 0.0000 0.0000
# 2 23.8646 76.8457 33.7658 0.0000 0.0000 0.0000
# 3 49.2234 33.7658 114.2451 0.0000 0.0000 0.0000
# 4 0.0000 0.0000 0.0000 15.6479 0.0000 0.0000
# 5 0.0000 0.0000 0.0000 0.0000 38.3804 0.0000
# 6 0.0000 0.0000 0.0000 0.0000 0.0000 20.1188
#
#
#
# Elastic Compliance Matrix: (Units=1/GPa)
#
#
# Indices 1 2 3 4 5 6 
#
# 1 0.017540 -0.002444 -0.006835 0.000000 0.000000 0.000000
# 2 -0.002444 0.015296 -0.003468 0.000000 0.000000 0.000000
# 3 -0.006835 -0.003468 0.012723 0.000000 0.000000 0.000000
# 4 0.000000 0.000000 0.000000 0.063907 0.000000 0.000000
# 5 0.000000 0.000000 0.000000 0.000000 0.026055 0.000000
# 6 0.000000 0.000000 0.000000 0.000000 0.000000 0.049705
#
#
# Mechanical properties :
#
#
# Convention : Reuss Voigt Hill
#
# Bulk Modulus (GPa) = 49.83648 53.81287 51.82467
# Shear Modulus (GPa) = 22.99827 25.74637 24.37232
#
# Velocity S-wave (km/s) = 3.49923 3.70239 3.60224
# Velocity P-wave (km/s) = 6.54673 6.85037 6.70027
#
# Compressibility (1/GPa) = 0.02006562
#
# Stress axis : x y z
#
# Youngs Moduli (GPa) = 57.01114 65.37754 78.59780
#
# Poissons Ratio (x) = 0.15977 0.53723
# Poissons Ratio (y) = 0.13933 0.27256
# Poissons Ratio (z) = 0.38968 0.22672
#
# Static dielectric constant tensor:
#      x y z
#    x 3.591210 0.000000 0.000000 
#    y 0.000000 4.436580 0.000000 
#    z 0.000000 0.000000 3.439240 
# 
# 
# High freq. dielectric constant tensor:
#      x y z
#    x 1.732560 0.000000 0.000000 
#    y 0.000000 1.725790 0.000000 
#    z 0.000000 0.000000 1.716400 
# 
# From -- ./inp_files/29624.got.cif
#   From: 2010.03.12/outbox.cif.g09.slc.cpg/sg59_15_cif.got.tgz:29624.got - 2010.04.16 16:29:54.
