data_PCOD8243666
_publ_section_title
;
Structure prediction by ZEFSAII (Michael W. Deem and Ramdas Pophale) SiO2 
 PCOD8243666
Probable space group: P M M N
;
_chemical_formula_sum "Si O2"
_cell_formula_units_Z 56
_cell_length_a 8.725731
_cell_length_b 14.902816
_cell_length_c 21.317795
_cell_angle_alpha 90.000000
_cell_angle_beta 90.000000
_cell_angle_gamma 90.000000
_cell_volume 2772.122649
_symmetry_space_group_name_H-M "P M M N"
_symmetry_group_IT_number 59
_space_group.IT_coordinate_system_code '2'
_symmetry_cell_setting 'orthorhombic'
loop_
_space_group_symop_operation_xyz
x,y,z
1/2-x,1/2-y,z
1/2+x,-y,-z
-x,1/2+y,-z
-x,-y,-z
1/2+x,1/2+y,-z
1/2-x,y,z
x,1/2-y,z
loop_
_atom_site_type_symbol
_atom_site_label
_atom_site_fract_x
_atom_site_fract_y
_atom_site_fract_z
Si Si1 0.572987 0.586692 0.931670
Si Si2 0.068672 0.853162 0.507897
Si Si3 0.570299 0.999317 0.591174
Si Si4 0.425446 0.102530 0.930058
Si Si5 0.421865 0.650135 0.191691
Si Si6 0.424226 0.848842 0.812856
Si Si7 0.928252 0.507067 0.275490
O O1 0.750000 0.556197 0.927311
O O2 0.461303 0.502454 0.925285
O O3 0.530555 0.651671 0.874577
O O4 0.543671 0.635816 0.998548
O O5 0.250000 0.848673 0.512407
O O6 0.004418 0.750000 0.504153
O O7 0.007495 0.906248 0.568860
O O8 0.015127 0.912744 0.448012
O O9 0.750000 0.986720 0.583605
O O10 0.527743 0.018000 0.662521
O O11 0.250000 0.119051 0.911004
O O12 0.531507 0.155488 0.881455
O O13 0.250000 0.610503 0.197416
O O14 0.427035 0.750000 0.219707
O O15 0.540827 0.590625 0.230163
O O16 0.250000 0.872777 0.832081
O O17 0.434902 0.750000 0.782910
O O18 0.483263 0.917684 0.760392
O O19 0.750000 0.503528 0.293306
#
# Coordination Sequence:
#
# PCOD8243666 Si02
#       7
#     8   8   8   8   8   8   8
#     4  10  20  34  56  83 111 144 187 240 299 356
#     4   9  19  38  63  90 122 159 197 237 283 338
#     4  10  21  37  60  91 124 158 195 239 291 340
#     4  10  20  35  56  82 111 146 187 237 298 360
#     4  11  24  40  59  84 114 151 195 245 299 351
#     4  10  22  39  58  81 111 150 195 242 295 353
#     4  11  23  40  61  85 118 160 200 240 288 343
#
# _framework density 20.201125999999999
#
# number of rings (size 3 to 8) (size 9 to 14) (size 15 to 20)
#    0.000    1.857    1.429    2.143    0.000    6.286 
#    0.000    5.714    0.000    0.000    0.000    0.000 
#    0.000    0.000    0.000    0.000    0.000    0.000 
#
# Total GULP energy -694384.215882 kJ/mol
# GULP energy per Si atom -12399.718141 kJ/mol
# Density = 2.015515 g / cm^3
# Si number density = 20.201126 Si / 1000 Ang^3
#
#
#
# Elastic Constant Matrix: (Units=GPa)
#
#
# Indices 1 2 3 4 5 6 
#
# 1 41.1357 21.4348 19.2594 0.0000 0.0000 0.0000
# 2 21.4348 118.8383 38.0615 0.0000 0.0000 0.0000
# 3 19.2594 38.0615 101.4557 0.0000 0.0000 0.0000
# 4 0.0000 0.0000 0.0000 1.5767 0.0000 0.0000
# 5 0.0000 0.0000 0.0000 0.0000 35.8615 0.0000
# 6 0.0000 0.0000 0.0000 0.0000 0.0000 25.1747
#
#
#
# Elastic Compliance Matrix: (Units=1/GPa)
#
#
# Indices 1 2 3 4 5 6 
#
# 1 0.028130 -0.003823 -0.003906 0.000000 0.000000 0.000000
# 2 -0.003823 0.010083 -0.003057 0.000000 0.000000 0.000000
# 3 -0.003906 -0.003057 0.011745 0.000000 0.000000 0.000000
# 4 0.000000 0.000000 0.000000 0.634238 0.000000 0.000000
# 5 0.000000 0.000000 0.000000 0.000000 0.027885 0.000000
# 6 0.000000 0.000000 0.000000 0.000000 0.000000 0.039722
#
#
# Mechanical properties :
#
#
# Convention : Reuss Voigt Hill
#
# Bulk Modulus (GPa) = 35.22738 46.54902 40.88820
# Shear Modulus (GPa) = 6.38701 24.70084 15.54393
#
# Velocity S-wave (km/s) = 1.78005 3.50057 2.77692
# Velocity P-wave (km/s) = 4.65843 6.27945 5.52867
#
# Compressibility (1/GPa) = 0.02838701
#
# Stress axis : x y z
#
# Youngs Moduli (GPa) = 35.54864 99.17217 85.14362
#
# Poissons Ratio (x) = 0.37913 0.33256
# Poissons Ratio (y) = 0.13590 0.26030
# Poissons Ratio (z) = 0.13885 0.30318
#
# Static dielectric constant tensor:
#      x y z
#    x 3.586890 0.000000 0.000000 
#    y 0.000000 3.627700 0.000000 
#    z 0.000000 0.000000 3.633190 
# 
# 
# High freq. dielectric constant tensor:
#      x y z
#    x 1.789130 0.000000 0.000000 
#    y 0.000000 1.784560 0.000000 
#    z 0.000000 0.000000 1.782940 
# 
# From -- ./inp_files/29098.got.cif
#   From: 2010.03.12/outbox.cif.g09.slc.cpg/sg59_15_cif.got.tgz:29098.got - 2010.04.16 16:29:54.
