data_PCOD8243049
_publ_section_title
;
Structure prediction by ZEFSAII (Michael W. Deem and Ramdas Pophale) SiO2 
 PCOD8243049
Probable space group: P M M N
;
_chemical_formula_sum "Si O2"
_cell_formula_units_Z 56
_cell_length_a 9.272816
_cell_length_b 18.997352
_cell_length_c 17.503779
_cell_angle_alpha 90.000000
_cell_angle_beta 90.000000
_cell_angle_gamma 90.000000
_cell_volume 3083.447322
_symmetry_space_group_name_H-M "P M M N"
_symmetry_group_IT_number 59
_space_group.IT_coordinate_system_code '2'
_symmetry_cell_setting 'orthorhombic'
loop_
_space_group_symop_operation_xyz
x,y,z
1/2-x,1/2-y,z
1/2+x,-y,-z
-x,1/2+y,-z
-x,-y,-z
1/2+x,1/2+y,-z
1/2-x,y,z
x,1/2-y,z
loop_
_atom_site_type_symbol
_atom_site_label
_atom_site_fract_x
_atom_site_fract_y
_atom_site_fract_z
Si Si1 0.079492 0.091018 0.377199
Si Si2 0.079850 0.432303 0.968486
Si Si3 0.918104 0.332153 0.512525
Si Si4 0.917951 0.068048 0.650431
Si Si5 0.588378 0.169101 0.071227
Si Si6 0.913707 0.947065 0.202613
Si Si7 0.414053 0.890984 0.770397
O O1 0.250000 0.100001 0.380441
O O2 0.011419 0.133107 0.446639
O O3 0.020267 0.125795 0.299510
O O4 0.032202 0.008732 0.380796
O O5 0.250000 0.443338 0.977943
O O6 0.038992 0.418065 0.880042
O O7 0.000000 0.500000 0.000000
O O8 0.027730 0.365625 0.016022
O O9 0.750000 0.343172 0.493586
O O10 0.956640 0.250000 0.521199
O O11 0.960454 0.371675 0.590564
O O12 0.750000 0.066333 0.667121
O O13 0.992214 0.087634 0.730490
O O14 0.750000 0.137031 0.059519
O O15 0.587922 0.250000 0.049881
O O16 0.543633 0.159635 0.159694
O O17 0.750000 0.926868 0.220970
O O18 0.936379 0.030404 0.199468
O O19 0.250000 0.878062 0.742784
#
# Coordination Sequence:
#
# PCOD8243049 Si02
#       7
#     8   8   8   8   8   8   8
#     4  10  20  33  53  82 110 135 172 221 271 318
#     4  11  21  35  57  83 112 144 185 230 274 324
#     4  10  21  37  55  75 103 142 182 217 262 320
#     4   9  19  35  55  80 107 135 174 224 270 315
#     4  10  21  37  55  78 111 149 187 226 275 332
#     4   9  18  33  54  80 106 136 176 221 269 320
#     4   9  17  33  53  76 107 141 177 217 265 323
#
# _framework density 18.161491999999999
#
# number of rings (size 3 to 8) (size 9 to 14) (size 15 to 20)
#    0.000    2.286    1.429    1.286    0.000    4.000 
#    0.000    2.143    0.000    2.571    0.000    0.000 
#    0.000    0.000    0.000    0.000    0.000    0.000 
#
# Total GULP energy -694467.620687 kJ/mol
# GULP energy per Si atom -12401.207512 kJ/mol
# Density = 1.812016 g / cm^3
# Si number density = 18.161492 Si / 1000 Ang^3
#
#
#
# Elastic Constant Matrix: (Units=GPa)
#
#
# Indices 1 2 3 4 5 6 
#
# 1 80.1679 46.8176 79.1421 0.0000 0.0000 0.0000
# 2 46.8176 81.1695 64.8746 0.0000 0.0000 0.0000
# 3 79.1421 64.8746 149.9110 0.0000 0.0000 0.0000
# 4 0.0000 0.0000 0.0000 22.4580 0.0000 0.0000
# 5 0.0000 0.0000 0.0000 0.0000 38.8662 0.0000
# 6 0.0000 0.0000 0.0000 0.0000 0.0000 21.9034
#
#
#
# Elastic Compliance Matrix: (Units=1/GPa)
#
#
# Indices 1 2 3 4 5 6 
#
# 1 0.028240 -0.006685 -0.012016 0.000000 0.000000 0.000000
# 2 -0.006685 0.020417 -0.005306 0.000000 0.000000 0.000000
# 3 -0.012016 -0.005306 0.015310 0.000000 0.000000 0.000000
# 4 0.000000 0.000000 0.000000 0.044527 0.000000 0.000000
# 5 0.000000 0.000000 0.000000 0.000000 0.025729 0.000000
# 6 0.000000 0.000000 0.000000 0.000000 0.000000 0.045655
#
#
# Mechanical properties :
#
#
# Convention : Reuss Voigt Hill
#
# Bulk Modulus (GPa) = 62.68349 76.99079 69.83714
# Shear Modulus (GPa) = 21.43997 24.67314 23.05655
#
# Velocity S-wave (km/s) = 3.43959 3.68984 3.56691
# Velocity P-wave (km/s) = 7.09675 7.78701 7.44988
#
# Compressibility (1/GPa) = 0.01595316
#
# Stress axis : x y z
#
# Youngs Moduli (GPa) = 35.41139 48.97960 65.31564
#
# Poissons Ratio (x) = 0.32742 0.78480
# Poissons Ratio (y) = 0.23672 0.34658
# Poissons Ratio (z) = 0.42549 0.25990
#
# Static dielectric constant tensor:
#      x y z
#    x 3.476780 0.000000 0.000000 
#    y 0.000000 3.281940 0.000000 
#    z 0.000000 0.000000 3.522750 
# 
# 
# High freq. dielectric constant tensor:
#      x y z
#    x 1.702910 0.000000 0.000000 
#    y 0.000000 1.684830 0.000000 
#    z 0.000000 0.000000 1.712030 
# 
# From -- ./inp_files/20992.got.cif
#   From: 2010.03.12/outbox.cif.g09.slc.cpg/sg59_11_cif.got.tgz:20992.got - 2010.04.16 16:29:54.
