data_PCOD8243921
_publ_section_title
;
Structure prediction by ZEFSAII (Michael W. Deem and Ramdas Pophale) SiO2 
 PCOD8243921
Probable space group: P M M N
;
_chemical_formula_sum "Si O2"
_cell_formula_units_Z 64
_cell_length_a 18.596718
_cell_length_b 9.468295
_cell_length_c 19.974158
_cell_angle_alpha 90.000000
_cell_angle_beta 90.000000
_cell_angle_gamma 90.000000
_cell_volume 3517.034002
_symmetry_space_group_name_H-M "P M M N"
_symmetry_group_IT_number 59
_space_group.IT_coordinate_system_code '2'
_symmetry_cell_setting 'orthorhombic'
loop_
_space_group_symop_operation_xyz
x,y,z
1/2-x,1/2-y,z
1/2+x,-y,-z
-x,1/2+y,-z
-x,-y,-z
1/2+x,1/2+y,-z
1/2-x,y,z
x,1/2-y,z
loop_
_atom_site_type_symbol
_atom_site_label
_atom_site_fract_x
_atom_site_fract_y
_atom_site_fract_z
Si Si1 0.416707 0.913713 0.592825
Si Si2 0.833129 0.085295 0.539517
Si Si3 0.544012 0.910980 0.786057
Si Si4 0.669511 0.590075 0.301763
Si Si5 0.922961 0.410294 0.050684
Si Si6 0.942604 0.087722 0.907957
Si Si7 0.124667 0.593005 0.811823
Si Si8 0.074232 0.414129 0.364209
O O1 0.399876 0.750000 0.607199
O O2 0.381090 0.963193 0.523559
O O3 0.501904 0.942482 0.592726
O O4 0.383215 0.002086 0.652368
O O5 0.750000 0.048049 0.525450
O O6 0.843456 0.250000 0.553941
O O7 0.860314 0.001083 0.604171
O O8 0.568386 0.750000 0.794909
O O9 0.459261 0.929050 0.795475
O O10 0.564694 0.965775 0.712189
O O11 0.585621 0.001886 0.843099
O O12 0.750000 0.585001 0.331104
O O13 0.641292 0.750000 0.297484
O O14 0.670385 0.522800 0.227692
O O15 0.955923 0.250000 0.057326
O O16 0.861860 0.426574 0.108160
O O17 0.981307 0.529486 0.066600
O O18 0.891815 0.428745 0.974669
O O19 0.950226 0.250000 0.885984
O O20 0.148742 0.750000 0.789134
O O21 0.094330 0.250000 0.366627
#
# Coordination Sequence:
#
# PCOD8243921 Si02
#       8
#     8   8   8   8   8   8   8   8
#     4  10  20  38  59  77 100 135 174 209 252 308
#     4  10  22  38  56  80 107 134 168 210 255 306
#     4   9  17  30  46  69 101 130 162 205 249 297
#     4  11  23  34  46  71 104 134 170 217 263 308
#     4   8  15  26  39  59  91 127 162 202 245 293
#     4   9  15  23  39  65  94 126 162 199 246 297
#     4   9  16  30  48  64  91 132 171 208 249 298
#     4  10  20  35  56  80 105 136 173 211 254 305
#
# _framework density 18.197151999999999
#
# number of rings (size 3 to 8) (size 9 to 14) (size 15 to 20)
#    0.000    2.500    1.250    2.250    0.000    5.750 
#    0.000    0.000    0.000    0.000    0.000    0.875 
#    0.000    1.000    0.000    0.000    0.000    0.000 
#
# Total GULP energy -793174.942188 kJ/mol
# GULP energy per Si atom -12393.358472 kJ/mol
# Density = 1.815573 g / cm^3
# Si number density = 18.197152 Si / 1000 Ang^3
#
#
#
# Elastic Constant Matrix: (Units=GPa)
#
#
# Indices 1 2 3 4 5 6 
#
# 1 38.8322 22.8828 32.3574 0.0000 0.0000 0.0000
# 2 22.8828 74.5076 49.1903 0.0000 0.0000 0.0000
# 3 32.3574 49.1903 136.0546 0.0000 0.0000 0.0000
# 4 0.0000 0.0000 0.0000 32.5493 0.0000 0.0000
# 5 0.0000 0.0000 0.0000 0.0000 9.8184 0.0000
# 6 0.0000 0.0000 0.0000 0.0000 0.0000 20.9202
#
#
#
# Elastic Compliance Matrix: (Units=1/GPa)
#
#
# Indices 1 2 3 4 5 6 
#
# 1 0.034564 -0.006815 -0.005756 0.000000 0.000000 0.000000
# 2 -0.006815 0.018973 -0.005239 0.000000 0.000000 0.000000
# 3 -0.005756 -0.005239 0.010613 0.000000 0.000000 0.000000
# 4 0.000000 0.000000 0.000000 0.030723 0.000000 0.000000
# 5 0.000000 0.000000 0.000000 0.000000 0.101849 0.000000
# 6 0.000000 0.000000 0.000000 0.000000 0.000000 0.047801
#
#
# Mechanical properties :
#
#
# Convention : Reuss Voigt Hill
#
# Bulk Modulus (GPa) = 35.05075 50.91725 42.98400
# Shear Modulus (GPa) = 17.26197 22.32184 19.79191
#
# Velocity S-wave (km/s) = 3.08329 3.50618 3.30151
# Velocity P-wave (km/s) = 5.65500 6.66579 6.18109
#
# Compressibility (1/GPa) = 0.02853006
#
# Stress axis : x y z
#
# Youngs Moduli (GPa) = 28.93155 52.70573 94.22283
#
# Poissons Ratio (x) = 0.35919 0.54238
# Poissons Ratio (y) = 0.19717 0.49363
# Poissons Ratio (z) = 0.16654 0.27612
#
# Static dielectric constant tensor:
#      x y z
#    x 2.894480 0.000000 0.000000 
#    y 0.000000 3.386790 0.000000 
#    z 0.000000 0.000000 3.819990 
# 
# 
# High freq. dielectric constant tensor:
#      x y z
#    x 1.645750 0.000000 0.000000 
#    y 0.000000 1.707570 0.000000 
#    z 0.000000 0.000000 1.722840 
# 
# From -- ./inp_files/30796.got.cif
#   From: 2010.03.12/outbox.cif.g09.slc.cpg/sg59_16_cif.got.tgz:30796.got - 2010.04.16 16:29:54.
