data_PCOD8243482
_publ_section_title
;
Structure prediction by ZEFSAII (Michael W. Deem and Ramdas Pophale) SiO2 
 PCOD8243482
Probable space group: P M M N
;
_chemical_formula_sum "Si O2"
_cell_formula_units_Z 40
_cell_length_a 8.894771
_cell_length_b 9.849353
_cell_length_c 24.264735
_cell_angle_alpha 90.000000
_cell_angle_beta 90.000000
_cell_angle_gamma 90.000000
_cell_volume 2125.778581
_symmetry_space_group_name_H-M "P M M N"
_symmetry_group_IT_number 59
_space_group.IT_coordinate_system_code '2'
_symmetry_cell_setting 'orthorhombic'
loop_
_space_group_symop_operation_xyz
x,y,z
1/2-x,1/2-y,z
1/2+x,-y,-z
-x,1/2+y,-z
-x,-y,-z
1/2+x,1/2+y,-z
1/2-x,y,z
x,1/2-y,z
loop_
_atom_site_type_symbol
_atom_site_label
_atom_site_fract_x
_atom_site_fract_y
_atom_site_fract_z
Si Si1 0.421141 0.408969 0.232073
Si Si2 0.572681 0.250000 0.933221
Si Si3 0.428649 0.907932 0.452816
Si Si4 0.072238 0.750000 0.943492
Si Si5 0.071713 0.401075 0.355224
Si Si6 0.073112 0.496203 0.873534
O O1 0.250000 0.460584 0.224897
O O2 0.430542 0.250000 0.219998
O O3 0.481915 0.439782 0.293697
O O4 0.529595 0.487293 0.190306
O O5 0.750000 0.250000 0.937317
O O6 0.518078 0.375685 0.898996
O O7 0.502637 0.250000 0.994993
O O8 0.250000 0.912676 0.458797
O O9 0.484262 0.750000 0.454584
O O10 0.500000 0.000000 0.500000
O O11 0.483160 0.980029 0.396219
O O12 0.250000 0.750000 0.946940
O O13 0.015408 0.621829 0.909466
O O14 0.250000 0.391836 0.355180
O O15 0.009467 0.250000 0.372075
O O16 0.250000 0.470969 0.877923
#
# Coordination Sequence:
#
# PCOD8243482 Si02
#       6
#     8   4   8   4   8   8
#     4   9  17  32  55  81 106 139 185 228 266 322
#     4  11  23  39  55  79 109 143 186 229 268 323
#     4  10  20  34  54  81 112 147 186 226 271 321
#     4   9  20  37  59  81 107 141 182 223 272 333
#     4   8  15  30  52  76 105 141 182 227 270 313
#     4  11  21  37  57  81 112 145 177 222 282 334
#
# _framework density 18.816635999999999
#
# number of rings (size 3 to 8) (size 9 to 14) (size 15 to 20)
#    0.000    2.400    1.000    3.300    0.000    1.200 
#    1.800    4.000    0.000    1.200    0.000    0.000 
#    0.000    0.000    0.000    0.000    0.000    0.000 
#
# Total GULP energy -495819.042743 kJ/mol
# GULP energy per Si atom -12395.476069 kJ/mol
# Density = 1.877381 g / cm^3
# Si number density = 18.816636 Si / 1000 Ang^3
#
#
#
# Elastic Constant Matrix: (Units=GPa)
#
#
# Indices 1 2 3 4 5 6 
#
# 1 39.3246 27.7605 28.3902 0.0000 0.0000 0.0000
# 2 27.7605 146.5708 83.6808 0.0000 0.0000 0.0000
# 3 28.3902 83.6808 159.7440 0.0000 0.0000 0.0000
# 4 0.0000 0.0000 0.0000 39.1961 0.0000 0.0000
# 5 0.0000 0.0000 0.0000 0.0000 26.6370 0.0000
# 6 0.0000 0.0000 0.0000 0.0000 0.0000 25.9580
#
#
#
# Elastic Compliance Matrix: (Units=1/GPa)
#
#
# Indices 1 2 3 4 5 6 
#
# 1 0.030616 -0.003841 -0.003429 0.000000 0.000000 0.000000
# 2 -0.003841 0.010216 -0.004669 0.000000 0.000000 0.000000
# 3 -0.003429 -0.004669 0.009315 0.000000 0.000000 0.000000
# 4 0.000000 0.000000 0.000000 0.025513 0.000000 0.000000
# 5 0.000000 0.000000 0.000000 0.000000 0.037542 0.000000
# 6 0.000000 0.000000 0.000000 0.000000 0.000000 0.038524
#
#
# Mechanical properties :
#
#
# Convention : Reuss Voigt Hill
#
# Bulk Modulus (GPa) = 38.06702 69.47803 53.77253
# Shear Modulus (GPa) = 27.12086 32.07873 29.59979
#
# Velocity S-wave (km/s) = 3.80060 4.13341 3.97049
# Velocity P-wave (km/s) = 6.28759 7.73201 7.04691
#
# Compressibility (1/GPa) = 0.02626946
#
# Stress axis : x y z
#
# Youngs Moduli (GPa) = 32.66215 97.88924 107.35178
#
# Poissons Ratio (x) = 0.37599 0.36813
# Poissons Ratio (y) = 0.12545 0.50120
# Poissons Ratio (z) = 0.11201 0.45702
#
# Static dielectric constant tensor:
#      x y z
#    x 3.129360 0.000000 0.000000 
#    y 0.000000 3.559390 0.000000 
#    z 0.000000 0.000000 3.805870 
# 
# 
# High freq. dielectric constant tensor:
#      x y z
#    x 1.698540 0.000000 0.000000 
#    y 0.000000 1.729560 0.000000 
#    z 0.000000 0.000000 1.746920 
# 
# From -- ./inp_files/32425.got.cif
#   From: 2010.03.12/outbox.cif.g09.slc.cpg/sg59_17_cif.got.tgz:32425.got - 2010.04.16 16:29:54.
