data_PCOD8243373
_publ_section_title
;
Structure prediction by ZEFSAII (Michael W. Deem and Ramdas Pophale) SiO2 
 PCOD8243373
Probable space group: P M M N
;
_chemical_formula_sum "Si O2"
_cell_formula_units_Z 64
_cell_length_a 13.689757
_cell_length_b 23.382045
_cell_length_c 10.008783
_cell_angle_alpha 90.000000
_cell_angle_beta 90.000000
_cell_angle_gamma 90.000000
_cell_volume 3203.756532
_symmetry_space_group_name_H-M "P M M N"
_symmetry_group_IT_number 59
_space_group.IT_coordinate_system_code '2'
_symmetry_cell_setting 'orthorhombic'
loop_
_space_group_symop_operation_xyz
x,y,z
1/2-x,1/2-y,z
1/2+x,-y,-z
-x,1/2+y,-z
-x,-y,-z
1/2+x,1/2+y,-z
1/2-x,y,z
x,1/2-y,z
loop_
_atom_site_type_symbol
_atom_site_label
_atom_site_fract_x
_atom_site_fract_y
_atom_site_fract_z
Si Si1 0.456001 0.627366 0.397442
Si Si2 0.363080 0.065886 0.656482
Si Si3 0.059737 0.623546 0.899122
Si Si4 0.862612 0.316467 0.848591
Si Si5 0.397442 0.499246 0.927756
Si Si6 0.855737 0.927060 0.840518
Si Si7 0.636839 0.316682 0.354214
Si Si8 0.637349 0.006282 0.599289
O O1 0.573281 0.623172 0.374493
O O2 0.405205 0.671721 0.297931
O O3 0.430684 0.647011 0.546509
O O4 0.421732 0.563069 0.369755
O O5 0.250000 0.084190 0.650365
O O6 0.391207 0.040844 0.799533
O O7 0.387296 0.017203 0.547448
O O8 0.122977 0.564845 0.885667
O O9 0.104135 0.668365 0.795142
O O10 0.942541 0.616387 0.879941
O O11 0.073939 0.648107 0.046588
O O12 0.750000 0.335842 0.854268
O O13 0.872914 0.250000 0.880575
O O14 0.500000 0.500000 0.000000
O O15 0.329265 0.472558 0.042014
O O16 0.750000 0.896053 0.813255
O O17 0.893259 0.958894 0.707662
O O18 0.750000 0.332921 0.376565
O O19 0.619434 0.250000 0.378832
O O20 0.750000 0.022142 0.613726
#
# Coordination Sequence:
#
# PCOD8243373 Si02
#       8
#     8   8   8   8   8   8   8   8
#     4  12  21  37  61  82 111 148 186 225 277 335
#     4  11  23  37  56  85 121 153 183 222 271 333
#     4  11  21  37  59  82 113 152 188 225 280 338
#     4  11  24  40  58  81 107 139 185 240 290 331
#     4  10  20  34  53  83 116 150 187 224 269 327
#     4  10  20  35  56  85 121 152 185 227 271 332
#     4  11  24  40  59  84 110 141 187 241 291 334
#     4  10  20  34  55  86 118 149 184 223 271 331
#
# _framework density 19.976548999999999
#
# number of rings (size 3 to 8) (size 9 to 14) (size 15 to 20)
#    0.000    1.250    0.000    8.250    0.000    6.000 
#    0.000    0.000    0.000    4.500    0.000    0.000 
#    0.000    0.000    0.000    0.000    0.000    0.000 
#
# Total GULP energy -793524.033386 kJ/mol
# GULP energy per Si atom -12398.813022 kJ/mol
# Density = 1.993108 g / cm^3
# Si number density = 19.976549 Si / 1000 Ang^3
#
#
#
# Elastic Constant Matrix: (Units=GPa)
#
#
# Indices 1 2 3 4 5 6 
#
# 1 106.9889 44.5921 22.4695 0.0000 0.0000 0.0000
# 2 44.5921 57.7541 11.5322 0.0000 0.0000 0.0000
# 3 22.4695 11.5322 101.4683 0.0000 0.0000 0.0000
# 4 0.0000 0.0000 0.0000 31.1880 0.0000 0.0000
# 5 0.0000 0.0000 0.0000 0.0000 65.1682 0.0000
# 6 0.0000 0.0000 0.0000 0.0000 0.0000 -1.9222
#
#
#
# Elastic Compliance Matrix: (Units=1/GPa)
#
#
# Indices 1 2 3 4 5 6 
#
# 1 0.014144 -0.010534 -0.001935 0.000000 0.000000 0.000000
# 2 -0.010534 0.025562 -0.000573 0.000000 0.000000 0.000000
# 3 -0.001935 -0.000573 0.010349 0.000000 0.000000 0.000000
# 4 0.000000 0.000000 0.000000 0.032064 0.000000 0.000000
# 5 0.000000 0.000000 0.000000 0.000000 0.015345 0.000000
# 6 0.000000 0.000000 0.000000 0.000000 0.000000 -0.520250
#
#
# Mechanical properties :
#
#
# Convention : Reuss Voigt Hill
#
# Bulk Modulus (GPa) = 41.71504 47.04433 44.37968
# Shear Modulus (GPa) = -12.86296 31.39464 9.26584
#
# Velocity S-wave (km/s) = -2.54028 3.96861 2.15602
# Velocity P-wave (km/s) = 3.51046 6.67838 5.33498
#
# Compressibility (1/GPa) = 0.02397217
#
# Stress axis : x y z
#
# Youngs Moduli (GPa) = 70.70352 39.11993 96.62943
#
# Poissons Ratio (x) = 0.41209 0.18696
# Poissons Ratio (y) = 0.74479 0.05533
# Poissons Ratio (z) = 0.13680 0.02240
#
# Static dielectric constant tensor:
#      x y z
#    x 4.060880 0.000000 0.000000 
#    y 0.000000 3.559150 0.000000 
#    z 0.000000 0.000000 3.880050 
# 
# 
# High freq. dielectric constant tensor:
#      x y z
#    x 1.790530 0.000000 0.000000 
#    y 0.000000 1.745780 0.000000 
#    z 0.000000 0.000000 1.801960 
# 
# From -- ./inp_files/9605.got.cif
#   From: 2010.03.12/outbox.cif.g09.slc.cpg/sg59_5_cif.got.tgz:9605.got - 2010.04.16 16:29:54.
