data_PCOD8243454
_publ_section_title
;
Structure prediction by ZEFSAII (Michael W. Deem and Ramdas Pophale) SiO2 
 PCOD8243454
Probable space group: P M M N
;
_chemical_formula_sum "Si O2"
_cell_formula_units_Z 56
_cell_length_a 24.089858
_cell_length_b 8.793754
_cell_length_c 14.914319
_cell_angle_alpha 90.000000
_cell_angle_beta 90.000000
_cell_angle_gamma 90.000000
_cell_volume 3159.453590
_symmetry_space_group_name_H-M "P M M N"
_symmetry_group_IT_number 59
_space_group.IT_coordinate_system_code '2'
_symmetry_cell_setting 'orthorhombic'
loop_
_space_group_symop_operation_xyz
x,y,z
1/2-x,1/2-y,z
1/2+x,-y,-z
-x,1/2+y,-z
-x,-y,-z
1/2+x,1/2+y,-z
1/2-x,y,z
x,1/2-y,z
loop_
_atom_site_type_symbol
_atom_site_label
_atom_site_fract_x
_atom_site_fract_y
_atom_site_fract_z
Si Si1 0.043562 0.928462 0.878251
Si Si2 0.140237 0.930270 0.208979
Si Si3 0.936107 0.429750 0.631323
Si Si4 0.129323 0.927826 0.541954
Si Si5 0.078044 0.071801 0.054097
Si Si6 0.750000 0.928740 0.715890
Si Si7 0.943653 0.570302 0.313336
Si Si8 0.250000 0.925060 0.473827
O O1 0.054285 0.750000 0.880877
O O2 0.980022 0.970297 0.898831
O O3 0.061176 0.992910 0.782779
O O4 0.081451 0.007549 0.953550
O O5 0.143999 0.750000 0.208904
O O6 0.094603 0.990693 0.279998
O O7 0.125728 0.989682 0.110467
O O8 0.198141 0.999475 0.235507
O O9 0.931789 0.250000 0.628925
O O10 0.904746 0.493801 0.543531
O O11 0.000058 0.484073 0.635693
O O12 0.117181 0.750000 0.555304
O O13 0.195015 0.958820 0.531882
O O14 0.109071 0.018605 0.628920
O O15 0.088889 0.250000 0.051850
O O16 0.750000 0.750000 0.728809
O O17 0.750000 0.966524 0.611189
O O18 0.943668 0.750000 0.299660
O O19 0.250000 0.750000 0.440403
#
# Coordination Sequence:
#
# PCOD8243454 Si02
#       8
#     8   8   8   8   8   4   8   4
#     4  10  20  34  54  80 110 147 183 219 268 332
#     4  11  20  36  58  80 110 150 188 223 273 336
#     4   9  18  32  53  78 108 144 183 221 267 329
#     4  10  20  36  55  77 105 145 189 231 276 332
#     4  10  20  34  54  83 113 141 177 226 276 322
#     4  12  24  36  54  83 114 143 186 236 278 324
#     4  11  21  34  52  81 114 147 183 229 280 329
#     4  10  20  38  60  77 102 145 194 234 274 326
#
# _framework density 17.724585000000001
#
# number of rings (size 3 to 8) (size 9 to 14) (size 15 to 20)
#    0.000    1.714    2.857    2.786    0.000    1.714 
#    0.000    0.714    0.000    0.857    0.000    5.000 
#    0.000    0.000    0.000    0.000    0.000    0.000 
#
# Total GULP energy -694568.698660 kJ/mol
# GULP energy per Si atom -12403.012476 kJ/mol
# Density = 1.768424 g / cm^3
# Si number density = 17.724585 Si / 1000 Ang^3
#
#
#
# Elastic Constant Matrix: (Units=GPa)
#
#
# Indices 1 2 3 4 5 6 
#
# 1 102.9333 35.5766 54.0971 0.0000 0.0000 0.0000
# 2 35.5766 72.0874 41.8017 0.0000 0.0000 0.0000
# 3 54.0971 41.8017 120.6492 0.0000 0.0000 0.0000
# 4 0.0000 0.0000 0.0000 32.3023 0.0000 0.0000
# 5 0.0000 0.0000 0.0000 0.0000 39.5591 0.0000
# 6 0.0000 0.0000 0.0000 0.0000 0.0000 24.2863
#
#
#
# Elastic Compliance Matrix: (Units=1/GPa)
#
#
# Indices 1 2 3 4 5 6 
#
# 1 0.013558 -0.003962 -0.004706 0.000000 0.000000 0.000000
# 2 -0.003962 0.018518 -0.004639 0.000000 0.000000 0.000000
# 3 -0.004706 -0.004639 0.012006 0.000000 0.000000 0.000000
# 4 0.000000 0.000000 0.000000 0.030958 0.000000 0.000000
# 5 0.000000 0.000000 0.000000 0.000000 0.025279 0.000000
# 6 0.000000 0.000000 0.000000 0.000000 0.000000 0.041176
#
#
# Mechanical properties :
#
#
# Convention : Reuss Voigt Hill
#
# Bulk Modulus (GPa) = 57.25350 62.06897 59.66123
# Shear Modulus (GPa) = 28.74705 30.17584 29.46144
#
# Velocity S-wave (km/s) = 4.03162 4.13059 4.08141
# Velocity P-wave (km/s) = 7.35145 7.60550 7.47955
#
# Compressibility (1/GPa) = 0.01746618
#
# Stress axis : x y z
#
# Youngs Moduli (GPa) = 73.75791 54.00271 83.29035
#
# Poissons Ratio (x) = 0.21396 0.39200
# Poissons Ratio (y) = 0.29222 0.38642
# Poissons Ratio (z) = 0.34714 0.25054
#
# Static dielectric constant tensor:
#      x y z
#    x 3.224380 0.000000 0.000000 
#    y 0.000000 3.192060 0.000000 
#    z 0.000000 0.000000 3.307100 
# 
# 
# High freq. dielectric constant tensor:
#      x y z
#    x 1.670760 0.000000 0.000000 
#    y 0.000000 1.683820 0.000000 
#    z 0.000000 0.000000 1.685980 
# 
# From -- ./inp_files/24341.got.cif
#   From: 2010.03.12/outbox.cif.g09.slc.cpg/sg59_13_cif.got.tgz:24341.got - 2010.04.16 16:29:54.
