data_PCOD8243339
_publ_section_title
;
Structure prediction by ZEFSAII (Michael W. Deem and Ramdas Pophale) SiO2 
 PCOD8243339
Probable space group: P M M N
;
_chemical_formula_sum "Si O2"
_cell_formula_units_Z 64
_cell_length_a 18.287828
_cell_length_b 9.000960
_cell_length_c 20.473682
_cell_angle_alpha 90.000000
_cell_angle_beta 90.000000
_cell_angle_gamma 90.000000
_cell_volume 3370.132017
_symmetry_space_group_name_H-M "P M M N"
_symmetry_group_IT_number 59
_space_group.IT_coordinate_system_code '2'
_symmetry_cell_setting 'orthorhombic'
loop_
_space_group_symop_operation_xyz
x,y,z
1/2-x,1/2-y,z
1/2+x,-y,-z
-x,1/2+y,-z
-x,-y,-z
1/2+x,1/2+y,-z
1/2-x,y,z
x,1/2-y,z
loop_
_atom_site_type_symbol
_atom_site_label
_atom_site_fract_x
_atom_site_fract_y
_atom_site_fract_z
Si Si1 0.334117 0.575723 0.565653
Si Si2 0.666167 0.920556 0.567061
Si Si3 0.581401 0.573759 0.318665
Si Si4 0.420648 0.424891 0.931461
Si Si5 0.332019 0.073280 0.807274
Si Si6 0.334511 0.078545 0.181456
Si Si7 0.411690 0.924252 0.063900
Si Si8 0.927478 0.923752 0.692400
O O1 0.250000 0.532407 0.580473
O O2 0.347260 0.750000 0.571096
O O3 0.356399 0.523541 0.493441
O O4 0.387017 0.494036 0.615445
O O5 0.750000 0.946591 0.587334
O O6 0.652804 0.750000 0.546938
O O7 0.617335 0.967612 0.628119
O O8 0.583110 0.750000 0.324185
O O9 0.630100 0.515089 0.258516
O O10 0.499640 0.521360 0.306213
O O11 0.410806 0.250000 0.940205
O O12 0.376004 0.487302 0.869730
O O13 0.504938 0.468509 0.919639
O O14 0.388134 0.501935 0.995724
O O15 0.250000 0.009481 0.809621
O O16 0.332036 0.250000 0.808139
O O17 0.250000 0.046757 0.196463
O O18 0.348046 0.250000 0.164030
O O19 0.379662 0.031333 0.245125
O O20 0.359188 0.981160 0.120448
O O21 0.401801 0.750000 0.056861
O O22 0.947330 0.750000 0.692768
#
# Coordination Sequence:
#
# PCOD8243339 Si02
#       8
#     8   8   8   8   8   8   8   8
#     4  10  21  37  57  82 112 144 179 221 268 318
#     4   9  18  35  59  83 107 139 179 222 269 320
#     4  11  22  36  56  81 110 144 181 221 268 324
#     4   9  18  34  55  78 106 141 179 218 264 319
#     4   9  18  33  54  78 102 132 175 223 264 308
#     4  10  21  37  57  80 107 142 182 223 272 330
#     4  10  20  34  53  79 111 143 177 220 267 316
#     4  10  21  37  57  81 109 140 178 225 272 320
#
# _framework density 18.990352999999999
#
# number of rings (size 3 to 8) (size 9 to 14) (size 15 to 20)
#    0.000    2.250    0.000    2.625    0.000    6.500 
#    0.000    2.500    0.000    3.750    0.000    0.000 
#    0.000    0.000    0.000    0.000    0.000    0.000 
#
# Total GULP energy -793855.541405 kJ/mol
# GULP energy per Si atom -12403.992834 kJ/mol
# Density = 1.894713 g / cm^3
# Si number density = 18.990353 Si / 1000 Ang^3
#
#
#
# Elastic Constant Matrix: (Units=GPa)
#
#
# Indices 1 2 3 4 5 6 
#
# 1 97.1437 31.5297 57.9488 0.0000 0.0000 0.0000
# 2 31.5297 52.9429 38.0728 0.0000 0.0000 0.0000
# 3 57.9488 38.0728 126.2732 0.0000 0.0000 0.0000
# 4 0.0000 0.0000 0.0000 17.9957 0.0000 0.0000
# 5 0.0000 0.0000 0.0000 0.0000 42.0422 0.0000
# 6 0.0000 0.0000 0.0000 0.0000 0.0000 29.9577
#
#
#
# Elastic Compliance Matrix: (Units=1/GPa)
#
#
# Indices 1 2 3 4 5 6 
#
# 1 0.015201 -0.005154 -0.005422 0.000000 0.000000 0.000000
# 2 -0.005154 0.025865 -0.005433 0.000000 0.000000 0.000000
# 3 -0.005422 -0.005433 0.012046 0.000000 0.000000 0.000000
# 4 0.000000 0.000000 0.000000 0.055569 0.000000 0.000000
# 5 0.000000 0.000000 0.000000 0.000000 0.023786 0.000000
# 6 0.000000 0.000000 0.000000 0.000000 0.000000 0.033380
#
#
# Mechanical properties :
#
#
# Convention : Reuss Voigt Hill
#
# Bulk Modulus (GPa) = 47.40829 59.05136 53.22982
# Shear Modulus (GPa) = 24.40252 27.91966 26.16109
#
# Velocity S-wave (km/s) = 3.58857 3.83848 3.71563
# Velocity P-wave (km/s) = 6.49531 7.12799 6.81899
#
# Compressibility (1/GPa) = 0.02109336
#
# Stress axis : x y z
#
# Youngs Moduli (GPa) = 65.78413 38.66245 83.01577
#
# Poissons Ratio (x) = 0.19926 0.45013
# Poissons Ratio (y) = 0.33903 0.45106
# Poissons Ratio (z) = 0.35669 0.21007
#
# Static dielectric constant tensor:
#      x y z
#    x 3.533680 0.000000 0.000000 
#    y 0.000000 3.302350 0.000000 
#    z 0.000000 0.000000 3.606310 
# 
# 
# High freq. dielectric constant tensor:
#      x y z
#    x 1.740520 0.000000 0.000000 
#    y 0.000000 1.724030 0.000000 
#    z 0.000000 0.000000 1.752140 
# 
# From -- ./inp_files/30825.got.cif
#   From: 2010.03.12/outbox.cif.g09.slc.cpg/sg59_16_cif.got.tgz:30825.got - 2010.04.16 16:29:54.
