data_PCOD8243673
_publ_section_title
;
Structure prediction by ZEFSAII (Michael W. Deem and Ramdas Pophale) SiO2 
 PCOD8243673
Probable space group: P M M N
;
_chemical_formula_sum "Si O2"
_cell_formula_units_Z 40
_cell_length_a 9.134525
_cell_length_b 18.348403
_cell_length_c 12.502565
_cell_angle_alpha 90.000000
_cell_angle_beta 90.000000
_cell_angle_gamma 90.000000
_cell_volume 2095.479228
_symmetry_space_group_name_H-M "P M M N"
_symmetry_group_IT_number 59
_space_group.IT_coordinate_system_code '2'
_symmetry_cell_setting 'orthorhombic'
loop_
_space_group_symop_operation_xyz
x,y,z
1/2-x,1/2-y,z
1/2+x,-y,-z
-x,1/2+y,-z
-x,-y,-z
1/2+x,1/2+y,-z
1/2-x,y,z
x,1/2-y,z
loop_
_atom_site_type_symbol
_atom_site_label
_atom_site_fract_x
_atom_site_fract_y
_atom_site_fract_z
Si Si1 0.581244 0.334347 0.319077
Si Si2 0.581965 0.432866 0.122335
Si Si3 0.078683 0.921865 0.120747
Si Si4 0.419580 0.333428 0.708441
Si Si5 0.576972 0.577401 0.500211
O O1 0.750000 0.346029 0.353101
O O2 0.538160 0.250000 0.317082
O O3 0.552878 0.365400 0.200564
O O4 0.476502 0.375202 0.400607
O O5 0.750000 0.458541 0.125806
O O6 0.486227 0.501306 0.160588
O O7 0.538164 0.407892 0.003136
O O8 0.250000 0.923406 0.141238
O O9 0.010537 0.856081 0.187635
O O10 0.250000 0.345054 0.734703
O O11 0.455145 0.250000 0.680642
O O12 0.468593 0.381438 0.607767
O O13 0.500000 0.500000 0.500000
O O14 0.750000 0.566627 0.508801
#
# Coordination Sequence:
#
# PCOD8243673 Si02
#       5
#     8   8   8   8   8
#     4  10  21  37  57  81 110 144 181 222 271 326
#     4   9  19  36  56  79 111 148 181 218 269 324
#     4  10  20  34  56  84 110 140 183 230 267 309
#     4  10  22  39  56  76 108 147 180 216 270 329
#     4  11  23  39  59  82 109 142 182 226 272 323
#
# _framework density 19.088712000000001
#
# number of rings (size 3 to 8) (size 9 to 14) (size 15 to 20)
#    0.000    2.000    0.000    3.000    0.000   10.400 
#    0.000    2.000    0.000    0.000    0.000    0.000 
#    0.000    0.000    0.000    0.000    0.000    0.000 
#
# Total GULP energy -496204.942697 kJ/mol
# GULP energy per Si atom -12405.123567 kJ/mol
# Density = 1.904527 g / cm^3
# Si number density = 19.088712 Si / 1000 Ang^3
#
#
#
# Elastic Constant Matrix: (Units=GPa)
#
#
# Indices 1 2 3 4 5 6 
#
# 1 75.7217 60.8093 52.9532 0.0000 0.0000 0.0000
# 2 60.8093 145.4128 71.0759 0.0000 0.0000 0.0000
# 3 52.9532 71.0759 110.5254 0.0000 0.0000 0.0000
# 4 0.0000 0.0000 0.0000 30.7164 0.0000 0.0000
# 5 0.0000 0.0000 0.0000 0.0000 35.0664 0.0000
# 6 0.0000 0.0000 0.0000 0.0000 0.0000 33.6923
#
#
#
# Elastic Compliance Matrix: (Units=1/GPa)
#
#
# Indices 1 2 3 4 5 6 
#
# 1 0.023164 -0.006216 -0.007100 0.000000 0.000000 0.000000
# 2 -0.006216 0.011698 -0.004544 0.000000 0.000000 0.000000
# 3 -0.007100 -0.004544 0.015372 0.000000 0.000000 0.000000
# 4 0.000000 0.000000 0.000000 0.032556 0.000000 0.000000
# 5 0.000000 0.000000 0.000000 0.000000 0.028517 0.000000
# 6 0.000000 0.000000 0.000000 0.000000 0.000000 0.029680
#
#
# Mechanical properties :
#
#
# Convention : Reuss Voigt Hill
#
# Bulk Modulus (GPa) = 68.91064 77.92631 73.41847
# Shear Modulus (GPa) = 27.54134 29.68309 28.61222
#
# Velocity S-wave (km/s) = 3.80255 3.94764 3.87577
# Velocity P-wave (km/s) = 7.44700 7.85432 7.65337
#
# Compressibility (1/GPa) = 0.01451155
#
# Stress axis : x y z
#
# Youngs Moduli (GPa) = 43.17131 85.48745 65.05406
#
# Poissons Ratio (x) = 0.53139 0.46191
# Poissons Ratio (y) = 0.26836 0.29562
# Poissons Ratio (z) = 0.30653 0.38848
#
# Static dielectric constant tensor:
#      x y z
#    x 3.513620 0.000000 0.000000 
#    y 0.000000 3.466510 0.000000 
#    z 0.000000 0.000000 3.624000 
# 
# 
# High freq. dielectric constant tensor:
#      x y z
#    x 1.743430 0.000000 0.000000 
#    y 0.000000 1.745720 0.000000 
#    z 0.000000 0.000000 1.751930 
# 
# From -- ./inp_files/13845.got.cif
#   From: 2010.03.12/outbox.cif.g09.slc.cpg/sg59_7_cif.got.tgz:13845.got - 2010.04.16 16:29:54.
