data_PCOD8243365
_publ_section_title
;
Structure prediction by ZEFSAII (Michael W. Deem and Ramdas Pophale) SiO2 
 PCOD8243365
Probable space group: P M M N
;
_chemical_formula_sum "Si O2"
_cell_formula_units_Z 64
_cell_length_a 24.908106
_cell_length_b 14.595231
_cell_length_c 8.903534
_cell_angle_alpha 90.000000
_cell_angle_beta 90.000000
_cell_angle_gamma 90.000000
_cell_volume 3236.786840
_symmetry_space_group_name_H-M "P M M N"
_symmetry_group_IT_number 59
_space_group.IT_coordinate_system_code '2'
_symmetry_cell_setting 'orthorhombic'
loop_
_space_group_symop_operation_xyz
x,y,z
1/2-x,1/2-y,z
1/2+x,-y,-z
-x,1/2+y,-z
-x,-y,-z
1/2+x,1/2+y,-z
1/2-x,y,z
x,1/2-y,z
loop_
_atom_site_type_symbol
_atom_site_label
_atom_site_fract_x
_atom_site_fract_y
_atom_site_fract_z
Si Si1 0.121263 0.855967 0.307018
Si Si2 0.188347 0.355355 0.940378
Si Si3 0.592095 0.141961 0.031112
Si Si4 0.361179 0.506903 0.744760
Si Si5 0.870608 0.643416 0.754316
Si Si6 0.512409 0.852501 0.816682
Si Si7 0.689439 0.996124 0.559656
Si Si8 0.044303 0.567737 0.554502
O O1 0.135880 0.750000 0.322121
O O2 0.174390 0.912834 0.347425
O O3 0.073214 0.881629 0.418265
O O4 0.103805 0.882197 0.139835
O O5 0.250000 0.387526 0.922769
O O6 0.181488 0.250000 0.892523
O O7 0.149260 0.413112 0.833671
O O8 0.171813 0.369702 0.112628
O O9 0.596673 0.250000 0.066090
O O10 0.530940 0.105714 0.064766
O O11 0.636026 0.091402 0.137144
O O12 0.315114 0.517995 0.618302
O O13 0.416589 0.503792 0.653268
O O14 0.876203 0.750000 0.706738
O O15 0.928497 0.600688 0.807379
O O16 0.849638 0.587136 0.610166
O O17 0.524354 0.750000 0.868146
O O18 0.483565 0.854234 0.654791
O O19 0.750000 0.968448 0.597192
O O20 0.000000 0.500000 0.500000
#
# Coordination Sequence:
#
# PCOD8243365 Si02
#       8
#     8   8   8   8   8   8   8   8
#     4  10  21  38  59  84 114 149 190 234 282 336
#     4  10  21  38  58  79 107 146 191 239 287 331
#     4   9  19  36  59  85 113 146 183 228 282 339
#     4  10  21  36  57  81 109 144 183 229 280 336
#     4  10  21  37  58  84 114 149 190 233 279 336
#     4   9  17  32  53  78 110 144 178 217 266 326
#     4  11  23  38  57  81 110 146 189 237 287 338
#     4  10  20  34  53  81 114 148 182 221 273 332
#
# _framework density 19.772694999999999
#
# number of rings (size 3 to 8) (size 9 to 14) (size 15 to 20)
#    0.000    2.125    0.000    3.375    0.000    5.500 
#    0.000    6.250    0.000    2.625    0.000    0.000 
#    0.000    0.000    0.000    0.000    0.000    0.000 
#
# Total GULP energy -793288.566632 kJ/mol
# GULP energy per Si atom -12395.133854 kJ/mol
# Density = 1.972769 g / cm^3
# Si number density = 19.772695 Si / 1000 Ang^3
#
#
#
# Elastic Constant Matrix: (Units=GPa)
#
#
# Indices 1 2 3 4 5 6 
#
# 1 95.8590 36.4587 35.3189 0.0000 0.0000 0.0000
# 2 36.4587 79.2816 40.2528 0.0000 0.0000 0.0000
# 3 35.3189 40.2528 109.8468 0.0000 0.0000 0.0000
# 4 0.0000 0.0000 0.0000 31.0648 0.0000 0.0000
# 5 0.0000 0.0000 0.0000 0.0000 20.7208 0.0000
# 6 0.0000 0.0000 0.0000 0.0000 0.0000 25.3422
#
#
#
# Elastic Compliance Matrix: (Units=1/GPa)
#
#
# Indices 1 2 3 4 5 6 
#
# 1 0.013169 -0.004799 -0.002476 0.000000 0.000000 0.000000
# 2 -0.004799 0.017245 -0.004776 0.000000 0.000000 0.000000
# 3 -0.002476 -0.004776 0.011650 0.000000 0.000000 0.000000
# 4 0.000000 0.000000 0.000000 0.032191 0.000000 0.000000
# 5 0.000000 0.000000 0.000000 0.000000 0.048261 0.000000
# 6 0.000000 0.000000 0.000000 0.000000 0.000000 0.039460
#
#
# Mechanical properties :
#
#
# Convention : Reuss Voigt Hill
#
# Bulk Modulus (GPa) = 55.67285 56.56092 56.11689
# Shear Modulus (GPa) = 26.03273 26.95602 26.49437
#
# Velocity S-wave (km/s) = 3.63243 3.69629 3.66450
# Velocity P-wave (km/s) = 6.76833 6.84722 6.80789
#
# Compressibility (1/GPa) = 0.01796208
#
# Stress axis : x y z
#
# Youngs Moduli (GPa) = 75.93320 57.98680 85.83773
#
# Poissons Ratio (x) = 0.27829 0.21251
# Poissons Ratio (y) = 0.36442 0.40999
# Poissons Ratio (z) = 0.18799 0.27697
#
# Static dielectric constant tensor:
#      x y z
#    x 3.666240 0.000000 0.000000 
#    y 0.000000 3.549990 0.000000 
#    z 0.000000 0.000000 3.652890 
# 
# 
# High freq. dielectric constant tensor:
#      x y z
#    x 1.769690 0.000000 0.000000 
#    y 0.000000 1.763290 0.000000 
#    z 0.000000 0.000000 1.775920 
# 
# From -- ./inp_files/12184.got.cif
#   From: 2010.03.12/outbox.cif.g09.slc.cpg/sg59_7_cif.got.tgz:12184.got - 2010.04.16 16:29:54.
