data_PCOD8243733
_publ_section_title
;
Structure prediction by ZEFSAII (Michael W. Deem and Ramdas Pophale) SiO2 
 PCOD8243733
Probable space group: P M M N
;
_chemical_formula_sum "Si O2"
_cell_formula_units_Z 48
_cell_length_a 9.650321
_cell_length_b 9.597333
_cell_length_c 27.364183
_cell_angle_alpha 90.000000
_cell_angle_beta 90.000000
_cell_angle_gamma 90.000000
_cell_volume 2534.397955
_symmetry_space_group_name_H-M "P M M N"
_symmetry_group_IT_number 59
_space_group.IT_coordinate_system_code '2'
_symmetry_cell_setting 'orthorhombic'
loop_
_space_group_symop_operation_xyz
x,y,z
1/2-x,1/2-y,z
1/2+x,-y,-z
-x,1/2+y,-z
-x,-y,-z
1/2+x,1/2+y,-z
1/2-x,y,z
x,1/2-y,z
loop_
_atom_site_type_symbol
_atom_site_label
_atom_site_fract_x
_atom_site_fract_y
_atom_site_fract_z
Si Si1 0.409437 0.586646 0.294829
Si Si2 0.406490 0.091172 0.796980
Si Si3 0.403008 0.750000 0.551589
Si Si4 0.459980 0.582902 0.891729
Si Si5 0.412260 0.250000 0.542700
Si Si6 0.250000 0.089172 0.066585
Si Si7 0.091716 0.485045 0.615754
Si Si8 0.750000 0.920057 0.043464
O O1 0.250000 0.535791 0.292658
O O2 0.419040 0.750000 0.304649
O O3 0.484182 0.547537 0.244301
O O4 0.490404 0.510703 0.338120
O O5 0.250000 0.083563 0.775961
O O6 0.436223 0.250000 0.815519
O O7 0.419432 0.977081 0.839295
O O8 0.250000 0.750000 0.527439
O O9 0.513701 0.750000 0.509029
O O10 0.423506 0.627671 0.588871
O O11 0.427615 0.750000 0.894584
O O12 0.619493 0.547094 0.900924
O O13 0.382318 0.492669 0.932413
O O14 0.250000 0.250000 0.531224
O O15 0.460349 0.120844 0.574801
O O16 0.250000 0.250000 0.055202
O O17 0.250000 0.025092 0.012312
O O18 0.250000 0.451951 0.632644
O O19 0.750000 0.750000 0.050385
#
# Coordination Sequence:
#
# PCOD8243733 Si02
#       8
#     8   8   4   8   4   4   8   4
#     4  10  21  37  60  88 112 144 193 245 292 343
#     4  10  21  38  60  84 113 150 192 241 293 352
#     4  10  22  36  54  84 120 154 190 238 283 338
#     4  11  22  39  61  88 122 159 199 244 300 357
#     4  10  20  34  58  84 112 154 198 230 285 346
#     4   9  22  39  59  87 125 163 195 245 302 349
#     4  10  20  37  58  82 115 153 192 237 288 345
#     4  11  21  39  63  89 121 159 207 247 286 349
#
# _framework density 18.939409000000001
#
# number of rings (size 3 to 8) (size 9 to 14) (size 15 to 20)
#    0.000    1.833    1.667    2.250    1.167    2.000 
#    1.500    3.750    0.000    0.000    0.000    0.000 
#    0.000    0.000    0.000    0.000    0.000    0.000 
#
# Total GULP energy -594975.582597 kJ/mol
# GULP energy per Si atom -12395.324637 kJ/mol
# Density = 1.889630 g / cm^3
# Si number density = 18.939409 Si / 1000 Ang^3
#
#
#
# Elastic Constant Matrix: (Units=GPa)
#
#
# Indices 1 2 3 4 5 6 
#
# 1 128.2068 30.6588 55.3159 0.0000 0.0000 0.0000
# 2 30.6588 95.3651 30.3083 0.0000 0.0000 0.0000
# 3 55.3159 30.3083 101.9114 0.0000 0.0000 0.0000
# 4 0.0000 0.0000 0.0000 -46.0290 0.0000 0.0000
# 5 0.0000 0.0000 0.0000 0.0000 42.5025 0.0000
# 6 0.0000 0.0000 0.0000 0.0000 0.0000 37.9963
#
#
#
# Elastic Compliance Matrix: (Units=1/GPa)
#
#
# Indices 1 2 3 4 5 6 
#
# 1 0.010434 -0.001717 -0.005153 0.000000 0.000000 0.000000
# 2 -0.001717 0.011863 -0.002596 0.000000 0.000000 0.000000
# 3 -0.005153 -0.002596 0.013381 0.000000 0.000000 0.000000
# 4 0.000000 0.000000 0.000000 -0.021725 0.000000 0.000000
# 5 0.000000 0.000000 0.000000 0.000000 0.023528 0.000000
# 6 0.000000 0.000000 0.000000 0.000000 0.000000 0.026318
#
#
# Mechanical properties :
#
#
# Convention : Reuss Voigt Hill
#
# Bulk Modulus (GPa) = 59.71298 62.00546 60.85922
# Shear Modulus (GPa) = 56.61727 20.84066 38.72896
#
# Velocity S-wave (km/s) = 5.47346 3.32081 4.52695
# Velocity P-wave (km/s) = 8.45825 6.89301 7.71542
#
# Compressibility (1/GPa) = 0.01674678
#
# Stress axis : x y z
#
# Youngs Moduli (GPa) = 95.84449 84.29541 74.73096
#
# Poissons Ratio (x) = 0.14471 0.38506
# Poissons Ratio (y) = 0.16454 0.19402
# Poissons Ratio (z) = 0.49385 0.21885
#
# Static dielectric constant tensor:
#      x y z
#    x 3.696340 0.000000 0.000000 
#    y 0.000000 3.447780 0.000000 
#    z 0.000000 0.000000 3.373790 
# 
# 
# High freq. dielectric constant tensor:
#      x y z
#    x 1.745280 0.000000 0.000000 
#    y 0.000000 1.731240 0.000000 
#    z 0.000000 0.000000 1.739080 
# 
# From -- ./inp_files/33120.got.cif
#   From: 2010.03.12/outbox.cif.g09.slc.cpg/sg59_17_cif.got.tgz:33120.got - 2010.04.16 16:29:54.
