data_PCOD8243957
_publ_section_title
;
Structure prediction by ZEFSAII (Michael W. Deem and Ramdas Pophale) SiO2 
 PCOD8243957
Probable space group: P M M N
;
_chemical_formula_sum "Si O2"
_cell_formula_units_Z 64
_cell_length_a 18.492925
_cell_length_b 9.325747
_cell_length_c 20.113024
_cell_angle_alpha 90.000000
_cell_angle_beta 90.000000
_cell_angle_gamma 90.000000
_cell_volume 3468.698954
_symmetry_space_group_name_H-M "P M M N"
_symmetry_group_IT_number 59
_space_group.IT_coordinate_system_code '2'
_symmetry_cell_setting 'orthorhombic'
loop_
_space_group_symop_operation_xyz
x,y,z
1/2-x,1/2-y,z
1/2+x,-y,-z
-x,1/2+y,-z
-x,-y,-z
1/2+x,1/2+y,-z
1/2-x,y,z
x,1/2-y,z
loop_
_atom_site_type_symbol
_atom_site_label
_atom_site_fract_x
_atom_site_fract_y
_atom_site_fract_z
Si Si1 0.568645 0.085662 0.472012
Si Si2 0.929868 0.579947 0.975824
Si Si3 0.667946 0.919222 0.718898
Si Si4 0.333242 0.921035 0.650230
Si Si5 0.398923 0.580021 0.788801
Si Si6 0.165543 0.910898 0.927063
Si Si7 0.168103 0.589013 0.404271
Si Si8 0.943665 0.580662 0.824957
O O1 0.544332 0.250000 0.460922
O O2 0.608258 0.024685 0.405236
O O3 0.629259 0.070053 0.526818
O O4 0.500000 0.000000 0.500000
O O5 0.936273 0.750000 0.985893
O O6 0.921712 0.536317 0.899072
O O7 0.862790 0.520057 0.017442
O O8 0.000000 0.500000 0.000000
O O9 0.750000 0.971905 0.730599
O O10 0.663259 0.750000 0.713298
O O11 0.620061 0.979866 0.778903
O O12 0.635094 0.984050 0.651259
O O13 0.250000 0.975957 0.638316
O O14 0.332057 0.750000 0.648557
O O15 0.361875 0.980539 0.721531
O O16 0.400897 0.750000 0.782708
O O17 0.352849 0.532627 0.853157
O O18 0.479651 0.516555 0.800056
O O19 0.250000 0.905199 0.936045
O O20 0.132407 0.750000 0.936864
O O21 0.250000 0.545175 0.418661
O O22 0.161200 0.750000 0.376764
O O23 0.949152 0.750000 0.819408
#
# Coordination Sequence:
#
# PCOD8243957 Si02
#       8
#     8   8   8   8   8   8   8   8
#     4  10  21  34  51  77 107 135 168 213 256 304
#     4  11  21  36  56  78 107 143 181 219 264 320
#     4   9  18  32  52  78 103 130 170 216 256 301
#     4   9  17  30  51  78 104 134 175 219 259 302
#     4   9  16  29  51  79 105 133 171 218 267 309
#     4  10  20  35  56  82 111 140 175 221 271 324
#     4   9  18  34  53  72 101 139 170 201 250 307
#     4   9  18  31  51  75 104 137 170 214 264 311
#
# _framework density 18.450721000000001
#
# number of rings (size 3 to 8) (size 9 to 14) (size 15 to 20)
#    0.000    2.500    1.250    1.125    1.750    4.250 
#    0.000    2.500    0.000    3.375    0.000    0.000 
#    0.000    0.000    0.000    0.000    0.000    0.000 
#
# Total GULP energy -793228.441850 kJ/mol
# GULP energy per Si atom -12394.194404 kJ/mol
# Density = 1.840873 g / cm^3
# Si number density = 18.450721 Si / 1000 Ang^3
#
#
#
# Elastic Constant Matrix: (Units=GPa)
#
#
# Indices 1 2 3 4 5 6 
#
# 1 94.3477 29.9260 63.2391 0.0000 0.0000 0.0000
# 2 29.9260 36.5223 35.2052 0.0000 0.0000 0.0000
# 3 63.2391 35.2052 137.7194 0.0000 0.0000 0.0000
# 4 0.0000 0.0000 0.0000 25.5815 0.0000 0.0000
# 5 0.0000 0.0000 0.0000 0.0000 35.8100 0.0000
# 6 0.0000 0.0000 0.0000 0.0000 0.0000 23.9744
#
#
#
# Elastic Compliance Matrix: (Units=1/GPa)
#
#
# Indices 1 2 3 4 5 6 
#
# 1 0.017115 -0.008557 -0.005672 0.000000 0.000000 0.000000
# 2 -0.008557 0.040611 -0.006452 0.000000 0.000000 0.000000
# 3 -0.005672 -0.006452 0.011515 0.000000 0.000000 0.000000
# 4 0.000000 0.000000 0.000000 0.039091 0.000000 0.000000
# 5 0.000000 0.000000 0.000000 0.000000 0.027925 0.000000
# 6 0.000000 0.000000 0.000000 0.000000 0.000000 0.041711
#
#
# Mechanical properties :
#
#
# Convention : Reuss Voigt Hill
#
# Bulk Modulus (GPa) = 35.86817 58.37001 47.11909
# Shear Modulus (GPa) = 21.87016 26.42114 24.14565
#
# Velocity S-wave (km/s) = 3.44659 3.78826 3.62146
# Velocity P-wave (km/s) = 5.94314 7.13014 6.56353
#
# Compressibility (1/GPa) = 0.02787987
#
# Stress axis : x y z
#
# Youngs Moduli (GPa) = 58.42952 24.62365 86.84434
#
# Poissons Ratio (x) = 0.21069 0.49254
# Poissons Ratio (y) = 0.49996 0.56035
# Poissons Ratio (z) = 0.33138 0.15888
#
# Static dielectric constant tensor:
#      x y z
#    x 3.990550 0.000000 0.000000 
#    y 0.000000 3.455650 0.000000 
#    z 0.000000 0.000000 3.399720 
# 
# 
# High freq. dielectric constant tensor:
#      x y z
#    x 1.724480 0.000000 0.000000 
#    y 0.000000 1.666680 0.000000 
#    z 0.000000 0.000000 1.729580 
# 
# From -- ./inp_files/30771.got.cif
#   From: 2010.03.12/outbox.cif.g09.slc.cpg/sg59_16_cif.got.tgz:30771.got - 2010.04.16 16:29:54.
