data_PCOD8243537
_publ_section_title
;
Structure prediction by ZEFSAII (Michael W. Deem and Ramdas Pophale) SiO2 
 PCOD8243537
Probable space group: P M M N
;
_chemical_formula_sum "Si O2"
_cell_formula_units_Z 48
_cell_length_a 8.625703
_cell_length_b 18.998080
_cell_length_c 13.599706
_cell_angle_alpha 90.000000
_cell_angle_beta 90.000000
_cell_angle_gamma 90.000000
_cell_volume 2228.608243
_symmetry_space_group_name_H-M "P M M N"
_symmetry_group_IT_number 59
_space_group.IT_coordinate_system_code '2'
_symmetry_cell_setting 'orthorhombic'
loop_
_space_group_symop_operation_xyz
x,y,z
1/2-x,1/2-y,z
1/2+x,-y,-z
-x,1/2+y,-z
-x,-y,-z
1/2+x,1/2+y,-z
1/2-x,y,z
x,1/2-y,z
loop_
_atom_site_type_symbol
_atom_site_label
_atom_site_fract_x
_atom_site_fract_y
_atom_site_fract_z
Si Si1 0.071096 0.330692 0.512001
Si Si2 0.573664 0.332392 0.717928
Si Si3 0.068513 0.042997 0.205028
Si Si4 0.933490 0.829232 0.922875
Si Si5 0.069193 0.085646 0.889695
Si Si6 0.432631 0.953587 0.587847
O O1 0.250000 0.348839 0.530931
O O2 0.047581 0.250000 0.483030
O O3 0.975263 0.352392 0.608042
O O4 0.003120 0.375279 0.421849
O O5 0.750000 0.357907 0.735117
O O6 0.555975 0.250000 0.735352
O O7 0.457261 0.370433 0.790897
O O8 0.250000 0.037812 0.224408
O O9 0.021704 0.122108 0.170717
O O10 0.981289 0.019541 0.304399
O O11 0.020750 0.988698 0.118539
O O12 0.750000 0.823314 0.932409
O O13 0.004218 0.750000 0.912099
O O14 0.998393 0.867967 0.020357
O O15 0.250000 0.069888 0.904194
O O16 0.250000 0.953270 0.579546
O O17 0.500000 0.000000 0.500000
#
# Coordination Sequence:
#
# PCOD8243537 Si02
#       6
#     8   8   8   8   8   8
#     4  10  21  38  60  86 117 155 199 246 300 362
#     4  10  20  34  54  84 121 158 198 247 301 353
#     4  11  23  40  62  88 120 156 197 246 300 356
#     4   9  20  39  63  90 119 155 199 244 291 348
#     4  11  21  36  60  88 120 157 198 243 293 351
#     4  12  25  42  63  88 120 157 202 251 302 358
#
# _framework density 21.538105999999999
#
# number of rings (size 3 to 8) (size 9 to 14) (size 15 to 20)
#    0.000    1.500    0.000    5.500    0.000    3.333 
#    0.000    4.167    0.000    5.500    0.000    0.000 
#    0.000    0.000    0.000    0.000    0.000    0.000 
#
# Total GULP energy -595310.116995 kJ/mol
# GULP energy per Si atom -12402.294104 kJ/mol
# Density = 2.148908 g / cm^3
# Si number density = 21.538106 Si / 1000 Ang^3
#
#
#
# Elastic Constant Matrix: (Units=GPa)
#
#
# Indices 1 2 3 4 5 6 
#
# 1 87.2189 41.6807 21.5345 0.0000 0.0000 0.0000
# 2 41.6807 119.6747 63.2690 0.0000 0.0000 0.0000
# 3 21.5345 63.2690 81.7607 0.0000 0.0000 0.0000
# 4 0.0000 0.0000 0.0000 37.9163 0.0000 0.0000
# 5 0.0000 0.0000 0.0000 0.0000 26.2209 0.0000
# 6 0.0000 0.0000 0.0000 0.0000 0.0000 32.9202
#
#
#
# Elastic Compliance Matrix: (Units=1/GPa)
#
#
# Indices 1 2 3 4 5 6 
#
# 1 0.013756 -0.004866 0.000143 0.000000 0.000000 0.000000
# 2 -0.004866 0.015863 -0.010993 0.000000 0.000000 0.000000
# 3 0.000143 -0.010993 0.020700 0.000000 0.000000 0.000000
# 4 0.000000 0.000000 0.000000 0.026374 0.000000 0.000000
# 5 0.000000 0.000000 0.000000 0.000000 0.038138 0.000000
# 6 0.000000 0.000000 0.000000 0.000000 0.000000 0.030376
#
#
# Mechanical properties :
#
#
# Convention : Reuss Voigt Hill
#
# Bulk Modulus (GPa) = 52.95301 60.18029 56.56665
# Shear Modulus (GPa) = 27.33202 30.22283 28.77743
#
# Velocity S-wave (km/s) = 3.56618 3.75003 3.65926
# Velocity P-wave (km/s) = 6.44949 6.83756 6.64636
#
# Compressibility (1/GPa) = 0.01888467
#
# Stress axis : x y z
#
# Youngs Moduli (GPa) = 72.69708 63.04067 48.30849
#
# Poissons Ratio (x) = 0.30677 -0.00689
# Poissons Ratio (y) = 0.35377 0.53108
# Poissons Ratio (z) = -0.01037 0.69303
#
# Static dielectric constant tensor:
#      x y z
#    x 3.722320 0.000000 0.000000 
#    y 0.000000 4.234900 0.000000 
#    z 0.000000 0.000000 3.726140 
# 
# 
# High freq. dielectric constant tensor:
#      x y z
#    x 1.833340 0.000000 0.000000 
#    y 0.000000 1.862970 0.000000 
#    z 0.000000 0.000000 1.842190 
# 
# From -- ./inp_files/20402.got.cif
#   From: 2010.03.12/outbox.cif.g09.slc.cpg/sg59_11_cif.got.tgz:20402.got - 2010.04.16 16:29:54.
