data_PCOD8243364
_publ_section_title
;
Structure prediction by ZEFSAII (Michael W. Deem and Ramdas Pophale) SiO2 
 PCOD8243364
Probable space group: P M M N
;
_chemical_formula_sum "Si O2"
_cell_formula_units_Z 64
_cell_length_a 25.236616
_cell_length_b 12.945505
_cell_length_c 9.661379
_cell_angle_alpha 90.000000
_cell_angle_beta 90.000000
_cell_angle_gamma 90.000000
_cell_volume 3156.379655
_symmetry_space_group_name_H-M "P M M N"
_symmetry_group_IT_number 59
_space_group.IT_coordinate_system_code '2'
_symmetry_cell_setting 'orthorhombic'
loop_
_space_group_symop_operation_xyz
x,y,z
1/2-x,1/2-y,z
1/2+x,-y,-z
-x,1/2+y,-z
-x,-y,-z
1/2+x,1/2+y,-z
1/2-x,y,z
x,1/2-y,z
loop_
_atom_site_type_symbol
_atom_site_label
_atom_site_fract_x
_atom_site_fract_y
_atom_site_fract_z
Si Si1 0.978082 0.631073 0.275832
Si Si2 0.310407 0.536905 0.895362
Si Si3 0.658052 0.133621 0.831353
Si Si4 0.305516 0.631943 0.464095
Si Si5 0.610053 0.631964 0.070952
Si Si6 0.004693 0.127252 0.409576
Si Si7 0.938426 0.515218 0.820790
Si Si8 0.111376 0.627509 0.670401
O O1 0.997141 0.750000 0.269571
O O2 0.917330 0.622941 0.222879
O O3 0.986584 0.586374 0.432325
O O4 0.012475 0.563915 0.167860
O O5 0.250000 0.533576 0.834621
O O6 0.332192 0.421614 0.924890
O O7 0.355651 0.590106 0.802550
O O8 0.307905 0.601879 0.035920
O O9 0.635794 0.250000 0.849940
O O10 0.696064 0.125927 0.700429
O O11 0.611993 0.054976 0.795423
O O12 0.250000 0.580436 0.515784
O O13 0.305615 0.750000 0.514083
O O14 0.356906 0.582405 0.536757
O O15 0.619778 0.750000 0.028633
O O16 0.570077 0.581624 0.959163
O O17 0.005408 0.250000 0.415703
O O18 0.052323 0.090465 0.310728
O O19 0.948902 0.085428 0.342556
O O20 0.107481 0.750000 0.675622
#
# Coordination Sequence:
#
# PCOD8243364 Si02
#       8
#     8   8   8   8   8   8   8   8
#     4  10  20  35  56  83 115 148 182 223 273 327
#     4  11  23  38  58  81 105 139 181 224 273 325
#     4  10  21  35  53  81 113 142 176 220 272 330
#     4   9  17  31  51  74 105 143 176 211 260 319
#     4  10  23  40  56  77 106 141 185 233 274 317
#     4  10  21  36  55  80 112 150 186 221 264 318
#     4  11  20  34  55  80 110 145 183 223 271 325
#     4  10  20  34  53  81 114 142 173 214 263 321
#
# _framework density 20.276395999999998
#
# number of rings (size 3 to 8) (size 9 to 14) (size 15 to 20)
#    0.000    1.875    0.000    4.125    0.000    6.250 
#    0.000    2.500    0.000    0.000    0.000    0.000 
#    0.000    8.000    0.000    0.000    0.000    0.000 
#
# Total GULP energy -793094.033783 kJ/mol
# GULP energy per Si atom -12392.094278 kJ/mol
# Density = 2.023025 g / cm^3
# Si number density = 20.276396 Si / 1000 Ang^3
#
#
#
# Elastic Constant Matrix: (Units=GPa)
#
#
# Indices 1 2 3 4 5 6 
#
# 1 111.4399 42.2535 40.7990 0.0000 0.0000 0.0000
# 2 42.2535 64.4786 32.5045 0.0000 0.0000 0.0000
# 3 40.7990 32.5045 98.0658 0.0000 0.0000 0.0000
# 4 0.0000 0.0000 0.0000 31.2344 0.0000 0.0000
# 5 0.0000 0.0000 0.0000 0.0000 10.2953 0.0000
# 6 0.0000 0.0000 0.0000 0.0000 0.0000 6.4475
#
#
#
# Elastic Compliance Matrix: (Units=1/GPa)
#
#
# Indices 1 2 3 4 5 6 
#
# 1 0.012643 -0.006764 -0.003018 0.000000 0.000000 0.000000
# 2 -0.006764 0.022239 -0.004557 0.000000 0.000000 0.000000
# 3 -0.003018 -0.004557 0.012963 0.000000 0.000000 0.000000
# 4 0.000000 0.000000 0.000000 0.032016 0.000000 0.000000
# 5 0.000000 0.000000 0.000000 0.000000 0.097132 0.000000
# 6 0.000000 0.000000 0.000000 0.000000 0.000000 0.155099
#
#
# Mechanical properties :
#
#
# Convention : Reuss Voigt Hill
#
# Bulk Modulus (GPa) = 52.17265 56.12205 54.14735
# Shear Modulus (GPa) = 13.61808 20.15724 16.88766
#
# Velocity S-wave (km/s) = 2.59438 3.15639 2.88908
# Velocity P-wave (km/s) = 5.89585 6.40487 6.15562
#
# Compressibility (1/GPa) = 0.01916713
#
# Stress axis : x y z
#
# Youngs Moduli (GPa) = 79.09602 44.96687 77.14033
#
# Poissons Ratio (x) = 0.30414 0.23282
# Poissons Ratio (y) = 0.53497 0.35155
# Poissons Ratio (z) = 0.23872 0.20492
#
# Static dielectric constant tensor:
#      x y z
#    x 3.641280 0.000000 0.000000 
#    y 0.000000 3.731280 0.000000 
#    z 0.000000 0.000000 3.724270 
# 
# 
# High freq. dielectric constant tensor:
#      x y z
#    x 1.785460 0.000000 0.000000 
#    y 0.000000 1.788790 0.000000 
#    z 0.000000 0.000000 1.794680 
# 
# From -- ./inp_files/12213.got.cif
#   From: 2010.03.12/outbox.cif.g09.slc.cpg/sg59_7_cif.got.tgz:12213.got - 2010.04.16 16:29:54.
