data_PCOD8243239
_publ_section_title
;
Structure prediction by ZEFSAII (Michael W. Deem and Ramdas Pophale) SiO2 
 PCOD8243239
Probable space group: P M M N
;
_chemical_formula_sum "Si O2"
_cell_formula_units_Z 64
_cell_length_a 8.883219
_cell_length_b 23.294166
_cell_length_c 15.908104
_cell_angle_alpha 90.000000
_cell_angle_beta 90.000000
_cell_angle_gamma 90.000000
_cell_volume 3291.819068
_symmetry_space_group_name_H-M "P M M N"
_symmetry_group_IT_number 59
_space_group.IT_coordinate_system_code '2'
_symmetry_cell_setting 'orthorhombic'
loop_
_space_group_symop_operation_xyz
x,y,z
1/2-x,1/2-y,z
1/2+x,-y,-z
-x,1/2+y,-z
-x,-y,-z
1/2+x,1/2+y,-z
1/2-x,y,z
x,1/2-y,z
loop_
_atom_site_type_symbol
_atom_site_label
_atom_site_fract_x
_atom_site_fract_y
_atom_site_fract_z
Si Si1 0.426665 0.417034 0.443039
Si Si2 0.076873 0.009295 0.090149
Si Si3 0.075274 0.471788 0.613623
Si Si4 0.573218 0.118173 0.168200
Si Si5 0.082055 0.316776 0.026860
Si Si6 0.582242 0.422622 0.766816
Si Si7 0.572011 0.683550 0.674799
Si Si8 0.419986 0.686179 0.140596
O O1 0.250000 0.424166 0.436227
O O2 0.496986 0.466245 0.384577
O O3 0.482445 0.429475 0.538545
O O4 0.472054 0.353388 0.409106
O O5 0.250000 0.026497 0.074422
O O6 0.999749 0.056306 0.150653
O O7 0.062168 0.950411 0.141343
O O8 0.000000 0.000000 0.000000
O O9 0.250000 0.483179 0.603621
O O10 0.042533 0.442296 0.701692
O O11 0.750000 0.110681 0.183152
O O12 0.503161 0.151359 0.247203
O O13 0.542069 0.155345 0.085961
O O14 0.250000 0.341665 0.043189
O O15 0.079660 0.250000 0.046104
O O16 0.037193 0.330346 0.931739
O O17 0.750000 0.435898 0.731533
O O18 0.556996 0.354931 0.779734
O O19 0.750000 0.683130 0.689783
O O20 0.515680 0.750000 0.665532
O O21 0.250000 0.680577 0.104667
O O22 0.451936 0.750000 0.174021
#
# Coordination Sequence:
#
# PCOD8243239 Si02
#       8
#     8   8   8   8   8   8   8   8
#     4   9  19  37  58  81 109 139 174 219 273 329
#     4  11  23  38  56  80 112 149 189 233 281 332
#     4  10  20  34  57  86 110 138 178 222 268 321
#     4  12  24  36  52  77 110 146 185 228 275 329
#     4  10  20  34  53  76 102 136 180 226 270 316
#     4  10  21  36  54  78 108 141 175 213 263 319
#     4  10  21  38  59  81 109 147 188 231 282 340
#     4   9  18  34  55  77 103 136 174 216 262 313
#
# _framework density 19.442139000000001
#
# number of rings (size 3 to 8) (size 9 to 14) (size 15 to 20)
#    0.000    1.875    0.000    4.125    0.000    9.000 
#    0.000    0.625    0.000    0.750    0.000    0.000 
#    0.000    0.000    0.000    0.000    0.000    0.000 
#
# Total GULP energy -793424.580707 kJ/mol
# GULP energy per Si atom -12397.259074 kJ/mol
# Density = 1.939789 g / cm^3
# Si number density = 19.442139 Si / 1000 Ang^3
#
#
#
# Elastic Constant Matrix: (Units=GPa)
#
#
# Indices 1 2 3 4 5 6 
#
# 1 51.5222 41.0179 21.3516 0.0000 0.0000 0.0000
# 2 41.0179 118.7568 61.1369 0.0000 0.0000 0.0000
# 3 21.3516 61.1369 73.8201 0.0000 0.0000 0.0000
# 4 0.0000 0.0000 0.0000 32.7041 0.0000 0.0000
# 5 0.0000 0.0000 0.0000 0.0000 25.6376 0.0000
# 6 0.0000 0.0000 0.0000 0.0000 0.0000 24.2842
#
#
#
# Elastic Compliance Matrix: (Units=1/GPa)
#
#
# Indices 1 2 3 4 5 6 
#
# 1 0.026771 -0.009170 -0.000149 0.000000 0.000000 0.000000
# 2 -0.009170 0.017820 -0.012106 0.000000 0.000000 0.000000
# 3 -0.000149 -0.012106 0.023616 0.000000 0.000000 0.000000
# 4 0.000000 0.000000 0.000000 0.030577 0.000000 0.000000
# 5 0.000000 0.000000 0.000000 0.000000 0.039005 0.000000
# 6 0.000000 0.000000 0.000000 0.000000 0.000000 0.041179
#
#
# Mechanical properties :
#
#
# Convention : Reuss Voigt Hill
#
# Bulk Modulus (GPa) = 39.43651 54.56799 47.00225
# Shear Modulus (GPa) = 21.71358 24.56470 23.13914
#
# Velocity S-wave (km/s) = 3.34553 3.55840 3.45360
# Velocity P-wave (km/s) = 5.93730 6.70900 6.33491
#
# Compressibility (1/GPa) = 0.02535721
#
# Stress axis : x y z
#
# Youngs Moduli (GPa) = 37.35347 56.11610 42.34489
#
# Poissons Ratio (x) = 0.51459 0.00630
# Poissons Ratio (y) = 0.34253 0.51263
# Poissons Ratio (z) = 0.00555 0.67935
#
# Static dielectric constant tensor:
#      x y z
#    x 3.768620 0.000000 0.000000 
#    y 0.000000 3.837020 0.000000 
#    z 0.000000 0.000000 3.537820 
# 
# 
# High freq. dielectric constant tensor:
#      x y z
#    x 1.756510 0.000000 0.000000 
#    y 0.000000 1.765400 0.000000 
#    z 0.000000 0.000000 1.744120 
# 
# From -- ./inp_files/21537.got.cif
#   From: 2010.03.12/outbox.cif.g09.slc.cpg/sg59_11_cif.got.tgz:21537.got - 2010.04.16 16:29:54.
