data_PCOD8243653
_publ_section_title
;
Structure prediction by ZEFSAII (Michael W. Deem and Ramdas Pophale) SiO2 
 PCOD8243653
Probable space group: P M M N
;
_chemical_formula_sum "Si O2"
_cell_formula_units_Z 64
_cell_length_a 13.826706
_cell_length_b 22.098593
_cell_length_c 9.942725
_cell_angle_alpha 90.000000
_cell_angle_beta 90.000000
_cell_angle_gamma 90.000000
_cell_volume 3038.007065
_symmetry_space_group_name_H-M "P M M N"
_symmetry_group_IT_number 59
_space_group.IT_coordinate_system_code '2'
_symmetry_cell_setting 'orthorhombic'
loop_
_space_group_symop_operation_xyz
x,y,z
1/2-x,1/2-y,z
1/2+x,-y,-z
-x,1/2+y,-z
-x,-y,-z
1/2+x,1/2+y,-z
1/2-x,y,z
x,1/2-y,z
loop_
_atom_site_type_symbol
_atom_site_label
_atom_site_fract_x
_atom_site_fract_y
_atom_site_fract_z
Si Si1 0.635590 0.576913 0.095655
Si Si2 0.141292 0.999454 0.650343
Si Si3 0.014229 0.679426 0.068249
Si Si4 0.441389 0.877054 0.575685
Si Si5 0.139940 0.007686 0.160144
Si Si6 0.856017 0.912072 0.589581
Si Si7 0.856643 0.180034 0.174818
Si Si8 0.364327 0.882778 0.277830
O O1 0.750000 0.588925 0.081954
O O2 0.607479 0.547254 0.237962
O O3 0.584444 0.641893 0.084028
O O4 0.596608 0.530351 0.981757
O O5 0.250000 0.976690 0.681096
O O6 0.136183 0.029676 0.505103
O O7 0.070844 0.941973 0.649830
O O8 0.986804 0.750000 0.054393
O O9 0.083286 0.671039 0.197739
O O10 0.071078 0.653286 0.937436
O O11 0.556923 0.865522 0.556797
O O12 0.397963 0.827051 0.674611
O O13 0.386696 0.875953 0.435064
O O14 0.250000 0.989278 0.136455
O O15 0.091737 0.946228 0.219062
O O16 0.132076 0.064382 0.259722
O O17 0.750000 0.880717 0.569834
O O18 0.750000 0.149327 0.163035
O O19 0.845613 0.250000 0.143946
O O20 0.250000 0.876975 0.259299
#
# Coordination Sequence:
#
# PCOD8243653 Si02
#       8
#     8   8   8   8   8   8   8   8
#     4  10  22  39  61  91 123 156 200 250 300 359
#     4  10  20  34  55  88 124 154 191 240 299 361
#     4  11  25  43  62  85 116 163 212 250 300 356
#     4  12  22  36  63  91 120 162 201 238 296 365
#     4   9  19  35  54  85 124 156 189 237 298 359
#     4  10  20  35  54  82 124 162 192 233 291 354
#     4  10  23  43  63  86 118 155 201 255 301 347
#     4  11  23  38  59  90 126 157 196 249 302 366
#
# _framework density 21.066441000000001
#
# number of rings (size 3 to 8) (size 9 to 14) (size 15 to 20)
#    0.000    1.625    1.250    3.375    3.500    2.000 
#    0.000    0.000    0.000    1.125    0.000    0.000 
#    0.000    0.000    0.000    0.000    0.000    0.000 
#
# Total GULP energy -793569.724994 kJ/mol
# GULP energy per Si atom -12399.526953 kJ/mol
# Density = 2.101849 g / cm^3
# Si number density = 21.066441 Si / 1000 Ang^3
#
#
#
# Elastic Constant Matrix: (Units=GPa)
#
#
# Indices 1 2 3 4 5 6 
#
# 1 108.9501 21.8827 31.6784 0.0000 0.0000 0.0000
# 2 21.8827 47.2732 35.4377 0.0000 0.0000 0.0000
# 3 31.6784 35.4377 104.5756 0.0000 0.0000 0.0000
# 4 0.0000 0.0000 0.0000 24.7306 0.0000 0.0000
# 5 0.0000 0.0000 0.0000 0.0000 25.6230 0.0000
# 6 0.0000 0.0000 0.0000 0.0000 0.0000 22.1657
#
#
#
# Elastic Compliance Matrix: (Units=1/GPa)
#
#
# Indices 1 2 3 4 5 6 
#
# 1 0.010435 -0.003299 -0.002043 0.000000 0.000000 0.000000
# 2 -0.003299 0.029400 -0.008964 0.000000 0.000000 0.000000
# 3 -0.002043 -0.008964 0.013219 0.000000 0.000000 0.000000
# 4 0.000000 0.000000 0.000000 0.040436 0.000000 0.000000
# 5 0.000000 0.000000 0.000000 0.000000 0.039027 0.000000
# 6 0.000000 0.000000 0.000000 0.000000 0.000000 0.045115
#
#
# Mechanical properties :
#
#
# Convention : Reuss Voigt Hill
#
# Bulk Modulus (GPa) = 40.91147 48.75518 44.83332
# Shear Modulus (GPa) = 23.32190 25.95721 24.63956
#
# Velocity S-wave (km/s) = 3.33087 3.51402 3.42367
# Velocity P-wave (km/s) = 5.85280 6.29748 6.07921
#
# Compressibility (1/GPa) = 0.02444302
#
# Stress axis : x y z
#
# Youngs Moduli (GPa) = 95.82996 34.01355 75.64935
#
# Poissons Ratio (x) = 0.11220 0.15457
# Poissons Ratio (y) = 0.31612 0.67809
# Poissons Ratio (z) = 0.19580 0.30488
#
# Static dielectric constant tensor:
#      x y z
#    x 4.068380 0.000000 0.000000 
#    y 0.000000 3.359570 0.000000 
#    z 0.000000 0.000000 3.898520 
# 
# 
# High freq. dielectric constant tensor:
#      x y z
#    x 1.839320 0.000000 0.000000 
#    y 0.000000 1.778480 0.000000 
#    z 0.000000 0.000000 1.840090 
# 
# From -- ./inp_files/9610.got.cif
#   From: 2010.03.12/outbox.cif.g09.slc.cpg/sg59_5_cif.got.tgz:9610.got - 2010.04.16 16:29:54.
