data_PCOD8243991
_publ_section_title
;
Structure prediction by ZEFSAII (Michael W. Deem and Ramdas Pophale) SiO2 
 PCOD8243991
Probable space group: P M M N
;
_chemical_formula_sum "Si O2"
_cell_formula_units_Z 64
_cell_length_a 15.847802
_cell_length_b 21.566065
_cell_length_c 10.108793
_cell_angle_alpha 90.000000
_cell_angle_beta 90.000000
_cell_angle_gamma 90.000000
_cell_volume 3454.929978
_symmetry_space_group_name_H-M "P M M N"
_symmetry_group_IT_number 59
_space_group.IT_coordinate_system_code '2'
_symmetry_cell_setting 'orthorhombic'
loop_
_space_group_symop_operation_xyz
x,y,z
1/2-x,1/2-y,z
1/2+x,-y,-z
-x,1/2+y,-z
-x,-y,-z
1/2+x,1/2+y,-z
1/2-x,y,z
x,1/2-y,z
loop_
_atom_site_type_symbol
_atom_site_label
_atom_site_fract_x
_atom_site_fract_y
_atom_site_fract_z
Si Si1 0.981855 0.180288 0.987973
Si Si2 0.154380 0.504608 0.175194
Si Si3 0.001304 0.179303 0.684444
Si Si4 0.156728 0.379429 0.029857
Si Si5 0.348445 0.587589 0.922421
Si Si6 0.656886 0.888934 0.272159
Si Si7 0.941322 0.448732 0.573431
Si Si8 0.152297 0.980795 0.663526
O O1 0.966422 0.250000 0.026350
O O2 0.966263 0.168839 0.831960
O O3 0.076845 0.165882 0.038868
O O4 0.908347 0.146333 0.066234
O O5 0.250000 0.517678 0.223847
O O6 0.143070 0.432864 0.138104
O O7 0.088108 0.522718 0.287918
O O8 0.133485 0.543405 0.045333
O O9 0.980587 0.250000 0.633775
O O10 0.102772 0.172163 0.694931
O O11 0.969155 0.123523 0.590098
O O12 0.250000 0.347837 0.055341
O O13 0.158853 0.407199 0.882285
O O14 0.250000 0.607187 0.913769
O O15 0.382535 0.555619 0.789527
O O16 0.750000 0.874940 0.327459
O O17 0.612380 0.949155 0.341676
O O18 0.863387 0.443114 0.471008
O O19 0.000000 0.500000 0.500000
O O20 0.250000 0.993043 0.687159
#
# Coordination Sequence:
#
# PCOD8243991 Si02
#       8
#     8   8   8   8   8   8   8   8
#     4  10  21  35  56  83 114 153 193 238 288 341
#     4  10  20  36  58  85 116 146 184 237 292 344
#     4  10  21  37  53  79 115 151 193 235 279 346
#     4   9  18  32  56  86 114 144 182 231 291 348
#     4  10  20  36  60  85 112 147 188 240 292 339
#     4   9  16  31  54  83 113 141 177 230 288 341
#     4  12  23  35  56  87 115 152 192 236 291 341
#     4  10  20  35  56  84 115 142 182 237 291 341
#
# _framework density 18.524253000000002
#
# number of rings (size 3 to 8) (size 9 to 14) (size 15 to 20)
#    0.000    2.000    3.750    0.375    1.750    1.250 
#    0.000    3.125    0.000    2.250    0.000    0.000 
#    0.000    0.000    0.000    0.000    0.000    0.000 
#
# Total GULP energy -792889.928639 kJ/mol
# GULP energy per Si atom -12388.905135 kJ/mol
# Density = 1.848209 g / cm^3
# Si number density = 18.524253 Si / 1000 Ang^3
#
#
#
# Elastic Constant Matrix: (Units=GPa)
#
#
# Indices 1 2 3 4 5 6 
#
# 1 42.9958 25.5853 15.4904 0.0000 0.0000 0.0000
# 2 25.5853 98.9502 29.1684 0.0000 0.0000 0.0000
# 3 15.4904 29.1684 73.0515 0.0000 0.0000 0.0000
# 4 0.0000 0.0000 0.0000 23.7260 0.0000 0.0000
# 5 0.0000 0.0000 0.0000 0.0000 25.5122 0.0000
# 6 0.0000 0.0000 0.0000 0.0000 0.0000 20.0877
#
#
#
# Elastic Compliance Matrix: (Units=1/GPa)
#
#
# Indices 1 2 3 4 5 6 
#
# 1 0.028249 -0.006277 -0.003484 0.000000 0.000000 0.000000
# 2 -0.006277 0.012849 -0.003799 0.000000 0.000000 0.000000
# 3 -0.003484 -0.003799 0.015945 0.000000 0.000000 0.000000
# 4 0.000000 0.000000 0.000000 0.042148 0.000000 0.000000
# 5 0.000000 0.000000 0.000000 0.000000 0.039197 0.000000
# 6 0.000000 0.000000 0.000000 0.000000 0.000000 0.049782
#
#
# Mechanical properties :
#
#
# Convention : Reuss Voigt Hill
#
# Bulk Modulus (GPa) = 33.42037 39.49839 36.45938
# Shear Modulus (GPa) = 22.19622 23.51539 22.85581
#
# Velocity S-wave (km/s) = 3.46529 3.56678 3.51640
# Velocity P-wave (km/s) = 5.83880 6.19124 6.01760
#
# Compressibility (1/GPa) = 0.02992187
#
# Stress axis : x y z
#
# Youngs Moduli (GPa) = 35.40010 77.82602 62.71670
#
# Poissons Ratio (x) = 0.48853 0.21848
# Poissons Ratio (y) = 0.22222 0.23829
# Poissons Ratio (z) = 0.12332 0.29569
#
# Static dielectric constant tensor:
#      x y z
#    x 3.570570 0.000000 0.000000 
#    y 0.000000 3.283810 0.000000 
#    z 0.000000 0.000000 3.407220 
# 
# 
# High freq. dielectric constant tensor:
#      x y z
#    x 1.728170 0.000000 0.000000 
#    y 0.000000 1.702360 0.000000 
#    z 0.000000 0.000000 1.699550 
# 
# From -- ./inp_files/10684.got.cif
#   From: 2010.03.12/outbox.cif.g09.slc.cpg/sg59_6_cif.got.tgz:10684.got - 2010.04.16 16:29:54.
