data_PCOD8243727
_publ_section_title
;
Structure prediction by ZEFSAII (Michael W. Deem and Ramdas Pophale) SiO2 
 PCOD8243727
Probable space group: P M M N
;
_chemical_formula_sum "Si O2"
_cell_formula_units_Z 64
_cell_length_a 17.983309
_cell_length_b 14.071381
_cell_length_c 12.411762
_cell_angle_alpha 90.000000
_cell_angle_beta 90.000000
_cell_angle_gamma 90.000000
_cell_volume 3140.796282
_symmetry_space_group_name_H-M "P M M N"
_symmetry_group_IT_number 59
_space_group.IT_coordinate_system_code '2'
_symmetry_cell_setting 'orthorhombic'
loop_
_space_group_symop_operation_xyz
x,y,z
1/2-x,1/2-y,z
1/2+x,-y,-z
-x,1/2+y,-z
-x,-y,-z
1/2+x,1/2+y,-z
1/2-x,y,z
x,1/2-y,z
loop_
_atom_site_type_symbol
_atom_site_label
_atom_site_fract_x
_atom_site_fract_y
_atom_site_fract_z
Si Si1 0.086722 0.441165 0.756304
Si Si2 0.334100 0.887602 0.475710
Si Si3 0.167043 0.101944 0.542392
Si Si4 0.419570 0.645895 0.686774
Si Si5 0.075327 0.858543 0.260070
Si Si6 0.411887 0.351987 0.340832
Si Si7 0.336234 0.360642 0.963532
Si Si8 0.337484 0.017884 0.169931
O O1 0.134072 0.394272 0.661502
O O2 0.102588 0.555755 0.761774
O O3 0.112615 0.394716 0.866746
O O4 0.001444 0.416130 0.734252
O O5 0.250000 0.849897 0.457462
O O6 0.366646 0.842373 0.584111
O O7 0.384950 0.857682 0.375735
O O8 0.334267 0.999118 0.489675
O O9 0.250000 0.143268 0.549549
O O10 0.118256 0.164079 0.461641
O O11 0.416400 0.750000 0.746713
O O12 0.502243 0.620080 0.647711
O O13 0.062707 0.750000 0.221710
O O14 0.126077 0.912876 0.170927
O O15 0.403663 0.250000 0.281276
O O16 0.365248 0.429821 0.277073
O O17 0.250000 0.379339 0.936061
O O18 0.350586 0.250000 0.988351
O O19 0.361901 0.422032 0.066206
O O20 0.250000 0.006139 0.176989
#
# Coordination Sequence:
#
# PCOD8243727 Si02
#       8
#     8   8   8   8   8   8   8   8
#     4  11  22  41  62  88 125 163 203 253 305 362
#     4  10  20  36  57  84 125 172 212 249 293 359
#     4  10  20  34  57  89 124 161 200 251 307 358
#     4  10  21  37  59  89 124 166 209 248 301 363
#     4  12  24  38  60  91 122 161 205 252 306 362
#     4  11  21  36  59  91 125 158 196 249 312 367
#     4  10  23  44  69  93 119 159 206 249 301 368
#     4  11  23  42  64  88 119 156 201 255 307 363
#
# _framework density 20.376999000000001
#
# number of rings (size 3 to 8) (size 9 to 14) (size 15 to 20)
#    0.000    1.375    2.500    3.000    0.000    8.250 
#    0.000    0.625    0.000    0.750    0.000    0.000 
#    0.000    0.000    0.000    0.000    0.000    0.000 
#
# Total GULP energy -793394.815173 kJ/mol
# GULP energy per Si atom -12396.793987 kJ/mol
# Density = 2.033062 g / cm^3
# Si number density = 20.376999 Si / 1000 Ang^3
#
#
#
# Elastic Constant Matrix: (Units=GPa)
#
#
# Indices 1 2 3 4 5 6 
#
# 1 77.8669 17.0739 25.2366 0.0000 0.0000 0.0000
# 2 17.0739 123.9079 32.9065 0.0000 0.0000 0.0000
# 3 25.2366 32.9065 81.8190 0.0000 0.0000 0.0000
# 4 0.0000 0.0000 0.0000 14.3443 0.0000 0.0000
# 5 0.0000 0.0000 0.0000 0.0000 22.6535 0.0000
# 6 0.0000 0.0000 0.0000 0.0000 0.0000 -10.5335
#
#
#
# Elastic Compliance Matrix: (Units=1/GPa)
#
#
# Indices 1 2 3 4 5 6 
#
# 1 0.014358 -0.000898 -0.004067 0.000000 0.000000 0.000000
# 2 -0.000898 0.009092 -0.003380 0.000000 0.000000 0.000000
# 3 -0.004067 -0.003380 0.014836 0.000000 0.000000 0.000000
# 4 0.000000 0.000000 0.000000 0.069714 0.000000 0.000000
# 5 0.000000 0.000000 0.000000 0.000000 0.044143 0.000000
# 6 0.000000 0.000000 0.000000 0.000000 0.000000 -0.094935
#
#
# Mechanical properties :
#
#
# Convention : Reuss Voigt Hill
#
# Bulk Modulus (GPa) = 46.30674 48.22529 47.26601
# Shear Modulus (GPa) = 61.65527 19.18466 40.41996
#
# Velocity S-wave (km/s) = 5.50663 3.07169 4.45860
# Velocity P-wave (km/s) = 7.95016 6.02481 7.05348
#
# Compressibility (1/GPa) = 0.02159513
#
# Stress axis : x y z
#
# Youngs Moduli (GPa) = 69.64969 109.98925 67.40448
#
# Poissons Ratio (x) = 0.09880 0.27415
# Poissons Ratio (y) = 0.06256 0.22780
# Poissons Ratio (z) = 0.28328 0.37171
#
# Static dielectric constant tensor:
#      x y z
#    x 3.842380 0.000000 0.000000 
#    y 0.000000 4.170160 0.000000 
#    z 0.000000 0.000000 3.460770 
# 
# 
# High freq. dielectric constant tensor:
#      x y z
#    x 1.805350 0.000000 0.000000 
#    y 0.000000 1.815570 0.000000 
#    z 0.000000 0.000000 1.765360 
# 
# From -- ./inp_files/17870.got.cif
#   From: 2010.03.12/outbox.cif.g09.slc.cpg/sg59_9_cif.got.tgz:17870.got - 2010.04.16 16:29:54.
