data_PCOD8243068
_publ_section_title
;
Structure prediction by ZEFSAII (Michael W. Deem and Ramdas Pophale) SiO2 
 PCOD8243068
Probable space group: P M M N
;
_chemical_formula_sum "Si O2"
_cell_formula_units_Z 64
_cell_length_a 15.438298
_cell_length_b 8.985805
_cell_length_c 23.863624
_cell_angle_alpha 90.000000
_cell_angle_beta 90.000000
_cell_angle_gamma 90.000000
_cell_volume 3310.494015
_symmetry_space_group_name_H-M "P M M N"
_symmetry_group_IT_number 59
_space_group.IT_coordinate_system_code '2'
_symmetry_cell_setting 'orthorhombic'
loop_
_space_group_symop_operation_xyz
x,y,z
1/2-x,1/2-y,z
1/2+x,-y,-z
-x,1/2+y,-z
-x,-y,-z
1/2+x,1/2+y,-z
1/2-x,y,z
x,1/2-y,z
loop_
_atom_site_type_symbol
_atom_site_label
_atom_site_fract_x
_atom_site_fract_y
_atom_site_fract_z
Si Si1 0.847155 0.579636 0.669634
Si Si2 0.503933 0.425965 0.738605
Si Si3 0.154521 0.079384 0.662820
Si Si4 0.412569 0.922557 0.561261
Si Si5 0.997420 0.073305 0.865506
Si Si6 0.154272 0.426967 0.940071
Si Si7 0.905859 0.077741 0.564326
Si Si8 0.349793 0.077694 0.066726
O O1 0.750000 0.565152 0.693869
O O2 0.876980 0.750000 0.666374
O O3 0.911410 0.493543 0.710314
O O4 0.846199 0.512721 0.606990
O O5 0.513711 0.250000 0.737032
O O6 0.417140 0.478337 0.706628
O O7 0.496629 0.484731 0.801963
O O8 0.250000 0.064326 0.690394
O O9 0.135854 0.250000 0.645890
O O10 0.155636 0.977383 0.607251
O O11 0.436638 0.750000 0.569785
O O12 0.372933 0.948014 0.499250
O O13 0.496403 0.022948 0.570748
O O14 0.997839 0.250000 0.868148
O O15 0.080700 0.008207 0.898898
O O16 0.908379 0.017049 0.891754
O O17 0.250000 0.485753 0.921997
O O18 0.155378 0.250000 0.938291
O O19 0.133561 0.478666 0.003364
O O20 0.902449 0.250000 0.581184
O O21 0.250000 0.051780 0.083505
O O22 0.374851 0.250000 0.072664
#
# Coordination Sequence:
#
# PCOD8243068 Si02
#       8
#     8   8   8   8   8   8   8   8
#     4  11  24  40  59  82 107 141 186 231 276 328
#     4  10  22  39  56  78 109 144 183 228 277 325
#     4  10  21  37  57  80 108 144 184 226 274 328
#     4  10  20  34  56  85 114 144 178 218 270 331
#     4  10  20  33  54  82 108 139 183 230 272 316
#     4   8  15  30  53  81 112 144 178 218 266 322
#     4  10  20  35  57  84 113 143 176 220 275 330
#     4   9  18  33  53  78 110 147 182 217 266 326
#
# _framework density 19.332463000000001
#
# number of rings (size 3 to 8) (size 9 to 14) (size 15 to 20)
#    0.000    2.250    1.250    2.250    0.000    5.000 
#    0.000    7.500    0.000    1.125    0.000    1.750 
#    0.000    0.000    0.000    0.000    0.000    0.000 
#
# Total GULP energy -793570.691534 kJ/mol
# GULP energy per Si atom -12399.542055 kJ/mol
# Density = 1.928846 g / cm^3
# Si number density = 19.332463 Si / 1000 Ang^3
#
#
#
# Elastic Constant Matrix: (Units=GPa)
#
#
# Indices 1 2 3 4 5 6 
#
# 1 114.4137 22.2066 69.8977 0.0000 0.0000 0.0000
# 2 22.2066 29.6657 32.9686 0.0000 0.0000 0.0000
# 3 69.8977 32.9686 139.1610 0.0000 0.0000 0.0000
# 4 0.0000 0.0000 0.0000 22.3031 0.0000 0.0000
# 5 0.0000 0.0000 0.0000 0.0000 13.2884 0.0000
# 6 0.0000 0.0000 0.0000 0.0000 0.0000 25.9347
#
#
#
# Elastic Compliance Matrix: (Units=1/GPa)
#
#
# Indices 1 2 3 4 5 6 
#
# 1 0.012846 -0.003319 -0.005666 0.000000 0.000000 0.000000
# 2 -0.003319 0.046613 -0.009376 0.000000 0.000000 0.000000
# 3 -0.005666 -0.009376 0.012253 0.000000 0.000000 0.000000
# 4 0.000000 0.000000 0.000000 0.044837 0.000000 0.000000
# 5 0.000000 0.000000 0.000000 0.000000 0.075253 0.000000
# 6 0.000000 0.000000 0.000000 0.000000 0.000000 0.038558
#
#
# Mechanical properties :
#
#
# Convention : Reuss Voigt Hill
#
# Bulk Modulus (GPa) = 28.57946 59.26512 43.92229
# Shear Modulus (GPa) = 17.93746 22.84976 20.39361
#
# Velocity S-wave (km/s) = 3.04935 3.44166 3.25143
# Velocity P-wave (km/s) = 5.21664 6.82024 6.07161
#
# Compressibility (1/GPa) = 0.03499017
#
# Stress axis : x y z
#
# Youngs Moduli (GPa) = 77.84645 21.45305 81.61262
#
# Poissons Ratio (x) = 0.07121 0.46240
# Poissons Ratio (y) = 0.25839 0.76520
# Poissons Ratio (z) = 0.44106 0.20114
#
# Static dielectric constant tensor:
#      x y z
#    x 3.539730 0.000000 0.000000 
#    y 0.000000 3.334670 0.000000 
#    z 0.000000 0.000000 3.680700 
# 
# 
# High freq. dielectric constant tensor:
#      x y z
#    x 1.755700 0.000000 0.000000 
#    y 0.000000 1.735030 0.000000 
#    z 0.000000 0.000000 1.749570 
# 
# From -- ./inp_files/32245.got.cif
#   From: 2010.03.12/outbox.cif.g09.slc.cpg/sg59_17_cif.got.tgz:32245.got - 2010.04.16 16:29:54.
