data_PCOD8243925
_publ_section_title
;
Structure prediction by ZEFSAII (Michael W. Deem and Ramdas Pophale) SiO2 
 PCOD8243925
Probable space group: P M M N
;
_chemical_formula_sum "Si O2"
_cell_formula_units_Z 40
_cell_length_a 9.600248
_cell_length_b 22.814121
_cell_length_c 10.048127
_cell_angle_alpha 90.000000
_cell_angle_beta 90.000000
_cell_angle_gamma 90.000000
_cell_volume 2200.753029
_symmetry_space_group_name_H-M "P M M N"
_symmetry_group_IT_number 59
_space_group.IT_coordinate_system_code '2'
_symmetry_cell_setting 'orthorhombic'
loop_
_space_group_symop_operation_xyz
x,y,z
1/2-x,1/2-y,z
1/2+x,-y,-z
-x,1/2+y,-z
-x,-y,-z
1/2+x,1/2+y,-z
1/2-x,y,z
x,1/2-y,z
loop_
_atom_site_type_symbol
_atom_site_label
_atom_site_fract_x
_atom_site_fract_y
_atom_site_fract_z
Si Si1 0.587289 0.558598 0.777917
Si Si2 0.089216 0.924806 0.271113
Si Si3 0.911035 0.373902 0.010753
Si Si4 0.910900 0.875720 0.510263
Si Si5 0.090669 0.250000 0.390148
Si Si6 0.411348 0.750000 0.873428
O O1 0.750000 0.566851 0.808401
O O2 0.546476 0.491239 0.759361
O O3 0.502939 0.582343 0.902889
O O4 0.541836 0.594317 0.647522
O O5 0.250000 0.920998 0.313007
O O6 0.999803 0.901716 0.392237
O O7 0.056614 0.884897 0.143615
O O8 0.750000 0.387138 0.043327
O O9 0.950862 0.306719 0.039952
O O10 0.750000 0.889503 0.481117
O O11 0.940270 0.806465 0.519527
O O12 0.250000 0.250000 0.339642
O O13 0.995809 0.250000 0.261630
O O14 0.250000 0.750000 0.833986
#
# Coordination Sequence:
#
# PCOD8243925 Si02
#       6
#     8   8   8   8   4   4
#     4  10  20  36  58  82 109 146 187 225 270 324
#     4  10  22  37  54  82 116 146 181 224 273 327
#     4  10  21  36  55  81 111 143 182 228 273 324
#     4  10  21  36  56  81 109 143 183 227 273 322
#     4  10  20  37  58  80 108 140 182 231 272 320
#     4  10  20  35  56  80 106 140 182 223 272 328
#
# _framework density 18.175597
#
# number of rings (size 3 to 8) (size 9 to 14) (size 15 to 20)
#    0.000    2.000    2.000    1.200    0.000    4.000 
#    0.000    1.000    0.000    0.000    0.000    0.000 
#    0.000    0.000    0.000    0.000    0.000    0.000 
#
# Total GULP energy -496183.126181 kJ/mol
# GULP energy per Si atom -12404.578155 kJ/mol
# Density = 1.813423 g / cm^3
# Si number density = 18.175597 Si / 1000 Ang^3
#
#
#
# Elastic Constant Matrix: (Units=GPa)
#
#
# Indices 1 2 3 4 5 6 
#
# 1 44.1747 23.2688 24.1643 0.0000 0.0000 0.0000
# 2 23.2688 86.4608 7.3031 0.0000 0.0000 0.0000
# 3 24.1643 7.3031 42.6625 0.0000 0.0000 0.0000
# 4 0.0000 0.0000 0.0000 0.5421 0.0000 0.0000
# 5 0.0000 0.0000 0.0000 0.0000 33.6297 0.0000
# 6 0.0000 0.0000 0.0000 0.0000 0.0000 13.3452
#
#
#
# Elastic Compliance Matrix: (Units=1/GPa)
#
#
# Indices 1 2 3 4 5 6 
#
# 1 0.038179 -0.008572 -0.020158 0.000000 0.000000 0.000000
# 2 -0.008572 0.013660 0.002517 0.000000 0.000000 0.000000
# 3 -0.020158 0.002517 0.034426 0.000000 0.000000 0.000000
# 4 0.000000 0.000000 0.000000 1.844516 0.000000 0.000000
# 5 0.000000 0.000000 0.000000 0.000000 0.029736 0.000000
# 6 0.000000 0.000000 0.000000 0.000000 0.000000 0.074933
#
#
# Mechanical properties :
#
#
# Convention : Reuss Voigt Hill
#
# Bulk Modulus (GPa) = 29.55067 31.41893 30.48480
# Shear Modulus (GPa) = 2.38191 17.40752 9.89471
#
# Velocity S-wave (km/s) = 1.14601 3.09810 2.33576
# Velocity P-wave (km/s) = 4.24792 5.48830 4.90746
#
# Compressibility (1/GPa) = 0.03384018
#
# Stress axis : x y z
#
# Youngs Moduli (GPa) = 26.19209 73.20435 29.04753
#
# Poissons Ratio (x) = 0.62754 0.58553
# Poissons Ratio (y) = 0.22453 -0.07311
# Poissons Ratio (z) = 0.52797 -0.18426
#
# Static dielectric constant tensor:
#      x y z
#    x 3.315640 0.000000 0.000000 
#    y 0.000000 3.724130 0.000000 
#    z 0.000000 0.000000 3.245210 
# 
# 
# High freq. dielectric constant tensor:
#      x y z
#    x 1.701880 0.000000 0.000000 
#    y 0.000000 1.723100 0.000000 
#    z 0.000000 0.000000 1.701640 
# 
# From -- ./inp_files/5960.got.cif
#   From: 2010.03.12/outbox.cif.g09.slc.cpg/sg59_3_cif.got.tgz:5960.got - 2010.04.16 16:29:54.
