data_PCOD8243845
_publ_section_title
;
Structure prediction by ZEFSAII (Michael W. Deem and Ramdas Pophale) SiO2 
 PCOD8243845
Probable space group: P M M N
;
_chemical_formula_sum "Si O2"
_cell_formula_units_Z 56
_cell_length_a 14.562940
_cell_length_b 8.818369
_cell_length_c 21.198191
_cell_angle_alpha 90.000000
_cell_angle_beta 90.000000
_cell_angle_gamma 90.000000
_cell_volume 2722.300913
_symmetry_space_group_name_H-M "P M M N"
_symmetry_group_IT_number 59
_space_group.IT_coordinate_system_code '2'
_symmetry_cell_setting 'orthorhombic'
loop_
_space_group_symop_operation_xyz
x,y,z
1/2-x,1/2-y,z
1/2+x,-y,-z
-x,1/2+y,-z
-x,-y,-z
1/2+x,1/2+y,-z
1/2-x,y,z
x,1/2-y,z
loop_
_atom_site_type_symbol
_atom_site_label
_atom_site_fract_x
_atom_site_fract_y
_atom_site_fract_z
Si Si1 0.149826 0.914046 0.083734
Si Si2 0.488646 0.073861 0.591009
Si Si3 0.356804 0.572964 0.839489
Si Si4 0.357784 0.074739 0.205749
Si Si5 0.354448 0.070617 0.481623
Si Si6 0.408764 0.070644 0.970210
Si Si7 0.979302 0.573654 0.265664
O O1 0.250000 0.877310 0.109978
O O2 0.096842 0.750000 0.077076
O O3 0.104186 0.020826 0.136834
O O4 0.165872 0.999358 0.017283
O O5 0.508475 0.250000 0.580292
O O6 0.405883 0.017514 0.545793
O O7 0.455047 0.040495 0.661773
O O8 0.584857 0.989305 0.576858
O O9 0.250000 0.535537 0.829805
O O10 0.373331 0.750000 0.851762
O O11 0.394522 0.480117 0.898936
O O12 0.409732 0.522188 0.776930
O O13 0.250000 0.047015 0.217082
O O14 0.382902 0.250000 0.212016
O O15 0.415277 0.978936 0.256277
O O16 0.250000 0.004841 0.480017
O O17 0.349821 0.250000 0.477148
O O18 0.405922 0.250000 0.974082
O O19 0.500000 0.000000 0.000000
O O20 0.969674 0.750000 0.248683
#
# Coordination Sequence:
#
# PCOD8243845 Si02
#       7
#     8   8   8   8   8   8   8
#     4  10  20  35  55  78 105 136 174 225 284 342
#     4   9  20  37  57  85 119 154 192 235 283 338
#     4  11  25  44  63  85 117 156 200 250 300 352
#     4  10  21  37  57  82 114 153 197 245 299 359
#     4   9  18  35  60  88 118 152 190 234 283 335
#     4  12  24  38  58  82 110 144 186 237 293 352
#     4  11  23  39  60  85 117 157 198 241 290 347
#
# _framework density 20.570834000000001
#
# number of rings (size 3 to 8) (size 9 to 14) (size 15 to 20)
#    0.000    1.714    0.000    4.286    0.000    7.143 
#    0.000    4.286    0.000    0.000    0.000    0.000 
#    0.000    0.000    0.000    0.000    0.000    0.000 
#
# Total GULP energy -694128.624935 kJ/mol
# GULP energy per Si atom -12395.154017 kJ/mol
# Density = 2.052401 g / cm^3
# Si number density = 20.570834 Si / 1000 Ang^3
#
#
#
# Elastic Constant Matrix: (Units=GPa)
#
#
# Indices 1 2 3 4 5 6 
#
# 1 107.2603 32.6743 28.9886 0.0000 0.0000 0.0000
# 2 32.6743 102.4100 37.1379 0.0000 0.0000 0.0000
# 3 28.9886 37.1379 95.8038 0.0000 0.0000 0.0000
# 4 0.0000 0.0000 0.0000 33.3938 0.0000 0.0000
# 5 0.0000 0.0000 0.0000 0.0000 23.3960 0.0000
# 6 0.0000 0.0000 0.0000 0.0000 0.0000 27.5017
#
#
#
# Elastic Compliance Matrix: (Units=1/GPa)
#
#
# Indices 1 2 3 4 5 6 
#
# 1 0.010722 -0.002611 -0.002232 0.000000 0.000000 0.000000
# 2 -0.002611 0.011998 -0.003861 0.000000 0.000000 0.000000
# 3 -0.002232 -0.003861 0.012610 0.000000 0.000000 0.000000
# 4 0.000000 0.000000 0.000000 0.029946 0.000000 0.000000
# 5 0.000000 0.000000 0.000000 0.000000 0.042742 0.000000
# 6 0.000000 0.000000 0.000000 0.000000 0.000000 0.036361
#
#
# Mechanical properties :
#
#
# Convention : Reuss Voigt Hill
#
# Bulk Modulus (GPa) = 55.79912 55.89730 55.84821
# Shear Modulus (GPa) = 29.80427 30.63653 30.22040
#
# Velocity S-wave (km/s) = 3.81052 3.86336 3.83703
# Velocity P-wave (km/s) = 6.82234 6.86533 6.84387
#
# Compressibility (1/GPa) = 0.01792143
#
# Stress axis : x y z
#
# Youngs Moduli (GPa) = 93.26759 83.34776 79.30250
#
# Poissons Ratio (x) = 0.21766 0.17700
# Poissons Ratio (y) = 0.24356 0.30617
# Poissons Ratio (z) = 0.20817 0.32179
#
# Static dielectric constant tensor:
#      x y z
#    x 3.804140 0.000000 0.000000 
#    y 0.000000 3.508710 0.000000 
#    z 0.000000 0.000000 3.357240 
# 
# 
# High freq. dielectric constant tensor:
#      x y z
#    x 1.810620 0.000000 0.000000 
#    y 0.000000 1.812200 0.000000 
#    z 0.000000 0.000000 1.798510 
# 
# From -- ./inp_files/30400.got.cif
#   From: 2010.03.12/outbox.cif.g09.slc.cpg/sg59_16_cif.got.tgz:30400.got - 2010.04.16 16:29:54.
