data_PCOD8243203
_publ_section_title
;
Structure prediction by ZEFSAII (Michael W. Deem and Ramdas Pophale) SiO2 
 PCOD8243203
Probable space group: P M M N
;
_chemical_formula_sum "Si O2"
_cell_formula_units_Z 56
_cell_length_a 21.816613
_cell_length_b 8.915474
_cell_length_c 14.731609
_cell_angle_alpha 90.000000
_cell_angle_beta 90.000000
_cell_angle_gamma 90.000000
_cell_volume 2865.378178
_symmetry_space_group_name_H-M "P M M N"
_symmetry_group_IT_number 59
_space_group.IT_coordinate_system_code '2'
_symmetry_cell_setting 'orthorhombic'
loop_
_space_group_symop_operation_xyz
x,y,z
1/2-x,1/2-y,z
1/2+x,-y,-z
-x,1/2+y,-z
-x,-y,-z
1/2+x,1/2+y,-z
1/2-x,y,z
x,1/2-y,z
loop_
_atom_site_type_symbol
_atom_site_label
_atom_site_fract_x
_atom_site_fract_y
_atom_site_fract_z
Si Si1 0.873793 0.924025 0.459407
Si Si2 0.181724 0.926919 0.229101
Si Si3 0.320508 0.574479 0.024067
Si Si4 0.944571 0.427885 0.295216
Si Si5 0.250000 0.573280 0.561777
Si Si6 0.126741 0.076664 0.857528
Si Si7 0.750000 0.920232 0.250446
Si Si8 0.420727 0.077502 0.346934
O O1 0.862855 0.750000 0.437087
O O2 0.918764 0.946858 0.544618
O O3 0.900944 0.999764 0.370223
O O4 0.809500 0.001098 0.485013
O O5 0.250000 0.989271 0.251193
O O6 0.182635 0.750000 0.237638
O O7 0.133641 0.989131 0.300011
O O8 0.162934 0.972472 0.126825
O O9 0.250000 0.531293 0.003453
O O10 0.330702 0.750000 0.007916
O O11 0.367062 0.484031 0.959773
O O12 0.938071 0.250000 0.301894
O O13 0.925631 0.485343 0.195759
O O14 0.013907 0.482046 0.312523
O O15 0.250000 0.750000 0.545140
O O16 0.250000 0.538036 0.668441
O O17 0.107858 0.250000 0.859922
O O18 0.191155 0.048032 0.809677
O O19 0.750000 0.750000 0.288408
O O20 0.411890 0.250000 0.321373
#
# Coordination Sequence:
#
# PCOD8243203 Si02
#       8
#     8   8   8   8   4   8   4   8
#     4  11  23  40  60  84 118 154 192 239 292 341
#     4   9  20  39  62  89 117 147 189 242 292 343
#     4   9  18  34  57  85 118 151 186 234 291 343
#     4  11  23  40  59  84 116 153 198 239 283 344
#     4  12  24  36  56  87 118 153 192 235 288 340
#     4  11  21  34  56  86 118 153 191 232 287 345
#     4  10  20  34  52  79 120 153 186 237 286 338
#     4  10  24  42  61  84 113 152 196 242 289 341
#
# _framework density 19.543669000000001
#
# number of rings (size 3 to 8) (size 9 to 14) (size 15 to 20)
#    0.000    1.714    2.143    3.214    1.000    3.714 
#    0.000    2.143    0.000    0.000    0.000    0.000 
#    0.000    0.000    0.000    0.000    0.000    0.000 
#
# Total GULP energy -694567.787859 kJ/mol
# GULP energy per Si atom -12402.996212 kJ/mol
# Density = 1.949919 g / cm^3
# Si number density = 19.543669 Si / 1000 Ang^3
#
#
#
# Elastic Constant Matrix: (Units=GPa)
#
#
# Indices 1 2 3 4 5 6 
#
# 1 92.2029 31.4185 22.8968 0.0000 0.0000 0.0000
# 2 31.4185 81.3358 24.0998 0.0000 0.0000 0.0000
# 3 22.8968 24.0998 71.1677 0.0000 0.0000 0.0000
# 4 0.0000 0.0000 0.0000 34.6417 0.0000 0.0000
# 5 0.0000 0.0000 0.0000 0.0000 24.3939 0.0000
# 6 0.0000 0.0000 0.0000 0.0000 0.0000 25.4246
#
#
#
# Elastic Compliance Matrix: (Units=1/GPa)
#
#
# Indices 1 2 3 4 5 6 
#
# 1 0.012956 -0.004190 -0.002750 0.000000 0.000000 0.000000
# 2 -0.004190 0.015021 -0.003739 0.000000 0.000000 0.000000
# 3 -0.002750 -0.003739 0.016202 0.000000 0.000000 0.000000
# 4 0.000000 0.000000 0.000000 0.028867 0.000000 0.000000
# 5 0.000000 0.000000 0.000000 0.000000 0.040994 0.000000
# 6 0.000000 0.000000 0.000000 0.000000 0.000000 0.039332
#
#
# Mechanical properties :
#
#
# Convention : Reuss Voigt Hill
#
# Bulk Modulus (GPa) = 43.81568 44.61518 44.21543
# Shear Modulus (GPa) = 27.42194 27.97812 27.70003
#
# Velocity S-wave (km/s) = 3.74988 3.78771 3.76884
# Velocity P-wave (km/s) = 6.42003 6.48128 6.45073
#
# Compressibility (1/GPa) = 0.02282288
#
# Stress axis : x y z
#
# Youngs Moduli (GPa) = 77.18308 66.57359 61.72105
#
# Poissons Ratio (x) = 0.27895 0.16970
# Poissons Ratio (y) = 0.32340 0.23075
# Poissons Ratio (z) = 0.21222 0.24889
#
# Static dielectric constant tensor:
#      x y z
#    x 3.685490 0.000000 0.000000 
#    y 0.000000 3.493890 0.000000 
#    z 0.000000 0.000000 3.588830 
# 
# 
# High freq. dielectric constant tensor:
#      x y z
#    x 1.754460 0.000000 0.000000 
#    y 0.000000 1.760910 0.000000 
#    z 0.000000 0.000000 1.764220 
# 
# From -- ./inp_files/24361.got.cif
#   From: 2010.03.12/outbox.cif.g09.slc.cpg/sg59_13_cif.got.tgz:24361.got - 2010.04.16 16:29:54.
