data_PCOD8243658
_publ_section_title
;
Structure prediction by ZEFSAII (Michael W. Deem and Ramdas Pophale) SiO2 
 PCOD8243658
Probable space group: P M M N
;
_chemical_formula_sum "Si O2"
_cell_formula_units_Z 48
_cell_length_a 9.198822
_cell_length_b 7.805104
_cell_length_c 34.327474
_cell_angle_alpha 90.000000
_cell_angle_beta 90.000000
_cell_angle_gamma 90.000000
_cell_volume 2464.635822
_symmetry_space_group_name_H-M "P M M N"
_symmetry_group_IT_number 59
_space_group.IT_coordinate_system_code '2'
_symmetry_cell_setting 'orthorhombic'
loop_
_space_group_symop_operation_xyz
x,y,z
1/2-x,1/2-y,z
1/2+x,-y,-z
-x,1/2+y,-z
-x,-y,-z
1/2+x,1/2+y,-z
1/2-x,y,z
x,1/2-y,z
loop_
_atom_site_type_symbol
_atom_site_label
_atom_site_fract_x
_atom_site_fract_y
_atom_site_fract_z
Si Si1 0.080486 0.445306 0.038778
Si Si2 0.577040 0.442276 0.230511
Si Si3 0.579938 0.250000 0.904191
Si Si4 0.415423 0.950732 0.538609
Si Si5 0.576631 0.750000 0.177265
Si Si6 0.911225 0.054451 0.613104
Si Si7 0.592375 0.053286 0.315063
O O1 0.250000 0.460723 0.029814
O O2 0.038821 0.250000 0.050948
O O3 0.035743 0.577755 0.072588
O O4 0.000000 0.500000 0.000000
O O5 0.750000 0.436252 0.229525
O O6 0.514901 0.250000 0.221601
O O7 0.518475 0.578926 0.199104
O O8 0.529746 0.513476 0.273587
O O9 0.750000 0.250000 0.894135
O O10 0.487169 0.250000 0.865452
O O11 0.250000 0.016897 0.535173
O O12 0.419738 0.750000 0.545535
O O13 0.500000 0.000000 0.500000
O O14 0.491081 0.039284 0.574962
O O15 0.750000 0.750000 0.175152
O O16 0.750000 0.977971 0.605028
O O17 0.899076 0.250000 0.624868
O O18 0.980260 0.962106 0.649894
O O19 0.750000 0.966915 0.325497
O O20 0.622336 0.250000 0.307421
#
# Coordination Sequence:
#
# PCOD8243658 Si02
#       7
#     8   8   4   8   4   8   8
#     4  10  20  35  57  82 110 146 188 233 285 342
#     4   8  16  32  54  81 111 140 181 237 285 330
#     4  10  22  38  52  78 118 152 182 232 290 338
#     4  11  24  41  61  84 109 140 180 222 266 321
#     4  10  20  34  56  82 108 148 196 234 278 338
#     4  11  24  38  53  80 115 146 180 222 266 321
#     4   9  18  34  57  83 108 138 179 227 278 328
#
# _framework density 19.475494000000001
#
# number of rings (size 3 to 8) (size 9 to 14) (size 15 to 20)
#    0.000    2.167    0.833    3.000    1.167    8.333 
#    0.000    0.833    0.000    1.000    0.000    0.000 
#    0.000    0.000    0.000    0.000    0.000    0.000 
#
# Total GULP energy -594984.629702 kJ/mol
# GULP energy per Si atom -12395.513119 kJ/mol
# Density = 1.943117 g / cm^3
# Si number density = 19.475494 Si / 1000 Ang^3
#
#
#
# Elastic Constant Matrix: (Units=GPa)
#
#
# Indices 1 2 3 4 5 6 
#
# 1 83.3432 25.6349 52.9829 0.0000 0.0000 0.0000
# 2 25.6349 102.6888 55.8609 0.0000 0.0000 0.0000
# 3 52.9829 55.8609 157.4599 0.0000 0.0000 0.0000
# 4 0.0000 0.0000 0.0000 35.7160 0.0000 0.0000
# 5 0.0000 0.0000 0.0000 0.0000 33.4178 0.0000
# 6 0.0000 0.0000 0.0000 0.0000 0.0000 21.2024
#
#
#
# Elastic Compliance Matrix: (Units=1/GPa)
#
#
# Indices 1 2 3 4 5 6 
#
# 1 0.015396 -0.001271 -0.004730 0.000000 0.000000 0.000000
# 2 -0.001271 0.012172 -0.003891 0.000000 0.000000 0.000000
# 3 -0.004730 -0.003891 0.009323 0.000000 0.000000 0.000000
# 4 0.000000 0.000000 0.000000 0.027999 0.000000 0.000000
# 5 0.000000 0.000000 0.000000 0.000000 0.029924 0.000000
# 6 0.000000 0.000000 0.000000 0.000000 0.000000 0.047165
#
#
# Mechanical properties :
#
#
# Convention : Reuss Voigt Hill
#
# Bulk Modulus (GPa) = 58.44994 68.04992 63.24993
# Shear Modulus (GPa) = 29.85738 32.00144 30.92941
#
# Velocity S-wave (km/s) = 3.91970 4.05799 3.98944
# Velocity P-wave (km/s) = 7.11074 7.54808 7.33267
#
# Compressibility (1/GPa) = 0.01710866
#
# Stress axis : x y z
#
# Youngs Moduli (GPa) = 64.95091 82.15754 107.26635
#
# Poissons Ratio (x) = 0.10438 0.50736
# Poissons Ratio (y) = 0.08252 0.41733
# Poissons Ratio (z) = 0.30721 0.31964
#
# Static dielectric constant tensor:
#      x y z
#    x 3.510990 0.000000 0.000000 
#    y 0.000000 3.771370 0.000000 
#    z 0.000000 0.000000 3.556330 
# 
# 
# High freq. dielectric constant tensor:
#      x y z
#    x 1.738700 0.000000 0.000000 
#    y 0.000000 1.768120 0.000000 
#    z 0.000000 0.000000 1.759200 
# 
# From -- ./inp_files/33031.got.cif
#   From: 2010.03.12/outbox.cif.g09.slc.cpg/sg59_17_cif.got.tgz:33031.got - 2010.04.16 16:29:54.
