data_PCOD8243037
_publ_section_title
;
Structure prediction by ZEFSAII (Michael W. Deem and Ramdas Pophale) SiO2 
 PCOD8243037
Probable space group: P M M N
;
_chemical_formula_sum "Si O2"
_cell_formula_units_Z 40
_cell_length_a 9.254600
_cell_length_b 14.437898
_cell_length_c 15.773015
_cell_angle_alpha 90.000000
_cell_angle_beta 90.000000
_cell_angle_gamma 90.000000
_cell_volume 2107.542485
_symmetry_space_group_name_H-M "P M M N"
_symmetry_group_IT_number 59
_space_group.IT_coordinate_system_code '2'
_symmetry_cell_setting 'orthorhombic'
loop_
_space_group_symop_operation_xyz
x,y,z
1/2-x,1/2-y,z
1/2+x,-y,-z
-x,1/2+y,-z
-x,-y,-z
1/2+x,1/2+y,-z
1/2-x,y,z
x,1/2-y,z
loop_
_atom_site_type_symbol
_atom_site_label
_atom_site_fract_x
_atom_site_fract_y
_atom_site_fract_z
Si Si1 0.087518 0.651004 0.886081
Si Si2 0.916451 0.971045 0.208395
Si Si3 0.080917 0.963885 0.377415
Si Si4 0.582764 0.909491 0.029192
Si Si5 0.417937 0.143272 0.479849
O O1 0.250000 0.621993 0.913403
O O2 0.086357 0.750000 0.837940
O O3 0.028803 0.572120 0.823245
O O4 0.992715 0.668131 0.971521
O O5 0.750000 0.974939 0.238566
O O6 0.935330 0.897279 0.131019
O O7 0.016336 0.941609 0.285646
O O8 0.250000 0.944404 0.375473
O O9 0.011119 0.889301 0.440359
O O10 0.047727 0.071042 0.403462
O O11 0.750000 0.914970 0.005105
O O12 0.500000 0.000000 0.000000
O O13 0.250000 0.136535 0.504950
O O14 0.457787 0.250000 0.454726
#
# Coordination Sequence:
#
# PCOD8243037 Si02
#       5
#     8   8   8   8   8
#     4   9  18  32  49  71 100 132 167 208 252 297
#     4   9  18  32  49  70  99 134 166 198 245 302
#     4  10  20  33  53  81 106 130 168 214 255 300
#     4   9  17  30  48  68  92 126 165 200 238 287
#     4   9  19  37  57  75 101 136 168 203 254 312
#
# _framework density 18.979451000000001
#
# number of rings (size 3 to 8) (size 9 to 14) (size 15 to 20)
#    0.000    2.800    0.000    2.400    0.000    6.400 
#    0.000    1.000    0.000    1.200    0.000    0.000 
#    0.000    0.000    0.000    0.000    0.000    0.000 
#
# Total GULP energy -495542.031321 kJ/mol
# GULP energy per Si atom -12388.550783 kJ/mol
# Density = 1.893625 g / cm^3
# Si number density = 18.979451 Si / 1000 Ang^3
#
#
#
# Elastic Constant Matrix: (Units=GPa)
#
#
# Indices 1 2 3 4 5 6 
#
# 1 78.9652 4.5111 38.8261 0.0000 0.0000 0.0000
# 2 4.5111 46.6416 -10.0983 0.0000 0.0000 0.0000
# 3 38.8261 -10.0983 78.2446 0.0000 0.0000 0.0000
# 4 0.0000 0.0000 0.0000 14.4148 0.0000 0.0000
# 5 0.0000 0.0000 0.0000 0.0000 32.5338 0.0000
# 6 0.0000 0.0000 0.0000 0.0000 0.0000 20.4762
#
#
#
# Elastic Compliance Matrix: (Units=1/GPa)
#
#
# Indices 1 2 3 4 5 6 
#
# 1 0.017331 -0.003640 -0.009070 0.000000 0.000000 0.000000
# 2 -0.003640 0.022821 0.004751 0.000000 0.000000 0.000000
# 3 -0.009070 0.004751 0.017894 0.000000 0.000000 0.000000
# 4 0.000000 0.000000 0.000000 0.069373 0.000000 0.000000
# 5 0.000000 0.000000 0.000000 0.000000 0.030737 0.000000
# 6 0.000000 0.000000 0.000000 0.000000 0.000000 0.048837
#
#
# Mechanical properties :
#
#
# Convention : Reuss Voigt Hill
#
# Bulk Modulus (GPa) = 23.73614 30.03657 26.88635
# Shear Modulus (GPa) = 21.10116 24.85912 22.98014
#
# Velocity S-wave (km/s) = 3.33797 3.62303 3.48342
# Velocity P-wave (km/s) = 5.23349 5.77598 5.51142
#
# Compressibility (1/GPa) = 0.04212986
#
# Stress axis : x y z
#
# Youngs Moduli (GPa) = 57.69923 43.81952 55.88389
#
# Poissons Ratio (x) = 0.15950 0.50686
# Poissons Ratio (y) = 0.21002 -0.26553
# Poissons Ratio (z) = 0.52332 -0.20821
#
# Static dielectric constant tensor:
#      x y z
#    x 3.749280 0.000000 0.000000 
#    y 0.000000 3.270350 0.000000 
#    z 0.000000 0.000000 4.271050 
# 
# 
# High freq. dielectric constant tensor:
#      x y z
#    x 1.740900 0.000000 0.000000 
#    y 0.000000 1.727360 0.000000 
#    z 0.000000 0.000000 1.720940 
# 
# From -- ./inp_files/19873.got.cif
#   From: 2010.03.12/outbox.cif.g09.slc.cpg/sg59_10_cif.got.tgz:19873.got - 2010.04.16 16:29:54.
