data_PCOD8243787
_publ_section_title
;
Structure prediction by ZEFSAII (Michael W. Deem and Ramdas Pophale) SiO2 
 PCOD8243787
Probable space group: P M M N
;
_chemical_formula_sum "Si O2"
_cell_formula_units_Z 64
_cell_length_a 9.353428
_cell_length_b 19.191091
_cell_length_c 19.917663
_cell_angle_alpha 90.000000
_cell_angle_beta 90.000000
_cell_angle_gamma 90.000000
_cell_volume 3575.270062
_symmetry_space_group_name_H-M "P M M N"
_symmetry_group_IT_number 59
_space_group.IT_coordinate_system_code '2'
_symmetry_cell_setting 'orthorhombic'
loop_
_space_group_symop_operation_xyz
x,y,z
1/2-x,1/2-y,z
1/2+x,-y,-z
-x,1/2+y,-z
-x,-y,-z
1/2+x,1/2+y,-z
1/2-x,y,z
x,1/2-y,z
loop_
_atom_site_type_symbol
_atom_site_label
_atom_site_fract_x
_atom_site_fract_y
_atom_site_fract_z
Si Si1 0.585654 0.170278 0.662032
Si Si2 0.416615 0.445261 0.259987
Si Si3 0.584460 0.669550 0.102238
Si Si4 0.411397 0.832846 0.974146
Si Si5 0.412851 0.904627 0.468935
Si Si6 0.914547 0.829703 0.846570
Si Si7 0.081223 0.418538 0.767258
Si Si8 0.084309 0.054350 0.411867
O O1 0.750000 0.150589 0.679344
O O2 0.552403 0.250000 0.679323
O O3 0.558320 0.158306 0.582740
O O4 0.480148 0.121891 0.703498
O O5 0.250000 0.466997 0.258553
O O6 0.446063 0.374616 0.219445
O O7 0.508615 0.506292 0.226307
O O8 0.467792 0.431456 0.336115
O O9 0.750000 0.661017 0.083254
O O10 0.547561 0.750000 0.117916
O O11 0.541911 0.624818 0.166647
O O12 0.492534 0.639896 0.040235
O O13 0.250000 0.861921 0.974443
O O14 0.414726 0.750000 0.974262
O O15 0.491135 0.859957 0.907612
O O16 0.250000 0.907221 0.492682
O O17 0.505023 0.894103 0.536280
O O18 0.455134 0.975101 0.429737
O O19 0.750000 0.835459 0.868930
O O20 0.955336 0.750000 0.829484
O O21 0.250000 0.427150 0.757986
O O22 0.250000 0.070518 0.419233
#
# Coordination Sequence:
#
# PCOD8243787 Si02
#       8
#     8   8   8   8   8   8   8   8
#     4  10  20  35  54  75 105 144 179 214 260 313
#     4  10  20  36  55  76 105 138 174 214 259 316
#     4   9  18  33  51  72 102 138 173 211 254 301
#     4   9  17  30  51  78 104 131 168 213 256 305
#     4   9  17  31  50  73  99 129 170 212 250 299
#     4   9  18  34  57  80 101 131 169 211 263 319
#     4  11  22  34  51  77 108 139 176 219 262 307
#     4   9  17  31  51  73  99 130 166 210 253 297
#
# _framework density 17.900746000000002
#
# number of rings (size 3 to 8) (size 9 to 14) (size 15 to 20)
#    0.000    2.500    1.250    1.125    0.000    4.750 
#    0.000    2.500    0.000    0.750    0.000    0.000 
#    0.000    0.000    0.000    0.000    0.000    0.000 
#
# Total GULP energy -793673.038316 kJ/mol
# GULP energy per Si atom -12401.141224 kJ/mol
# Density = 1.786000 g / cm^3
# Si number density = 17.900746 Si / 1000 Ang^3
#
#
#
# Elastic Constant Matrix: (Units=GPa)
#
#
# Indices 1 2 3 4 5 6 
#
# 1 80.5408 38.7876 65.9917 0.0000 0.0000 0.0000
# 2 38.7876 66.7940 46.9547 0.0000 0.0000 0.0000
# 3 65.9917 46.9547 140.5742 0.0000 0.0000 0.0000
# 4 0.0000 0.0000 0.0000 25.4842 0.0000 0.0000
# 5 0.0000 0.0000 0.0000 0.0000 31.7542 0.0000
# 6 0.0000 0.0000 0.0000 0.0000 0.0000 20.5664
#
#
#
# Elastic Compliance Matrix: (Units=1/GPa)
#
#
# Indices 1 2 3 4 5 6 
#
# 1 0.022688 -0.007433 -0.008168 0.000000 0.000000 0.000000
# 2 -0.007433 0.022001 -0.003859 0.000000 0.000000 0.000000
# 3 -0.008168 -0.003859 0.012237 0.000000 0.000000 0.000000
# 4 0.000000 0.000000 0.000000 0.039240 0.000000 0.000000
# 5 0.000000 0.000000 0.000000 0.000000 0.031492 0.000000
# 6 0.000000 0.000000 0.000000 0.000000 0.000000 0.048623
#
#
# Mechanical properties :
#
#
# Convention : Reuss Voigt Hill
#
# Bulk Modulus (GPa) = 55.53918 65.70857 60.62388
# Shear Modulus (GPa) = 22.60352 24.63930 23.62141
#
# Velocity S-wave (km/s) = 3.55732 3.71407 3.63654
# Velocity P-wave (km/s) = 6.92577 7.42827 7.18142
#
# Compressibility (1/GPa) = 0.01800531
#
# Stress axis : x y z
#
# Youngs Moduli (GPa) = 44.07531 45.45263 81.71803
#
# Poissons Ratio (x) = 0.33786 0.66748
# Poissons Ratio (y) = 0.32763 0.31537
# Poissons Ratio (z) = 0.36001 0.17541
#
# Static dielectric constant tensor:
#      x y z
#    x 3.361060 0.000000 0.000000 
#    y 0.000000 3.110680 0.000000 
#    z 0.000000 0.000000 3.402270 
# 
# 
# High freq. dielectric constant tensor:
#      x y z
#    x 1.692070 0.000000 0.000000 
#    y 0.000000 1.664230 0.000000 
#    z 0.000000 0.000000 1.699660 
# 
# From -- ./inp_files/29610.got.cif
#   From: 2010.03.12/outbox.cif.g09.slc.cpg/sg59_15_cif.got.tgz:29610.got - 2010.04.16 16:29:54.
