data_PCOD8243972
_publ_section_title
;
Structure prediction by ZEFSAII (Michael W. Deem and Ramdas Pophale) SiO2 
 PCOD8243972
Probable space group: P M M N
;
_chemical_formula_sum "Si O2"
_cell_formula_units_Z 48
_cell_length_a 17.959328
_cell_length_b 8.992261
_cell_length_c 15.764155
_cell_angle_alpha 90.000000
_cell_angle_beta 90.000000
_cell_angle_gamma 90.000000
_cell_volume 2545.831656
_symmetry_space_group_name_H-M "P M M N"
_symmetry_group_IT_number 59
_space_group.IT_coordinate_system_code '2'
_symmetry_cell_setting 'orthorhombic'
loop_
_space_group_symop_operation_xyz
x,y,z
1/2-x,1/2-y,z
1/2+x,-y,-z
-x,1/2+y,-z
-x,-y,-z
1/2+x,1/2+y,-z
1/2-x,y,z
x,1/2-y,z
loop_
_atom_site_type_symbol
_atom_site_label
_atom_site_fract_x
_atom_site_fract_y
_atom_site_fract_z
Si Si1 0.382666 0.925890 0.382232
Si Si2 0.250000 0.425099 0.282407
Si Si3 0.750000 0.416267 0.888705
Si Si4 0.476021 0.575536 0.864737
Si Si5 0.095059 0.580784 0.037990
Si Si6 0.457970 0.077106 0.690598
Si Si7 0.163535 0.422298 0.552301
O O1 0.371721 0.750000 0.374851
O O2 0.466001 0.975084 0.355713
O O3 0.324212 0.005806 0.321501
O O4 0.367627 0.975433 0.477830
O O5 0.250000 0.250000 0.299355
O O6 0.250000 0.459317 0.183131
O O7 0.750000 0.250000 0.847470
O O8 0.682207 0.437649 0.952172
O O9 0.478493 0.750000 0.851868
O O10 0.558124 0.516333 0.887323
O O11 0.445331 0.506301 0.778661
O O12 0.424115 0.524782 0.943411
O O13 0.067657 0.750000 0.049849
O O14 0.463306 0.250000 0.710821
O O15 0.385954 0.039277 0.634098
O O16 0.250000 0.459270 0.571487
O O17 0.154145 0.250000 0.526154
#
# Coordination Sequence:
#
# PCOD8243972 Si02
#       7
#     8   4   4   8   8   8   8
#     4  11  22  37  58  83 112 147 189 230 277 333
#     4  12  24  36  54  83 118 147 180 233 286 333
#     4  10  20  36  56  79 108 143 182 223 274 333
#     4  10  20  35  56  83 110 143 186 230 273 324
#     4   9  19  36  57  79 109 146 181 226 281 330
#     4  10  22  38  57  83 114 150 188 228 275 333
#     4  10  21  39  60  82 113 150 186 229 282 329
#
# _framework density 18.854351000000001
#
# number of rings (size 3 to 8) (size 9 to 14) (size 15 to 20)
#    0.000    1.833    0.833    3.250    0.000    7.333 
#    1.500    0.000    0.000    0.000    0.000    0.000 
#    0.000    0.000    0.000    0.000    0.000    0.000 
#
# Total GULP energy -595305.372300 kJ/mol
# GULP energy per Si atom -12402.195256 kJ/mol
# Density = 1.881144 g / cm^3
# Si number density = 18.854351 Si / 1000 Ang^3
#
#
#
# Elastic Constant Matrix: (Units=GPa)
#
#
# Indices 1 2 3 4 5 6 
#
# 1 115.7500 41.7250 66.0461 0.0000 0.0000 0.0000
# 2 41.7250 70.2932 51.4850 0.0000 0.0000 0.0000
# 3 66.0461 51.4850 119.4308 0.0000 0.0000 0.0000
# 4 0.0000 0.0000 0.0000 38.0666 0.0000 0.0000
# 5 0.0000 0.0000 0.0000 0.0000 23.9462 0.0000
# 6 0.0000 0.0000 0.0000 0.0000 0.0000 19.7040
#
#
#
# Elastic Compliance Matrix: (Units=1/GPa)
#
#
# Indices 1 2 3 4 5 6 
#
# 1 0.013232 -0.003646 -0.005746 0.000000 0.000000 0.000000
# 2 -0.003646 0.021795 -0.007379 0.000000 0.000000 0.000000
# 3 -0.005746 -0.007379 0.014732 0.000000 0.000000 0.000000
# 4 0.000000 0.000000 0.000000 0.026270 0.000000 0.000000
# 5 0.000000 0.000000 0.000000 0.000000 0.041760 0.000000
# 6 0.000000 0.000000 0.000000 0.000000 0.000000 0.050751
#
#
# Mechanical properties :
#
#
# Convention : Reuss Voigt Hill
#
# Bulk Modulus (GPa) = 61.66455 69.33179 65.49817
# Shear Modulus (GPa) = 24.09783 26.09123 25.09453
#
# Velocity S-wave (km/s) = 3.57894 3.72402 3.65220
# Velocity P-wave (km/s) = 7.06082 7.43931 7.25253
#
# Compressibility (1/GPa) = 0.01621677
#
# Stress axis : x y z
#
# Youngs Moduli (GPa) = 75.57411 45.88164 67.88142
#
# Poissons Ratio (x) = 0.16729 0.39002
# Poissons Ratio (y) = 0.27555 0.50092
# Poissons Ratio (z) = 0.43422 0.33858
#
# Static dielectric constant tensor:
#      x y z
#    x 3.604790 0.000000 0.000000 
#    y 0.000000 3.532350 0.000000 
#    z 0.000000 0.000000 3.454670 
# 
# 
# High freq. dielectric constant tensor:
#      x y z
#    x 1.737620 0.000000 0.000000 
#    y 0.000000 1.732750 0.000000 
#    z 0.000000 0.000000 1.735320 
# 
# From -- ./inp_files/23695.got.cif
#   From: 2010.03.12/outbox.cif.g09.slc.cpg/sg59_12_cif.got.tgz:23695.got - 2010.04.16 16:29:54.
