data_PCOD8243950
_publ_section_title
;
Structure prediction by ZEFSAII (Michael W. Deem and Ramdas Pophale) SiO2 
 PCOD8243950
Probable space group: P M M N
;
_chemical_formula_sum "Si O2"
_cell_formula_units_Z 64
_cell_length_a 8.885652
_cell_length_b 22.942797
_cell_length_c 16.124932
_cell_angle_alpha 90.000000
_cell_angle_beta 90.000000
_cell_angle_gamma 90.000000
_cell_volume 3287.256212
_symmetry_space_group_name_H-M "P M M N"
_symmetry_group_IT_number 59
_space_group.IT_coordinate_system_code '2'
_symmetry_cell_setting 'orthorhombic'
loop_
_space_group_symop_operation_xyz
x,y,z
1/2-x,1/2-y,z
1/2+x,-y,-z
-x,1/2+y,-z
-x,-y,-z
1/2+x,1/2+y,-z
1/2-x,y,z
x,1/2-y,z
loop_
_atom_site_type_symbol
_atom_site_label
_atom_site_fract_x
_atom_site_fract_y
_atom_site_fract_z
Si Si1 0.574522 0.534913 0.894376
Si Si2 0.924315 0.316667 0.339839
Si Si3 0.082812 0.182121 0.506207
Si Si4 0.575308 0.920969 0.716373
Si Si5 0.927274 0.091233 0.956409
Si Si6 0.570908 0.818152 0.163805
Si Si7 0.071914 0.121196 0.668753
Si Si8 0.572531 0.998649 0.409495
O O1 0.750000 0.544104 0.913248
O O2 0.531712 0.546215 0.799893
O O3 0.525275 0.468155 0.909163
O O4 0.484069 0.581803 0.949641
O O5 0.750000 0.330056 0.327015
O O6 0.964086 0.250000 0.321850
O O7 0.970287 0.334797 0.432948
O O8 0.024323 0.353642 0.275209
O O9 0.250000 0.154965 0.489325
O O10 0.099476 0.250000 0.516108
O O11 0.012475 0.158840 0.591492
O O12 0.750000 0.926604 0.696254
O O13 0.479133 0.944602 0.639528
O O14 0.750000 0.101672 0.955758
O O15 0.004562 0.147774 0.915525
O O16 0.750000 0.821691 0.159730
O O17 0.519504 0.750000 0.163489
O O18 0.506380 0.851485 0.245862
O O19 0.250000 0.125383 0.674929
O O20 0.018482 0.055451 0.648581
O O21 0.750000 0.997520 0.421876
O O22 0.500000 0.000000 0.500000
#
# Coordination Sequence:
#
# PCOD8243950 Si02
#       8
#     8   8   8   8   8   8   8   8
#     4   9  20  38  60  85 110 140 179 223 272 328
#     4  10  21  36  53  75 104 136 172 216 266 318
#     4   9  16  29  51  75 100 135 181 227 266 308
#     4  11  22  37  57  80 107 138 177 222 268 322
#     4  10  20  36  59  85 112 140 174 220 273 328
#     4  10  20  35  56  81 112 150 189 229 275 332
#     4   9  18  32  51  76 105 142 188 230 268 317
#     4  11  22  35  53  79 114 153 191 234 283 332
#
# _framework density 19.469125999999999
#
# number of rings (size 3 to 8) (size 9 to 14) (size 15 to 20)
#    0.000    2.125    0.000    3.375    0.000    5.000 
#    0.000    2.500    0.000    2.250    0.000    0.000 
#    0.000    0.000    0.000    0.000    0.000    0.000 
#
# Total GULP energy -793469.771718 kJ/mol
# GULP energy per Si atom -12397.965183 kJ/mol
# Density = 1.942481 g / cm^3
# Si number density = 19.469126 Si / 1000 Ang^3
#
#
#
# Elastic Constant Matrix: (Units=GPa)
#
#
# Indices 1 2 3 4 5 6 
#
# 1 52.5624 40.0798 39.1977 0.0000 0.0000 0.0000
# 2 40.0798 105.2818 58.9230 0.0000 0.0000 0.0000
# 3 39.1977 58.9230 83.1864 0.0000 0.0000 0.0000
# 4 0.0000 0.0000 0.0000 37.1035 0.0000 0.0000
# 5 0.0000 0.0000 0.0000 0.0000 26.6430 0.0000
# 6 0.0000 0.0000 0.0000 0.0000 0.0000 28.8041
#
#
#
# Elastic Compliance Matrix: (Units=1/GPa)
#
#
# Indices 1 2 3 4 5 6 
#
# 1 0.031540 -0.006112 -0.010532 0.000000 0.000000 0.000000
# 2 -0.006112 0.016921 -0.009106 0.000000 0.000000 0.000000
# 3 -0.010532 -0.009106 0.023434 0.000000 0.000000 0.000000
# 4 0.000000 0.000000 0.000000 0.026952 0.000000 0.000000
# 5 0.000000 0.000000 0.000000 0.000000 0.037533 0.000000
# 6 0.000000 0.000000 0.000000 0.000000 0.000000 0.034717
#
#
# Mechanical properties :
#
#
# Convention : Reuss Voigt Hill
#
# Bulk Modulus (GPa) = 49.03244 57.49241 53.26243
# Shear Modulus (GPa) = 21.79633 25.36545 23.58089
#
# Velocity S-wave (km/s) = 3.34957 3.61342 3.48400
# Velocity P-wave (km/s) = 6.34026 6.85589 6.60311
#
# Compressibility (1/GPa) = 0.02039466
#
# Stress axis : x y z
#
# Youngs Moduli (GPa) = 31.70568 59.09671 42.67348
#
# Poissons Ratio (x) = 0.36123 0.44945
# Poissons Ratio (y) = 0.19380 0.38857
# Poissons Ratio (z) = 0.33393 0.53811
#
# Static dielectric constant tensor:
#      x y z
#    x 3.391210 0.000000 0.000000 
#    y 0.000000 3.745150 0.000000 
#    z 0.000000 0.000000 3.534720 
# 
# 
# High freq. dielectric constant tensor:
#      x y z
#    x 1.743770 0.000000 0.000000 
#    y 0.000000 1.765930 0.000000 
#    z 0.000000 0.000000 1.751920 
# 
# From -- ./inp_files/21601.got.cif
#   From: 2010.03.12/outbox.cif.g09.slc.cpg/sg59_11_cif.got.tgz:21601.got - 2010.04.16 16:29:54.
