data_PCOD8243945
_publ_section_title
;
Structure prediction by ZEFSAII (Michael W. Deem and Ramdas Pophale) SiO2 
 PCOD8243945
Probable space group: P M M N
;
_chemical_formula_sum "Si O2"
_cell_formula_units_Z 64
_cell_length_a 8.925321
_cell_length_b 24.088255
_cell_length_c 14.910691
_cell_angle_alpha 90.000000
_cell_angle_beta 90.000000
_cell_angle_gamma 90.000000
_cell_volume 3205.730098
_symmetry_space_group_name_H-M "P M M N"
_symmetry_group_IT_number 59
_space_group.IT_coordinate_system_code '2'
_symmetry_cell_setting 'orthorhombic'
loop_
_space_group_symop_operation_xyz
x,y,z
1/2-x,1/2-y,z
1/2+x,-y,-z
-x,1/2+y,-z
-x,-y,-z
1/2+x,1/2+y,-z
1/2-x,y,z
x,1/2-y,z
loop_
_atom_site_type_symbol
_atom_site_label
_atom_site_fract_x
_atom_site_fract_y
_atom_site_fract_z
Si Si1 0.078214 0.603851 0.849412
Si Si2 0.924092 0.187015 0.006032
Si Si3 0.422573 0.185857 0.487696
Si Si4 0.421716 0.991868 0.352909
Si Si5 0.578448 0.863438 0.158370
Si Si6 0.427028 0.898171 0.644545
Si Si7 0.574054 0.368673 0.649743
Si Si8 0.919334 0.515229 0.172304
O O1 0.250000 0.621648 0.844911
O O2 0.016290 0.607177 0.747691
O O3 0.057602 0.540547 0.887376
O O4 0.000860 0.647190 0.917914
O O5 0.750000 0.173264 0.992379
O O6 0.950139 0.250000 0.037266
O O7 0.002097 0.178024 0.910811
O O8 0.250000 0.168737 0.498868
O O9 0.440295 0.250000 0.461931
O O10 0.495718 0.151234 0.408010
O O11 0.507317 0.175385 0.580831
O O12 0.250000 0.008371 0.367949
O O13 0.457179 0.930394 0.392055
O O14 0.454690 0.985954 0.247795
O O15 0.522928 0.041286 0.394513
O O16 0.750000 0.845718 0.169093
O O17 0.502975 0.858757 0.254996
O O18 0.563647 0.926756 0.119257
O O19 0.250000 0.893197 0.633559
O O20 0.750000 0.358872 0.662008
O O21 0.750000 0.512047 0.214920
#
# Coordination Sequence:
#
# PCOD8243945 Si02
#       8
#     8   8   8   8   8   8   8   8
#     4   8  16  33  56  80 107 140 179 223 268 316
#     4  10  21  36  53  75 105 143 187 228 265 315
#     4  11  25  42  58  80 111 146 186 232 279 326
#     4   9  17  31  54  85 116 142 174 219 272 329
#     4  10  20  35  56  81 110 142 176 222 278 328
#     4  10  20  36  60  86 113 147 184 225 274 329
#     4  10  21  38  61  86 111 144 184 225 272 328
#     4   8  15  30  52  78 107 139 176 218 270 330
#
# _framework density 19.964252999999999
#
# number of rings (size 3 to 8) (size 9 to 14) (size 15 to 20)
#    0.000    2.500    0.000    2.625    0.000    5.250 
#    0.000    4.375    0.000    0.000    0.000    0.000 
#    0.000    0.000    0.000    0.000    0.000    0.000 
#
# Total GULP energy -793185.288924 kJ/mol
# GULP energy per Si atom -12393.520139 kJ/mol
# Density = 1.991881 g / cm^3
# Si number density = 19.964253 Si / 1000 Ang^3
#
#
#
# Elastic Constant Matrix: (Units=GPa)
#
#
# Indices 1 2 3 4 5 6 
#
# 1 82.7618 37.7913 24.4707 0.0000 0.0000 0.0000
# 2 37.7913 73.9490 16.4398 0.0000 0.0000 0.0000
# 3 24.4707 16.4398 53.0406 0.0000 0.0000 0.0000
# 4 0.0000 0.0000 0.0000 35.2418 0.0000 0.0000
# 5 0.0000 0.0000 0.0000 0.0000 20.9872 0.0000
# 6 0.0000 0.0000 0.0000 0.0000 0.0000 26.5510
#
#
#
# Elastic Compliance Matrix: (Units=1/GPa)
#
#
# Indices 1 2 3 4 5 6 
#
# 1 0.017176 -0.007535 -0.005589 0.000000 0.000000 0.000000
# 2 -0.007535 0.017829 -0.002050 0.000000 0.000000 0.000000
# 3 -0.005589 -0.002050 0.022067 0.000000 0.000000 0.000000
# 4 0.000000 0.000000 0.000000 0.028375 0.000000 0.000000
# 5 0.000000 0.000000 0.000000 0.000000 0.047648 0.000000
# 6 0.000000 0.000000 0.000000 0.000000 0.000000 0.037663
#
#
# Mechanical properties :
#
#
# Convention : Reuss Voigt Hill
#
# Bulk Modulus (GPa) = 37.41796 40.79499 39.10647
# Shear Modulus (GPa) = 23.80775 25.29265 24.55020
#
# Velocity S-wave (km/s) = 3.45703 3.56321 3.51052
# Velocity P-wave (km/s) = 5.89219 6.11613 6.00520
#
# Compressibility (1/GPa) = 0.02672513
#
# Stress axis : x y z
#
# Youngs Moduli (GPa) = 58.22014 56.08710 45.31615
#
# Poissons Ratio (x) = 0.42264 0.25326
# Poissons Ratio (y) = 0.43871 0.09288
# Poissons Ratio (z) = 0.32538 0.11496
#
# Static dielectric constant tensor:
#      x y z
#    x 3.549490 0.000000 0.000000 
#    y 0.000000 3.870920 0.000000 
#    z 0.000000 0.000000 3.393560 
# 
# 
# High freq. dielectric constant tensor:
#      x y z
#    x 1.771830 0.000000 0.000000 
#    y 0.000000 1.788760 0.000000 
#    z 0.000000 0.000000 1.753970 
# 
# From -- ./inp_files/21539.got.cif
#   From: 2010.03.12/outbox.cif.g09.slc.cpg/sg59_11_cif.got.tgz:21539.got - 2010.04.16 16:29:54.
