data_PCOD8243255
_publ_section_title
;
Structure prediction by ZEFSAII (Michael W. Deem and Ramdas Pophale) SiO2 
 PCOD8243255
Probable space group: P M M N
;
_chemical_formula_sum "Si O2"
_cell_formula_units_Z 64
_cell_length_a 17.787005
_cell_length_b 20.745657
_cell_length_c 9.153893
_cell_angle_alpha 90.000000
_cell_angle_beta 90.000000
_cell_angle_gamma 90.000000
_cell_volume 3377.814938
_symmetry_space_group_name_H-M "P M M N"
_symmetry_group_IT_number 59
_space_group.IT_coordinate_system_code '2'
_symmetry_cell_setting 'orthorhombic'
loop_
_space_group_symop_operation_xyz
x,y,z
1/2-x,1/2-y,z
1/2+x,-y,-z
-x,1/2+y,-z
-x,-y,-z
1/2+x,1/2+y,-z
1/2-x,y,z
x,1/2-y,z
loop_
_atom_site_type_symbol
_atom_site_label
_atom_site_fract_x
_atom_site_fract_y
_atom_site_fract_z
Si Si1 0.567765 0.320721 0.092839
Si Si2 0.910827 0.175636 0.428747
Si Si3 0.916741 0.818292 0.064859
Si Si4 0.162082 0.055824 0.599669
Si Si5 0.062075 0.322006 0.602156
Si Si6 0.336304 0.565738 0.405739
Si Si7 0.400944 0.452642 0.906619
Si Si8 0.420224 0.934636 0.107152
O O1 0.604132 0.250000 0.065058
O O2 0.577182 0.341627 0.259786
O O3 0.479114 0.317501 0.060629
O O4 0.606028 0.372741 0.986938
O O5 0.885249 0.250000 0.449827
O O6 0.847607 0.127164 0.488542
O O7 0.987110 0.161391 0.515028
O O8 0.870945 0.750000 0.056320
O O9 0.956170 0.823998 0.224901
O O10 0.865870 0.882442 0.045394
O O11 0.250000 0.069377 0.606348
O O12 0.123283 0.123889 0.559995
O O13 0.134394 0.026461 0.753528
O O14 0.141382 0.001474 0.481970
O O15 0.091363 0.250000 0.558833
O O16 0.250000 0.564632 0.356105
O O17 0.390103 0.573440 0.268416
O O18 0.490488 0.443628 0.889956
O O19 0.381079 0.503825 0.030744
#
# Coordination Sequence:
#
# PCOD8243255 Si02
#       8
#     8   8   8   8   8   8   8   8
#     4   9  17  30  51  78 103 126 158 208 264 312
#     4  10  20  35  57  82 105 132 171 217 265 316
#     4   8  14  27  47  74 105 129 157 201 252 303
#     4  10  21  35  51  75 109 146 179 214 259 311
#     4   9  18  33  56  83 107 136 174 217 263 311
#     4  11  24  38  52  73 105 145 182 217 259 310
#     4   9  18  32  53  78 101 131 172 219 265 305
#     4  10  20  34  53  77 101 131 175 221 263 309
#
# _framework density 18.947158999999999
#
# number of rings (size 3 to 8) (size 9 to 14) (size 15 to 20)
#    0.000    2.500    0.000    3.000    0.000    7.500 
#    0.000    0.625    0.000    0.750    0.000    0.000 
#    0.000    5.000    0.000    0.000    0.000    0.000 
#
# Total GULP energy -793149.577337 kJ/mol
# GULP energy per Si atom -12392.962146 kJ/mol
# Density = 1.890403 g / cm^3
# Si number density = 18.947159 Si / 1000 Ang^3
#
#
#
# Elastic Constant Matrix: (Units=GPa)
#
#
# Indices 1 2 3 4 5 6 
#
# 1 34.9424 28.5027 17.9804 0.0000 0.0000 0.0000
# 2 28.5027 136.3063 49.7767 0.0000 0.0000 0.0000
# 3 17.9804 49.7767 91.5378 0.0000 0.0000 0.0000
# 4 0.0000 0.0000 0.0000 31.5415 0.0000 0.0000
# 5 0.0000 0.0000 0.0000 0.0000 13.6806 0.0000
# 6 0.0000 0.0000 0.0000 0.0000 0.0000 22.2679
#
#
#
# Elastic Compliance Matrix: (Units=1/GPa)
#
#
# Indices 1 2 3 4 5 6 
#
# 1 0.035460 -0.006078 -0.003660 0.000000 0.000000 0.000000
# 2 -0.006078 0.010196 -0.004351 0.000000 0.000000 0.000000
# 3 -0.003660 -0.004351 0.014009 0.000000 0.000000 0.000000
# 4 0.000000 0.000000 0.000000 0.031704 0.000000 0.000000
# 5 0.000000 0.000000 0.000000 0.000000 0.073096 0.000000
# 6 0.000000 0.000000 0.000000 0.000000 0.000000 0.044908
#
#
# Mechanical properties :
#
#
# Convention : Reuss Voigt Hill
#
# Bulk Modulus (GPa) = 31.75859 50.58958 41.17409
# Shear Modulus (GPa) = 20.15745 24.59978 22.37862
#
# Velocity S-wave (km/s) = 3.26525 3.60715 3.44045
# Velocity P-wave (km/s) = 5.56901 6.64131 6.12866
#
# Compressibility (1/GPa) = 0.03148754
#
# Stress axis : x y z
#
# Youngs Moduli (GPa) = 28.20071 98.07564 71.38208
#
# Poissons Ratio (x) = 0.59615 0.26126
# Poissons Ratio (y) = 0.17142 0.31055
# Poissons Ratio (z) = 0.10321 0.42668
#
# Static dielectric constant tensor:
#      x y z
#    x 2.966480 0.000000 0.000000 
#    y 0.000000 4.127990 0.000000 
#    z 0.000000 0.000000 3.454850 
# 
# 
# High freq. dielectric constant tensor:
#      x y z
#    x 1.683080 0.000000 0.000000 
#    y 0.000000 1.767360 0.000000 
#    z 0.000000 0.000000 1.737050 
# 
# From -- ./inp_files/10704.got.cif
#   From: 2010.03.12/outbox.cif.g09.slc.cpg/sg59_6_cif.got.tgz:10704.got - 2010.04.16 16:29:54.
