data_PCOD8243536
_publ_section_title
;
Structure prediction by ZEFSAII (Michael W. Deem and Ramdas Pophale) SiO2 
 PCOD8243536
Probable space group: P M M N
;
_chemical_formula_sum "Si O2"
_cell_formula_units_Z 64
_cell_length_a 8.927759
_cell_length_b 14.511964
_cell_length_c 25.722368
_cell_angle_alpha 90.000000
_cell_angle_beta 90.000000
_cell_angle_gamma 90.000000
_cell_volume 3332.572435
_symmetry_space_group_name_H-M "P M M N"
_symmetry_group_IT_number 59
_space_group.IT_coordinate_system_code '2'
_symmetry_cell_setting 'orthorhombic'
loop_
_space_group_symop_operation_xyz
x,y,z
1/2-x,1/2-y,z
1/2+x,-y,-z
-x,1/2+y,-z
-x,-y,-z
1/2+x,1/2+y,-z
1/2-x,y,z
x,1/2-y,z
loop_
_atom_site_type_symbol
_atom_site_label
_atom_site_fract_x
_atom_site_fract_y
_atom_site_fract_z
Si Si1 0.581781 0.647496 0.109791
Si Si2 0.073853 0.356389 0.360315
Si Si3 0.082602 0.852667 0.892609
Si Si4 0.925436 0.999100 0.824665
Si Si5 0.074087 0.506141 0.444419
Si Si6 0.075997 0.143972 0.629502
Si Si7 0.424725 0.994507 0.714732
Si Si8 0.076626 0.097202 0.005575
O O1 0.750000 0.610876 0.121541
O O2 0.561573 0.750000 0.131998
O O3 0.460720 0.583976 0.137485
O O4 0.555294 0.651553 0.048038
O O5 0.250000 0.361636 0.350163
O O6 0.021493 0.250000 0.367022
O O7 0.029379 0.414756 0.411612
O O8 0.993464 0.402594 0.310975
O O9 0.250000 0.895770 0.897600
O O10 0.093015 0.750000 0.870612
O O11 0.984983 0.907076 0.851141
O O12 0.005343 0.848444 0.948731
O O13 0.750000 0.991078 0.816108
O O14 0.002865 0.014497 0.769828
O O15 0.250000 0.513380 0.451367
O O16 0.000000 0.500000 0.500000
O O17 0.017322 0.599495 0.417297
O O18 0.250000 0.137940 0.614545
O O19 0.026086 0.250000 0.637941
O O20 0.041890 0.086242 0.681452
O O21 0.250000 0.976651 0.721690
O O22 0.250000 0.085561 0.020559
O O23 0.000000 0.000000 0.000000
#
# Coordination Sequence:
#
# PCOD8243536 Si02
#       8
#     8   8   8   8   8   8   8   8
#     4  10  22  40  61  84 114 151 188 228 278 338
#     4   9  19  37  59  82 111 150 194 237 284 338
#     4  11  24  41  61  85 114 149 190 236 285 340
#     4  12  25  40  60  85 115 150 188 236 288 342
#     4  10  20  34  54  84 121 158 195 237 284 331
#     4   9  19  37  60  84 111 149 194 236 283 339
#     4  10  21  38  60  84 112 145 185 236 289 343
#     4  11  21  36  61  88 116 151 187 226 279 339
#
# _framework density 19.204383
#
# number of rings (size 3 to 8) (size 9 to 14) (size 15 to 20)
#    0.000    1.750    1.250    3.000    0.000    5.250 
#    0.000    2.500    0.000    0.000    0.000    0.000 
#    0.000    0.000    0.000    0.000    0.000    0.000 
#
# Total GULP energy -793738.286838 kJ/mol
# GULP energy per Si atom -12402.160732 kJ/mol
# Density = 1.916067 g / cm^3
# Si number density = 19.204383 Si / 1000 Ang^3
#
#
#
# Elastic Constant Matrix: (Units=GPa)
#
#
# Indices 1 2 3 4 5 6 
#
# 1 61.2806 38.4876 44.6186 0.0000 0.0000 0.0000
# 2 38.4876 131.8618 38.2869 0.0000 0.0000 0.0000
# 3 44.6186 38.2869 110.3872 0.0000 0.0000 0.0000
# 4 0.0000 0.0000 0.0000 211.6134 0.0000 0.0000
# 5 0.0000 0.0000 0.0000 0.0000 38.6532 0.0000
# 6 0.0000 0.0000 0.0000 0.0000 0.0000 21.6152
#
#
#
# Elastic Compliance Matrix: (Units=1/GPa)
#
#
# Indices 1 2 3 4 5 6 
#
# 1 0.025786 -0.005004 -0.008687 0.000000 0.000000 0.000000
# 2 -0.005004 0.009404 -0.001239 0.000000 0.000000 0.000000
# 3 -0.008687 -0.001239 0.013000 0.000000 0.000000 0.000000
# 4 0.000000 0.000000 0.000000 0.004726 0.000000 0.000000
# 5 0.000000 0.000000 0.000000 0.000000 0.025871 0.000000
# 6 0.000000 0.000000 0.000000 0.000000 0.000000 0.046264
#
#
# Mechanical properties :
#
#
# Convention : Reuss Voigt Hill
#
# Bulk Modulus (GPa) = 54.55589 60.70175 57.62882
# Shear Modulus (GPa) = 31.05165 66.51878 48.78522
#
# Velocity S-wave (km/s) = 4.02544 5.89173 5.04562
# Velocity P-wave (km/s) = 7.07639 8.82951 8.00111
#
# Compressibility (1/GPa) = 0.01832983
#
# Stress axis : x y z
#
# Youngs Moduli (GPa) = 38.77998 106.33715 76.92191
#
# Poissons Ratio (x) = 0.53212 0.66824
# Poissons Ratio (y) = 0.19406 0.09531
# Poissons Ratio (z) = 0.33689 0.13176
#
# Static dielectric constant tensor:
#      x y z
#    x 3.857860 0.000000 0.000000 
#    y 0.000000 3.604160 0.000000 
#    z 0.000000 0.000000 3.836000 
# 
# 
# High freq. dielectric constant tensor:
#      x y z
#    x 1.754240 0.000000 0.000000 
#    y 0.000000 1.754120 0.000000 
#    z 0.000000 0.000000 1.743640 
# 
# From -- ./inp_files/31468.got.cif
#   From: 2010.03.12/outbox.cif.g09.slc.cpg/sg59_16_cif.got.tgz:31468.got - 2010.04.16 16:29:54.
