data_PCOD8243809
_publ_section_title
;
Structure prediction by ZEFSAII (Michael W. Deem and Ramdas Pophale) SiO2 
 PCOD8243809
Probable space group: P M M N
;
_chemical_formula_sum "Si O2"
_cell_formula_units_Z 48
_cell_length_a 9.149758
_cell_length_b 15.826484
_cell_length_c 17.923513
_cell_angle_alpha 90.000000
_cell_angle_beta 90.000000
_cell_angle_gamma 90.000000
_cell_volume 2595.477007
_symmetry_space_group_name_H-M "P M M N"
_symmetry_group_IT_number 59
_space_group.IT_coordinate_system_code '2'
_symmetry_cell_setting 'orthorhombic'
loop_
_space_group_symop_operation_xyz
x,y,z
1/2-x,1/2-y,z
1/2+x,-y,-z
-x,1/2+y,-z
-x,-y,-z
1/2+x,1/2+y,-z
1/2-x,y,z
x,1/2-y,z
loop_
_atom_site_type_symbol
_atom_site_label
_atom_site_fract_x
_atom_site_fract_y
_atom_site_fract_z
Si Si1 0.079911 0.980098 0.576063
Si Si2 0.577198 0.250000 0.774714
Si Si3 0.416333 0.090382 0.717713
Si Si4 0.084530 0.152815 0.330726
Si Si5 0.081436 0.578977 0.799749
Si Si6 0.076332 0.750000 0.055748
Si Si7 0.421284 0.583191 0.971813
O O1 0.250000 0.965146 0.560680
O O2 0.013260 0.894648 0.608836
O O3 0.055351 0.056122 0.634424
O O4 0.000000 0.000000 0.500000
O O5 0.750000 0.250000 0.774029
O O6 0.523134 0.167865 0.731348
O O7 0.517683 0.250000 0.859574
O O8 0.250000 0.121446 0.726594
O O9 0.452278 0.017965 0.778202
O O10 0.250000 0.117607 0.332211
O O11 0.081291 0.250000 0.353033
O O12 0.019460 0.141163 0.248023
O O13 0.250000 0.599700 0.781374
O O14 0.043133 0.595650 0.885160
O O15 0.250000 0.750000 0.052214
O O16 0.017460 0.834359 0.014865
O O17 0.250000 0.571196 0.985878
O O18 0.500000 0.500000 0.000000
#
# Coordination Sequence:
#
# PCOD8243809 Si02
#       7
#     8   4   8   8   8   4   8
#     4  10  21  39  62  86 114 146 180 222 274 331
#     4  11  21  33  53  79 106 143 192 231 267 324
#     4   9  19  36  55  79 108 142 180 224 275 322
#     4  10  21  36  56  84 115 148 183 224 275 327
#     4   9  19  34  56  80 105 144 191 231 279 338
#     4   9  20  35  51  77 112 147 184 231 287 334
#     4  10  20  35  54  78 109 147 188 234 290 343
#
# _framework density 18.49371
#
# number of rings (size 3 to 8) (size 9 to 14) (size 15 to 20)
#    0.000    2.333    0.000    3.250    1.167    5.333 
#    1.500    1.250    0.000    0.000    0.000    0.000 
#    0.000    0.000    0.000    0.000    0.000    0.000 
#
# Total GULP energy -595327.426700 kJ/mol
# GULP energy per Si atom -12402.654723 kJ/mol
# Density = 1.845162 g / cm^3
# Si number density = 18.493710 Si / 1000 Ang^3
#
#
#
# Elastic Constant Matrix: (Units=GPa)
#
#
# Indices 1 2 3 4 5 6 
#
# 1 100.0706 55.9374 63.7366 0.0000 0.0000 0.0000
# 2 55.9374 116.4258 60.7538 0.0000 0.0000 0.0000
# 3 63.7366 60.7538 118.2294 0.0000 0.0000 0.0000
# 4 0.0000 0.0000 0.0000 19.6182 0.0000 0.0000
# 5 0.0000 0.0000 0.0000 0.0000 31.5978 0.0000
# 6 0.0000 0.0000 0.0000 0.0000 0.0000 33.3232
#
#
#
# Elastic Compliance Matrix: (Units=1/GPa)
#
#
# Indices 1 2 3 4 5 6 
#
# 1 0.016835 -0.004581 -0.006721 0.000000 0.000000 0.000000
# 2 -0.004581 0.012983 -0.004202 0.000000 0.000000 0.000000
# 3 -0.006721 -0.004202 0.014241 0.000000 0.000000 0.000000
# 4 0.000000 0.000000 0.000000 0.050973 0.000000 0.000000
# 5 0.000000 0.000000 0.000000 0.000000 0.031648 0.000000
# 6 0.000000 0.000000 0.000000 0.000000 0.000000 0.030009
#
#
# Mechanical properties :
#
#
# Convention : Reuss Voigt Hill
#
# Bulk Modulus (GPa) = 76.62971 77.28681 76.95826
# Shear Modulus (GPa) = 26.03542 27.19436 26.61489
#
# Velocity S-wave (km/s) = 3.75613 3.83883 3.79770
# Velocity P-wave (km/s) = 7.76768 7.84413 7.80600
#
# Compressibility (1/GPa) = 0.01304977
#
# Stress axis : x y z
#
# Youngs Moduli (GPa) = 59.40167 77.02581 70.22085
#
# Poissons Ratio (x) = 0.35284 0.47199
# Poissons Ratio (y) = 0.27211 0.29506
# Poissons Ratio (z) = 0.39927 0.32365
#
# Static dielectric constant tensor:
#      x y z
#    x 3.431370 0.000000 0.000000 
#    y 0.000000 3.324890 0.000000 
#    z 0.000000 0.000000 2.351450 
# 
# 
# High freq. dielectric constant tensor:
#      x y z
#    x 1.715090 0.000000 0.000000 
#    y 0.000000 1.717340 0.000000 
#    z 0.000000 0.000000 1.721360 
# 
# From -- ./inp_files/25597.got.cif
#   From: 2010.03.12/outbox.cif.g09.slc.cpg/sg59_13_cif.got.tgz:25597.got - 2010.04.16 16:29:54.
