data_PCOD8243199
_publ_section_title
;
Structure prediction by ZEFSAII (Michael W. Deem and Ramdas Pophale) SiO2 
 PCOD8243199
Probable space group: P M M N
;
_chemical_formula_sum "Si O2"
_cell_formula_units_Z 64
_cell_length_a 28.400720
_cell_length_b 9.319372
_cell_length_c 12.466820
_cell_angle_alpha 90.000000
_cell_angle_beta 90.000000
_cell_angle_gamma 90.000000
_cell_volume 3299.678956
_symmetry_space_group_name_H-M "P M M N"
_symmetry_group_IT_number 59
_space_group.IT_coordinate_system_code '2'
_symmetry_cell_setting 'orthorhombic'
loop_
_space_group_symop_operation_xyz
x,y,z
1/2-x,1/2-y,z
1/2+x,-y,-z
-x,1/2+y,-z
-x,-y,-z
1/2+x,1/2+y,-z
1/2-x,y,z
x,1/2-y,z
loop_
_atom_site_type_symbol
_atom_site_label
_atom_site_fract_x
_atom_site_fract_y
_atom_site_fract_z
Si Si1 0.126492 0.580975 0.613841
Si Si2 0.194720 0.408769 0.223093
Si Si3 0.563225 0.913413 0.990131
Si Si4 0.329601 0.085329 0.993015
Si Si5 0.301955 0.585936 0.794912
Si Si6 0.696442 0.416561 0.577069
Si Si7 0.490696 0.917830 0.169799
Si Si8 0.472426 0.422458 0.596480
O O1 0.113189 0.750000 0.615649
O O2 0.156021 0.532964 0.718223
O O3 0.161425 0.543808 0.517655
O O4 0.080270 0.484107 0.603274
O O5 0.250000 0.398236 0.234805
O O6 0.171719 0.250000 0.230859
O O7 0.174983 0.505046 0.319094
O O8 0.181625 0.480677 0.109664
O O9 0.551246 0.750000 0.961652
O O10 0.615719 0.933311 0.030961
O O11 0.533258 0.967326 0.092194
O O12 0.554728 0.002209 0.879952
O O13 0.313048 0.250000 0.990377
O O14 0.300534 0.002889 0.903819
O O15 0.250000 0.569244 0.740266
O O16 0.311304 0.750000 0.824878
O O17 0.750000 0.465580 0.548917
O O18 0.695875 0.250000 0.603190
O O19 0.481329 0.750000 0.163419
O O20 0.501111 0.962418 0.292424
O O21 0.500000 0.500000 0.500000
O O22 0.470908 0.250000 0.579173
#
# Coordination Sequence:
#
# PCOD8243199 Si02
#       8
#     8   8   8   8   8   8   8   8
#     4  10  21  38  59  83 112 145 183 229 281 334
#     4   9  18  32  49  71 102 138 174 217 269 320
#     4   9  18  33  55  80 104 135 175 219 267 318
#     4  10  20  34  52  77 110 144 179 221 270 321
#     4  10  21  36  56  84 117 152 189 229 273 326
#     4   9  18  34  56  79 105 141 184 229 277 330
#     4   9  19  36  55  76 104 136 173 218 266 318
#     4  11  24  41  60  83 113 147 184 229 281 336
#
# _framework density 19.395824999999999
#
# number of rings (size 3 to 8) (size 9 to 14) (size 15 to 20)
#    0.000    2.375    0.000    1.875    0.000    7.250 
#    0.000    6.250    0.000    2.250    0.000    0.000 
#    0.000    0.000    0.000    0.000    0.000    0.000 
#
# Total GULP energy -793397.170877 kJ/mol
# GULP energy per Si atom -12396.830795 kJ/mol
# Density = 1.935168 g / cm^3
# Si number density = 19.395825 Si / 1000 Ang^3
#
#
#
# Elastic Constant Matrix: (Units=GPa)
#
#
# Indices 1 2 3 4 5 6 
#
# 1 71.6157 36.4371 38.9261 0.0000 0.0000 0.0000
# 2 36.4371 61.0065 56.3324 0.0000 0.0000 0.0000
# 3 38.9261 56.3324 144.8059 0.0000 0.0000 0.0000
# 4 0.0000 0.0000 0.0000 34.3542 0.0000 0.0000
# 5 0.0000 0.0000 0.0000 0.0000 25.2723 0.0000
# 6 0.0000 0.0000 0.0000 0.0000 0.0000 6.1856
#
#
#
# Elastic Compliance Matrix: (Units=1/GPa)
#
#
# Indices 1 2 3 4 5 6 
#
# 1 0.020181 -0.010993 -0.001148 0.000000 0.000000 0.000000
# 2 -0.010993 0.031569 -0.009326 0.000000 0.000000 0.000000
# 3 -0.001148 -0.009326 0.010842 0.000000 0.000000 0.000000
# 4 0.000000 0.000000 0.000000 0.029109 0.000000 0.000000
# 5 0.000000 0.000000 0.000000 0.000000 0.039569 0.000000
# 6 0.000000 0.000000 0.000000 0.000000 0.000000 0.161666
#
#
# Mechanical properties :
#
#
# Convention : Reuss Voigt Hill
#
# Bulk Modulus (GPa) = 50.87079 60.09105 55.48092
# Shear Modulus (GPa) = 14.60187 22.87791 18.73989
#
# Velocity S-wave (km/s) = 2.74676 3.43815 3.11172
# Velocity P-wave (km/s) = 6.02862 6.84177 6.44803
#
# Compressibility (1/GPa) = 0.01965765
#
# Stress axis : x y z
#
# Youngs Moduli (GPa) = 49.55248 31.67710 92.23005
#
# Poissons Ratio (x) = 0.34822 0.10592
# Poissons Ratio (y) = 0.54472 0.86012
# Poissons Ratio (z) = 0.05691 0.29541
#
# Static dielectric constant tensor:
#      x y z
#    x 3.515250 0.000000 0.000000 
#    y 0.000000 3.560470 0.000000 
#    z 0.000000 0.000000 3.653780 
# 
# 
# High freq. dielectric constant tensor:
#      x y z
#    x 1.753110 0.000000 0.000000 
#    y 0.000000 1.745160 0.000000 
#    z 0.000000 0.000000 1.762390 
# 
# From -- ./inp_files/19298.got.cif
#   From: 2010.03.12/outbox.cif.g09.slc.cpg/sg59_10_cif.got.tgz:19298.got - 2010.04.16 16:29:54.
