data_PCOD8243790
_publ_section_title
;
Structure prediction by ZEFSAII (Michael W. Deem and Ramdas Pophale) SiO2 
 PCOD8243790
Probable space group: P M M N
;
_chemical_formula_sum "Si O2"
_cell_formula_units_Z 48
_cell_length_a 30.529239
_cell_length_b 9.072934
_cell_length_c 9.209943
_cell_angle_alpha 90.000000
_cell_angle_beta 90.000000
_cell_angle_gamma 90.000000
_cell_volume 2551.059998
_symmetry_space_group_name_H-M "P M M N"
_symmetry_group_IT_number 59
_space_group.IT_coordinate_system_code '2'
_symmetry_cell_setting 'orthorhombic'
loop_
_space_group_symop_operation_xyz
x,y,z
1/2-x,1/2-y,z
1/2+x,-y,-z
-x,1/2+y,-z
-x,-y,-z
1/2+x,1/2+y,-z
1/2-x,y,z
x,1/2-y,z
loop_
_atom_site_type_symbol
_atom_site_label
_atom_site_fract_x
_atom_site_fract_y
_atom_site_fract_z
Si Si1 0.300501 0.422054 0.406807
Si Si2 0.376960 0.575889 0.909881
Si Si3 0.373514 0.575342 0.583711
Si Si4 0.039311 0.575321 0.082946
Si Si5 0.799744 0.078611 0.890395
Si Si6 0.960621 0.076448 0.582885
O O1 0.250000 0.455227 0.444352
O O2 0.310706 0.250000 0.404522
O O3 0.329477 0.499861 0.528152
O O4 0.312895 0.487180 0.250715
O O5 0.379785 0.750000 0.905413
O O6 0.381306 0.515187 0.746700
O O7 0.416253 0.515380 0.009417
O O8 0.330734 0.525579 0.978525
O O9 0.366622 0.750000 0.579249
O O10 0.414773 0.526024 0.487157
O O11 0.034804 0.750000 0.068566
O O12 0.039328 0.525661 0.250245
O O13 0.000000 0.500000 0.000000
O O14 0.750000 0.047335 0.939059
O O15 0.807278 0.250000 0.852918
O O16 0.966857 0.250000 0.566879
O O17 0.000000 0.000000 0.500000
#
# Coordination Sequence:
#
# PCOD8243790 Si02
#       6
#     8   8   8   8   8   8
#     4  10  21  36  53  76 107 141 176 215 261 312
#     4   9  18  33  54  79 105 132 168 216 262 304
#     4  10  20  35  56  80 105 137 177 218 261 310
#     4  10  20  35  54  76 104 137 173 213 257 305
#     4   9  17  32  55  79 102 132 171 212 255 307
#     4  10  21  36  56  81 108 139 175 215 260 311
#
# _framework density 18.815708000000001
#
# number of rings (size 3 to 8) (size 9 to 14) (size 15 to 20)
#    0.000    2.333    0.000    2.500    0.000    7.000 
#    0.000    5.833    0.000    2.000    0.000    0.000 
#    0.000    0.000    0.000    0.000    0.000    0.000 
#
# Total GULP energy -595304.711529 kJ/mol
# GULP energy per Si atom -12402.181490 kJ/mol
# Density = 1.877288 g / cm^3
# Si number density = 18.815708 Si / 1000 Ang^3
#
#
#
# Elastic Constant Matrix: (Units=GPa)
#
#
# Indices 1 2 3 4 5 6 
#
# 1 139.0210 38.2242 99.3593 0.0000 0.0000 0.0000
# 2 38.2242 38.0861 41.4744 0.0000 0.0000 0.0000
# 3 99.3593 41.4744 185.2241 0.0000 0.0000 0.0000
# 4 0.0000 0.0000 0.0000 20.9765 0.0000 0.0000
# 5 0.0000 0.0000 0.0000 0.0000 43.7307 0.0000
# 6 0.0000 0.0000 0.0000 0.0000 0.0000 31.9676
#
#
#
# Elastic Compliance Matrix: (Units=1/GPa)
#
#
# Indices 1 2 3 4 5 6 
#
# 1 0.013011 -0.007218 -0.005363 0.000000 0.000000 0.000000
# 2 -0.007218 0.038727 -0.004800 0.000000 0.000000 0.000000
# 3 -0.005363 -0.004800 0.009351 0.000000 0.000000 0.000000
# 4 0.000000 0.000000 0.000000 0.047672 0.000000 0.000000
# 5 0.000000 0.000000 0.000000 0.000000 0.022867 0.000000
# 6 0.000000 0.000000 0.000000 0.000000 0.000000 0.031282
#
#
# Mechanical properties :
#
#
# Convention : Reuss Voigt Hill
#
# Bulk Modulus (GPa) = 37.98380 80.04968 59.01674
# Shear Modulus (GPa) = 24.21935 31.55317 27.88626
#
# Velocity S-wave (km/s) = 3.59163 4.09951 3.85395
# Velocity P-wave (km/s) = 6.11808 8.06501 7.15805
#
# Compressibility (1/GPa) = 0.02632701
#
# Stress axis : x y z
#
# Youngs Moduli (GPa) = 76.85922 25.82185 106.94511
#
# Poissons Ratio (x) = 0.18637 0.57357
# Poissons Ratio (y) = 0.55474 0.51331
# Poissons Ratio (z) = 0.41221 0.12394
#
# Static dielectric constant tensor:
#      x y z
#    x 3.596990 0.000000 0.000000 
#    y 0.000000 3.222490 0.000000 
#    z 0.000000 0.000000 3.726350 
# 
# 
# High freq. dielectric constant tensor:
#      x y z
#    x 1.745190 0.000000 0.000000 
#    y 0.000000 1.704170 0.000000 
#    z 0.000000 0.000000 1.740210 
# 
# From -- ./inp_files/6217.got.cif
#   From: 2010.03.12/outbox.cif.g09.slc.cpg/sg59_4_cif.got.tgz:6217.got - 2010.04.16 16:29:54.
