data_PCOD8243776
_publ_section_title
;
Structure prediction by ZEFSAII (Michael W. Deem and Ramdas Pophale) SiO2 
 PCOD8243776
Probable space group: P M M N
;
_chemical_formula_sum "Si O2"
_cell_formula_units_Z 48
_cell_length_a 15.337461
_cell_length_b 8.657360
_cell_length_c 19.440531
_cell_angle_alpha 90.000000
_cell_angle_beta 90.000000
_cell_angle_gamma 90.000000
_cell_volume 2581.351058
_symmetry_space_group_name_H-M "P M M N"
_symmetry_group_IT_number 59
_space_group.IT_coordinate_system_code '2'
_symmetry_cell_setting 'orthorhombic'
loop_
_space_group_symop_operation_xyz
x,y,z
1/2-x,1/2-y,z
1/2+x,-y,-z
-x,1/2+y,-z
-x,-y,-z
1/2+x,1/2+y,-z
1/2-x,y,z
x,1/2-y,z
loop_
_atom_site_type_symbol
_atom_site_label
_atom_site_fract_x
_atom_site_fract_y
_atom_site_fract_z
Si Si1 0.250000 0.579532 0.049493
Si Si2 0.495927 0.931312 0.668242
Si Si3 0.568581 0.932792 0.947311
Si Si4 0.436091 0.565592 0.201355
Si Si5 0.653821 0.566407 0.576102
Si Si6 0.649639 0.572613 0.420857
Si Si7 0.750000 0.082380 0.788239
O O1 0.250000 0.750000 0.014519
O O2 0.336049 0.486283 0.027465
O O3 0.250000 0.602201 0.130251
O O4 0.505058 0.750000 0.679188
O O5 0.578026 0.999171 0.624978
O O6 0.492910 0.013686 0.742663
O O7 0.406497 0.967606 0.629823
O O8 0.565054 0.750000 0.947016
O O9 0.541710 0.993638 0.872040
O O10 0.500000 0.000000 0.000000
O O11 0.432338 0.750000 0.193470
O O12 0.341636 0.498291 0.229424
O O13 0.750000 0.508068 0.601040
O O14 0.653436 0.750000 0.575442
O O15 0.636065 0.509618 0.498325
O O16 0.750000 0.555778 0.398906
O O17 0.619160 0.750000 0.414717
O O18 0.750000 0.250000 0.752288
#
# Coordination Sequence:
#
# PCOD8243776 Si02
#       7
#     4   8   8   8   8   8   4
#     4   9  17  33  55  83 113 145 182 221 264 317
#     4  11  21  31  50  79 109 139 174 221 274 323
#     4  11  21  36  59  86 115 149 187 227 275 327
#     4  10  20  35  53  77 110 146 182 221 267 323
#     4   8  16  31  50  75 106 139 175 216 264 323
#     4   9  18  35  56  72  94 137 186 226 270 321
#     4   7  14  29  49  71 101 137 170 207 252 303
#
# _framework density 18.594913999999999
#
# number of rings (size 3 to 8) (size 9 to 14) (size 15 to 20)
#    0.000    2.500    0.000    5.250    1.167    0.333 
#    0.000    1.667    1.833    2.000    0.000    0.000 
#    0.000    0.000    0.000    0.000    0.000    0.000 
#
# Total GULP energy -594961.267350 kJ/mol
# GULP energy per Si atom -12395.026403 kJ/mol
# Density = 1.855259 g / cm^3
# Si number density = 18.594914 Si / 1000 Ang^3
#
#
#
# Elastic Constant Matrix: (Units=GPa)
#
#
# Indices 1 2 3 4 5 6 
#
# 1 101.0591 38.7227 60.4199 0.0000 0.0000 0.0000
# 2 38.7227 94.2257 39.3541 0.0000 0.0000 0.0000
# 3 60.4199 39.3541 95.6018 0.0000 0.0000 0.0000
# 4 0.0000 0.0000 0.0000 24.0323 0.0000 0.0000
# 5 0.0000 0.0000 0.0000 0.0000 28.7722 0.0000
# 6 0.0000 0.0000 0.0000 0.0000 0.0000 27.4096
#
#
#
# Elastic Compliance Matrix: (Units=1/GPa)
#
#
# Indices 1 2 3 4 5 6 
#
# 1 0.016552 -0.002938 -0.009251 0.000000 0.000000 0.000000
# 2 -0.002938 0.013338 -0.003633 0.000000 0.000000 0.000000
# 3 -0.009251 -0.003633 0.017803 0.000000 0.000000 0.000000
# 4 0.000000 0.000000 0.000000 0.041611 0.000000 0.000000
# 5 0.000000 0.000000 0.000000 0.000000 0.034756 0.000000
# 6 0.000000 0.000000 0.000000 0.000000 0.000000 0.036484
#
#
# Mechanical properties :
#
#
# Convention : Reuss Voigt Hill
#
# Bulk Modulus (GPa) = 62.31956 63.09776 62.70866
# Shear Modulus (GPa) = 25.31163 26.20215 25.75689
#
# Velocity S-wave (km/s) = 3.69346 3.75787 3.72581
# Velocity P-wave (km/s) = 7.19555 7.26879 7.23226
#
# Compressibility (1/GPa) = 0.01604633
#
# Stress axis : x y z
#
# Youngs Moduli (GPa) = 60.41511 74.97437 56.17166
#
# Poissons Ratio (x) = 0.22030 0.51966
# Poissons Ratio (y) = 0.17752 0.20410
# Poissons Ratio (z) = 0.55892 0.27242
#
# Static dielectric constant tensor:
#      x y z
#    x 3.676710 0.000000 0.000000 
#    y 0.000000 3.245810 0.000000 
#    z 0.000000 0.000000 3.248880 
# 
# 
# High freq. dielectric constant tensor:
#      x y z
#    x 1.719610 0.000000 0.000000 
#    y 0.000000 1.709160 0.000000 
#    z 0.000000 0.000000 1.705600 
# 
# From -- ./inp_files/27426.got.cif
#   From: 2010.03.12/outbox.cif.g09.slc.cpg/sg59_14_cif.got.tgz:27426.got - 2010.04.16 16:29:54.
