data_PCOD8243700
_publ_section_title
;
Structure prediction by ZEFSAII (Michael W. Deem and Ramdas Pophale) SiO2 
 PCOD8243700
Probable space group: P M M N
;
_chemical_formula_sum "Si O2"
_cell_formula_units_Z 56
_cell_length_a 8.916729
_cell_length_b 13.579753
_cell_length_c 23.512810
_cell_angle_alpha 90.000000
_cell_angle_beta 90.000000
_cell_angle_gamma 90.000000
_cell_volume 2847.095093
_symmetry_space_group_name_H-M "P M M N"
_symmetry_group_IT_number 59
_space_group.IT_coordinate_system_code '2'
_symmetry_cell_setting 'orthorhombic'
loop_
_space_group_symop_operation_xyz
x,y,z
1/2-x,1/2-y,z
1/2+x,-y,-z
-x,1/2+y,-z
-x,-y,-z
1/2+x,1/2+y,-z
1/2-x,y,z
x,1/2-y,z
loop_
_atom_site_type_symbol
_atom_site_label
_atom_site_fract_x
_atom_site_fract_y
_atom_site_fract_z
Si Si1 0.076623 0.449194 0.413912
Si Si2 0.079651 0.867260 0.027621
Si Si3 0.073922 0.363503 0.856912
Si Si4 0.921195 0.139367 0.519320
Si Si5 0.072928 0.468267 0.199255
Si Si6 0.425419 0.635642 0.694934
Si Si7 0.574325 0.862303 0.915493
O O1 0.250000 0.429328 0.399225
O O2 0.047092 0.563785 0.429269
O O3 0.031148 0.381127 0.466918
O O4 0.974562 0.423768 0.360531
O O5 0.250000 0.904400 0.031290
O O6 0.067597 0.750000 0.024654
O O7 0.996540 0.904255 0.084314
O O8 0.003459 0.912080 0.970718
O O9 0.250000 0.380278 0.859472
O O10 0.032119 0.250000 0.846836
O O11 0.002691 0.423728 0.804126
O O12 0.750000 0.126455 0.497778
O O13 0.950025 0.250000 0.541918
O O14 0.250000 0.479413 0.204784
O O15 0.021349 0.413144 0.142196
O O16 0.014320 0.406580 0.251932
O O17 0.250000 0.620238 0.704923
O O18 0.466706 0.750000 0.687136
O O19 0.750000 0.871945 0.924876
O O20 0.522669 0.750000 0.909947
#
# Coordination Sequence:
#
# PCOD8243700 Si02
#       7
#     8   8   8   8   8   8   8
#     4  10  20  34  56  86 117 152 195 237 277 325
#     4   9  17  30  51  78 105 135 174 219 268 326
#     4  10  21  38  58  78 104 139 178 223 276 334
#     4   9  18  34  56  84 120 157 190 229 279 330
#     4  11  23  38  58  82 107 139 182 231 279 328
#     4  11  24  41  60  82 112 150 188 227 274 330
#     4   9  18  33  52  76 107 139 171 214 272 333
#
# _framework density 19.669170999999999
#
# number of rings (size 3 to 8) (size 9 to 14) (size 15 to 20)
#    0.000    2.143    0.000    3.000    0.000    8.571 
#    0.000    2.143    0.000    2.571    0.000    0.000 
#    0.000    0.000    0.000    0.000    0.000    0.000 
#
# Total GULP energy -694564.160034 kJ/mol
# GULP energy per Si atom -12402.931429 kJ/mol
# Density = 1.962440 g / cm^3
# Si number density = 19.669171 Si / 1000 Ang^3
#
#
#
# Elastic Constant Matrix: (Units=GPa)
#
#
# Indices 1 2 3 4 5 6 
#
# 1 78.3148 36.6375 38.1196 0.0000 0.0000 0.0000
# 2 36.6375 99.1663 52.3710 0.0000 0.0000 0.0000
# 3 38.1196 52.3710 91.4880 0.0000 0.0000 0.0000
# 4 0.0000 0.0000 0.0000 28.1035 0.0000 0.0000
# 5 0.0000 0.0000 0.0000 0.0000 38.0763 0.0000
# 6 0.0000 0.0000 0.0000 0.0000 0.0000 26.9735
#
#
#
# Elastic Compliance Matrix: (Units=1/GPa)
#
#
# Indices 1 2 3 4 5 6 
#
# 1 0.016875 -0.003614 -0.004963 0.000000 0.000000 0.000000
# 2 -0.003614 0.015227 -0.007211 0.000000 0.000000 0.000000
# 3 -0.004963 -0.007211 0.017126 0.000000 0.000000 0.000000
# 4 0.000000 0.000000 0.000000 0.035583 0.000000 0.000000
# 5 0.000000 0.000000 0.000000 0.000000 0.026263 0.000000
# 6 0.000000 0.000000 0.000000 0.000000 0.000000 0.037073
#
#
# Mechanical properties :
#
#
# Convention : Reuss Voigt Hill
#
# Bulk Modulus (GPa) = 56.64510 58.13614 57.39062
# Shear Modulus (GPa) = 26.93864 28.08672 27.51268
#
# Velocity S-wave (km/s) = 3.70481 3.78293 3.74407
# Velocity P-wave (km/s) = 6.86748 6.97867 6.92330
#
# Compressibility (1/GPa) = 0.01765378
#
# Stress axis : x y z
#
# Youngs Moduli (GPa) = 59.25888 65.67096 58.39107
#
# Poissons Ratio (x) = 0.23732 0.28977
# Poissons Ratio (y) = 0.21415 0.42106
# Poissons Ratio (z) = 0.29407 0.47355
#
# Static dielectric constant tensor:
#      x y z
#    x 3.607350 0.000000 0.000000 
#    y 0.000000 3.758480 0.000000 
#    z 0.000000 0.000000 3.486100 
# 
# 
# High freq. dielectric constant tensor:
#      x y z
#    x 1.773220 0.000000 0.000000 
#    y 0.000000 1.779190 0.000000 
#    z 0.000000 0.000000 1.749270 
# 
# From -- ./inp_files/29024.got.cif
#   From: 2010.03.12/outbox.cif.g09.slc.cpg/sg59_15_cif.got.tgz:29024.got - 2010.04.16 16:29:54.
