data_PCOD8243195
_publ_section_title
;
Structure prediction by ZEFSAII (Michael W. Deem and Ramdas Pophale) SiO2 
 PCOD8243195
Probable space group: P M M N
;
_chemical_formula_sum "Si O2"
_cell_formula_units_Z 40
_cell_length_a 8.746662
_cell_length_b 14.621848
_cell_length_c 16.656815
_cell_angle_alpha 90.000000
_cell_angle_beta 90.000000
_cell_angle_gamma 90.000000
_cell_volume 2130.279418
_symmetry_space_group_name_H-M "P M M N"
_symmetry_group_IT_number 59
_space_group.IT_coordinate_system_code '2'
_symmetry_cell_setting 'orthorhombic'
loop_
_space_group_symop_operation_xyz
x,y,z
1/2-x,1/2-y,z
1/2+x,-y,-z
-x,1/2+y,-z
-x,-y,-z
1/2+x,1/2+y,-z
1/2-x,y,z
x,1/2-y,z
loop_
_atom_site_type_symbol
_atom_site_label
_atom_site_fract_x
_atom_site_fract_y
_atom_site_fract_z
Si Si1 0.424179 0.897856 0.409419
Si Si2 0.927687 0.089623 0.409570
Si Si3 0.067649 0.750000 0.884993
Si Si4 0.069347 0.250000 0.876130
Si Si5 0.930694 0.250000 0.298072
Si Si6 0.928430 0.750000 0.301995
Si Si7 0.567988 0.601539 0.997524
O O1 0.250000 0.881534 0.384428
O O2 0.451051 0.867986 0.501652
O O3 0.527156 0.839701 0.350246
O O4 0.466257 0.002699 0.397754
O O5 0.750000 0.063048 0.396948
O O6 0.990551 0.160613 0.344167
O O7 0.250000 0.750000 0.893818
O O8 0.012790 0.750000 0.792925
O O9 0.999525 0.842702 0.922342
O O10 0.250000 0.250000 0.872009
O O11 0.995766 0.250000 0.787149
O O12 0.017300 0.342066 0.922960
O O13 0.750000 0.250000 0.304103
O O14 0.750000 0.750000 0.289794
O O15 0.750000 0.595858 0.989186
O O16 0.500000 0.500000 0.000000
#
# Coordination Sequence:
#
# PCOD8243195 Si02
#       7
#     8   8   4   4   4   4   8
#     4  10  20  34  52  77 107 137 175 223 265 300
#     4   9  18  35  55  74 102 143 183 213 252 310
#     4  10  20  35  55  82 109 134 173 218 260 310
#     4   8  19  37  55  76 103 136 175 212 248 312
#     4   9  18  33  55  78 103 140 180 215 253 309
#     4  11  21  35  55  76 101 138 178 213 257 311
#     4  10  20  38  60  80 105 138 174 212 260 314
#
# _framework density 18.776879000000001
#
# number of rings (size 3 to 8) (size 9 to 14) (size 15 to 20)
#    0.000    2.400    0.000    3.000    0.000    4.000 
#    0.000   16.500    0.000    0.000    0.000    0.000 
#    0.000    0.000    0.000    0.000    0.000    0.000 
#
# Total GULP energy -495952.339455 kJ/mol
# GULP energy per Si atom -12398.808486 kJ/mol
# Density = 1.873414 g / cm^3
# Si number density = 18.776879 Si / 1000 Ang^3
#
#
#
# Elastic Constant Matrix: (Units=GPa)
#
#
# Indices 1 2 3 4 5 6 
#
# 1 59.7259 36.4034 41.3905 0.0000 0.0000 0.0000
# 2 36.4034 130.6741 77.6915 0.0000 0.0000 0.0000
# 3 41.3905 77.6915 157.5075 0.0000 0.0000 0.0000
# 4 0.0000 0.0000 0.0000 -105.9763 0.0000 0.0000
# 5 0.0000 0.0000 0.0000 0.0000 24.8649 0.0000
# 6 0.0000 0.0000 0.0000 0.0000 0.0000 1.5232
#
#
#
# Elastic Compliance Matrix: (Units=1/GPa)
#
#
# Indices 1 2 3 4 5 6 
#
# 1 0.021701 -0.003757 -0.003850 0.000000 0.000000 0.000000
# 2 -0.003757 0.011478 -0.004675 0.000000 0.000000 0.000000
# 3 -0.003850 -0.004675 0.009666 0.000000 0.000000 0.000000
# 4 0.000000 0.000000 0.000000 -0.009436 0.000000 0.000000
# 5 0.000000 0.000000 0.000000 0.000000 0.040217 0.000000
# 6 0.000000 0.000000 0.000000 0.000000 0.000000 0.656524
#
#
# Mechanical properties :
#
#
# Convention : Reuss Voigt Hill
#
# Bulk Modulus (GPa) = 54.69364 73.20871 63.95117
# Shear Modulus (GPa) = 6.57197 -3.08950 1.74124
#
# Velocity S-wave (km/s) = 1.87287 -1.28411 0.96402
# Velocity P-wave (km/s) = 5.81964 6.07246 5.94740
#
# Compressibility (1/GPa) = 0.01828366
#
# Stress axis : x y z
#
# Youngs Moduli (GPa) = 46.08148 87.11997 103.45217
#
# Poissons Ratio (x) = 0.32728 0.39825
# Poissons Ratio (y) = 0.17311 0.48360
# Poissons Ratio (z) = 0.17740 0.40725
#
# Static dielectric constant tensor:
#      x y z
#    x 3.301960 0.000000 0.000000 
#    y 0.000000 3.473060 0.000000 
#    z 0.000000 0.000000 3.717880 
# 
# 
# High freq. dielectric constant tensor:
#      x y z
#    x 1.718690 0.000000 0.000000 
#    y 0.000000 1.735380 0.000000 
#    z 0.000000 0.000000 1.732220 
# 
# From -- ./inp_files/20037.got.cif
#   From: 2010.03.12/outbox.cif.g09.slc.cpg/sg59_11_cif.got.tgz:20037.got - 2010.04.16 16:29:54.
