data_PCOD8243005
_publ_section_title
;
Structure prediction by ZEFSAII (Michael W. Deem and Ramdas Pophale) SiO2 
 PCOD8243005
Probable space group: P M M N
;
_chemical_formula_sum "Si O2"
_cell_formula_units_Z 64
_cell_length_a 28.670472
_cell_length_b 9.790128
_cell_length_c 12.472629
_cell_angle_alpha 90.000000
_cell_angle_beta 90.000000
_cell_angle_gamma 90.000000
_cell_volume 3500.912184
_symmetry_space_group_name_H-M "P M M N"
_symmetry_group_IT_number 59
_space_group.IT_coordinate_system_code '2'
_symmetry_cell_setting 'orthorhombic'
loop_
_space_group_symop_operation_xyz
x,y,z
1/2-x,1/2-y,z
1/2+x,-y,-z
-x,1/2+y,-z
-x,-y,-z
1/2+x,1/2+y,-z
1/2-x,y,z
x,1/2-y,z
loop_
_atom_site_type_symbol
_atom_site_label
_atom_site_fract_x
_atom_site_fract_y
_atom_site_fract_z
Si Si1 0.114052 0.906439 0.467039
Si Si2 0.470574 0.593586 0.314504
Si Si3 0.198295 0.406019 0.404674
Si Si4 0.169343 0.096791 0.172128
Si Si5 0.557594 0.406646 0.321117
Si Si6 0.910967 0.095258 0.877657
Si Si7 0.886666 0.409359 0.113001
Si Si8 0.802023 0.593020 0.062137
O O1 0.128166 0.750000 0.445209
O O2 0.074353 0.952462 0.383216
O O3 0.095644 0.926629 0.587081
O O4 0.160150 0.997149 0.457838
O O5 0.483648 0.750000 0.342342
O O6 0.513167 0.498663 0.347527
O O7 0.459539 0.577024 0.186930
O O8 0.250000 0.442736 0.448732
O O9 0.185409 0.250000 0.434014
O O10 0.201062 0.424490 0.276180
O O11 0.149188 0.250000 0.166881
O O12 0.125930 0.997066 0.183320
O O13 0.198714 0.064644 0.065381
O O14 0.540767 0.250000 0.314414
O O15 0.580195 0.454984 0.209527
O O16 0.893077 0.250000 0.866575
O O17 0.914951 0.056272 0.003286
O O18 0.873542 0.250000 0.121349
O O19 0.838850 0.494704 0.120262
O O20 0.750000 0.560913 0.105424
O O21 0.815583 0.750000 0.086563
#
# Coordination Sequence:
#
# PCOD8243005 Si02
#       8
#     8   8   8   8   8   8   8   8
#     4  10  21  38  56  76 105 138 174 216 258 304
#     4  10  20  34  55  81 105 131 168 216 267 311
#     4  10  20  33  52  80 110 138 170 210 258 310
#     4   9  16  28  48  75 107 138 165 201 251 307
#     4  10  22  38  55  75 101 137 180 218 254 304
#     4   9  17  31  51  76 108 136 161 204 256 303
#     4   9  19  35  52  73 104 139 173 211 254 304
#     4   9  17  30  50  76 104 135 172 212 255 305
#
# _framework density 18.280949
#
# number of rings (size 3 to 8) (size 9 to 14) (size 15 to 20)
#    0.000    2.500    1.250    0.750    0.000    4.500 
#    0.000    0.625    0.000    6.000    0.000    0.000 
#    0.000    0.000    0.000    0.000    0.000    0.000 
#
# Total GULP energy -793472.641643 kJ/mol
# GULP energy per Si atom -12398.010026 kJ/mol
# Density = 1.823934 g / cm^3
# Si number density = 18.280949 Si / 1000 Ang^3
#
#
#
# Elastic Constant Matrix: (Units=GPa)
#
#
# Indices 1 2 3 4 5 6 
#
# 1 108.5136 64.6487 34.7408 0.0000 0.0000 0.0000
# 2 64.6487 77.1712 27.8817 0.0000 0.0000 0.0000
# 3 34.7408 27.8817 71.7690 0.0000 0.0000 0.0000
# 4 0.0000 0.0000 0.0000 21.5042 0.0000 0.0000
# 5 0.0000 0.0000 0.0000 0.0000 14.7238 0.0000
# 6 0.0000 0.0000 0.0000 0.0000 0.0000 35.9625
#
#
#
# Elastic Compliance Matrix: (Units=1/GPa)
#
#
# Indices 1 2 3 4 5 6 
#
# 1 0.019137 -0.014756 -0.003531 0.000000 0.000000 0.000000
# 2 -0.014756 0.026452 -0.003134 0.000000 0.000000 0.000000
# 3 -0.003531 -0.003134 0.016860 0.000000 0.000000 0.000000
# 4 0.000000 0.000000 0.000000 0.046502 0.000000 0.000000
# 5 0.000000 0.000000 0.000000 0.000000 0.067917 0.000000
# 6 0.000000 0.000000 0.000000 0.000000 0.000000 0.027807
#
#
# Mechanical properties :
#
#
# Convention : Reuss Voigt Hill
#
# Bulk Modulus (GPa) = 50.99918 56.88846 53.94382
# Shear Modulus (GPa) = 19.68099 23.11694 21.39897
#
# Velocity S-wave (km/s) = 3.28469 3.55989 3.42506
# Velocity P-wave (km/s) = 6.50720 6.93424 6.72411
#
# Compressibility (1/GPa) = 0.01960816
#
# Stress axis : x y z
#
# Youngs Moduli (GPa) = 52.25499 37.80466 59.31146
#
# Poissons Ratio (x) = 0.55784 0.20943
# Poissons Ratio (y) = 0.77107 0.18585
# Poissons Ratio (z) = 0.18451 0.11846
#
# Static dielectric constant tensor:
#      x y z
#    x 3.174040 0.000000 0.000000 
#    y 0.000000 3.374560 0.000000 
#    z 0.000000 0.000000 3.377220 
# 
# 
# High freq. dielectric constant tensor:
#      x y z
#    x 1.692480 0.000000 0.000000 
#    y 0.000000 1.708050 0.000000 
#    z 0.000000 0.000000 1.703560 
# 
# From -- ./inp_files/19218.got.cif
#   From: 2010.03.12/outbox.cif.g09.slc.cpg/sg59_10_cif.got.tgz:19218.got - 2010.04.16 16:29:54.
