data_PCOD8243769
_publ_section_title
;
Structure prediction by ZEFSAII (Michael W. Deem and Ramdas Pophale) SiO2 
 PCOD8243769
Probable space group: P M M N
;
_chemical_formula_sum "Si O2"
_cell_formula_units_Z 48
_cell_length_a 8.577414
_cell_length_b 30.255852
_cell_length_c 10.143155
_cell_angle_alpha 90.000000
_cell_angle_beta 90.000000
_cell_angle_gamma 90.000000
_cell_volume 2632.320837
_symmetry_space_group_name_H-M "P M M N"
_symmetry_group_IT_number 59
_space_group.IT_coordinate_system_code '2'
_symmetry_cell_setting 'orthorhombic'
loop_
_space_group_symop_operation_xyz
x,y,z
1/2-x,1/2-y,z
1/2+x,-y,-z
-x,1/2+y,-z
-x,-y,-z
1/2+x,1/2+y,-z
1/2-x,y,z
x,1/2-y,z
loop_
_atom_site_type_symbol
_atom_site_label
_atom_site_fract_x
_atom_site_fract_y
_atom_site_fract_z
Si Si1 0.434907 0.467799 0.390530
Si Si2 0.566365 0.631209 0.604651
Si Si3 0.064321 0.299293 0.601280
Si Si4 0.933975 0.033034 0.107104
Si Si5 0.935258 0.700787 0.103742
Si Si6 0.065217 0.371549 0.099304
O O1 0.500000 0.500000 0.500000
O O2 0.250000 0.470232 0.385882
O O3 0.493428 0.418288 0.425567
O O4 0.498893 0.481620 0.248251
O O5 0.750000 0.632635 0.586602
O O6 0.489822 0.665902 0.502150
O O7 0.520848 0.644549 0.753624
O O8 0.250000 0.300179 0.594746
O O9 0.005062 0.250000 0.565328
O O10 0.009212 0.312069 0.748854
O O11 0.750000 0.029552 0.111892
O O12 0.984249 0.082261 0.066640
O O13 0.000000 0.000000 0.000000
O O14 0.750000 0.700689 0.096599
O O15 0.996508 0.750000 0.067443
O O16 0.002150 0.665138 0.000874
O O17 0.250000 0.378348 0.085450
#
# Coordination Sequence:
#
# PCOD8243769 Si02
#       6
#     8   8   8   8   8   8
#     4  10  20  35  53  76 105 136 172 211 255 307
#     4   8  15  26  40  61  91 125 158 196 240 286
#     4   8  13  22  37  61  93 124 154 191 237 287
#     4  11  22  37  55  75 101 133 171 216 266 318
#     4   8  14  24  40  65  97 130 163 201 245 294
#     4   9  17  30  47  69  98 128 162 205 251 301
#
# _framework density 18.234857999999999
#
# number of rings (size 3 to 8) (size 9 to 14) (size 15 to 20)
#    0.000    3.000    0.000    4.000    0.000    2.000 
#    0.000    6.667    0.000    0.500    0.000    0.000 
#    0.000    8.667    0.000    0.000    0.000    0.000 
#
# Total GULP energy -594979.681018 kJ/mol
# GULP energy per Si atom -12395.410021 kJ/mol
# Density = 1.819335 g / cm^3
# Si number density = 18.234858 Si / 1000 Ang^3
#
#
#
# Elastic Constant Matrix: (Units=GPa)
#
#
# Indices 1 2 3 4 5 6 
#
# 1 52.5408 28.4860 31.6413 0.0000 0.0000 0.0000
# 2 28.4860 136.1346 124.7250 0.0000 0.0000 0.0000
# 3 31.6413 124.7250 169.9511 0.0000 0.0000 0.0000
# 4 0.0000 0.0000 0.0000 48.5679 0.0000 0.0000
# 5 0.0000 0.0000 0.0000 0.0000 17.8100 0.0000
# 6 0.0000 0.0000 0.0000 0.0000 0.0000 18.3222
#
#
#
# Elastic Compliance Matrix: (Units=1/GPa)
#
#
# Indices 1 2 3 4 5 6 
#
# 1 0.021726 -0.002565 -0.002163 0.000000 0.000000 0.000000
# 2 -0.002565 0.022724 -0.016199 0.000000 0.000000 0.000000
# 3 -0.002163 -0.016199 0.018175 0.000000 0.000000 0.000000
# 4 0.000000 0.000000 0.000000 0.020590 0.000000 0.000000
# 5 0.000000 0.000000 0.000000 0.000000 0.056148 0.000000
# 6 0.000000 0.000000 0.000000 0.000000 0.000000 0.054579
#
#
# Mechanical properties :
#
#
# Convention : Reuss Voigt Hill
#
# Bulk Modulus (GPa) = 48.14287 80.92568 64.53427
# Shear Modulus (GPa) = 20.59997 28.52497 24.56247
#
# Velocity S-wave (km/s) = 3.36475 3.95943 3.67414
# Velocity P-wave (km/s) = 6.44626 8.08571 7.31208
#
# Compressibility (1/GPa) = 0.02077151
#
# Stress axis : x y z
#
# Youngs Moduli (GPa) = 46.02834 44.00631 55.01992
#
# Poissons Ratio (x) = 0.11286 0.11899
# Poissons Ratio (y) = 0.11804 0.89129
# Poissons Ratio (z) = 0.09955 0.71288
#
# Static dielectric constant tensor:
#      x y z
#    x 2.927750 0.000000 0.000000 
#    y 0.000000 3.877180 0.000000 
#    z 0.000000 0.000000 3.651400 
# 
# 
# High freq. dielectric constant tensor:
#      x y z
#    x 1.660920 0.000000 0.000000 
#    y 0.000000 1.712550 0.000000 
#    z 0.000000 0.000000 1.714630 
# 
# From -- ./inp_files/14500.got.cif
#   From: 2010.03.12/outbox.cif.g09.slc.cpg/sg59_8_cif.got.tgz:14500.got - 2010.04.16 16:29:54.
