data_PCOD8243796
_publ_section_title
;
Structure prediction by ZEFSAII (Michael W. Deem and Ramdas Pophale) SiO2 
 PCOD8243796
Probable space group: P M M N
;
_chemical_formula_sum "Si O2"
_cell_formula_units_Z 48
_cell_length_a 33.935441
_cell_length_b 7.941280
_cell_length_c 9.320570
_cell_angle_alpha 90.000000
_cell_angle_beta 90.000000
_cell_angle_gamma 90.000000
_cell_volume 2511.808228
_symmetry_space_group_name_H-M "P M M N"
_symmetry_group_IT_number 59
_space_group.IT_coordinate_system_code '2'
_symmetry_cell_setting 'orthorhombic'
loop_
_space_group_symop_operation_xyz
x,y,z
1/2-x,1/2-y,z
1/2+x,-y,-z
-x,1/2+y,-z
-x,-y,-z
1/2+x,1/2+y,-z
1/2-x,y,z
x,1/2-y,z
loop_
_atom_site_type_symbol
_atom_site_label
_atom_site_fract_x
_atom_site_fract_y
_atom_site_fract_z
Si Si1 0.934044 0.442112 0.333800
Si Si2 0.155371 0.562343 0.668376
Si Si3 0.205335 0.250000 0.670131
Si Si4 0.155790 0.564339 0.327844
Si Si5 0.705328 0.750000 0.672584
Si Si6 0.004778 0.939420 0.160465
Si Si7 0.072283 0.058671 0.351986
O O1 0.943911 0.250000 0.297531
O O2 0.889258 0.485905 0.289446
O O3 0.962851 0.556522 0.240433
O O4 0.941423 0.468878 0.502446
O O5 0.166497 0.750000 0.727190
O O6 0.184220 0.418689 0.731522
O O7 0.158747 0.564443 0.498247
O O8 0.250000 0.250000 0.726433
O O9 0.203563 0.250000 0.498842
O O10 0.168192 0.750000 0.268826
O O11 0.184253 0.418432 0.265697
O O12 0.110640 0.529666 0.283318
O O13 0.750000 0.750000 0.728582
O O14 0.020742 0.750000 0.162602
O O15 0.036788 0.054940 0.239327
O O16 0.000000 0.000000 0.000000
O O17 0.083628 0.250000 0.388594
#
# Coordination Sequence:
#
# PCOD8243796 Si02
#       7
#     8   8   4   8   4   8   8
#     4  10  20  35  54  77 101 136 181 221 259 311
#     4   8  16  27  43  65  95 129 169 212 252 300
#     4   9  16  24  40  64  97 133 169 207 257 311
#     4   9  16  28  44  67  96 132 173 216 257 306
#     4   9  16  26  40  66  99 135 171 211 263 317
#     4  12  25  39  53  74 105 138 170 220 273 320
#     4  11  20  34  55  77 102 138 181 223 261 312
#
# _framework density 19.109739000000001
#
# number of rings (size 3 to 8) (size 9 to 14) (size 15 to 20)
#    0.000    2.167    0.833    5.000    4.667    0.667 
#    0.000    3.333    0.000    0.000    0.000    0.000 
#    0.000    2.667    0.000    4.833    0.000    6.500 
#
# Total GULP energy -595141.571384 kJ/mol
# GULP energy per Si atom -12398.782737 kJ/mol
# Density = 1.906624 g / cm^3
# Si number density = 19.109739 Si / 1000 Ang^3
#
#
#
# Elastic Constant Matrix: (Units=GPa)
#
#
# Indices 1 2 3 4 5 6 
#
# 1 136.8718 67.3500 34.6317 0.0000 0.0000 0.0000
# 2 67.3500 138.2922 6.7512 0.0000 0.0000 0.0000
# 3 34.6317 6.7512 41.1491 0.0000 0.0000 0.0000
# 4 0.0000 0.0000 0.0000 15.0248 0.0000 0.0000
# 5 0.0000 0.0000 0.0000 0.0000 0.7664 0.0000
# 6 0.0000 0.0000 0.0000 0.0000 0.0000 32.9493
#
#
#
# Elastic Compliance Matrix: (Units=1/GPa)
#
#
# Indices 1 2 3 4 5 6 
#
# 1 0.012499 -0.005619 -0.009598 0.000000 0.000000 0.000000
# 2 -0.005619 0.009815 0.003119 0.000000 0.000000 0.000000
# 3 -0.009598 0.003119 0.031868 0.000000 0.000000 0.000000
# 4 0.000000 0.000000 0.000000 0.066556 0.000000 0.000000
# 5 0.000000 0.000000 0.000000 0.000000 1.304734 0.000000
# 6 0.000000 0.000000 0.000000 0.000000 0.000000 0.030350
#
#
# Mechanical properties :
#
#
# Convention : Reuss Voigt Hill
#
# Bulk Modulus (GPa) = 33.34857 59.30877 46.32867
# Shear Modulus (GPa) = 3.35567 23.58680 13.47124
#
# Velocity S-wave (km/s) = 1.32658 3.51705 2.65795
# Velocity P-wave (km/s) = 4.45369 6.89899 5.80653
#
# Compressibility (1/GPa) = 0.02998629
#
# Stress axis : x y z
#
# Youngs Moduli (GPa) = 80.00380 101.88217 31.37958
#
# Poissons Ratio (x) = 0.57246 0.30118
# Poissons Ratio (y) = 0.44953 -0.09786
# Poissons Ratio (z) = 0.76786 -0.31772
#
# Static dielectric constant tensor:
#      x y z
#    x 3.559350 0.000000 0.000000 
#    y 0.000000 4.046300 0.000000 
#    z 0.000000 0.000000 2.820280 
# 
# 
# High freq. dielectric constant tensor:
#      x y z
#    x 1.743470 0.000000 0.000000 
#    y 0.000000 1.766970 0.000000 
#    z 0.000000 0.000000 1.667420 
# 
# From -- ./inp_files/13063.got.cif
#   From: 2010.03.12/outbox.cif.g09.slc.cpg/sg59_7_cif.got.tgz:13063.got - 2010.04.16 16:29:54.
