data_PCOD8243170
_publ_section_title
;
Structure prediction by ZEFSAII (Michael W. Deem and Ramdas Pophale) SiO2 
 PCOD8243170
Probable space group: P M M N
;
_chemical_formula_sum "Si O2"
_cell_formula_units_Z 64
_cell_length_a 23.468159
_cell_length_b 9.336160
_cell_length_c 15.067806
_cell_angle_alpha 90.000000
_cell_angle_beta 90.000000
_cell_angle_gamma 90.000000
_cell_volume 3301.393773
_symmetry_space_group_name_H-M "P M M N"
_symmetry_group_IT_number 59
_space_group.IT_coordinate_system_code '2'
_symmetry_cell_setting 'orthorhombic'
loop_
_space_group_symop_operation_xyz
x,y,z
1/2-x,1/2-y,z
1/2+x,-y,-z
-x,1/2+y,-z
-x,-y,-z
1/2+x,1/2+y,-z
1/2-x,y,z
x,1/2-y,z
loop_
_atom_site_type_symbol
_atom_site_label
_atom_site_fract_x
_atom_site_fract_y
_atom_site_fract_z
Si Si1 0.023492 0.590299 0.080501
Si Si2 0.651670 0.410871 0.971348
Si Si3 0.373651 0.080528 0.681916
Si Si4 0.183390 0.417705 0.861893
Si Si5 0.607697 0.580121 0.657987
Si Si6 0.685329 0.579389 0.495181
Si Si7 0.812340 0.589253 0.815874
Si Si8 0.998941 0.079948 0.721391
O O1 0.998381 0.750000 0.070988
O O2 0.090969 0.590419 0.075431
O O3 0.005311 0.527236 0.176230
O O4 0.000000 0.500000 0.000000
O O5 0.673965 0.250000 0.988541
O O6 0.692562 0.490494 0.902408
O O7 0.649535 0.495730 0.063436
O O8 0.369992 0.250000 0.679463
O O9 0.340246 0.024864 0.768356
O O10 0.342252 0.017369 0.595340
O O11 0.439560 0.032733 0.684283
O O12 0.250000 0.451524 0.868141
O O13 0.170620 0.250000 0.874454
O O14 0.597443 0.750000 0.653696
O O15 0.644957 0.526124 0.574821
O O16 0.641918 0.533130 0.745594
O O17 0.547276 0.499552 0.659805
O O18 0.750000 0.520273 0.505823
O O19 0.687008 0.750000 0.493557
O O20 0.750000 0.588519 0.769957
O O21 0.828461 0.750000 0.846573
O O22 0.988737 0.250000 0.715470
#
# Coordination Sequence:
#
# PCOD8243170 Si02
#       8
#     8   8   8   8   8   8   8   8
#     4  10  21  35  52  74 104 143 186 227 268 317
#     4  11  22  35  51  76 108 143 180 220 274 331
#     4   9  18  33  56  82 109 143 181 225 276 326
#     4  10  20  35  56  81 108 141 184 230 275 326
#     4  10  20  34  55  82 111 142 179 225 272 318
#     4   9  17  32  56  86 114 139 177 229 279 324
#     4  10  20  34  52  75 104 140 180 221 266 317
#     4  10  20  36  54  77 112 148 182 221 270 330
#
# _framework density 19.385750999999999
#
# number of rings (size 3 to 8) (size 9 to 14) (size 15 to 20)
#    0.000    2.125    1.250    2.250    0.000    8.000 
#    0.000    0.625    0.000    1.875    0.000    0.000 
#    0.000    0.000    0.000    0.000    0.000    0.000 
#
# Total GULP energy -793591.972951 kJ/mol
# GULP energy per Si atom -12399.874577 kJ/mol
# Density = 1.934163 g / cm^3
# Si number density = 19.385751 Si / 1000 Ang^3
#
#
#
# Elastic Constant Matrix: (Units=GPa)
#
#
# Indices 1 2 3 4 5 6 
#
# 1 100.7220 26.5776 51.2400 0.0000 0.0000 0.0000
# 2 26.5776 47.6779 37.9123 0.0000 0.0000 0.0000
# 3 51.2400 37.9123 138.1485 0.0000 0.0000 0.0000
# 4 0.0000 0.0000 0.0000 14.9459 0.0000 0.0000
# 5 0.0000 0.0000 0.0000 0.0000 39.2631 0.0000
# 6 0.0000 0.0000 0.0000 0.0000 0.0000 25.9915
#
#
#
# Elastic Compliance Matrix: (Units=1/GPa)
#
#
# Indices 1 2 3 4 5 6 
#
# 1 0.012901 -0.004332 -0.003596 0.000000 0.000000 0.000000
# 2 -0.004332 0.028283 -0.006155 0.000000 0.000000 0.000000
# 3 -0.003596 -0.006155 0.010262 0.000000 0.000000 0.000000
# 4 0.000000 0.000000 0.000000 0.066908 0.000000 0.000000
# 5 0.000000 0.000000 0.000000 0.000000 0.025469 0.000000
# 6 0.000000 0.000000 0.000000 0.000000 0.000000 0.038474
#
#
# Mechanical properties :
#
#
# Convention : Reuss Voigt Hill
#
# Bulk Modulus (GPa) = 42.95648 57.55646 50.25647
# Shear Modulus (GPa) = 22.91231 27.42798 25.17015
#
# Velocity S-wave (km/s) = 3.44163 3.76553 3.60722
# Velocity P-wave (km/s) = 6.16441 6.97569 6.58256
#
# Compressibility (1/GPa) = 0.02327937
#
# Stress axis : x y z
#
# Youngs Moduli (GPa) = 77.51428 35.35665 97.45072
#
# Poissons Ratio (x) = 0.15316 0.35045
# Poissons Ratio (y) = 0.33578 0.59982
# Poissons Ratio (z) = 0.27876 0.21762
#
# Static dielectric constant tensor:
#      x y z
#    x 3.684290 0.000000 0.000000 
#    y 0.000000 3.242140 0.000000 
#    z 0.000000 0.000000 3.619730 
# 
# 
# High freq. dielectric constant tensor:
#      x y z
#    x 1.767710 0.000000 0.000000 
#    y 0.000000 1.714620 0.000000 
#    z 0.000000 0.000000 1.758220 
# 
# From -- ./inp_files/24755.got.cif
#   From: 2010.03.12/outbox.cif.g09.slc.cpg/sg59_13_cif.got.tgz:24755.got - 2010.04.16 16:29:54.
