data_PCOD8243545
_publ_section_title
;
Structure prediction by ZEFSAII (Michael W. Deem and Ramdas Pophale) SiO2 
 PCOD8243545
Probable space group: P M M N
;
_chemical_formula_sum "Si O2"
_cell_formula_units_Z 56
_cell_length_a 9.169288
_cell_length_b 14.828858
_cell_length_c 21.381766
_cell_angle_alpha 90.000000
_cell_angle_beta 90.000000
_cell_angle_gamma 90.000000
_cell_volume 2907.280214
_symmetry_space_group_name_H-M "P M M N"
_symmetry_group_IT_number 59
_space_group.IT_coordinate_system_code '2'
_symmetry_cell_setting 'orthorhombic'
loop_
_space_group_symop_operation_xyz
x,y,z
1/2-x,1/2-y,z
1/2+x,-y,-z
-x,1/2+y,-z
-x,-y,-z
1/2+x,1/2+y,-z
1/2-x,y,z
x,1/2-y,z
loop_
_atom_site_type_symbol
_atom_site_label
_atom_site_fract_x
_atom_site_fract_y
_atom_site_fract_z
Si Si1 0.586442 0.850890 0.185394
Si Si2 0.578833 0.004441 0.278064
Si Si3 0.079546 0.144641 0.508799
Si Si4 0.421007 0.995425 0.407648
Si Si5 0.915749 0.891572 0.942100
Si Si6 0.915787 0.395422 0.937047
Si Si7 0.913201 0.349805 0.179242
O O1 0.750000 0.879118 0.164158
O O2 0.582620 0.750000 0.211731
O O3 0.481475 0.857605 0.126474
O O4 0.535822 0.912447 0.242895
O O5 0.750000 0.009698 0.294616
O O6 0.527320 0.084945 0.232867
O O7 0.484747 0.013143 0.339784
O O8 0.250000 0.140594 0.525148
O O9 0.030270 0.250000 0.500990
O O10 0.993471 0.095314 0.564593
O O11 0.044650 0.086716 0.446564
O O12 0.250000 0.977178 0.403888
O O13 0.750000 0.858916 0.947032
O O14 0.985635 0.848506 0.881135
O O15 0.929091 0.997943 0.936215
O O16 0.998146 0.855463 0.003623
O O17 0.750000 0.362538 0.942075
O O18 0.750000 0.380512 0.159193
O O19 0.911872 0.250000 0.208190
#
# Coordination Sequence:
#
# PCOD8243545 Si02
#       7
#     8   8   8   8   8   8   8
#     4  10  21  37  57  79 104 141 187 230 276 331
#     4  10  21  38  57  79 114 153 188 226 271 328
#     4   9  19  38  62  87 118 155 191 227 272 327
#     4  10  21  36  58  89 120 150 189 233 277 321
#     4  10  20  34  55  80 106 139 180 227 284 342
#     4  10  20  34  55  80 106 138 178 227 286 341
#     4  10  21  37  57  80 107 143 187 232 278 328
#
# _framework density 19.261987999999999
#
# number of rings (size 3 to 8) (size 9 to 14) (size 15 to 20)
#    0.000    2.143    1.429    1.286    0.000    5.429 
#    0.000    1.429    0.000    0.000    0.000    0.000 
#    0.000    0.000    0.000    0.000    0.000    0.000 
#
# Total GULP energy -694436.471297 kJ/mol
# GULP energy per Si atom -12400.651273 kJ/mol
# Density = 1.921815 g / cm^3
# Si number density = 19.261988 Si / 1000 Ang^3
#
#
#
# Elastic Constant Matrix: (Units=GPa)
#
#
# Indices 1 2 3 4 5 6 
#
# 1 85.6939 46.0359 52.7724 0.0000 0.0000 0.0000
# 2 46.0359 108.2728 45.2908 0.0000 0.0000 0.0000
# 3 52.7724 45.2908 118.4191 0.0000 0.0000 0.0000
# 4 0.0000 0.0000 0.0000 5021.3377 0.0000 0.0000
# 5 0.0000 0.0000 0.0000 0.0000 40.5973 0.0000
# 6 0.0000 0.0000 0.0000 0.0000 0.0000 20.1479
#
#
#
# Elastic Compliance Matrix: (Units=1/GPa)
#
#
# Indices 1 2 3 4 5 6 
#
# 1 0.018239 -0.005184 -0.006145 0.000000 0.000000 0.000000
# 2 -0.005184 0.012469 -0.002458 0.000000 0.000000 0.000000
# 3 -0.006145 -0.002458 0.012123 0.000000 0.000000 0.000000
# 4 0.000000 0.000000 0.000000 0.000199 0.000000 0.000000
# 5 0.000000 0.000000 0.000000 0.000000 0.024632 0.000000
# 6 0.000000 0.000000 0.000000 0.000000 0.000000 0.049633
#
#
# Mechanical properties :
#
#
# Convention : Reuss Voigt Hill
#
# Bulk Modulus (GPa) = 65.55230 66.73155 66.14193
# Shear Modulus (GPa) = 33.34309 1027.63567 530.48938
#
# Velocity S-wave (km/s) = 4.16508 23.12277 16.61341
# Velocity P-wave (km/s) = 7.56547 27.34233 20.06040
#
# Compressibility (1/GPa) = 0.01525499
#
# Stress axis : x y z
#
# Youngs Moduli (GPa) = 54.82787 80.20156 82.48524
#
# Poissons Ratio (x) = 0.41579 0.50689
# Poissons Ratio (y) = 0.28425 0.20278
# Poissons Ratio (z) = 0.33693 0.19717
#
# Static dielectric constant tensor:
#      x y z
#    x 3.564650 0.000000 0.000000 
#    y 0.000000 3.662690 0.000000 
#    z 0.000000 0.000000 3.371470 
# 
# 
# High freq. dielectric constant tensor:
#      x y z
#    x 1.749070 0.000000 0.000000 
#    y 0.000000 1.758850 0.000000 
#    z 0.000000 0.000000 1.740090 
# 
# From -- ./inp_files/28982.got.cif
#   From: 2010.03.12/outbox.cif.g09.slc.cpg/sg59_15_cif.got.tgz:28982.got - 2010.04.16 16:29:54.
