data_PCOD8243115
_publ_section_title
;
Structure prediction by ZEFSAII (Michael W. Deem and Ramdas Pophale) SiO2 
 PCOD8243115
Probable space group: P M M N
;
_chemical_formula_sum "Si O2"
_cell_formula_units_Z 64
_cell_length_a 8.893653
_cell_length_b 19.866721
_cell_length_c 19.969373
_cell_angle_alpha 90.000000
_cell_angle_beta 90.000000
_cell_angle_gamma 90.000000
_cell_volume 3528.343042
_symmetry_space_group_name_H-M "P M M N"
_symmetry_group_IT_number 59
_space_group.IT_coordinate_system_code '2'
_symmetry_cell_setting 'orthorhombic'
loop_
_space_group_symop_operation_xyz
x,y,z
1/2-x,1/2-y,z
1/2+x,-y,-z
-x,1/2+y,-z
-x,-y,-z
1/2+x,1/2+y,-z
1/2-x,y,z
x,1/2-y,z
loop_
_atom_site_type_symbol
_atom_site_label
_atom_site_fract_x
_atom_site_fract_y
_atom_site_fract_z
Si Si1 0.577876 0.327735 0.076829
Si Si2 0.926932 0.571002 0.322400
Si Si3 0.073281 0.920406 0.685185
Si Si4 0.926745 0.572490 0.824920
Si Si5 0.921537 0.671160 0.578843
Si Si6 0.429105 0.175341 0.571520
Si Si7 0.926712 0.568039 0.172265
Si Si8 0.922404 0.172668 0.921854
O O1 0.750000 0.345439 0.094897
O O2 0.544922 0.250000 0.092838
O O3 0.464914 0.372474 0.119427
O O4 0.546783 0.343044 0.999227
O O5 0.750000 0.577986 0.329324
O O6 0.977386 0.494819 0.338949
O O7 0.001111 0.622551 0.375684
O O8 0.977744 0.589713 0.247086
O O9 0.250000 0.917975 0.698611
O O10 0.992999 0.902208 0.754552
O O11 0.030138 0.867317 0.628998
O O12 0.750000 0.565390 0.817950
O O13 0.993184 0.501107 0.848385
O O14 0.750000 0.647360 0.589717
O O15 0.935952 0.750000 0.593190
O O16 0.976703 0.654436 0.503581
O O17 0.250000 0.176745 0.574944
O O18 0.490979 0.250000 0.588682
O O19 0.750000 0.554526 0.169910
O O20 0.968605 0.626956 0.121835
O O21 0.750000 0.156729 0.903654
O O22 0.960266 0.250000 0.905731
#
# Coordination Sequence:
#
# PCOD8243115 Si02
#       8
#     8   8   8   8   8   8   8   8
#     4   9  19  37  58  78 103 135 170 211 259 308
#     4   8  16  30  47  71 101 130 165 208 250 295
#     4  10  20  34  51  72 101 134 166 205 252 302
#     4  11  22  36  55  77 103 135 171 213 258 307
#     4   9  18  32  50  73  99 128 166 209 249 295
#     4   8  14  27  48  72  99 130 163 203 250 296
#     4  10  20  34  53  78 108 139 174 216 257 303
#     4   9  19  36  56  78 106 139 173 210 255 307
#
# _framework density 18.138825000000001
#
# number of rings (size 3 to 8) (size 9 to 14) (size 15 to 20)
#    0.000    2.750    0.000    4.125    0.000    3.250 
#    0.000    2.500    0.000    3.750    0.000    0.000 
#    0.000    0.000    0.000    0.000    0.000    0.000 
#
# Total GULP energy -793552.171357 kJ/mol
# GULP energy per Si atom -12399.252677 kJ/mol
# Density = 1.809754 g / cm^3
# Si number density = 18.138825 Si / 1000 Ang^3
#
#
#
# Elastic Constant Matrix: (Units=GPa)
#
#
# Indices 1 2 3 4 5 6 
#
# 1 79.3235 43.4830 44.7117 0.0000 0.0000 0.0000
# 2 43.4830 96.7966 77.0014 0.0000 0.0000 0.0000
# 3 44.7117 77.0014 107.5439 0.0000 0.0000 0.0000
# 4 0.0000 0.0000 0.0000 40.3904 0.0000 0.0000
# 5 0.0000 0.0000 0.0000 0.0000 23.4129 0.0000
# 6 0.0000 0.0000 0.0000 0.0000 0.0000 27.0854
#
#
#
# Elastic Compliance Matrix: (Units=1/GPa)
#
#
# Indices 1 2 3 4 5 6 
#
# 1 0.017368 -0.004781 -0.003797 0.000000 0.000000 0.000000
# 2 -0.004781 0.025318 -0.016140 0.000000 0.000000 0.000000
# 3 -0.003797 -0.016140 0.022433 0.000000 0.000000 0.000000
# 4 0.000000 0.000000 0.000000 0.024758 0.000000 0.000000
# 5 0.000000 0.000000 0.000000 0.000000 0.042712 0.000000
# 6 0.000000 0.000000 0.000000 0.000000 0.000000 0.036920
#
#
# Mechanical properties :
#
#
# Convention : Reuss Voigt Hill
#
# Bulk Modulus (GPa) = 63.76573 68.22847 65.99710
# Shear Modulus (GPa) = 22.30409 26.07558 24.18984
#
# Velocity S-wave (km/s) = 3.51042 3.79563 3.65580
# Velocity P-wave (km/s) = 7.18758 7.54356 7.36772
#
# Compressibility (1/GPa) = 0.01568240
#
# Stress axis : x y z
#
# Youngs Moduli (GPa) = 57.57711 39.49771 44.57625
#
# Poissons Ratio (x) = 0.18885 0.16928
# Poissons Ratio (y) = 0.27529 0.71945
# Poissons Ratio (z) = 0.21865 0.63749
#
# Static dielectric constant tensor:
#      x y z
#    x 3.074360 0.000000 0.000000 
#    y 0.000000 3.442270 0.000000 
#    z 0.000000 0.000000 3.443850 
# 
# 
# High freq. dielectric constant tensor:
#      x y z
#    x 1.680370 0.000000 0.000000 
#    y 0.000000 1.705480 0.000000 
#    z 0.000000 0.000000 1.706780 
# 
# From -- ./inp_files/29455.got.cif
#   From: 2010.03.12/outbox.cif.g09.slc.cpg/sg59_15_cif.got.tgz:29455.got - 2010.04.16 16:29:54.
