data_PCOD8243019
_publ_section_title
;
Structure prediction by ZEFSAII (Michael W. Deem and Ramdas Pophale) SiO2 
 PCOD8243019
Probable space group: P M M N
;
_chemical_formula_sum "Si O2"
_cell_formula_units_Z 64
_cell_length_a 8.940620
_cell_length_b 13.707192
_cell_length_c 25.937327
_cell_angle_alpha 90.000000
_cell_angle_beta 90.000000
_cell_angle_gamma 90.000000
_cell_volume 3178.640042
_symmetry_space_group_name_H-M "P M M N"
_symmetry_group_IT_number 59
_space_group.IT_coordinate_system_code '2'
_symmetry_cell_setting 'orthorhombic'
loop_
_space_group_symop_operation_xyz
x,y,z
1/2-x,1/2-y,z
1/2+x,-y,-z
-x,1/2+y,-z
-x,-y,-z
1/2+x,1/2+y,-z
1/2-x,y,z
x,1/2-y,z
loop_
_atom_site_type_symbol
_atom_site_label
_atom_site_fract_x
_atom_site_fract_y
_atom_site_fract_z
Si Si1 0.916752 0.633435 0.481057
Si Si2 0.920094 0.634475 0.972700
Si Si3 0.573431 0.361960 0.922298
Si Si4 0.423384 0.135759 0.218271
Si Si5 0.073555 0.359300 0.633518
Si Si6 0.083296 0.865710 0.580267
Si Si7 0.575240 0.538699 0.674317
Si Si8 0.427161 0.535548 0.876363
O O1 0.750000 0.596228 0.493294
O O2 0.918550 0.750000 0.480545
O O3 0.967231 0.599395 0.423762
O O4 0.025437 0.591003 0.525473
O O5 0.750000 0.594338 0.974989
O O6 0.920325 0.750000 0.970420
O O7 0.001786 0.597818 0.922070
O O8 0.010541 0.598987 0.023042
O O9 0.750000 0.377303 0.921252
O O10 0.529122 0.250000 0.912526
O O11 0.494526 0.425921 0.877973
O O12 0.250000 0.114936 0.205162
O O13 0.457544 0.250000 0.218001
O O14 0.468966 0.093830 0.273622
O O15 0.529071 0.083807 0.177327
O O16 0.250000 0.358112 0.641249
O O17 0.009724 0.250000 0.641902
O O18 0.999499 0.431668 0.674725
O O19 0.250000 0.906782 0.589573
O O20 0.082297 0.750000 0.576884
O O21 0.979119 0.896157 0.627040
O O22 0.750000 0.524363 0.669355
O O23 0.250000 0.532671 0.882066
#
# Coordination Sequence:
#
# PCOD8243019 Si02
#       8
#     8   8   8   8   8   8   8   8
#     4   8  15  30  52  77 107 144 183 223 270 326
#     4  10  20  35  57  86 122 161 198 238 284 335
#     4  10  21  38  60  86 119 158 198 239 281 329
#     4  10  23  44  65  84 110 145 187 234 281 331
#     4   9  19  37  59  82 111 146 183 227 278 330
#     4  10  20  33  52  80 113 147 183 226 277 334
#     4  11  23  38  59  84 109 143 186 231 281 336
#     4  12  24  37  58  87 118 152 192 238 288 342
#
# _framework density 20.134395999999999
#
# number of rings (size 3 to 8) (size 9 to 14) (size 15 to 20)
#    0.000    2.000    0.000    4.500    0.000    6.750 
#    0.000    1.875    0.000    0.750    0.000    0.000 
#    0.000    0.000    0.000    0.000    0.000    0.000 
#
# Total GULP energy -793764.604198 kJ/mol
# GULP energy per Si atom -12402.571941 kJ/mol
# Density = 2.008857 g / cm^3
# Si number density = 20.134396 Si / 1000 Ang^3
#
#
#
# Elastic Constant Matrix: (Units=GPa)
#
#
# Indices 1 2 3 4 5 6 
#
# 1 103.4839 39.3272 53.4878 0.0000 0.0000 0.0000
# 2 39.3272 60.7724 48.2135 0.0000 0.0000 0.0000
# 3 53.4878 48.2135 101.6759 0.0000 0.0000 0.0000
# 4 0.0000 0.0000 0.0000 34.0631 0.0000 0.0000
# 5 0.0000 0.0000 0.0000 0.0000 32.2430 0.0000
# 6 0.0000 0.0000 0.0000 0.0000 0.0000 31.3405
#
#
#
# Elastic Compliance Matrix: (Units=1/GPa)
#
#
# Indices 1 2 3 4 5 6 
#
# 1 0.014245 -0.005247 -0.005006 0.000000 0.000000 0.000000
# 2 -0.005247 0.028311 -0.010664 0.000000 0.000000 0.000000
# 3 -0.005006 -0.010664 0.017525 0.000000 0.000000 0.000000
# 4 0.000000 0.000000 0.000000 0.029357 0.000000 0.000000
# 5 0.000000 0.000000 0.000000 0.000000 0.031014 0.000000
# 6 0.000000 0.000000 0.000000 0.000000 0.000000 0.031908
#
#
# Mechanical properties :
#
#
# Convention : Reuss Voigt Hill
#
# Bulk Modulus (GPa) = 54.80355 60.88769 57.84562
# Shear Modulus (GPa) = 24.96553 27.85622 26.41088
#
# Velocity S-wave (km/s) = 3.52510 3.72360 3.62571
# Velocity P-wave (km/s) = 6.62166 6.98521 6.80587
#
# Compressibility (1/GPa) = 0.01824699
#
# Stress axis : x y z
#
# Youngs Moduli (GPa) = 70.20249 35.32220 57.06015
#
# Poissons Ratio (x) = 0.18533 0.28561
# Poissons Ratio (y) = 0.36834 0.60852
# Poissons Ratio (z) = 0.35140 0.37669
#
# Static dielectric constant tensor:
#      x y z
#    x 3.758120 0.000000 0.000000 
#    y 0.000000 3.815630 0.000000 
#    z 0.000000 0.000000 3.612800 
# 
# 
# High freq. dielectric constant tensor:
#      x y z
#    x 1.788380 0.000000 0.000000 
#    y 0.000000 1.804120 0.000000 
#    z 0.000000 0.000000 1.769890 
# 
# From -- ./inp_files/31552.got.cif
#   From: 2010.03.12/outbox.cif.g09.slc.cpg/sg59_16_cif.got.tgz:31552.got - 2010.04.16 16:29:54.
