data_PCOD8243452
_publ_section_title
;
Structure prediction by ZEFSAII (Michael W. Deem and Ramdas Pophale) SiO2 
 PCOD8243452
Probable space group: P M M N
;
_chemical_formula_sum "Si O2"
_cell_formula_units_Z 64
_cell_length_a 19.644949
_cell_length_b 8.698169
_cell_length_c 20.830220
_cell_angle_alpha 90.000000
_cell_angle_beta 90.000000
_cell_angle_gamma 90.000000
_cell_volume 3559.365642
_symmetry_space_group_name_H-M "P M M N"
_symmetry_group_IT_number 59
_space_group.IT_coordinate_system_code '2'
_symmetry_cell_setting 'orthorhombic'
loop_
_space_group_symop_operation_xyz
x,y,z
1/2-x,1/2-y,z
1/2+x,-y,-z
-x,1/2+y,-z
-x,-y,-z
1/2+x,1/2+y,-z
1/2-x,y,z
x,1/2-y,z
loop_
_atom_site_type_symbol
_atom_site_label
_atom_site_fract_x
_atom_site_fract_y
_atom_site_fract_z
Si Si1 0.675881 0.567549 0.128945
Si Si2 0.464902 0.067473 0.062988
Si Si3 0.962368 0.567691 0.185207
Si Si4 0.676372 0.568228 0.985577
Si Si5 0.325715 0.925639 0.494712
Si Si6 0.541035 0.069229 0.318406
Si Si7 0.673164 0.929316 0.370583
Si Si8 0.965310 0.428895 0.562215
O O1 0.750000 0.513070 0.155347
O O2 0.673306 0.750000 0.126473
O O3 0.615287 0.508769 0.174415
O O4 0.664350 0.501161 0.057241
O O5 0.475530 0.250000 0.064239
O O6 0.385134 0.019015 0.060615
O O7 0.491806 0.992086 0.127455
O O8 0.500000 0.000000 0.000000
O O9 0.967770 0.750000 0.188162
O O10 0.988142 0.497106 0.251883
O O11 0.750000 0.509560 0.958977
O O12 0.677836 0.750000 0.991753
O O13 0.250000 0.957767 0.465900
O O14 0.331108 0.750000 0.519478
O O15 0.383475 0.956404 0.441259
O O16 0.340181 0.035263 0.554860
O O17 0.536522 0.250000 0.317181
O O18 0.619405 0.019134 0.327083
O O19 0.492706 0.009004 0.374483
O O20 0.750000 0.978731 0.351296
O O21 0.661789 0.750000 0.358728
O O22 0.983767 0.250000 0.565256
O O23 0.000000 0.500000 0.500000
#
# Coordination Sequence:
#
# PCOD8243452 Si02
#       8
#     8   8   8   8   8   8   8   8
#     4   8  14  27  49  76 104 137 177 216 257 311
#     4  11  20  33  55  82 109 141 180 224 272 323
#     4  11  22  37  55  78 108 144 183 229 277 328
#     4   8  14  27  50  79 106 135 175 219 261 310
#     4   9  18  33  55  83 112 141 176 223 278 328
#     4  12  25  39  54  77 111 151 189 232 277 328
#     4  10  20  34  54  80 110 146 187 226 268 325
#     4  11  21  35  58  85 112 145 183 227 275 329
#
# _framework density 17.980733000000001
#
# number of rings (size 3 to 8) (size 9 to 14) (size 15 to 20)
#    0.000    2.000    2.500    3.375    0.000    1.750 
#    0.000    1.250    0.000    4.125    0.000    0.000 
#    0.000    0.000    0.000    0.000    0.000    0.000 
#
# Total GULP energy -793318.744847 kJ/mol
# GULP energy per Si atom -12395.605388 kJ/mol
# Density = 1.793981 g / cm^3
# Si number density = 17.980733 Si / 1000 Ang^3
#
#
#
# Elastic Constant Matrix: (Units=GPa)
#
#
# Indices 1 2 3 4 5 6 
#
# 1 121.0557 44.1613 68.7253 0.0000 0.0000 0.0000
# 2 44.1613 89.9904 48.2123 0.0000 0.0000 0.0000
# 3 68.7253 48.2123 129.2815 0.0000 0.0000 0.0000
# 4 0.0000 0.0000 0.0000 28.0777 0.0000 0.0000
# 5 0.0000 0.0000 0.0000 0.0000 19.5941 0.0000
# 6 0.0000 0.0000 0.0000 0.0000 0.0000 22.5877
#
#
#
# Elastic Compliance Matrix: (Units=1/GPa)
#
#
# Indices 1 2 3 4 5 6 
#
# 1 0.012539 -0.003227 -0.005462 0.000000 0.000000 0.000000
# 2 -0.003227 0.014717 -0.003773 0.000000 0.000000 0.000000
# 3 -0.005462 -0.003773 0.012046 0.000000 0.000000 0.000000
# 4 0.000000 0.000000 0.000000 0.035615 0.000000 0.000000
# 5 0.000000 0.000000 0.000000 0.000000 0.051036 0.000000
# 6 0.000000 0.000000 0.000000 0.000000 0.000000 0.044272
#
#
# Mechanical properties :
#
#
# Convention : Reuss Voigt Hill
#
# Bulk Modulus (GPa) = 69.55237 73.61394 71.58315
# Shear Modulus (GPa) = 25.00732 26.00049 25.50390
#
# Velocity S-wave (km/s) = 3.73337 3.80678 3.77025
# Velocity P-wave (km/s) = 7.57295 7.76862 7.67141
#
# Compressibility (1/GPa) = 0.01437766
#
# Stress axis : x y z
#
# Youngs Moduli (GPa) = 79.75255 67.94764 83.01655
#
# Poissons Ratio (x) = 0.21926 0.45345
# Poissons Ratio (y) = 0.25735 0.31323
# Poissons Ratio (z) = 0.43562 0.25637
#
# Static dielectric constant tensor:
#      x y z
#    x 4.013860 0.000000 0.000000 
#    y 0.000000 3.254590 0.000000 
#    z 0.000000 0.000000 3.165620 
# 
# 
# High freq. dielectric constant tensor:
#      x y z
#    x 1.706750 0.000000 0.000000 
#    y 0.000000 1.685560 0.000000 
#    z 0.000000 0.000000 1.669670 
# 
# From -- ./inp_files/31016.got.cif
#   From: 2010.03.12/outbox.cif.g09.slc.cpg/sg59_16_cif.got.tgz:31016.got - 2010.04.16 16:29:54.
