data_PCOD8243525
_publ_section_title
;
Structure prediction by ZEFSAII (Michael W. Deem and Ramdas Pophale) SiO2 
 PCOD8243525
Probable space group: P M M N
;
_chemical_formula_sum "Si O2"
_cell_formula_units_Z 64
_cell_length_a 9.189544
_cell_length_b 23.788201
_cell_length_c 14.813096
_cell_angle_alpha 90.000000
_cell_angle_beta 90.000000
_cell_angle_gamma 90.000000
_cell_volume 3238.183074
_symmetry_space_group_name_H-M "P M M N"
_symmetry_group_IT_number 59
_space_group.IT_coordinate_system_code '2'
_symmetry_cell_setting 'orthorhombic'
loop_
_space_group_symop_operation_xyz
x,y,z
1/2-x,1/2-y,z
1/2+x,-y,-z
-x,1/2+y,-z
-x,-y,-z
1/2+x,1/2+y,-z
1/2-x,y,z
x,1/2-y,z
loop_
_atom_site_type_symbol
_atom_site_label
_atom_site_fract_x
_atom_site_fract_y
_atom_site_fract_z
Si Si1 0.920829 0.887125 0.856716
Si Si2 0.079084 0.504295 0.219844
Si Si3 0.577162 0.813975 0.022743
Si Si4 0.418559 0.814177 0.347174
Si Si5 0.412649 0.811603 0.729718
Si Si6 0.587075 0.356748 0.457669
Si Si7 0.078633 0.033185 0.421126
Si Si8 0.577371 0.881430 0.197945
O O1 0.750000 0.880409 0.856417
O O2 0.977901 0.857449 0.767177
O O3 0.962322 0.952901 0.847955
O O4 0.986023 0.855359 0.944690
O O5 0.250000 0.517600 0.215285
O O6 0.033089 0.490510 0.322854
O O7 0.989686 0.557117 0.182995
O O8 0.750000 0.812271 0.017370
O O9 0.515682 0.750000 0.013300
O O10 0.526539 0.840401 0.117358
O O11 0.250000 0.827196 0.326330
O O12 0.456888 0.750000 0.323550
O O13 0.456820 0.825360 0.450978
O O14 0.518999 0.855518 0.290278
O O15 0.250000 0.825798 0.764021
O O16 0.460141 0.750000 0.763855
O O17 0.416366 0.810862 0.621321
O O18 0.750000 0.383178 0.466688
O O19 0.469737 0.402986 0.430949
O O20 0.250000 0.028546 0.434567
O O21 0.000000 0.000000 0.500000
O O22 0.750000 0.887225 0.202302
#
# Coordination Sequence:
#
# PCOD8243525 Si02
#       8
#     8   8   8   8   8   8   8   8
#     4  10  20  38  62  85 112 151 193 233 279 341
#     4  10  22  39  57  82 117 151 191 240 288 339
#     4   9  19  37  61  88 116 147 186 234 291 350
#     4  10  21  38  59  83 114 154 196 237 288 347
#     4  10  20  34  54  83 118 150 182 228 283 336
#     4  10  20  35  55  80 112 150 190 231 281 342
#     4  11  22  36  54  79 112 151 195 241 284 335
#     4  11  23  38  59  86 115 150 194 242 291 342
#
# _framework density 19.76417
#
# number of rings (size 3 to 8) (size 9 to 14) (size 15 to 20)
#    0.000    1.875    1.250    2.625    0.000    8.500 
#    0.000    1.250    0.000    5.250    0.000    0.000 
#    0.000    0.000    0.000    0.000    0.000    0.000 
#
# Total GULP energy -793541.268176 kJ/mol
# GULP energy per Si atom -12399.082315 kJ/mol
# Density = 1.971919 g / cm^3
# Si number density = 19.764170 Si / 1000 Ang^3
#
#
#
# Elastic Constant Matrix: (Units=GPa)
#
#
# Indices 1 2 3 4 5 6 
#
# 1 38.2154 45.2404 29.4339 0.0000 0.0000 0.0000
# 2 45.2404 140.8172 47.2415 0.0000 0.0000 0.0000
# 3 29.4339 47.2415 99.7793 0.0000 0.0000 0.0000
# 4 0.0000 0.0000 0.0000 37.9522 0.0000 0.0000
# 5 0.0000 0.0000 0.0000 0.0000 18.5085 0.0000
# 6 0.0000 0.0000 0.0000 0.0000 0.0000 29.8621
#
#
#
# Elastic Compliance Matrix: (Units=1/GPa)
#
#
# Indices 1 2 3 4 5 6 
#
# 1 0.047038 -0.012431 -0.007990 0.000000 0.000000 0.000000
# 2 -0.012431 0.011728 -0.001885 0.000000 0.000000 0.000000
# 3 -0.007990 -0.001885 0.013272 0.000000 0.000000 0.000000
# 4 0.000000 0.000000 0.000000 0.026349 0.000000 0.000000
# 5 0.000000 0.000000 0.000000 0.000000 0.054029 0.000000
# 6 0.000000 0.000000 0.000000 0.000000 0.000000 0.033487
#
#
# Mechanical properties :
#
#
# Convention : Reuss Voigt Hill
#
# Bulk Modulus (GPa) = 36.46463 58.07151 47.26807
# Shear Modulus (GPa) = 20.86304 27.72430 24.29367
#
# Velocity S-wave (km/s) = 3.25252 3.74940 3.50977
# Velocity P-wave (km/s) = 5.70921 6.94190 6.35552
#
# Compressibility (1/GPa) = 0.02742383
#
# Stress axis : x y z
#
# Youngs Moduli (GPa) = 21.25934 85.26735 75.34778
#
# Poissons Ratio (x) = 1.06000 0.60203
# Poissons Ratio (y) = 0.26429 0.14207
# Poissons Ratio (z) = 0.16986 0.16077
#
# Static dielectric constant tensor:
#      x y z
#    x 3.468600 0.000000 0.000000 
#    y 0.000000 3.819620 0.000000 
#    z 0.000000 0.000000 3.717750 
# 
# 
# High freq. dielectric constant tensor:
#      x y z
#    x 1.751060 0.000000 0.000000 
#    y 0.000000 1.781930 0.000000 
#    z 0.000000 0.000000 1.773790 
# 
# From -- ./inp_files/21525.got.cif
#   From: 2010.03.12/outbox.cif.g09.slc.cpg/sg59_11_cif.got.tgz:21525.got - 2010.04.16 16:29:54.
