data_PCOD8243444
_publ_section_title
;
Structure prediction by ZEFSAII (Michael W. Deem and Ramdas Pophale) SiO2 
 PCOD8243444
Probable space group: P M M N
;
_chemical_formula_sum "Si O2"
_cell_formula_units_Z 56
_cell_length_a 14.153877
_cell_length_b 8.907058
_cell_length_c 22.975340
_cell_angle_alpha 90.000000
_cell_angle_beta 90.000000
_cell_angle_gamma 90.000000
_cell_volume 2896.487406
_symmetry_space_group_name_H-M "P M M N"
_symmetry_group_IT_number 59
_space_group.IT_coordinate_system_code '2'
_symmetry_cell_setting 'orthorhombic'
loop_
_space_group_symop_operation_xyz
x,y,z
1/2-x,1/2-y,z
1/2+x,-y,-z
-x,1/2+y,-z
-x,-y,-z
1/2+x,1/2+y,-z
1/2-x,y,z
x,1/2-y,z
loop_
_atom_site_type_symbol
_atom_site_label
_atom_site_fract_x
_atom_site_fract_y
_atom_site_fract_z
Si Si1 0.858854 0.923454 0.528266
Si Si2 0.857696 0.426637 0.405781
Si Si3 0.352678 0.076009 0.897890
Si Si4 0.043454 0.426312 0.141887
Si Si5 0.592084 0.578262 0.979942
Si Si6 0.357083 0.927470 0.250299
Si Si7 0.465719 0.927974 0.365732
O O1 0.750000 0.941071 0.546008
O O2 0.886358 0.750000 0.518550
O O3 0.881382 0.014454 0.470029
O O4 0.920426 0.993698 0.578835
O O5 0.750000 0.465738 0.388436
O O6 0.876380 0.250000 0.403668
O O7 0.926567 0.511735 0.360396
O O8 0.250000 0.038511 0.869340
O O9 0.379934 0.250000 0.887484
O O10 0.434717 0.974853 0.870227
O O11 0.334447 0.048022 0.967927
O O12 0.044420 0.250000 0.154523
O O13 0.112678 0.472850 0.086982
O O14 0.083201 0.509673 0.197278
O O15 0.566287 0.750000 0.973962
O O16 0.500000 0.500000 0.000000
O O17 0.250000 0.990706 0.249716
O O18 0.356423 0.750000 0.245544
O O19 0.407785 0.979942 0.309293
O O20 0.464258 0.750000 0.373306
#
# Coordination Sequence:
#
# PCOD8243444 Si02
#       7
#     8   8   8   8   8   8   8
#     4  10  20  34  55  84 116 148 182 220 264 317
#     4  10  21  37  57  82 113 146 179 218 266 320
#     4   9  17  31  53  79 109 146 183 218 261 318
#     4  10  20  34  54  80 110 142 177 223 274 319
#     4   8  15  28  47  73 104 137 173 214 261 311
#     4  10  23  42  60  78 103 139 182 223 265 319
#     4  11  22  37  58  81 108 142 181 226 271 316
#
# _framework density 19.333763000000001
#
# number of rings (size 3 to 8) (size 9 to 14) (size 15 to 20)
#    0.000    2.286    0.000    2.571    0.000    5.143 
#    0.000    2.143    0.000    0.857    0.000    0.000 
#    0.000    0.000    0.000    0.000    0.000    0.000 
#
# Total GULP energy -693858.260210 kJ/mol
# GULP energy per Si atom -12390.326075 kJ/mol
# Density = 1.928976 g / cm^3
# Si number density = 19.333763 Si / 1000 Ang^3
#
#
#
# Elastic Constant Matrix: (Units=GPa)
#
#
# Indices 1 2 3 4 5 6 
#
# 1 105.9222 18.2678 53.4367 0.0000 0.0000 0.0000
# 2 18.2678 24.6966 16.3629 0.0000 0.0000 0.0000
# 3 53.4367 16.3629 70.7105 0.0000 0.0000 0.0000
# 4 0.0000 0.0000 0.0000 28.5838 0.0000 0.0000
# 5 0.0000 0.0000 0.0000 0.0000 19.2736 0.0000
# 6 0.0000 0.0000 0.0000 0.0000 0.0000 28.1644
#
#
#
# Elastic Compliance Matrix: (Units=1/GPa)
#
#
# Indices 1 2 3 4 5 6 
#
# 1 0.015656 -0.004419 -0.010809 0.000000 0.000000 0.000000
# 2 -0.004419 0.049071 -0.008016 0.000000 0.000000 0.000000
# 3 -0.010809 -0.008016 0.024165 0.000000 0.000000 0.000000
# 4 0.000000 0.000000 0.000000 0.034985 0.000000 0.000000
# 5 0.000000 0.000000 0.000000 0.000000 0.051884 0.000000
# 6 0.000000 0.000000 0.000000 0.000000 0.000000 0.035506
#
#
# Mechanical properties :
#
#
# Convention : Reuss Voigt Hill
#
# Bulk Modulus (GPa) = 23.58205 41.94043 32.76124
# Shear Modulus (GPa) = 18.38979 22.75515 20.57247
#
# Velocity S-wave (km/s) = 3.08746 3.43441 3.26555
# Velocity P-wave (km/s) = 4.99336 6.12102 5.58572
#
# Compressibility (1/GPa) = 0.04240514
#
# Stress axis : x y z
#
# Youngs Moduli (GPa) = 63.87346 20.37856 41.38148
#
# Poissons Ratio (x) = 0.09006 0.44728
# Poissons Ratio (y) = 0.28226 0.33171
# Poissons Ratio (z) = 0.69039 0.16335
#
# Static dielectric constant tensor:
#      x y z
#    x 3.638910 0.000000 0.000000 
#    y 0.000000 3.525790 0.000000 
#    z 0.000000 0.000000 6.883140 
# 
# 
# High freq. dielectric constant tensor:
#      x y z
#    x 1.758360 0.000000 0.000000 
#    y 0.000000 1.754420 0.000000 
#    z 0.000000 0.000000 1.739920 
# 
# From -- ./inp_files/30317.got.cif
#   From: 2010.03.12/outbox.cif.g09.slc.cpg/sg59_16_cif.got.tgz:30317.got - 2010.04.16 16:29:54.
