data_PCOD8243260
_publ_section_title
;
Structure prediction by ZEFSAII (Michael W. Deem and Ramdas Pophale) SiO2 
 PCOD8243260
Probable space group: P M M N
;
_chemical_formula_sum "Si O2"
_cell_formula_units_Z 64
_cell_length_a 8.937872
_cell_length_b 19.725692
_cell_length_c 20.231517
_cell_angle_alpha 90.000000
_cell_angle_beta 90.000000
_cell_angle_gamma 90.000000
_cell_volume 3566.931973
_symmetry_space_group_name_H-M "P M M N"
_symmetry_group_IT_number 59
_space_group.IT_coordinate_system_code '2'
_symmetry_cell_setting 'orthorhombic'
loop_
_space_group_symop_operation_xyz
x,y,z
1/2-x,1/2-y,z
1/2+x,-y,-z
-x,1/2+y,-z
-x,-y,-z
1/2+x,1/2+y,-z
1/2-x,y,z
x,1/2-y,z
loop_
_atom_site_type_symbol
_atom_site_label
_atom_site_fract_x
_atom_site_fract_y
_atom_site_fract_z
Si Si1 0.425475 0.576566 0.185618
Si Si2 0.574914 0.172314 0.931541
Si Si3 0.924719 0.576515 0.820592
Si Si4 0.926002 0.567746 0.323088
Si Si5 0.077250 0.327583 0.563906
Si Si6 0.572150 0.573189 0.672929
Si Si7 0.072950 0.172741 0.066506
Si Si8 0.422710 0.829215 0.570792
O O1 0.250000 0.585157 0.200471
O O2 0.482987 0.628152 0.129930
O O3 0.461539 0.500863 0.160153
O O4 0.513480 0.592462 0.252551
O O5 0.750000 0.161909 0.942318
O O6 0.533557 0.250000 0.916248
O O7 0.493793 0.146591 0.997522
O O8 0.750000 0.590372 0.820974
O O9 0.985079 0.591869 0.746847
O O10 0.997055 0.626928 0.874640
O O11 0.750000 0.555659 0.318521
O O12 0.968614 0.626277 0.374571
O O13 0.002956 0.498759 0.348046
O O14 0.250000 0.337580 0.544294
O O15 0.043776 0.250000 0.583726
O O16 0.978071 0.350308 0.501728
O O17 0.750000 0.566172 0.670627
O O18 0.518939 0.631843 0.624834
O O19 0.250000 0.165487 0.061895
O O20 0.023853 0.250000 0.080327
O O21 0.250000 0.849438 0.577705
O O22 0.449778 0.750000 0.583013
#
# Coordination Sequence:
#
# PCOD8243260 Si02
#       8
#     8   8   8   8   8   8   8   8
#     4   9  18  33  50  68  95 130 164 198 240 295
#     4   9  18  32  48  68  96 128 161 198 242 293
#     4   8  16  31  49  69  93 123 161 201 239 285
#     4  10  20  34  53  77 104 131 164 211 257 296
#     4   9  19  36  55  75 101 134 170 206 249 303
#     4  10  20  35  55  76 102 137 172 206 248 304
#     4   9  17  30  48  69  93 121 156 199 242 285
#     4  10  21  36  54  78 106 133 166 211 255 294
#
# _framework density 17.942591
#
# number of rings (size 3 to 8) (size 9 to 14) (size 15 to 20)
#    0.000    2.750    0.000    1.875    0.000    4.250 
#    0.000    4.375    0.000    1.500    0.000    0.000 
#    0.000    0.000    0.000    0.000    0.000    0.000 
#
# Total GULP energy -793634.155796 kJ/mol
# GULP energy per Si atom -12400.533684 kJ/mol
# Density = 1.790175 g / cm^3
# Si number density = 17.942591 Si / 1000 Ang^3
#
#
#
# Elastic Constant Matrix: (Units=GPa)
#
#
# Indices 1 2 3 4 5 6 
#
# 1 55.8500 38.7551 47.5246 0.0000 0.0000 0.0000
# 2 38.7551 94.7267 85.4746 0.0000 0.0000 0.0000
# 3 47.5246 85.4746 134.1022 0.0000 0.0000 0.0000
# 4 0.0000 0.0000 0.0000 41.0736 0.0000 0.0000
# 5 0.0000 0.0000 0.0000 0.0000 31.0576 0.0000
# 6 0.0000 0.0000 0.0000 0.0000 0.0000 22.9555
#
#
#
# Elastic Compliance Matrix: (Units=1/GPa)
#
#
# Indices 1 2 3 4 5 6 
#
# 1 0.026862 -0.005649 -0.005919 0.000000 0.000000 0.000000
# 2 -0.005649 0.026035 -0.014592 0.000000 0.000000 0.000000
# 3 -0.005919 -0.014592 0.018855 0.000000 0.000000 0.000000
# 4 0.000000 0.000000 0.000000 0.024347 0.000000 0.000000
# 5 0.000000 0.000000 0.000000 0.000000 0.032198 0.000000
# 6 0.000000 0.000000 0.000000 0.000000 0.000000 0.043563
#
#
# Mechanical properties :
#
#
# Convention : Reuss Voigt Hill
#
# Bulk Modulus (GPa) = 51.46242 69.79860 60.63051
# Shear Modulus (GPa) = 21.67724 26.54565 24.11144
#
# Velocity S-wave (km/s) = 3.47961 3.85057 3.66978
# Velocity P-wave (km/s) = 6.69982 7.66516 7.19869
#
# Compressibility (1/GPa) = 0.01943166
#
# Stress axis : x y z
#
# Youngs Moduli (GPa) = 37.22781 38.41025 53.03497
#
# Poissons Ratio (x) = 0.21697 0.31392
# Poissons Ratio (y) = 0.21029 0.77390
# Poissons Ratio (z) = 0.22035 0.56049
#
# Static dielectric constant tensor:
#      x y z
#    x 3.198750 0.000000 0.000000 
#    y 0.000000 3.400120 0.000000 
#    z 0.000000 0.000000 3.457160 
# 
# 
# High freq. dielectric constant tensor:
#      x y z
#    x 1.683870 0.000000 0.000000 
#    y 0.000000 1.694980 0.000000 
#    z 0.000000 0.000000 1.699720 
# 
# From -- ./inp_files/26260.got.cif
#   From: 2010.03.12/outbox.cif.g09.slc.cpg/sg59_14_cif.got.tgz:26260.got - 2010.04.16 16:29:54.
