data_PCOD8243759
_publ_section_title
;
Structure prediction by ZEFSAII (Michael W. Deem and Ramdas Pophale) SiO2 
 PCOD8243759
Probable space group: P M M N
;
_chemical_formula_sum "Si O2"
_cell_formula_units_Z 56
_cell_length_a 8.564971
_cell_length_b 29.190525
_cell_length_c 12.573730
_cell_angle_alpha 90.000000
_cell_angle_beta 90.000000
_cell_angle_gamma 90.000000
_cell_volume 3143.633681
_symmetry_space_group_name_H-M "P M M N"
_symmetry_group_IT_number 59
_space_group.IT_coordinate_system_code '2'
_symmetry_cell_setting 'orthorhombic'
loop_
_space_group_symop_operation_xyz
x,y,z
1/2-x,1/2-y,z
1/2+x,-y,-z
-x,1/2+y,-z
-x,-y,-z
1/2+x,1/2+y,-z
1/2-x,y,z
x,1/2-y,z
loop_
_atom_site_type_symbol
_atom_site_label
_atom_site_fract_x
_atom_site_fract_y
_atom_site_fract_z
Si Si1 0.066464 0.799670 0.279937
Si Si2 0.066362 0.945657 0.159434
Si Si3 0.065352 0.954644 0.551498
Si Si4 0.435439 0.607859 0.367559
Si Si5 0.932851 0.458465 0.208356
Si Si6 0.068919 0.105313 0.041350
Si Si7 0.429789 0.199028 0.945959
O O1 0.250000 0.797857 0.295876
O O2 0.993452 0.750000 0.312200
O O3 0.995746 0.840725 0.351833
O O4 0.034202 0.810374 0.157033
O O5 0.250000 0.939107 0.140449
O O6 0.008492 0.924922 0.271639
O O7 0.973857 0.920261 0.067034
O O8 0.025496 0.999258 0.157252
O O9 0.250000 0.957181 0.546869
O O10 0.004255 0.911945 0.480077
O O11 0.006328 0.948843 0.671973
O O12 0.000000 0.000000 0.500000
O O13 0.250000 0.609697 0.364608
O O14 0.750000 0.469574 0.207083
O O15 0.967803 0.413479 0.139266
O O16 0.250000 0.096980 0.065877
O O17 0.030724 0.159703 0.031938
O O18 0.250000 0.195043 0.910425
O O19 0.464536 0.250000 0.993246
#
# Coordination Sequence:
#
# PCOD8243759 Si02
#       7
#     8   8   8   8   8   8   8
#     4   9  16  28  49  76 102 128 159 195 244 305
#     4  11  20  33  53  75 104 136 166 205 252 301
#     4  10  20  35  53  72  97 130 169 210 248 292
#     4   9  17  30  50  75 102 130 158 200 250 292
#     4  11  23  36  51  72 101 137 177 213 247 294
#     4  11  22  35  52  74 104 136 169 206 252 306
#     4   9  18  32  50  73 100 129 162 203 250 297
#
# _framework density 17.813780000000001
#
# number of rings (size 3 to 8) (size 9 to 14) (size 15 to 20)
#    0.000    2.000    2.857    1.714    0.000    1.143 
#    0.000    0.714    0.000    0.857    0.000    2.000 
#    0.000    0.000    0.000    0.000    0.000    0.000 
#
# Total GULP energy -694243.170641 kJ/mol
# GULP energy per Si atom -12397.199476 kJ/mol
# Density = 1.777323 g / cm^3
# Si number density = 17.813780 Si / 1000 Ang^3
#
#
#
# Elastic Constant Matrix: (Units=GPa)
#
#
# Indices 1 2 3 4 5 6 
#
# 1 19.1555 11.5899 8.7873 0.0000 0.0000 0.0000
# 2 11.5899 146.6724 57.0630 0.0000 0.0000 0.0000
# 3 8.7873 57.0630 98.1303 0.0000 0.0000 0.0000
# 4 0.0000 0.0000 0.0000 27.7164 0.0000 0.0000
# 5 0.0000 0.0000 0.0000 0.0000 15.9573 0.0000
# 6 0.0000 0.0000 0.0000 0.0000 0.0000 18.9827
#
#
#
# Elastic Compliance Matrix: (Units=1/GPa)
#
#
# Indices 1 2 3 4 5 6 
#
# 1 0.055560 -0.003172 -0.003131 0.000000 0.000000 0.000000
# 2 -0.003172 0.008992 -0.004945 0.000000 0.000000 0.000000
# 3 -0.003131 -0.004945 0.013346 0.000000 0.000000 0.000000
# 4 0.000000 0.000000 0.000000 0.036080 0.000000 0.000000
# 5 0.000000 0.000000 0.000000 0.000000 0.062667 0.000000
# 6 0.000000 0.000000 0.000000 0.000000 0.000000 0.052680
#
#
# Mechanical properties :
#
#
# Convention : Reuss Voigt Hill
#
# Bulk Modulus (GPa) = 18.04963 46.53763 32.29363
# Shear Modulus (GPa) = 18.49875 24.96582 21.73228
#
# Velocity S-wave (km/s) = 3.22600 3.74771 3.49660
# Velocity P-wave (km/s) = 4.90209 6.70137 5.87106
#
# Compressibility (1/GPa) = 0.05540280
#
# Stress axis : x y z
#
# Youngs Moduli (GPa) = 17.99865 111.20416 74.92641
#
# Poissons Ratio (x) = 0.35278 0.23456
# Poissons Ratio (y) = 0.05710 0.37052
# Poissons Ratio (z) = 0.05634 0.54991
#
# Static dielectric constant tensor:
#      x y z
#    x 3.152650 0.000000 0.000000 
#    y 0.000000 3.790650 0.000000 
#    z 0.000000 0.000000 3.323680 
# 
# 
# High freq. dielectric constant tensor:
#      x y z
#    x 1.677440 0.000000 0.000000 
#    y 0.000000 1.699020 0.000000 
#    z 0.000000 0.000000 1.665400 
# 
# From -- ./inp_files/21719.got.cif
#   From: 2010.03.12/outbox.cif.g09.slc.cpg/sg59_11_cif.got.tgz:21719.got - 2010.04.16 16:29:54.
