data_PCOD8243983
_publ_section_title
;
Structure prediction by ZEFSAII (Michael W. Deem and Ramdas Pophale) SiO2 
 PCOD8243983
Probable space group: P M M N
;
_chemical_formula_sum "Si O2"
_cell_formula_units_Z 48
_cell_length_a 15.750556
_cell_length_b 9.087809
_cell_length_c 16.843568
_cell_angle_alpha 90.000000
_cell_angle_beta 90.000000
_cell_angle_gamma 90.000000
_cell_volume 2410.955387
_symmetry_space_group_name_H-M "P M M N"
_symmetry_group_IT_number 59
_space_group.IT_coordinate_system_code '2'
_symmetry_cell_setting 'orthorhombic'
loop_
_space_group_symop_operation_xyz
x,y,z
1/2-x,1/2-y,z
1/2+x,-y,-z
-x,1/2+y,-z
-x,-y,-z
1/2+x,1/2+y,-z
1/2-x,y,z
x,1/2-y,z
loop_
_atom_site_type_symbol
_atom_site_label
_atom_site_fract_x
_atom_site_fract_y
_atom_site_fract_z
Si Si1 0.099838 0.418131 0.151763
Si Si2 0.750000 0.077114 0.567359
Si Si3 0.084171 0.924309 0.532123
Si Si4 0.847534 0.917790 0.320781
Si Si5 0.750000 0.923985 0.736028
Si Si6 0.591937 0.418725 0.172553
Si Si7 0.846588 0.076783 0.001343
O O1 0.120870 0.250000 0.130816
O O2 0.167593 0.478489 0.215367
O O3 0.007667 0.435159 0.190702
O O4 0.101241 0.506366 0.070064
O O5 0.750000 0.250000 0.581601
O O6 0.665578 0.028642 0.520079
O O7 0.750000 0.998454 0.651198
O O8 0.071498 0.750000 0.533617
O O9 0.097103 0.980932 0.621375
O O10 0.000000 0.000000 0.500000
O O11 0.750000 0.927258 0.346652
O O12 0.880309 0.750000 0.324712
O O13 0.856582 0.978298 0.231976
O O14 0.750000 0.750000 0.722951
O O15 0.622170 0.250000 0.183254
O O16 0.612038 0.474087 0.083935
O O17 0.750000 0.021045 0.998057
O O18 0.852784 0.250000 0.991595
#
# Coordination Sequence:
#
# PCOD8243983 Si02
#       7
#     8   4   8   8   4   8   8
#     4  10  21  38  58  84 116 155 199 247 302 355
#     4  10  24  44  66  93 124 161 204 251 308 371
#     4  11  24  44  68  96 128 165 208 255 313 374
#     4  11  24  42  64  93 125 160 204 251 304 364
#     4  10  22  38  58  85 118 155 198 249 302 355
#     4  10  22  38  59  87 120 158 202 248 301 362
#     4  10  20  35  56  83 115 156 201 246 302 361
#
# _framework density 19.909120000000001
#
# number of rings (size 3 to 8) (size 9 to 14) (size 15 to 20)
#    0.000    1.667    1.667    2.000    2.333    5.000 
#    0.000    0.000    0.000    0.000    0.000    0.000 
#    0.000    0.000    0.000    0.000    0.000    0.000 
#
# Total GULP energy -595451.695460 kJ/mol
# GULP energy per Si atom -12405.243655 kJ/mol
# Density = 1.986381 g / cm^3
# Si number density = 19.909120 Si / 1000 Ang^3
#
#
#
# Elastic Constant Matrix: (Units=GPa)
#
#
# Indices 1 2 3 4 5 6 
#
# 1 90.8751 41.0092 34.1341 0.0000 0.0000 0.0000
# 2 41.0092 72.0718 52.1033 0.0000 0.0000 0.0000
# 3 34.1341 52.1033 126.7101 0.0000 0.0000 0.0000
# 4 0.0000 0.0000 0.0000 41.3720 0.0000 0.0000
# 5 0.0000 0.0000 0.0000 0.0000 33.2836 0.0000
# 6 0.0000 0.0000 0.0000 0.0000 0.0000 28.4066
#
#
#
# Elastic Compliance Matrix: (Units=1/GPa)
#
#
# Indices 1 2 3 4 5 6 
#
# 1 0.014856 -0.007912 -0.000749 0.000000 0.000000 0.000000
# 2 -0.007912 0.023958 -0.007720 0.000000 0.000000 0.000000
# 3 -0.000749 -0.007720 0.011268 0.000000 0.000000 0.000000
# 4 0.000000 0.000000 0.000000 0.024171 0.000000 0.000000
# 5 0.000000 0.000000 0.000000 0.000000 0.030045 0.000000
# 6 0.000000 0.000000 0.000000 0.000000 0.000000 0.035203
#
#
# Mechanical properties :
#
#
# Convention : Reuss Voigt Hill
#
# Bulk Modulus (GPa) = 57.73406 60.46115 59.09761
# Shear Modulus (GPa) = 28.08425 31.43980 29.76202
#
# Velocity S-wave (km/s) = 3.75990 3.97818 3.87058
# Velocity P-wave (km/s) = 6.92177 7.17884 7.05148
#
# Compressibility (1/GPa) = 0.01732080
#
# Stress axis : x y z
#
# Youngs Moduli (GPa) = 67.31457 41.73947 88.74457
#
# Poissons Ratio (x) = 0.33023 0.06644
# Poissons Ratio (y) = 0.53257 0.68513
# Poissons Ratio (z) = 0.05039 0.32224
#
# Static dielectric constant tensor:
#      x y z
#    x 3.740690 0.000000 0.000000 
#    y 0.000000 3.548270 0.000000 
#    z 0.000000 0.000000 3.546390 
# 
# 
# High freq. dielectric constant tensor:
#      x y z
#    x 1.787700 0.000000 0.000000 
#    y 0.000000 1.770130 0.000000 
#    z 0.000000 0.000000 1.782940 
# 
# From -- ./inp_files/23697.got.cif
#   From: 2010.03.12/outbox.cif.g09.slc.cpg/sg59_12_cif.got.tgz:23697.got - 2010.04.16 16:29:54.
