data_PCOD8243448
_publ_section_title
;
Structure prediction by ZEFSAII (Michael W. Deem and Ramdas Pophale) SiO2 
 PCOD8243448
Probable space group: P M M N
;
_chemical_formula_sum "Si O2"
_cell_formula_units_Z 64
_cell_length_a 13.814922
_cell_length_b 9.052757
_cell_length_c 26.103662
_cell_angle_alpha 90.000000
_cell_angle_beta 90.000000
_cell_angle_gamma 90.000000
_cell_volume 3264.605722
_symmetry_space_group_name_H-M "P M M N"
_symmetry_group_IT_number 59
_space_group.IT_coordinate_system_code '2'
_symmetry_cell_setting 'orthorhombic'
loop_
_space_group_symop_operation_xyz
x,y,z
1/2-x,1/2-y,z
1/2+x,-y,-z
-x,1/2+y,-z
-x,-y,-z
1/2+x,1/2+y,-z
1/2-x,y,z
x,1/2-y,z
loop_
_atom_site_type_symbol
_atom_site_label
_atom_site_fract_x
_atom_site_fract_y
_atom_site_fract_z
Si Si1 0.863916 0.422235 0.732025
Si Si2 0.864308 0.082198 0.525669
Si Si3 0.639782 0.576321 0.133629
Si Si4 0.460749 0.074946 0.172569
Si Si5 0.365365 0.414013 0.981119
Si Si6 0.142956 0.422213 0.575390
Si Si7 0.134777 0.916616 0.078985
Si Si8 0.043953 0.577352 0.371614
O O1 0.750000 0.446680 0.726818
O O2 0.888758 0.250000 0.740929
O O3 0.903931 0.515974 0.778657
O O4 0.914820 0.489056 0.681039
O O5 0.750000 0.072791 0.527980
O O6 0.901489 0.250000 0.520453
O O7 0.904243 0.009559 0.578127
O O8 0.901568 0.994290 0.475903
O O9 0.750000 0.520814 0.141384
O O10 0.633706 0.750000 0.144715
O O11 0.570118 0.489082 0.172460
O O12 0.600777 0.540983 0.076070
O O13 0.464725 0.250000 0.174263
O O14 0.403119 0.023437 0.122713
O O15 0.250000 0.413536 0.980607
O O16 0.402931 0.250000 0.994873
O O17 0.405145 0.528566 0.023614
O O18 0.250000 0.484888 0.588963
O O19 0.148359 0.250000 0.564063
O O20 0.071292 0.454800 0.623103
O O21 0.250000 0.922011 0.079632
O O22 0.096886 0.750000 0.088179
O O23 0.068173 0.750000 0.370242
#
# Coordination Sequence:
#
# PCOD8243448 Si02
#       8
#     8   8   8   8   8   8   8   8
#     4  10  21  39  61  80 100 131 176 229 277 321
#     4   9  16  27  46  73 103 135 172 212 256 307
#     4   9  19  38  62  84 108 140 178 219 261 311
#     4  12  25  38  55  79 108 142 177 219 273 327
#     4   8  15  30  53  81 111 140 171 213 265 315
#     4   9  17  29  46  72 107 141 170 204 250 307
#     4  10  20  34  54  80 110 145 184 223 264 317
#     4   9  17  31  52  75  99 132 176 221 263 311
#
# _framework density 19.604206000000001
#
# number of rings (size 3 to 8) (size 9 to 14) (size 15 to 20)
#    0.000    2.500    0.000    3.375    0.000    5.250 
#    0.000    3.125    0.000    3.750    0.000    0.000 
#    0.000    0.000    0.000    0.000    0.000    0.000 
#
# Total GULP energy -793471.892655 kJ/mol
# GULP energy per Si atom -12397.998323 kJ/mol
# Density = 1.955959 g / cm^3
# Si number density = 19.604206 Si / 1000 Ang^3
#
#
#
# Elastic Constant Matrix: (Units=GPa)
#
#
# Indices 1 2 3 4 5 6 
#
# 1 66.0815 36.6616 53.4418 0.0000 0.0000 0.0000
# 2 36.6616 74.2977 39.2277 0.0000 0.0000 0.0000
# 3 53.4418 39.2277 103.6205 0.0000 0.0000 0.0000
# 4 0.0000 0.0000 0.0000 24.3625 0.0000 0.0000
# 5 0.0000 0.0000 0.0000 0.0000 34.0548 0.0000
# 6 0.0000 0.0000 0.0000 0.0000 0.0000 20.8551
#
#
#
# Elastic Compliance Matrix: (Units=1/GPa)
#
#
# Indices 1 2 3 4 5 6 
#
# 1 0.029431 -0.008134 -0.012099 0.000000 0.000000 0.000000
# 2 -0.008134 0.019070 -0.003024 0.000000 0.000000 0.000000
# 3 -0.012099 -0.003024 0.017036 0.000000 0.000000 0.000000
# 4 0.000000 0.000000 0.000000 0.041047 0.000000 0.000000
# 5 0.000000 0.000000 0.000000 0.000000 0.029364 0.000000
# 6 0.000000 0.000000 0.000000 0.000000 0.000000 0.047950
#
#
# Mechanical properties :
#
#
# Convention : Reuss Voigt Hill
#
# Bulk Modulus (GPa) = 52.57395 55.85134 54.21265
# Shear Modulus (GPa) = 21.11909 23.49904 22.30906
#
# Velocity S-wave (km/s) = 3.28574 3.46594 3.37705
# Velocity P-wave (km/s) = 6.42423 6.67595 6.55130
#
# Compressibility (1/GPa) = 0.01902083
#
# Stress axis : x y z
#
# Youngs Moduli (GPa) = 33.97819 52.43913 58.70036
#
# Poissons Ratio (x) = 0.42654 0.71024
# Poissons Ratio (y) = 0.27638 0.17752
# Poissons Ratio (z) = 0.41112 0.15858
#
# Static dielectric constant tensor:
#      x y z
#    x 3.755800 0.000000 0.000000 
#    y 0.000000 3.441480 0.000000 
#    z 0.000000 0.000000 3.628670 
# 
# 
# High freq. dielectric constant tensor:
#      x y z
#    x 1.780640 0.000000 0.000000 
#    y 0.000000 1.737220 0.000000 
#    z 0.000000 0.000000 1.749750 
# 
# From -- ./inp_files/32159.got.cif
#   From: 2010.03.12/outbox.cif.g09.slc.cpg/sg59_17_cif.got.tgz:32159.got - 2010.04.16 16:29:54.
