data_PCOD8243964
_publ_section_title
;
Structure prediction by ZEFSAII (Michael W. Deem and Ramdas Pophale) SiO2 
 PCOD8243964
Probable space group: P M M N
;
_chemical_formula_sum "Si O2"
_cell_formula_units_Z 64
_cell_length_a 17.309741
_cell_length_b 13.766811
_cell_length_c 12.734160
_cell_angle_alpha 90.000000
_cell_angle_beta 90.000000
_cell_angle_gamma 90.000000
_cell_volume 3034.549472
_symmetry_space_group_name_H-M "P M M N"
_symmetry_group_IT_number 59
_space_group.IT_coordinate_system_code '2'
_symmetry_cell_setting 'orthorhombic'
loop_
_space_group_symop_operation_xyz
x,y,z
1/2-x,1/2-y,z
1/2+x,-y,-z
-x,1/2+y,-z
-x,-y,-z
1/2+x,1/2+y,-z
1/2-x,y,z
x,1/2-y,z
loop_
_atom_site_type_symbol
_atom_site_label
_atom_site_fract_x
_atom_site_fract_y
_atom_site_fract_z
Si Si1 0.082042 0.139466 0.325520
Si Si2 0.403843 0.360721 0.080099
Si Si3 0.659931 0.138878 0.194147
Si Si4 0.072780 0.545859 0.617543
Si Si5 0.012043 0.859146 0.324990
Si Si6 0.159141 0.955976 0.402809
Si Si7 0.833960 0.043819 0.973561
Si Si8 0.975402 0.358387 0.908265
O O1 0.106728 0.250000 0.349806
O O2 0.070565 0.123838 0.200494
O O3 0.002234 0.115473 0.385831
O O4 0.149298 0.068441 0.367759
O O5 0.380209 0.250000 0.057526
O O6 0.331937 0.426938 0.042137
O O7 0.472848 0.396926 0.004141
O O8 0.750000 0.142347 0.218545
O O9 0.626990 0.250000 0.191917
O O10 0.620000 0.071890 0.279631
O O11 0.641699 0.083143 0.087035
O O12 0.130303 0.562219 0.521267
O O13 0.042217 0.434565 0.612662
O O14 0.000633 0.750000 0.369764
O O15 0.103104 0.888347 0.331915
O O16 0.982934 0.863369 0.204390
O O17 0.250000 0.927449 0.392151
O O18 0.750000 0.085262 0.943772
O O19 0.898028 0.079447 0.892490
O O20 0.949539 0.250000 0.936196
#
# Coordination Sequence:
#
# PCOD8243964 Si02
#       8
#     8   8   8   8   8   8   8   8
#     4  10  21  38  62  89 116 150 195 246 293 341
#     4  10  21  37  59  86 115 153 198 237 278 335
#     4  10  21  36  56  86 120 153 193 242 296 349
#     4  11  21  38  63  84 110 147 193 249 300 347
#     4  10  22  39  60  85 114 150 191 238 289 345
#     4  11  25  41  57  83 117 152 192 239 295 356
#     4  11  21  33  53  82 119 155 187 231 284 341
#     4  10  20  35  56  82 112 147 188 231 278 337
#
# _framework density 21.090444000000002
#
# number of rings (size 3 to 8) (size 9 to 14) (size 15 to 20)
#    0.000    1.625    0.000    6.000    0.000    7.000 
#    0.000    2.500    0.000    1.875    0.000    0.000 
#    0.000    0.000    0.000    0.000    0.000    0.000 
#
# Total GULP energy -793260.249109 kJ/mol
# GULP energy per Si atom -12394.691392 kJ/mol
# Density = 2.104244 g / cm^3
# Si number density = 21.090444 Si / 1000 Ang^3
#
#
#
# Elastic Constant Matrix: (Units=GPa)
#
#
# Indices 1 2 3 4 5 6 
#
# 1 62.6912 13.6858 21.7208 0.0000 0.0000 0.0000
# 2 13.6858 105.5152 21.3214 0.0000 0.0000 0.0000
# 3 21.7208 21.3214 63.8446 0.0000 0.0000 0.0000
# 4 0.0000 0.0000 0.0000 27.6934 0.0000 0.0000
# 5 0.0000 0.0000 0.0000 0.0000 28.6788 0.0000
# 6 0.0000 0.0000 0.0000 0.0000 0.0000 20.1400
#
#
#
# Elastic Compliance Matrix: (Units=1/GPa)
#
#
# Indices 1 2 3 4 5 6 
#
# 1 0.018221 -0.001191 -0.005801 0.000000 0.000000 0.000000
# 2 -0.001191 0.010241 -0.003015 0.000000 0.000000 0.000000
# 3 -0.005801 -0.003015 0.018644 0.000000 0.000000 0.000000
# 4 0.000000 0.000000 0.000000 0.036110 0.000000 0.000000
# 5 0.000000 0.000000 0.000000 0.000000 0.034869 0.000000
# 6 0.000000 0.000000 0.000000 0.000000 0.000000 0.049653
#
#
# Mechanical properties :
#
#
# Convention : Reuss Voigt Hill
#
# Bulk Modulus (GPa) = 36.91228 38.38966 37.65097
# Shear Modulus (GPa) = 25.40884 26.99063 26.19973
#
# Velocity S-wave (km/s) = 3.47473 3.58125 3.52839
# Velocity P-wave (km/s) = 5.79984 5.94494 5.87284
#
# Compressibility (1/GPa) = 0.02709125
#
# Stress axis : x y z
#
# Youngs Moduli (GPa) = 54.88107 97.64663 53.63787
#
# Poissons Ratio (x) = 0.11631 0.31117
# Poissons Ratio (y) = 0.06537 0.16171
# Poissons Ratio (z) = 0.31838 0.29439
#
# Static dielectric constant tensor:
#      x y z
#    x 3.634710 0.000000 0.000000 
#    y 0.000000 4.125290 0.000000 
#    z 0.000000 0.000000 3.797440 
# 
# 
# High freq. dielectric constant tensor:
#      x y z
#    x 1.804220 0.000000 0.000000 
#    y 0.000000 1.836500 0.000000 
#    z 0.000000 0.000000 1.833400 
# 
# From -- ./inp_files/17861.got.cif
#   From: 2010.03.12/outbox.cif.g09.slc.cpg/sg59_9_cif.got.tgz:17861.got - 2010.04.16 16:29:54.
