data_PCOD8243589
_publ_section_title
;
Structure prediction by ZEFSAII (Michael W. Deem and Ramdas Pophale) SiO2 
 PCOD8243589
Probable space group: P M M N
;
_chemical_formula_sum "Si O2"
_cell_formula_units_Z 48
_cell_length_a 8.899670
_cell_length_b 13.757404
_cell_length_c 20.784377
_cell_angle_alpha 90.000000
_cell_angle_beta 90.000000
_cell_angle_gamma 90.000000
_cell_volume 2544.763374
_symmetry_space_group_name_H-M "P M M N"
_symmetry_group_IT_number 59
_space_group.IT_coordinate_system_code '2'
_symmetry_cell_setting 'orthorhombic'
loop_
_space_group_symop_operation_xyz
x,y,z
1/2-x,1/2-y,z
1/2+x,-y,-z
-x,1/2+y,-z
-x,-y,-z
1/2+x,1/2+y,-z
1/2-x,y,z
x,1/2-y,z
loop_
_atom_site_type_symbol
_atom_site_label
_atom_site_fract_x
_atom_site_fract_y
_atom_site_fract_z
Si Si1 0.925389 0.953254 0.596950
Si Si2 0.076496 0.640667 0.479057
Si Si3 0.927273 0.360490 0.282846
Si Si4 0.927543 0.355999 0.897633
Si Si5 0.081763 0.864411 0.960226
Si Si6 0.425318 0.051018 0.159561
O O1 0.750000 0.938939 0.607236
O O2 0.979092 0.878647 0.542385
O O3 0.005707 0.931412 0.663668
O O4 0.965995 0.064156 0.576852
O O5 0.250000 0.627718 0.498893
O O6 0.043867 0.750000 0.454100
O O7 0.750000 0.365388 0.287045
O O8 0.983956 0.250000 0.293430
O O9 0.977139 0.397173 0.213455
O O10 0.750000 0.346581 0.904124
O O11 0.994780 0.250000 0.877843
O O12 0.969106 0.436218 0.843875
O O13 0.983804 0.389193 0.968586
O O14 0.250000 0.908114 0.949215
O O15 0.091212 0.750000 0.951910
O O16 0.962793 0.904490 0.909427
O O17 0.250000 0.066034 0.174860
#
# Coordination Sequence:
#
# PCOD8243589 Si02
#       6
#     8   8   8   8   8   8
#     4  10  20  34  55  83 110 137 174 217 252 285
#     4   9  18  34  56  82 113 145 172 201 247 305
#     4  11  24  40  55  71  99 140 175 204 251 313
#     4   8  16  32  52  73  98 130 167 205 251 309
#     4   9  17  31  51  73 100 134 166 199 249 311
#     4  11  21  32  51  77 101 128 167 215 257 294
#
# _framework density 18.862265000000001
#
# number of rings (size 3 to 8) (size 9 to 14) (size 15 to 20)
#    0.000    2.333    0.000    4.000    0.000    6.667 
#    0.000    1.667    0.000    9.000    0.000    0.000 
#    0.000    0.000    0.000    0.000    0.000    0.000 
#
# Total GULP energy -595102.338610 kJ/mol
# GULP energy per Si atom -12397.965388 kJ/mol
# Density = 1.881933 g / cm^3
# Si number density = 18.862265 Si / 1000 Ang^3
#
#
#
# Elastic Constant Matrix: (Units=GPa)
#
#
# Indices 1 2 3 4 5 6 
#
# 1 47.2301 32.8193 29.5374 0.0000 0.0000 0.0000
# 2 32.8193 105.0481 53.0242 0.0000 0.0000 0.0000
# 3 29.5374 53.0242 61.4640 0.0000 0.0000 0.0000
# 4 0.0000 0.0000 0.0000 25.9106 0.0000 0.0000
# 5 0.0000 0.0000 0.0000 0.0000 29.4455 0.0000
# 6 0.0000 0.0000 0.0000 0.0000 0.0000 21.8322
#
#
#
# Elastic Compliance Matrix: (Units=1/GPa)
#
#
# Indices 1 2 3 4 5 6 
#
# 1 0.031126 -0.003851 -0.011636 0.000000 0.000000 0.000000
# 2 -0.003851 0.017339 -0.013107 0.000000 0.000000 0.000000
# 3 -0.011636 -0.013107 0.033169 0.000000 0.000000 0.000000
# 4 0.000000 0.000000 0.000000 0.038594 0.000000 0.000000
# 5 0.000000 0.000000 0.000000 0.000000 0.033961 0.000000
# 6 0.000000 0.000000 0.000000 0.000000 0.000000 0.045804
#
#
# Mechanical properties :
#
#
# Convention : Reuss Voigt Hill
#
# Bulk Modulus (GPa) = 40.90749 49.38935 45.14842
# Shear Modulus (GPa) = 18.84458 21.99509 20.41983
#
# Velocity S-wave (km/s) = 3.16422 3.41851 3.29382
# Velocity P-wave (km/s) = 5.92320 6.46704 6.20109
#
# Compressibility (1/GPa) = 0.02444540
#
# Stress axis : x y z
#
# Youngs Moduli (GPa) = 32.12756 57.67496 30.14898
#
# Poissons Ratio (x) = 0.22212 0.35080
# Poissons Ratio (y) = 0.12373 0.39516
# Poissons Ratio (z) = 0.37383 0.75595
#
# Static dielectric constant tensor:
#      x y z
#    x 3.414510 0.000000 0.000000 
#    y 0.000000 3.868500 0.000000 
#    z 0.000000 0.000000 3.312340 
# 
# 
# High freq. dielectric constant tensor:
#      x y z
#    x 1.722030 0.000000 0.000000 
#    y 0.000000 1.744550 0.000000 
#    z 0.000000 0.000000 1.715080 
# 
# From -- ./inp_files/25470.got.cif
#   From: 2010.03.12/outbox.cif.g09.slc.cpg/sg59_13_cif.got.tgz:25470.got - 2010.04.16 16:29:54.
