data_PCOD8243271
_publ_section_title
;
Structure prediction by ZEFSAII (Michael W. Deem and Ramdas Pophale) SiO2 
 PCOD8243271
Probable space group: P M M N
;
_chemical_formula_sum "Si O2"
_cell_formula_units_Z 56
_cell_length_a 9.315280
_cell_length_b 14.272780
_cell_length_c 21.714849
_cell_angle_alpha 90.000000
_cell_angle_beta 90.000000
_cell_angle_gamma 90.000000
_cell_volume 2887.096491
_symmetry_space_group_name_H-M "P M M N"
_symmetry_group_IT_number 59
_space_group.IT_coordinate_system_code '2'
_symmetry_cell_setting 'orthorhombic'
loop_
_space_group_symop_operation_xyz
x,y,z
1/2-x,1/2-y,z
1/2+x,-y,-z
-x,1/2+y,-z
-x,-y,-z
1/2+x,1/2+y,-z
1/2-x,y,z
x,1/2-y,z
loop_
_atom_site_type_symbol
_atom_site_label
_atom_site_fract_x
_atom_site_fract_y
_atom_site_fract_z
Si Si1 0.084425 0.002942 0.410381
Si Si2 0.410745 0.361876 0.034390
Si Si3 0.920115 0.853803 0.830018
Si Si4 0.414822 0.360119 0.801380
Si Si5 0.417602 0.000147 0.270388
Si Si6 0.418619 0.143162 0.515990
Si Si7 0.588929 0.138570 0.920149
O O1 0.250000 0.976930 0.420409
O O2 0.052953 0.031891 0.340179
O O3 0.994595 0.910687 0.427941
O O4 0.040333 0.091995 0.451966
O O5 0.250000 0.398329 0.020019
O O6 0.410245 0.250000 0.033544
O O7 0.462364 0.395230 0.102438
O O8 0.518447 0.402179 0.982618
O O9 0.750000 0.845883 0.826565
O O10 0.987082 0.750000 0.820727
O O11 0.977440 0.919723 0.775426
O O12 0.250000 0.391512 0.805976
O O13 0.428843 0.250000 0.792622
O O14 0.491819 0.406473 0.742665
O O15 0.496183 0.395838 0.862380
O O16 0.250000 0.979370 0.259062
O O17 0.250000 0.140174 0.528313
O O18 0.474198 0.250000 0.512684
O O19 0.750000 0.098020 0.913958
O O20 0.591209 0.250000 0.922627
#
# Coordination Sequence:
#
# PCOD8243271 Si02
#       7
#     8   8   8   8   8   8   8
#     4   9  19  34  52  78 109 137 167 207 252 293
#     4   8  13  24  44  68  94 125 161 201 248 304
#     4   8  15  29  50  75 101 131 167 206 251 305
#     4  10  21  36  52  70  96 133 174 213 256 307
#     4  10  20  34  53  77 105 135 168 208 251 296
#     4   9  18  34  56  80 106 137 172 207 243 289
#     4   9  16  27  46  71  96 123 161 212 264 307
#
# _framework density 19.396650999999999
#
# number of rings (size 3 to 8) (size 9 to 14) (size 15 to 20)
#    0.000    3.000    0.000    1.714    0.000    4.571 
#    0.000    7.143    0.000    1.286    0.000    2.000 
#    0.000    0.000    0.000    0.000    0.000    0.000 
#
# Total GULP energy -694309.878934 kJ/mol
# GULP energy per Si atom -12398.390695 kJ/mol
# Density = 1.935250 g / cm^3
# Si number density = 19.396651 Si / 1000 Ang^3
#
#
#
# Elastic Constant Matrix: (Units=GPa)
#
#
# Indices 1 2 3 4 5 6 
#
# 1 76.9697 25.5514 40.4467 0.0000 0.0000 0.0000
# 2 25.5514 54.8530 20.8742 0.0000 0.0000 0.0000
# 3 40.4467 20.8742 107.8149 0.0000 0.0000 0.0000
# 4 0.0000 0.0000 0.0000 11.1710 0.0000 0.0000
# 5 0.0000 0.0000 0.0000 0.0000 28.0178 0.0000
# 6 0.0000 0.0000 0.0000 0.0000 0.0000 18.1096
#
#
#
# Elastic Compliance Matrix: (Units=1/GPa)
#
#
# Indices 1 2 3 4 5 6 
#
# 1 0.017980 -0.006271 -0.005531 0.000000 0.000000 0.000000
# 2 -0.006271 0.021867 -0.001881 0.000000 0.000000 0.000000
# 3 -0.005531 -0.001881 0.011714 0.000000 0.000000 0.000000
# 4 0.000000 0.000000 0.000000 0.089518 0.000000 0.000000
# 5 0.000000 0.000000 0.000000 0.000000 0.035692 0.000000
# 6 0.000000 0.000000 0.000000 0.000000 0.000000 0.055219
#
#
# Mechanical properties :
#
#
# Convention : Reuss Voigt Hill
#
# Bulk Modulus (GPa) = 41.32954 45.93135 43.63045
# Shear Modulus (GPa) = 18.69696 21.64401 20.17049
#
# Velocity S-wave (km/s) = 3.10809 3.34408 3.22824
# Velocity P-wave (km/s) = 5.85099 6.21626 6.03639
#
# Compressibility (1/GPa) = 0.02419577
#
# Stress axis : x y z
#
# Youngs Moduli (GPa) = 55.61614 45.73006 85.36451
#
# Poissons Ratio (x) = 0.28676 0.47217
# Poissons Ratio (y) = 0.34875 0.16060
# Poissons Ratio (z) = 0.30763 0.08604
#
# Static dielectric constant tensor:
#      x y z
#    x 3.452240 0.000000 0.000000 
#    y 0.000000 3.533020 0.000000 
#    z 0.000000 0.000000 3.636360 
# 
# 
# High freq. dielectric constant tensor:
#      x y z
#    x 1.734610 0.000000 0.000000 
#    y 0.000000 1.747910 0.000000 
#    z 0.000000 0.000000 1.754050 
# 
# From -- ./inp_files/29164.got.cif
#   From: 2010.03.12/outbox.cif.g09.slc.cpg/sg59_15_cif.got.tgz:29164.got - 2010.04.16 16:29:54.
