data_PCOD8243120
_publ_section_title
;
Structure prediction by ZEFSAII (Michael W. Deem and Ramdas Pophale) SiO2 
 PCOD8243120
Probable space group: P M M N
;
_chemical_formula_sum "Si O2"
_cell_formula_units_Z 40
_cell_length_a 9.339546
_cell_length_b 15.308121
_cell_length_c 15.449015
_cell_angle_alpha 90.000000
_cell_angle_beta 90.000000
_cell_angle_gamma 90.000000
_cell_volume 2208.759583
_symmetry_space_group_name_H-M "P M M N"
_symmetry_group_IT_number 59
_space_group.IT_coordinate_system_code '2'
_symmetry_cell_setting 'orthorhombic'
loop_
_space_group_symop_operation_xyz
x,y,z
1/2-x,1/2-y,z
1/2+x,-y,-z
-x,1/2+y,-z
-x,-y,-z
1/2+x,1/2+y,-z
1/2-x,y,z
x,1/2-y,z
loop_
_atom_site_type_symbol
_atom_site_label
_atom_site_fract_x
_atom_site_fract_y
_atom_site_fract_z
Si Si1 0.415442 0.511459 0.912333
Si Si2 0.419379 0.065633 0.731125
Si Si3 0.904596 0.847224 0.842356
Si Si4 0.588034 0.593162 0.654326
Si Si5 0.419709 0.250000 0.657652
Si Si6 0.920865 0.750000 0.538092
O O1 0.250000 0.503542 0.933554
O O2 0.459999 0.447207 0.832860
O O3 0.456466 0.607767 0.881821
O O4 0.500000 0.500000 0.000000
O O5 0.250000 0.054456 0.717663
O O6 0.474063 0.162547 0.706177
O O7 0.494017 0.994392 0.668381
O O8 0.750000 0.889435 0.870654
O O9 0.909482 0.750000 0.877775
O O10 0.913803 0.847863 0.739457
O O11 0.750000 0.563500 0.630724
O O12 0.523584 0.659088 0.581538
O O13 0.250000 0.250000 0.656910
O O14 0.478299 0.250000 0.559879
O O15 0.750000 0.750000 0.545356
#
# Coordination Sequence:
#
# PCOD8243120 Si02
#       6
#     8   8   8   8   4   4
#     4  10  20  34  51  73 100 128 167 212 257 306
#     4   9  19  35  53  73 100 137 174 210 255 304
#     4   9  16  29  50  74 100 129 161 198 248 305
#     4   9  16  29  51  78 104 131 165 208 252 295
#     4   9  18  34  53  72 101 140 178 207 241 299
#     4   9  16  28  51  80 105 134 172 209 245 297
#
# _framework density 18.109711999999998
#
# number of rings (size 3 to 8) (size 9 to 14) (size 15 to 20)
#    0.000    2.800    1.000    0.600    0.000    2.000 
#    1.800    1.000    0.000    1.200    0.000    0.000 
#    0.000    0.000    0.000    0.000    0.000    0.000 
#
# Total GULP energy -495559.256821 kJ/mol
# GULP energy per Si atom -12388.981421 kJ/mol
# Density = 1.806849 g / cm^3
# Si number density = 18.109712 Si / 1000 Ang^3
#
#
#
# Elastic Constant Matrix: (Units=GPa)
#
#
# Indices 1 2 3 4 5 6 
#
# 1 47.1075 43.7447 43.1421 0.0000 0.0000 0.0000
# 2 43.7447 144.6124 70.9670 0.0000 0.0000 0.0000
# 3 43.1421 70.9670 123.7792 0.0000 0.0000 0.0000
# 4 0.0000 0.0000 0.0000 15.8660 0.0000 0.0000
# 5 0.0000 0.0000 0.0000 0.0000 19.5117 0.0000
# 6 0.0000 0.0000 0.0000 0.0000 0.0000 26.4937
#
#
#
# Elastic Compliance Matrix: (Units=1/GPa)
#
#
# Indices 1 2 3 4 5 6 
#
# 1 0.034973 -0.006397 -0.008522 0.000000 0.000000 0.000000
# 2 -0.006397 0.010793 -0.003958 0.000000 0.000000 0.000000
# 3 -0.008522 -0.003958 0.013318 0.000000 0.000000 0.000000
# 4 0.000000 0.000000 0.000000 0.063028 0.000000 0.000000
# 5 0.000000 0.000000 0.000000 0.000000 0.051251 0.000000
# 6 0.000000 0.000000 0.000000 0.000000 0.000000 0.037745
#
#
# Mechanical properties :
#
#
# Convention : Reuss Voigt Hill
#
# Bulk Modulus (GPa) = 46.88262 70.13407 58.50835
# Shear Modulus (GPa) = 19.53338 22.88396 21.20867
#
# Velocity S-wave (km/s) = 3.28779 3.55861 3.42588
# Velocity P-wave (km/s) = 6.35272 7.46300 6.93013
#
# Compressibility (1/GPa) = 0.02132986
#
# Stress axis : x y z
#
# Youngs Moduli (GPa) = 28.59342 92.65652 75.08413
#
# Poissons Ratio (x) = 0.59275 0.63985
# Poissons Ratio (y) = 0.18292 0.29719
# Poissons Ratio (z) = 0.24367 0.36674
#
# Static dielectric constant tensor:
#      x y z
#    x 3.138420 0.000000 0.000000 
#    y 0.000000 3.978820 0.000000 
#    z 0.000000 0.000000 3.581320 
# 
# 
# High freq. dielectric constant tensor:
#      x y z
#    x 1.677530 0.000000 0.000000 
#    y 0.000000 1.697820 0.000000 
#    z 0.000000 0.000000 1.696840 
# 
# From -- ./inp_files/20018.got.cif
#   From: 2010.03.12/outbox.cif.g09.slc.cpg/sg59_11_cif.got.tgz:20018.got - 2010.04.16 16:29:54.
