data_PCOD8243147
_publ_section_title
;
Structure prediction by ZEFSAII (Michael W. Deem and Ramdas Pophale) SiO2 
 PCOD8243147
Probable space group: P M M N
;
_chemical_formula_sum "Si O2"
_cell_formula_units_Z 64
_cell_length_a 14.933163
_cell_length_b 9.288284
_cell_length_c 23.924952
_cell_angle_alpha 90.000000
_cell_angle_beta 90.000000
_cell_angle_gamma 90.000000
_cell_volume 3318.473598
_symmetry_space_group_name_H-M "P M M N"
_symmetry_group_IT_number 59
_space_group.IT_coordinate_system_code '2'
_symmetry_cell_setting 'orthorhombic'
loop_
_space_group_symop_operation_xyz
x,y,z
1/2-x,1/2-y,z
1/2+x,-y,-z
-x,1/2+y,-z
-x,-y,-z
1/2+x,1/2+y,-z
1/2-x,y,z
x,1/2-y,z
loop_
_atom_site_type_symbol
_atom_site_label
_atom_site_fract_x
_atom_site_fract_y
_atom_site_fract_z
Si Si1 0.997141 0.418429 0.205819
Si Si2 0.352496 0.913955 0.501771
Si Si3 0.608488 0.410160 0.618447
Si Si4 0.150295 0.584192 0.262600
Si Si5 0.150939 0.586370 0.708122
Si Si6 0.145141 0.919532 0.013037
Si Si7 0.903678 0.588717 0.394627
Si Si8 0.001260 0.582803 0.921310
O O1 0.011944 0.250000 0.214314
O O2 0.917347 0.475388 0.245643
O O3 0.088694 0.497026 0.220714
O O4 0.972882 0.455260 0.142125
O O5 0.250000 0.915654 0.520335
O O6 0.390790 0.750000 0.502228
O O7 0.364298 0.985842 0.440057
O O8 0.406012 0.010057 0.545685
O O9 0.649422 0.250000 0.614156
O O10 0.648278 0.483663 0.674353
O O11 0.503330 0.407672 0.628126
O O12 0.250000 0.571870 0.238336
O O13 0.117823 0.750000 0.265226
O O14 0.250000 0.578908 0.734715
O O15 0.125355 0.750000 0.692157
O O16 0.153501 0.495531 0.651223
O O17 0.250000 0.971475 0.009583
O O18 0.143365 0.750000 0.024620
O O19 0.089314 0.996895 0.062333
O O20 0.090297 0.959059 0.956509
O O21 0.864900 0.750000 0.401888
O O22 0.978145 0.750000 0.929326
#
# Coordination Sequence:
#
# PCOD8243147 Si02
#       8
#     8   8   8   8   8   8   8   8
#     4  10  21  37  56  80 111 144 181 226 270 313
#     4  10  20  34  52  73  98 130 170 215 264 325
#     4   9  18  34  54  75  98 131 174 216 263 321
#     4  10  20  36  58  80 105 141 183 224 268 322
#     4  10  21  37  56  77 103 140 183 222 265 321
#     4   9  18  34  57  84 113 146 185 225 263 308
#     4  11  21  34  53  76 103 133 169 218 273 325
#     4   9  19  35  55  81 113 148 182 221 270 316
#
# _framework density 19.285974
#
# number of rings (size 3 to 8) (size 9 to 14) (size 15 to 20)
#    0.000    2.250    1.250    1.500    0.000    5.500 
#    0.000    6.250    0.000    1.500    0.000    3.500 
#    0.000    0.000    0.000    0.000    0.000    0.000 
#
# Total GULP energy -793384.254352 kJ/mol
# GULP energy per Si atom -12396.628974 kJ/mol
# Density = 1.924208 g / cm^3
# Si number density = 19.285974 Si / 1000 Ang^3
#
#
#
# Elastic Constant Matrix: (Units=GPa)
#
#
# Indices 1 2 3 4 5 6 
#
# 1 98.0809 24.2139 25.8985 0.0000 0.0000 0.0000
# 2 24.2139 52.4511 34.9159 0.0000 0.0000 0.0000
# 3 25.8985 34.9159 103.2719 0.0000 0.0000 0.0000
# 4 0.0000 0.0000 0.0000 24.0096 0.0000 0.0000
# 5 0.0000 0.0000 0.0000 0.0000 18.0981 0.0000
# 6 0.0000 0.0000 0.0000 0.0000 0.0000 24.2555
#
#
#
# Elastic Compliance Matrix: (Units=1/GPa)
#
#
# Indices 1 2 3 4 5 6 
#
# 1 0.011668 -0.004437 -0.001426 0.000000 0.000000 0.000000
# 2 -0.004437 0.026290 -0.007776 0.000000 0.000000 0.000000
# 3 -0.001426 -0.007776 0.012670 0.000000 0.000000 0.000000
# 4 0.000000 0.000000 0.000000 0.041650 0.000000 0.000000
# 5 0.000000 0.000000 0.000000 0.000000 0.055254 0.000000
# 6 0.000000 0.000000 0.000000 0.000000 0.000000 0.041228
#
#
# Mechanical properties :
#
#
# Convention : Reuss Voigt Hill
#
# Bulk Modulus (GPa) = 42.82702 47.09562 44.96132
# Shear Modulus (GPa) = 22.33935 24.52436 23.43185
#
# Velocity S-wave (km/s) = 3.40710 3.56984 3.48942
# Velocity P-wave (km/s) = 6.14266 6.43928 6.29272
#
# Compressibility (1/GPa) = 0.02334975
#
# Stress axis : x y z
#
# Youngs Moduli (GPa) = 85.70755 38.03723 78.92838
#
# Poissons Ratio (x) = 0.16878 0.11254
# Poissons Ratio (y) = 0.38030 0.61373
# Poissons Ratio (z) = 0.12220 0.29577
#
# Static dielectric constant tensor:
#      x y z
#    x 3.534600 0.000000 0.000000 
#    y 0.000000 3.380650 0.000000 
#    z 0.000000 0.000000 3.534470 
# 
# 
# High freq. dielectric constant tensor:
#      x y z
#    x 1.755720 0.000000 0.000000 
#    y 0.000000 1.724690 0.000000 
#    z 0.000000 0.000000 1.750080 
# 
# From -- ./inp_files/32217.got.cif
#   From: 2010.03.12/outbox.cif.g09.slc.cpg/sg59_17_cif.got.tgz:32217.got - 2010.04.16 16:29:54.
