data_PCOD8243414
_publ_section_title
;
Structure prediction by ZEFSAII (Michael W. Deem and Ramdas Pophale) SiO2 
 PCOD8243414
Probable space group: P M M N
;
_chemical_formula_sum "Si O2"
_cell_formula_units_Z 64
_cell_length_a 19.491179
_cell_length_b 8.902654
_cell_length_c 20.064169
_cell_angle_alpha 90.000000
_cell_angle_beta 90.000000
_cell_angle_gamma 90.000000
_cell_volume 3481.599265
_symmetry_space_group_name_H-M "P M M N"
_symmetry_group_IT_number 59
_space_group.IT_coordinate_system_code '2'
_symmetry_cell_setting 'orthorhombic'
loop_
_space_group_symop_operation_xyz
x,y,z
1/2-x,1/2-y,z
1/2+x,-y,-z
-x,1/2+y,-z
-x,-y,-z
1/2+x,1/2+y,-z
1/2-x,y,z
x,1/2-y,z
loop_
_atom_site_type_symbol
_atom_site_label
_atom_site_fract_x
_atom_site_fract_y
_atom_site_fract_z
Si Si1 0.829402 0.924542 0.680662
Si Si2 0.424488 0.575644 0.423996
Si Si3 0.078380 0.575139 0.933556
Si Si4 0.579541 0.575227 0.928226
Si Si5 0.330054 0.076429 0.824328
Si Si6 0.935117 0.423953 0.423602
Si Si7 0.828674 0.073076 0.816757
Si Si8 0.171632 0.577384 0.688244
O O1 0.750000 0.960260 0.668720
O O2 0.844253 0.750000 0.689674
O O3 0.868477 0.984389 0.616545
O O4 0.855977 0.005537 0.747401
O O5 0.416374 0.750000 0.407609
O O6 0.411261 0.539448 0.501517
O O7 0.500139 0.523572 0.402685
O O8 0.089160 0.750000 0.949163
O O9 0.127169 0.525620 0.874152
O O10 0.000049 0.541746 0.912877
O O11 0.099269 0.481465 0.998479
O O12 0.597034 0.750000 0.923445
O O13 0.625046 0.487010 0.875906
O O14 0.250000 0.047349 0.838098
O O15 0.349700 0.250000 0.833900
O O16 0.349619 0.027262 0.749762
O O17 0.956021 0.250000 0.416928
O O18 0.873237 0.468554 0.375238
O O19 0.750000 0.023905 0.829557
O O20 0.836193 0.250000 0.812889
O O21 0.250000 0.549557 0.667375
O O22 0.159275 0.750000 0.709114
#
# Coordination Sequence:
#
# PCOD8243414 Si02
#       8
#     8   8   8   8   8   8   8   8
#     4  10  21  37  56  78 106 140 177 219 267 317
#     4  10  20  34  54  79 107 140 177 219 265 314
#     4  10  21  37  57  80 106 139 178 217 258 307
#     4  10  21  37  57  81 109 140 174 215 263 312
#     4  10  21  36  54  78 107 138 173 215 263 312
#     4   9  19  35  54  77 107 141 177 218 263 314
#     4  10  21  37  57  81 108 139 177 219 262 312
#     4   9  18  34  55  77 102 135 175 217 261 310
#
# _framework density 18.382358
#
# number of rings (size 3 to 8) (size 9 to 14) (size 15 to 20)
#    0.000    2.250    0.000    2.250    0.000    6.750 
#    0.000    2.500    0.000    1.500    0.000    0.000 
#    0.000    0.000    0.000    0.000    0.000    0.000 
#
# Total GULP energy -793893.613629 kJ/mol
# GULP energy per Si atom -12404.587713 kJ/mol
# Density = 1.834052 g / cm^3
# Si number density = 18.382358 Si / 1000 Ang^3
#
#
#
# Elastic Constant Matrix: (Units=GPa)
#
#
# Indices 1 2 3 4 5 6 
#
# 1 78.4061 38.8804 64.5289 0.0000 0.0000 0.0000
# 2 38.8804 64.8126 37.5348 0.0000 0.0000 0.0000
# 3 64.5289 37.5348 99.3866 0.0000 0.0000 0.0000
# 4 0.0000 0.0000 0.0000 36.5839 0.0000 0.0000
# 5 0.0000 0.0000 0.0000 0.0000 36.7706 0.0000
# 6 0.0000 0.0000 0.0000 0.0000 0.0000 34.1569
#
#
#
# Elastic Compliance Matrix: (Units=1/GPa)
#
#
# Indices 1 2 3 4 5 6 
#
# 1 0.030911 -0.008857 -0.016724 0.000000 0.000000 0.000000
# 2 -0.008857 0.022287 -0.002666 0.000000 0.000000 0.000000
# 3 -0.016724 -0.002666 0.021927 0.000000 0.000000 0.000000
# 4 0.000000 0.000000 0.000000 0.027334 0.000000 0.000000
# 5 0.000000 0.000000 0.000000 0.000000 0.027196 0.000000
# 6 0.000000 0.000000 0.000000 0.000000 0.000000 0.029277
#
#
# Mechanical properties :
#
#
# Convention : Reuss Voigt Hill
#
# Bulk Modulus (GPa) = 53.67981 58.27706 55.97843
# Shear Modulus (GPa) = 22.55955 28.27968 25.41962
#
# Velocity S-wave (km/s) = 3.50700 3.92652 3.72267
# Velocity P-wave (km/s) = 6.75751 7.23383 6.99972
#
# Compressibility (1/GPa) = 0.01862898
#
# Stress axis : x y z
#
# Youngs Moduli (GPa) = 32.35145 44.87021 45.60574
#
# Poissons Ratio (x) = 0.39744 0.76272
# Poissons Ratio (y) = 0.28655 0.12158
# Poissons Ratio (z) = 0.54105 0.11962
#
# Static dielectric constant tensor:
#      x y z
#    x 3.366850 0.000000 0.000000 
#    y 0.000000 3.511630 0.000000 
#    z 0.000000 0.000000 3.413290 
# 
# 
# High freq. dielectric constant tensor:
#      x y z
#    x 1.709930 0.000000 0.000000 
#    y 0.000000 1.724840 0.000000 
#    z 0.000000 0.000000 1.717560 
# 
# From -- ./inp_files/28275.got.cif
#   From: 2010.03.12/outbox.cif.g09.slc.cpg/sg59_15_cif.got.tgz:28275.got - 2010.04.16 16:29:54.
