data_PCOD8243296
_publ_section_title
;
Structure prediction by ZEFSAII (Michael W. Deem and Ramdas Pophale) SiO2 
 PCOD8243296
Probable space group: P M M N
;
_chemical_formula_sum "Si O2"
_cell_formula_units_Z 64
_cell_length_a 8.761378
_cell_length_b 20.990502
_cell_length_c 17.578757
_cell_angle_alpha 90.000000
_cell_angle_beta 90.000000
_cell_angle_gamma 90.000000
_cell_volume 3232.834006
_symmetry_space_group_name_H-M "P M M N"
_symmetry_group_IT_number 59
_space_group.IT_coordinate_system_code '2'
_symmetry_cell_setting 'orthorhombic'
loop_
_space_group_symop_operation_xyz
x,y,z
1/2-x,1/2-y,z
1/2+x,-y,-z
-x,1/2+y,-z
-x,-y,-z
1/2+x,1/2+y,-z
1/2-x,y,z
x,1/2-y,z
loop_
_atom_site_type_symbol
_atom_site_label
_atom_site_fract_x
_atom_site_fract_y
_atom_site_fract_z
Si Si1 0.569386 0.428906 0.081846
Si Si2 0.930919 0.321122 0.195901
Si Si3 0.931660 0.677865 0.200582
Si Si4 0.572281 0.131142 0.360056
Si Si5 0.428119 0.494764 0.416308
Si Si6 0.568921 0.887925 0.352883
Si Si7 0.419106 0.320409 0.497253
Si Si8 0.069463 0.427063 0.919284
O O1 0.750000 0.423899 0.076960
O O2 0.503088 0.376069 0.140324
O O3 0.521945 0.501021 0.107118
O O4 0.502009 0.411445 0.000367
O O5 0.750000 0.320445 0.190409
O O6 0.993505 0.250000 0.174990
O O7 0.981476 0.337892 0.281251
O O8 0.750000 0.678464 0.199599
O O9 0.992748 0.750000 0.184499
O O10 0.992401 0.654158 0.282574
O O11 0.992945 0.626767 0.138700
O O12 0.750000 0.111790 0.358184
O O13 0.537659 0.180836 0.427405
O O14 0.463776 0.072751 0.379810
O O15 0.500000 0.500000 0.500000
O O16 0.250000 0.506390 0.425192
O O17 0.497246 0.542140 0.352928
O O18 0.750000 0.892775 0.347913
O O19 0.512067 0.859765 0.432875
O O20 0.250000 0.346806 0.473970
O O21 0.400727 0.250000 0.529140
O O22 0.250000 0.422658 0.926475
#
# Coordination Sequence:
#
# PCOD8243296 Si02
#       8
#     8   8   8   8   8   8   8   8
#     4   9  18  34  56  80 110 146 185 228 275 329
#     4   9  19  35  56  83 112 144 186 231 276 333
#     4   9  18  33  56  85 114 146 186 229 274 330
#     4  11  22  36  57  81 109 144 186 235 284 334
#     4  12  24  39  57  81 110 143 186 235 286 338
#     4  10  20  35  57  81 110 145 185 229 277 333
#     4  10  20  34  53  77 109 148 187 229 279 334
#     4   9  18  33  55  82 112 145 185 229 273 327
#
# _framework density 19.796870999999999
#
# number of rings (size 3 to 8) (size 9 to 14) (size 15 to 20)
#    0.000    2.125    1.250    2.250    1.750    2.750 
#    0.000    1.875    0.000    3.375    0.000    0.000 
#    0.000    0.000    0.000    0.000    0.000    0.000 
#
# Total GULP energy -793273.477023 kJ/mol
# GULP energy per Si atom -12394.898078 kJ/mol
# Density = 1.975181 g / cm^3
# Si number density = 19.796871 Si / 1000 Ang^3
#
#
#
# Elastic Constant Matrix: (Units=GPa)
#
#
# Indices 1 2 3 4 5 6 
#
# 1 25.9222 16.4532 29.0098 0.0000 0.0000 0.0000
# 2 16.4532 150.0365 80.8476 0.0000 0.0000 0.0000
# 3 29.0098 80.8476 136.4970 0.0000 0.0000 0.0000
# 4 0.0000 0.0000 0.0000 36.3175 0.0000 0.0000
# 5 0.0000 0.0000 0.0000 0.0000 26.4526 0.0000
# 6 0.0000 0.0000 0.0000 0.0000 0.0000 19.1100
#
#
#
# Elastic Compliance Matrix: (Units=1/GPa)
#
#
# Indices 1 2 3 4 5 6 
#
# 1 0.050629 0.000362 -0.010974 0.000000 0.000000 0.000000
# 2 0.000362 0.009792 -0.005877 0.000000 0.000000 0.000000
# 3 -0.010974 -0.005877 0.013139 0.000000 0.000000 0.000000
# 4 0.000000 0.000000 0.000000 0.027535 0.000000 0.000000
# 5 0.000000 0.000000 0.000000 0.000000 0.037803 0.000000
# 6 0.000000 0.000000 0.000000 0.000000 0.000000 0.052329
#
#
# Mechanical properties :
#
#
# Convention : Reuss Voigt Hill
#
# Bulk Modulus (GPa) = 24.64181 62.78632 43.71406
# Shear Modulus (GPa) = 21.03191 28.78569 24.90880
#
# Velocity S-wave (km/s) = 3.26296 3.81734 3.55099
# Velocity P-wave (km/s) = 5.16432 7.15637 6.24035
#
# Compressibility (1/GPa) = 0.04058144
#
# Stress axis : x y z
#
# Youngs Moduli (GPa) = 19.75146 102.12331 76.10714
#
# Poissons Ratio (x) = -0.03692 0.83523
# Poissons Ratio (y) = -0.00714 0.44726
# Poissons Ratio (z) = 0.21676 0.60015
#
# Static dielectric constant tensor:
#      x y z
#    x 3.434510 0.000000 0.000000 
#    y 0.000000 3.992400 0.000000 
#    z 0.000000 0.000000 3.784550 
# 
# 
# High freq. dielectric constant tensor:
#      x y z
#    x 1.735000 0.000000 0.000000 
#    y 0.000000 1.790250 0.000000 
#    z 0.000000 0.000000 1.768400 
# 
# From -- ./inp_files/26278.got.cif
#   From: 2010.03.12/outbox.cif.g09.slc.cpg/sg59_14_cif.got.tgz:26278.got - 2010.04.16 16:29:54.
