data_PCOD8243036
_publ_section_title
;
Structure prediction by ZEFSAII (Michael W. Deem and Ramdas Pophale) SiO2 
 PCOD8243036
Probable space group: P M M N
;
_chemical_formula_sum "Si O2"
_cell_formula_units_Z 40
_cell_length_a 9.246403
_cell_length_b 14.415462
_cell_length_c 15.697092
_cell_angle_alpha 90.000000
_cell_angle_beta 90.000000
_cell_angle_gamma 90.000000
_cell_volume 2092.283775
_symmetry_space_group_name_H-M "P M M N"
_symmetry_group_IT_number 59
_space_group.IT_coordinate_system_code '2'
_symmetry_cell_setting 'orthorhombic'
loop_
_space_group_symop_operation_xyz
x,y,z
1/2-x,1/2-y,z
1/2+x,-y,-z
-x,1/2+y,-z
-x,-y,-z
1/2+x,1/2+y,-z
1/2-x,y,z
x,1/2-y,z
loop_
_atom_site_type_symbol
_atom_site_label
_atom_site_fract_x
_atom_site_fract_y
_atom_site_fract_z
Si Si1 0.418715 0.017981 0.625411
Si Si2 0.916792 0.031262 0.791009
Si Si3 0.087301 0.150884 0.116068
Si Si4 0.917874 0.408902 0.971300
Si Si5 0.581416 0.642094 0.536170
O O1 0.250000 0.998619 0.635990
O O2 0.493796 0.919212 0.604506
O O3 0.483579 0.060228 0.712270
O O4 0.449941 0.097361 0.555925
O O5 0.750000 0.029331 0.761434
O O6 0.938260 0.104327 0.869147
O O7 0.970033 0.929082 0.821478
O O8 0.250000 0.122940 0.088083
O O9 0.085409 0.250000 0.164876
O O10 0.992195 0.168280 0.030331
O O11 0.750000 0.414826 0.994017
O O12 0.000000 0.500000 0.000000
O O13 0.750000 0.635280 0.559473
O O14 0.530495 0.750000 0.536877
#
# Coordination Sequence:
#
# PCOD8243036 Si02
#       5
#     8   8   8   8   8
#     4  10  20  33  53  81 105 127 166 215 254 295
#     4   9  18  32  49  70  99 134 166 198 244 300
#     4   9  18  32  49  70  97 130 168 207 248 296
#     4   9  17  30  48  68  92 125 163 199 238 286
#     4   9  19  37  57  74  99 136 169 200 250 313
#
# _framework density 19.117865999999999
#
# number of rings (size 3 to 8) (size 9 to 14) (size 15 to 20)
#    0.000    2.800    0.000    2.400    0.000    6.400 
#    0.000    3.000    0.000    3.600    0.000    0.000 
#    0.000    0.000    0.000    0.000    0.000    0.000 
#
# Total GULP energy -495590.406970 kJ/mol
# GULP energy per Si atom -12389.760174 kJ/mol
# Density = 1.907435 g / cm^3
# Si number density = 19.117866 Si / 1000 Ang^3
#
#
#
# Elastic Constant Matrix: (Units=GPa)
#
#
# Indices 1 2 3 4 5 6 
#
# 1 78.0045 6.1812 39.0784 0.0000 0.0000 0.0000
# 2 6.1812 50.9359 -9.0422 0.0000 0.0000 0.0000
# 3 39.0784 -9.0422 77.9309 0.0000 0.0000 0.0000
# 4 0.0000 0.0000 0.0000 14.5163 0.0000 0.0000
# 5 0.0000 0.0000 0.0000 0.0000 38.6789 0.0000
# 6 0.0000 0.0000 0.0000 0.0000 0.0000 21.1207
#
#
#
# Elastic Compliance Matrix: (Units=1/GPa)
#
#
# Indices 1 2 3 4 5 6 
#
# 1 0.017823 -0.003828 -0.009382 0.000000 0.000000 0.000000
# 2 -0.003828 0.020868 0.004341 0.000000 0.000000 0.000000
# 3 -0.009382 0.004341 0.018040 0.000000 0.000000 0.000000
# 4 0.000000 0.000000 0.000000 0.068888 0.000000 0.000000
# 5 0.000000 0.000000 0.000000 0.000000 0.025854 0.000000
# 6 0.000000 0.000000 0.000000 0.000000 0.000000 0.047347
#
#
# Mechanical properties :
#
#
# Convention : Reuss Voigt Hill
#
# Bulk Modulus (GPa) = 25.64571 31.03401 28.33986
# Shear Modulus (GPa) = 21.78129 26.24012 24.01070
#
# Velocity S-wave (km/s) = 3.37904 3.70881 3.54776
# Velocity P-wave (km/s) = 5.35420 5.88290 5.62477
#
# Compressibility (1/GPa) = 0.03899288
#
# Stress axis : x y z
#
# Youngs Moduli (GPa) = 56.10703 47.92092 55.43254
#
# Poissons Ratio (x) = 0.18346 0.52004
# Poissons Ratio (y) = 0.21479 -0.24063
# Poissons Ratio (z) = 0.52637 -0.20802
#
# Static dielectric constant tensor:
#      x y z
#    x 3.735590 0.000000 0.000000 
#    y 0.000000 3.316970 0.000000 
#    z 0.000000 0.000000 6.640670 
# 
# 
# High freq. dielectric constant tensor:
#      x y z
#    x 1.743040 0.000000 0.000000 
#    y 0.000000 1.728290 0.000000 
#    z 0.000000 0.000000 1.735370 
# 
# From -- ./inp_files/19854.got.cif
#   From: 2010.03.12/outbox.cif.g09.slc.cpg/sg59_10_cif.got.tgz:19854.got - 2010.04.16 16:29:54.
