data_PCOD8243133
_publ_section_title
;
Structure prediction by ZEFSAII (Michael W. Deem and Ramdas Pophale) SiO2 
 PCOD8243133
Probable space group: P M M N
;
_chemical_formula_sum "Si O2"
_cell_formula_units_Z 64
_cell_length_a 18.555132
_cell_length_b 9.459154
_cell_length_c 20.390838
_cell_angle_alpha 90.000000
_cell_angle_beta 90.000000
_cell_angle_gamma 90.000000
_cell_volume 3578.915286
_symmetry_space_group_name_H-M "P M M N"
_symmetry_group_IT_number 59
_space_group.IT_coordinate_system_code '2'
_symmetry_cell_setting 'orthorhombic'
loop_
_space_group_symop_operation_xyz
x,y,z
1/2-x,1/2-y,z
1/2+x,-y,-z
-x,1/2+y,-z
-x,-y,-z
1/2+x,1/2+y,-z
1/2-x,y,z
x,1/2-y,z
loop_
_atom_site_type_symbol
_atom_site_label
_atom_site_fract_x
_atom_site_fract_y
_atom_site_fract_z
Si Si1 0.333159 0.586894 0.565010
Si Si2 0.666630 0.915027 0.561648
Si Si3 0.583662 0.417154 0.304990
Si Si4 0.430248 0.412405 0.925707
Si Si5 0.332898 0.085876 0.805332
Si Si6 0.330243 0.081982 0.189738
Si Si7 0.430128 0.085224 0.074170
Si Si8 0.919515 0.917919 0.687586
O O1 0.250000 0.557243 0.581604
O O2 0.346945 0.750000 0.548046
O O3 0.359059 0.496226 0.503135
O O4 0.378832 0.538085 0.627401
O O5 0.750000 0.946799 0.578049
O O6 0.653759 0.750000 0.549286
O O7 0.618602 0.973246 0.621503
O O8 0.589131 0.250000 0.293003
O O9 0.622879 0.493803 0.245715
O O10 0.501542 0.470801 0.308749
O O11 0.454692 0.250000 0.921692
O O12 0.363193 0.443309 0.878210
O O13 0.497746 0.505786 0.903792
O O14 0.406846 0.451536 0.999885
O O15 0.250000 0.037829 0.804699
O O16 0.340853 0.250000 0.786371
O O17 0.250000 0.017677 0.192757
O O18 0.326866 0.250000 0.194713
O O19 0.365857 0.034520 0.121280
O O20 0.376547 0.020219 0.250096
O O21 0.446195 0.250000 0.083779
O O22 0.916702 0.750000 0.688241
#
# Coordination Sequence:
#
# PCOD8243133 Si02
#       8
#     8   8   8   8   8   8   8   8
#     4   9  18  32  48  67  93 123 154 192 239 286
#     4   9  17  30  49  71  95 125 158 191 232 284
#     4  10  20  34  52  72  95 125 161 200 240 283
#     4   9  18  32  49  70  98 129 158 193 239 284
#     4  10  21  35  50  70  98 130 162 199 243 288
#     4   9  16  26  44  71  98 122 153 196 239 275
#     4   9  17  30  50  74  97 125 162 198 232 278
#     4   9  17  29  46  70  98 124 154 196 240 279
#
# _framework density 17.882512999999999
#
# number of rings (size 3 to 8) (size 9 to 14) (size 15 to 20)
#    0.000    2.750    0.000    1.500    0.000    5.250 
#    0.000    4.375    0.000    1.125    0.000    3.500 
#    0.000    0.000    0.000    0.000    0.000    0.000 
#
# Total GULP energy -793648.004868 kJ/mol
# GULP energy per Si atom -12400.750076 kJ/mol
# Density = 1.784181 g / cm^3
# Si number density = 17.882513 Si / 1000 Ang^3
#
#
#
# Elastic Constant Matrix: (Units=GPa)
#
#
# Indices 1 2 3 4 5 6 
#
# 1 140.9481 32.5603 90.7901 0.0000 0.0000 0.0000
# 2 32.5603 31.1613 38.8973 0.0000 0.0000 0.0000
# 3 90.7901 38.8973 144.6076 0.0000 0.0000 0.0000
# 4 0.0000 0.0000 0.0000 24.4409 0.0000 0.0000
# 5 0.0000 0.0000 0.0000 0.0000 38.9948 0.0000
# 6 0.0000 0.0000 0.0000 0.0000 0.0000 19.1147
#
#
#
# Elastic Compliance Matrix: (Units=1/GPa)
#
#
# Indices 1 2 3 4 5 6 
#
# 1 0.012384 -0.004870 -0.006466 0.000000 0.000000 0.000000
# 2 -0.004870 0.050228 -0.010453 0.000000 0.000000 0.000000
# 3 -0.006466 -0.010453 0.013786 0.000000 0.000000 0.000000
# 4 0.000000 0.000000 0.000000 0.040915 0.000000 0.000000
# 5 0.000000 0.000000 0.000000 0.000000 0.025644 0.000000
# 6 0.000000 0.000000 0.000000 0.000000 0.000000 0.052316
#
#
# Mechanical properties :
#
#
# Convention : Reuss Voigt Hill
#
# Bulk Modulus (GPa) = 30.46775 71.24582 50.85679
# Shear Modulus (GPa) = 20.01675 26.80804 23.41239
#
# Velocity S-wave (km/s) = 3.34929 3.87605 3.62226
# Velocity P-wave (km/s) = 5.65966 7.74333 6.78200
#
# Compressibility (1/GPa) = 0.03282159
#
# Stress axis : x y z
#
# Youngs Moduli (GPa) = 80.74618 19.90937 72.53588
#
# Poissons Ratio (x) = 0.09696 0.46898
# Poissons Ratio (y) = 0.39322 0.75822
# Poissons Ratio (z) = 0.52207 0.20811
#
# Static dielectric constant tensor:
#      x y z
#    x 3.448250 0.000000 0.000000 
#    y 0.000000 3.030170 0.000000 
#    z 0.000000 0.000000 3.490380 
# 
# 
# High freq. dielectric constant tensor:
#      x y z
#    x 1.694650 0.000000 0.000000 
#    y 0.000000 1.657430 0.000000 
#    z 0.000000 0.000000 1.705910 
# 
# From -- ./inp_files/30824.got.cif
#   From: 2010.03.12/outbox.cif.g09.slc.cpg/sg59_16_cif.got.tgz:30824.got - 2010.04.16 16:29:54.
