data_PCOD8243822
_publ_section_title
;
Structure prediction by ZEFSAII (Michael W. Deem and Ramdas Pophale) SiO2 
 PCOD8243822
Probable space group: P M M N
;
_chemical_formula_sum "Si O2"
_cell_formula_units_Z 64
_cell_length_a 8.813294
_cell_length_b 24.046149
_cell_length_c 15.208831
_cell_angle_alpha 90.000000
_cell_angle_beta 90.000000
_cell_angle_gamma 90.000000
_cell_volume 3223.143383
_symmetry_space_group_name_H-M "P M M N"
_symmetry_group_IT_number 59
_space_group.IT_coordinate_system_code '2'
_symmetry_cell_setting 'orthorhombic'
loop_
_space_group_symop_operation_xyz
x,y,z
1/2-x,1/2-y,z
1/2+x,-y,-z
-x,1/2+y,-z
-x,-y,-z
1/2+x,1/2+y,-z
1/2-x,y,z
x,1/2-y,z
loop_
_atom_site_type_symbol
_atom_site_label
_atom_site_fract_x
_atom_site_fract_y
_atom_site_fract_z
Si Si1 0.430045 0.314964 0.515470
Si Si2 0.571267 0.619520 0.654740
Si Si3 0.426672 0.686161 0.807730
Si Si4 0.430307 0.620153 0.322586
Si Si5 0.573818 0.632730 0.143746
Si Si6 0.585204 0.313642 0.000583
Si Si7 0.929896 0.996658 0.718413
Si Si8 0.571711 0.021290 0.910622
O O1 0.250000 0.320384 0.526236
O O2 0.477850 0.250000 0.510849
O O3 0.492572 0.347222 0.429463
O O4 0.511566 0.345611 0.595067
O O5 0.750000 0.617252 0.646617
O O6 0.528473 0.651170 0.742295
O O7 0.507523 0.555735 0.661649
O O8 0.250000 0.678980 0.784379
O O9 0.477545 0.750000 0.797922
O O10 0.462170 0.660613 0.904775
O O11 0.250000 0.624734 0.315747
O O12 0.506332 0.649212 0.238071
O O13 0.484555 0.555234 0.324700
O O14 0.750000 0.618114 0.152238
O O15 0.476760 0.584606 0.098661
O O16 0.544059 0.681895 0.074156
O O17 0.750000 0.337854 0.969720
O O18 0.608742 0.250000 0.023923
O O19 0.750000 0.996543 0.718787
O O20 0.985683 0.991201 0.820378
O O21 0.750000 0.015535 0.920226
O O22 0.500000 0.000000 0.000000
#
# Coordination Sequence:
#
# PCOD8243822 Si02
#       8
#     8   8   8   8   8   8   8   8
#     4  10  22  39  59  86 117 148 186 235 291 350
#     4  10  20  36  59  85 115 150 187 232 287 347
#     4   9  19  35  53  77 112 150 188 235 285 335
#     4  10  21  40  62  82 111 150 191 239 292 346
#     4  11  22  36  56  82 112 147 188 237 289 342
#     4   9  19  36  55  77 110 151 191 234 289 346
#     4   8  18  36  56  82 115 148 188 236 286 337
#     4  10  20  35  54  80 116 155 196 240 284 335
#
# _framework density 19.856393000000001
#
# number of rings (size 3 to 8) (size 9 to 14) (size 15 to 20)
#    0.000    2.375    0.000    3.750    1.750    3.250 
#    0.000    4.375    0.000    0.000    0.000    0.000 
#    0.000    0.000    0.000    0.000    0.000    0.000 
#
# Total GULP energy -793121.908129 kJ/mol
# GULP energy per Si atom -12392.529815 kJ/mol
# Density = 1.981120 g / cm^3
# Si number density = 19.856393 Si / 1000 Ang^3
#
#
#
# Elastic Constant Matrix: (Units=GPa)
#
#
# Indices 1 2 3 4 5 6 
#
# 1 48.9711 24.2718 43.0562 0.0000 0.0000 0.0000
# 2 24.2718 89.7573 68.4518 0.0000 0.0000 0.0000
# 3 43.0562 68.4518 155.4589 0.0000 0.0000 0.0000
# 4 0.0000 0.0000 0.0000 35.0645 0.0000 0.0000
# 5 0.0000 0.0000 0.0000 0.0000 32.5378 0.0000
# 6 0.0000 0.0000 0.0000 0.0000 0.0000 24.3461
#
#
#
# Elastic Compliance Matrix: (Units=1/GPa)
#
#
# Indices 1 2 3 4 5 6 
#
# 1 0.027343 -0.002437 -0.006500 0.000000 0.000000 0.000000
# 2 -0.002437 0.016991 -0.006807 0.000000 0.000000 0.000000
# 3 -0.006500 -0.006807 0.011230 0.000000 0.000000 0.000000
# 4 0.000000 0.000000 0.000000 0.028519 0.000000 0.000000
# 5 0.000000 0.000000 0.000000 0.000000 0.030733 0.000000
# 6 0.000000 0.000000 0.000000 0.000000 0.000000 0.041074
#
#
# Mechanical properties :
#
#
# Convention : Reuss Voigt Hill
#
# Bulk Modulus (GPa) = 41.53345 62.86075 52.19710
# Shear Modulus (GPa) = 25.58817 28.95020 27.26918
#
# Velocity S-wave (km/s) = 3.59369 3.82249 3.70985
# Velocity P-wave (km/s) = 6.17914 7.15600 6.68544
#
# Compressibility (1/GPa) = 0.02407698
#
# Stress axis : x y z
#
# Youngs Moduli (GPa) = 36.57267 58.85452 89.04819
#
# Poissons Ratio (x) = 0.14342 0.57880
# Poissons Ratio (y) = 0.08912 0.60611
# Poissons Ratio (z) = 0.23772 0.40060
#
# Static dielectric constant tensor:
#      x y z
#    x 3.314290 0.000000 0.000000 
#    y 0.000000 3.900950 0.000000 
#    z 0.000000 0.000000 3.715470 
# 
# 
# High freq. dielectric constant tensor:
#      x y z
#    x 1.756080 0.000000 0.000000 
#    y 0.000000 1.772440 0.000000 
#    z 0.000000 0.000000 1.782110 
# 
# From -- ./inp_files/21622.got.cif
#   From: 2010.03.12/outbox.cif.g09.slc.cpg/sg59_11_cif.got.tgz:21622.got - 2010.04.16 16:29:54.
