data_PCOD8243542
_publ_section_title
;
Structure prediction by ZEFSAII (Michael W. Deem and Ramdas Pophale) SiO2 
 PCOD8243542
Probable space group: P M M N
;
_chemical_formula_sum "Si O2"
_cell_formula_units_Z 56
_cell_length_a 9.555881
_cell_length_b 17.010803
_cell_length_c 17.576918
_cell_angle_alpha 90.000000
_cell_angle_beta 90.000000
_cell_angle_gamma 90.000000
_cell_volume 2857.184428
_symmetry_space_group_name_H-M "P M M N"
_symmetry_group_IT_number 59
_space_group.IT_coordinate_system_code '2'
_symmetry_cell_setting 'orthorhombic'
loop_
_space_group_symop_operation_xyz
x,y,z
1/2-x,1/2-y,z
1/2+x,-y,-z
-x,1/2+y,-z
-x,-y,-z
1/2+x,1/2+y,-z
1/2-x,y,z
x,1/2-y,z
loop_
_atom_site_type_symbol
_atom_site_label
_atom_site_fract_x
_atom_site_fract_y
_atom_site_fract_z
Si Si1 0.410774 0.398167 0.950634
Si Si2 0.086758 0.919502 0.593885
Si Si3 0.589384 0.424165 0.095041
Si Si4 0.097931 0.660669 0.174236
Si Si5 0.584477 0.160211 0.250428
Si Si6 0.910118 0.595152 0.453180
Si Si7 0.597634 0.839755 0.298753
O O1 0.250000 0.370686 0.957377
O O2 0.421117 0.481912 0.908398
O O3 0.500817 0.339521 0.899759
O O4 0.480682 0.392253 0.033200
O O5 0.250000 0.900787 0.584711
O O6 0.029302 0.884607 0.673793
O O7 0.005391 0.879179 0.523951
O O8 0.053247 0.011757 0.586321
O O9 0.750000 0.397871 0.077292
O O10 0.538522 0.389797 0.176196
O O11 0.250000 0.619120 0.161037
O O12 0.126984 0.750000 0.196394
O O13 0.016967 0.618443 0.244664
O O14 0.750000 0.163125 0.253724
O O15 0.525404 0.250000 0.246834
O O16 0.750000 0.596894 0.480991
O O17 0.943541 0.657542 0.387199
O O18 0.750000 0.881699 0.287192
O O19 0.611316 0.750000 0.273142
#
# Coordination Sequence:
#
# PCOD8243542 Si02
#       7
#     8   8   8   8   8   8   8
#     4  10  20  34  55  79 106 139 176 217 263 314
#     4   9  18  32  51  74 101 132 172 216 256 302
#     4   9  19  35  55  78 106 138 176 219 263 313
#     4  10  21  35  51  75 106 137 171 213 261 313
#     4   9  18  33  54  79 104 136 179 221 262 311
#     4   9  18  32  51  73 102 136 171 211 258 310
#     4   9  18  32  50  73 101 134 170 207 254 312
#
# _framework density 19.599715
#
# number of rings (size 3 to 8) (size 9 to 14) (size 15 to 20)
#    0.000    2.714    0.000    0.857    2.000    3.143 
#    0.000    2.143    0.000    0.857    0.000    0.000 
#    0.000    0.000    0.000    0.000    0.000    0.000 
#
# Total GULP energy -693968.056828 kJ/mol
# GULP energy per Si atom -12392.286729 kJ/mol
# Density = 1.955511 g / cm^3
# Si number density = 19.599715 Si / 1000 Ang^3
#
#
#
# Elastic Constant Matrix: (Units=GPa)
#
#
# Indices 1 2 3 4 5 6 
#
# 1 118.5911 17.7231 79.7917 0.0000 0.0000 0.0000
# 2 17.7231 38.2544 39.5356 0.0000 0.0000 0.0000
# 3 79.7917 39.5356 169.8287 0.0000 0.0000 0.0000
# 4 0.0000 0.0000 0.0000 32.0193 0.0000 0.0000
# 5 0.0000 0.0000 0.0000 0.0000 39.2869 0.0000
# 6 0.0000 0.0000 0.0000 0.0000 0.0000 14.3501
#
#
#
# Elastic Compliance Matrix: (Units=1/GPa)
#
#
# Indices 1 2 3 4 5 6 
#
# 1 0.012334 0.000362 -0.005879 0.000000 0.000000 0.000000
# 2 0.000362 0.034433 -0.008186 0.000000 0.000000 0.000000
# 3 -0.005879 -0.008186 0.010556 0.000000 0.000000 0.000000
# 4 0.000000 0.000000 0.000000 0.031231 0.000000 0.000000
# 5 0.000000 0.000000 0.000000 0.000000 0.025454 0.000000
# 6 0.000000 0.000000 0.000000 0.000000 0.000000 0.069686
#
#
# Mechanical properties :
#
#
# Convention : Reuss Voigt Hill
#
# Bulk Modulus (GPa) = 33.42605 66.75278 50.08942
# Shear Modulus (GPa) = 22.61693 29.77283 26.19488
#
# Velocity S-wave (km/s) = 3.40066 3.90172 3.65977
# Velocity P-wave (km/s) = 5.70181 7.37766 6.59320
#
# Compressibility (1/GPa) = 0.02991679
#
# Stress axis : x y z
#
# Youngs Moduli (GPa) = 81.07706 29.04166 94.73107
#
# Poissons Ratio (x) = -0.01051 0.55694
# Poissons Ratio (y) = -0.02933 0.77546
# Poissons Ratio (z) = 0.47666 0.23773
#
# Static dielectric constant tensor:
#      x y z
#    x 3.733300 0.000000 0.000000 
#    y 0.000000 3.385250 0.000000 
#    z 0.000000 0.000000 3.671710 
# 
# 
# High freq. dielectric constant tensor:
#      x y z
#    x 1.751080 0.000000 0.000000 
#    y 0.000000 1.736880 0.000000 
#    z 0.000000 0.000000 1.770820 
# 
# From -- ./inp_files/21048.got.cif
#   From: 2010.03.12/outbox.cif.g09.slc.cpg/sg59_11_cif.got.tgz:21048.got - 2010.04.16 16:29:54.
