data_PCOD8243833
_publ_section_title
;
Structure prediction by ZEFSAII (Michael W. Deem and Ramdas Pophale) SiO2 
 PCOD8243833
Probable space group: P M M N
;
_chemical_formula_sum "Si O2"
_cell_formula_units_Z 48
_cell_length_a 18.225418
_cell_length_b 9.239042
_cell_length_c 15.498710
_cell_angle_alpha 90.000000
_cell_angle_beta 90.000000
_cell_angle_gamma 90.000000
_cell_volume 2609.756520
_symmetry_space_group_name_H-M "P M M N"
_symmetry_group_IT_number 59
_space_group.IT_coordinate_system_code '2'
_symmetry_cell_setting 'orthorhombic'
loop_
_space_group_symop_operation_xyz
x,y,z
1/2-x,1/2-y,z
1/2+x,-y,-z
-x,1/2+y,-z
-x,-y,-z
1/2+x,1/2+y,-z
1/2-x,y,z
x,1/2-y,z
loop_
_atom_site_type_symbol
_atom_site_label
_atom_site_fract_x
_atom_site_fract_y
_atom_site_fract_z
Si Si1 0.832083 0.078180 0.158215
Si Si2 0.924666 0.917386 0.488882
Si Si3 0.077030 0.578142 0.006143
Si Si4 0.166910 0.920824 0.172908
Si Si5 0.582715 0.080067 0.326534
Si Si6 0.088017 0.414428 0.320838
O O1 0.750000 0.013477 0.158023
O O2 0.829145 0.250000 0.157711
O O3 0.874063 0.023164 0.073625
O O4 0.874336 0.023305 0.242921
O O5 0.939380 0.750000 0.466727
O O6 0.882462 0.931136 0.580491
O O7 0.883091 0.994228 0.408897
O O8 0.000000 0.000000 0.500000
O O9 0.065222 0.750000 0.003583
O O10 0.117511 0.526929 0.093029
O O11 0.000000 0.500000 0.000000
O O12 0.250000 0.974601 0.157691
O O13 0.164404 0.750000 0.181079
O O14 0.136661 0.984193 0.261565
O O15 0.593778 0.250000 0.342893
O O16 0.497326 0.041086 0.313909
O O17 0.097420 0.250000 0.289029
#
# Coordination Sequence:
#
# PCOD8243833 Si02
#       6
#     8   8   8   8   8   8
#     4   9  17  31  52  75 100 133 168 200 240 294
#     4   9  17  30  49  73 100 130 166 207 250 293
#     4  10  20  35  55  77 101 129 164 205 246 292
#     4  10  21  35  51  74 102 131 165 206 249 290
#     4   9  17  30  50  76 102 128 165 209 247 289
#     4   9  18  32  50  73 100 132 168 204 246 296
#
# _framework density 18.392520999999999
#
# number of rings (size 3 to 8) (size 9 to 14) (size 15 to 20)
#    0.000    2.667    0.000    3.000    0.000    7.667 
#    0.000    1.667    0.000    6.000    0.000    0.000 
#    0.000    0.000    0.000    0.000    0.000    0.000 
#
# Total GULP energy -595066.232513 kJ/mol
# GULP energy per Si atom -12397.213177 kJ/mol
# Density = 1.835066 g / cm^3
# Si number density = 18.392521 Si / 1000 Ang^3
#
#
#
# Elastic Constant Matrix: (Units=GPa)
#
#
# Indices 1 2 3 4 5 6 
#
# 1 110.1904 31.5363 65.2972 0.0000 0.0000 0.0000
# 2 31.5363 45.2502 47.4269 0.0000 0.0000 0.0000
# 3 65.2972 47.4269 156.5456 0.0000 0.0000 0.0000
# 4 0.0000 0.0000 0.0000 29.3631 0.0000 0.0000
# 5 0.0000 0.0000 0.0000 0.0000 11.2942 0.0000
# 6 0.0000 0.0000 0.0000 0.0000 0.0000 23.3011
#
#
#
# Elastic Compliance Matrix: (Units=1/GPa)
#
#
# Indices 1 2 3 4 5 6 
#
# 1 0.012742 -0.004850 -0.003846 0.000000 0.000000 0.000000
# 2 -0.004850 0.034227 -0.008347 0.000000 0.000000 0.000000
# 3 -0.003846 -0.008347 0.010521 0.000000 0.000000 0.000000
# 4 0.000000 0.000000 0.000000 0.034056 0.000000 0.000000
# 5 0.000000 0.000000 0.000000 0.000000 0.088541 0.000000
# 6 0.000000 0.000000 0.000000 0.000000 0.000000 0.042916
#
#
# Mechanical properties :
#
#
# Convention : Reuss Voigt Hill
#
# Bulk Modulus (GPa) = 42.72377 66.72300 54.72338
# Shear Modulus (GPa) = 18.87581 23.97343 21.42462
#
# Velocity S-wave (km/s) = 3.20703 3.61423 3.41670
# Velocity P-wave (km/s) = 6.08216 7.33300 6.73667
#
# Compressibility (1/GPa) = 0.02340617
#
# Stress axis : x y z
#
# Youngs Moduli (GPa) = 78.48043 29.21637 95.05136
#
# Poissons Ratio (x) = 0.14169 0.36553
# Poissons Ratio (y) = 0.38061 0.79335
# Poissons Ratio (z) = 0.30180 0.24386
#
# Static dielectric constant tensor:
#      x y z
#    x 3.322640 0.000000 0.000000 
#    y 0.000000 3.224930 0.000000 
#    z 0.000000 0.000000 3.966240 
# 
# 
# High freq. dielectric constant tensor:
#      x y z
#    x 1.692490 0.000000 0.000000 
#    y 0.000000 1.690810 0.000000 
#    z 0.000000 0.000000 1.734270 
# 
# From -- ./inp_files/20758.got.cif
#   From: 2010.03.12/outbox.cif.g09.slc.cpg/sg59_11_cif.got.tgz:20758.got - 2010.04.16 16:29:54.
