data_PCOD8243384
_publ_section_title
;
Structure prediction by ZEFSAII (Michael W. Deem and Ramdas Pophale) SiO2 
 PCOD8243384
Probable space group: P M M N
;
_chemical_formula_sum "Si O2"
_cell_formula_units_Z 56
_cell_length_a 18.142778
_cell_length_b 9.520033
_cell_length_c 17.670495
_cell_angle_alpha 90.000000
_cell_angle_beta 90.000000
_cell_angle_gamma 90.000000
_cell_volume 3052.045162
_symmetry_space_group_name_H-M "P M M N"
_symmetry_group_IT_number 59
_space_group.IT_coordinate_system_code '2'
_symmetry_cell_setting 'orthorhombic'
loop_
_space_group_symop_operation_xyz
x,y,z
1/2-x,1/2-y,z
1/2+x,-y,-z
-x,1/2+y,-z
-x,-y,-z
1/2+x,1/2+y,-z
1/2-x,y,z
x,1/2-y,z
loop_
_atom_site_type_symbol
_atom_site_label
_atom_site_fract_x
_atom_site_fract_y
_atom_site_fract_z
Si Si1 0.580400 0.084570 0.372953
Si Si2 0.569512 0.086143 0.089745
Si Si3 0.927329 0.089680 0.919111
Si Si4 0.667848 0.416720 0.226068
Si Si5 0.666697 0.087283 0.777805
Si Si6 0.835134 0.912386 0.497243
Si Si7 0.412349 0.412150 0.347320
O O1 0.591498 0.250000 0.384529
O O2 0.620267 0.029895 0.297068
O O3 0.494905 0.043172 0.369324
O O4 0.615407 0.007625 0.444057
O O5 0.554222 0.250000 0.102684
O O6 0.630901 0.030433 0.148191
O O7 0.493765 0.007908 0.107681
O O8 0.597562 0.053376 0.004797
O O9 0.955119 0.250000 0.914652
O O10 0.858066 0.063841 0.864528
O O11 0.750000 0.481006 0.231356
O O12 0.671798 0.250000 0.226679
O O13 0.750000 0.031333 0.770306
O O14 0.661604 0.250000 0.755180
O O15 0.613019 0.002260 0.723633
O O16 0.750000 0.954063 0.487324
O O17 0.848991 0.750000 0.476796
O O18 0.858019 0.942854 0.583273
O O19 0.410180 0.250000 0.322937
#
# Coordination Sequence:
#
# PCOD8243384 Si02
#       7
#     8   8   8   8   8   8   8
#     4  10  20  34  54  78 102 131 169 211 252 297
#     4   9  17  31  52  74  97 131 171 205 244 298
#     4   9  18  32  50  73 101 131 164 207 253 294
#     4   9  17  29  47  73 101 127 161 205 246 286
#     4  10  21  35  51  75 106 137 171 212 258 306
#     4  10  21  36  53  75 104 135 167 206 254 306
#     4  10  21  37  56  77 102 134 172 211 252 301
#
# _framework density 18.348351999999998
#
# number of rings (size 3 to 8) (size 9 to 14) (size 15 to 20)
#    0.000    2.429    0.000    2.143    0.000    5.143 
#    0.000    3.571    0.000    1.286    0.000    4.000 
#    0.000    0.000    0.000    0.000    0.000    0.000 
#
# Total GULP energy -694516.093481 kJ/mol
# GULP energy per Si atom -12402.073098 kJ/mol
# Density = 1.830659 g / cm^3
# Si number density = 18.348352 Si / 1000 Ang^3
#
#
#
# Elastic Constant Matrix: (Units=GPa)
#
#
# Indices 1 2 3 4 5 6 
#
# 1 104.7608 35.9798 38.3267 0.0000 0.0000 0.0000
# 2 35.9798 41.5138 33.4657 0.0000 0.0000 0.0000
# 3 38.3267 33.4657 82.3417 0.0000 0.0000 0.0000
# 4 0.0000 0.0000 0.0000 25.8877 0.0000 0.0000
# 5 0.0000 0.0000 0.0000 0.0000 33.8459 0.0000
# 6 0.0000 0.0000 0.0000 0.0000 0.0000 23.0171
#
#
#
# Elastic Compliance Matrix: (Units=1/GPa)
#
#
# Indices 1 2 3 4 5 6 
#
# 1 0.013887 -0.010151 -0.002338 0.000000 0.000000 0.000000
# 2 -0.010151 0.043246 -0.012851 0.000000 0.000000 0.000000
# 3 -0.002338 -0.012851 0.018456 0.000000 0.000000 0.000000
# 4 0.000000 0.000000 0.000000 0.038628 0.000000 0.000000
# 5 0.000000 0.000000 0.000000 0.000000 0.029546 0.000000
# 6 0.000000 0.000000 0.000000 0.000000 0.000000 0.043446
#
#
# Mechanical properties :
#
#
# Convention : Reuss Voigt Hill
#
# Bulk Modulus (GPa) = 40.14785 49.35120 44.74952
# Shear Modulus (GPa) = 20.30917 24.60642 22.45780
#
# Velocity S-wave (km/s) = 3.33057 3.66603 3.50232
# Velocity P-wave (km/s) = 6.05959 6.69888 6.38724
#
# Compressibility (1/GPa) = 0.02490793
#
# Stress axis : x y z
#
# Youngs Moduli (GPa) = 72.00772 23.12340 54.18275
#
# Poissons Ratio (x) = 0.23473 0.12670
# Poissons Ratio (y) = 0.73096 0.69633
# Poissons Ratio (z) = 0.16838 0.29717
#
# Static dielectric constant tensor:
#      x y z
#    x 3.532840 0.000000 0.000000 
#    y 0.000000 3.206660 0.000000 
#    z 0.000000 0.000000 3.460480 
# 
# 
# High freq. dielectric constant tensor:
#      x y z
#    x 1.716820 0.000000 0.000000 
#    y 0.000000 1.689350 0.000000 
#    z 0.000000 0.000000 1.723330 
# 
# From -- ./inp_files/20904.got.cif
#   From: 2010.03.12/outbox.cif.g09.slc.cpg/sg59_11_cif.got.tgz:20904.got - 2010.04.16 16:29:54.
