data_PCOD8243872
_publ_section_title
;
Structure prediction by ZEFSAII (Michael W. Deem and Ramdas Pophale) SiO2 
 PCOD8243872
Probable space group: P M M N
;
_chemical_formula_sum "Si O2"
_cell_formula_units_Z 56
_cell_length_a 8.950305
_cell_length_b 14.513586
_cell_length_c 22.482976
_cell_angle_alpha 90.000000
_cell_angle_beta 90.000000
_cell_angle_gamma 90.000000
_cell_volume 2920.561545
_symmetry_space_group_name_H-M "P M M N"
_symmetry_group_IT_number 59
_space_group.IT_coordinate_system_code '2'
_symmetry_cell_setting 'orthorhombic'
loop_
_space_group_symop_operation_xyz
x,y,z
1/2-x,1/2-y,z
1/2+x,-y,-z
-x,1/2+y,-z
-x,-y,-z
1/2+x,1/2+y,-z
1/2-x,y,z
x,1/2-y,z
loop_
_atom_site_type_symbol
_atom_site_label
_atom_site_fract_x
_atom_site_fract_y
_atom_site_fract_z
Si Si1 0.073915 0.410648 0.329200
Si Si2 0.426943 0.750000 0.464960
Si Si3 0.923840 0.111680 0.631726
Si Si4 0.419682 0.152261 0.748277
Si Si5 0.576045 0.356918 0.981350
Si Si6 0.927995 0.250000 0.401617
Si Si7 0.575534 0.539027 0.913185
Si Si8 0.926775 0.039747 0.208451
O O1 0.250000 0.391178 0.324511
O O2 0.036582 0.504356 0.364303
O O3 0.990576 0.337692 0.368663
O O4 0.005511 0.407629 0.262896
O O5 0.250000 0.750000 0.470692
O O6 0.482515 0.841668 0.429484
O O7 0.493549 0.750000 0.531245
O O8 0.750000 0.129224 0.636657
O O9 0.992649 0.163572 0.687396
O O10 0.250000 0.132311 0.730339
O O11 0.437257 0.250000 0.783213
O O12 0.475403 0.067966 0.788375
O O13 0.750000 0.364147 0.998796
O O14 0.536272 0.250000 0.963661
O O15 0.540445 0.431147 0.928870
O O16 0.477455 0.389480 0.036754
O O17 0.750000 0.250000 0.399623
O O18 0.750000 0.553109 0.902937
O O19 0.489704 0.572771 0.854355
O O20 0.750000 0.057140 0.211270
#
# Coordination Sequence:
#
# PCOD8243872 Si02
#       8
#     8   4   8   8   8   4   8   8
#     4  10  21  38  58  80 108 141 183 235 279 319
#     4   9  18  33  55  83 111 141 180 219 268 339
#     4   9  17  32  55  79 105 139 176 218 270 328
#     4   9  17  29  47  75 109 141 175 220 272 325
#     4   9  19  37  59  82 113 151 186 224 271 323
#     4  11  23  39  57  77 107 147 184 225 280 335
#     4  10  20  35  56  84 115 145 184 231 273 318
#     4  10  20  35  55  79 110 148 186 223 272 333
#
# _framework density 19.174395000000001
#
# number of rings (size 3 to 8) (size 9 to 14) (size 15 to 20)
#    0.000    2.429    0.714    1.500    0.000    3.143 
#    1.286    1.429    0.000    0.000    0.000    0.000 
#    0.000    0.000    0.000    0.000    0.000    0.000 
#
# Total GULP energy -693990.092474 kJ/mol
# GULP energy per Si atom -12392.680223 kJ/mol
# Density = 1.913075 g / cm^3
# Si number density = 19.174395 Si / 1000 Ang^3
#
#
#
# Elastic Constant Matrix: (Units=GPa)
#
#
# Indices 1 2 3 4 5 6 
#
# 1 64.4290 24.9495 39.6658 0.0000 0.0000 0.0000
# 2 24.9495 64.7046 21.4724 0.0000 0.0000 0.0000
# 3 39.6658 21.4724 114.3120 0.0000 0.0000 0.0000
# 4 0.0000 0.0000 0.0000 20.0269 0.0000 0.0000
# 5 0.0000 0.0000 0.0000 0.0000 28.8098 0.0000
# 6 0.0000 0.0000 0.0000 0.0000 0.0000 22.7851
#
#
#
# Elastic Compliance Matrix: (Units=1/GPa)
#
#
# Indices 1 2 3 4 5 6 
#
# 1 0.021921 -0.006322 -0.006419 0.000000 0.000000 0.000000
# 2 -0.006322 0.018306 -0.001245 0.000000 0.000000 0.000000
# 3 -0.006419 -0.001245 0.011209 0.000000 0.000000 0.000000
# 4 0.000000 0.000000 0.000000 0.049933 0.000000 0.000000
# 5 0.000000 0.000000 0.000000 0.000000 0.034710 0.000000
# 6 0.000000 0.000000 0.000000 0.000000 0.000000 0.043888
#
#
# Mechanical properties :
#
#
# Convention : Reuss Voigt Hill
#
# Bulk Modulus (GPa) = 42.61867 46.18010 44.39939
# Shear Modulus (GPa) = 23.17378 24.81487 23.99433
#
# Velocity S-wave (km/s) = 3.48023 3.60136 3.54131
# Velocity P-wave (km/s) = 6.19875 6.43658 6.31878
#
# Compressibility (1/GPa) = 0.02346389
#
# Stress axis : x y z
#
# Youngs Moduli (GPa) = 45.61823 54.62751 89.21300
#
# Poissons Ratio (x) = 0.34538 0.57265
# Poissons Ratio (y) = 0.28842 0.11104
# Poissons Ratio (z) = 0.29282 0.06800
#
# Static dielectric constant tensor:
#      x y z
#    x 3.466460 0.000000 0.000000 
#    y 0.000000 2.953720 0.000000 
#    z 0.000000 0.000000 3.505940 
# 
# 
# High freq. dielectric constant tensor:
#      x y z
#    x 1.743550 0.000000 0.000000 
#    y 0.000000 1.748970 0.000000 
#    z 0.000000 0.000000 1.734300 
# 
# From -- ./inp_files/29241.got.cif
#   From: 2010.03.12/outbox.cif.g09.slc.cpg/sg59_15_cif.got.tgz:29241.got - 2010.04.16 16:29:54.
