data_PCOD8243587
_publ_section_title
;
Structure prediction by ZEFSAII (Michael W. Deem and Ramdas Pophale) SiO2 
 PCOD8243587
Probable space group: P M M N
;
_chemical_formula_sum "Si O2"
_cell_formula_units_Z 48
_cell_length_a 9.018097
_cell_length_b 8.830989
_cell_length_c 30.896206
_cell_angle_alpha 90.000000
_cell_angle_beta 90.000000
_cell_angle_gamma 90.000000
_cell_volume 2460.534157
_symmetry_space_group_name_H-M "P M M N"
_symmetry_group_IT_number 59
_space_group.IT_coordinate_system_code '2'
_symmetry_cell_setting 'orthorhombic'
loop_
_space_group_symop_operation_xyz
x,y,z
1/2-x,1/2-y,z
1/2+x,-y,-z
-x,1/2+y,-z
-x,-y,-z
1/2+x,1/2+y,-z
1/2-x,y,z
x,1/2-y,z
loop_
_atom_site_type_symbol
_atom_site_label
_atom_site_fract_x
_atom_site_fract_y
_atom_site_fract_z
Si Si1 0.919434 0.071366 0.459361
Si Si2 0.076205 0.575315 0.219737
Si Si3 0.926048 0.581848 0.866457
Si Si4 0.576853 0.073560 0.621291
Si Si5 0.423453 0.926102 0.701459
Si Si6 0.415360 0.428813 0.039425
O O1 0.750000 0.015200 0.458453
O O2 0.928432 0.250000 0.463769
O O3 0.000000 0.000000 0.500000
O O4 0.997848 0.022483 0.415523
O O5 0.250000 0.541189 0.226614
O O6 0.039515 0.750000 0.228605
O O7 0.025455 0.534222 0.171012
O O8 0.981805 0.470409 0.251419
O O9 0.750000 0.589951 0.870343
O O10 0.986842 0.750000 0.855143
O O11 0.986681 0.527428 0.913556
O O12 0.750000 0.035148 0.620916
O O13 0.548124 0.250000 0.612856
O O14 0.510599 0.027797 0.667236
O O15 0.250000 0.962098 0.697967
O O16 0.455674 0.750000 0.692654
O O17 0.250000 0.493917 0.036959
O O18 0.416912 0.250000 0.034576
O O19 0.500000 0.500000 0.000000
#
# Coordination Sequence:
#
# PCOD8243587 Si02
#       6
#     8   8   8   8   8   8
#     4  11  24  41  62  90 122 156 196 238 281 332
#     4  10  20  34  55  83 109 135 174 222 270 323
#     4   8  15  30  51  73 100 136 176 218 264 315
#     4  11  24  41  62  89 118 149 189 234 279 330
#     4  11  24  40  58  82 112 147 186 225 269 325
#     4   9  18  32  50  74 103 135 174 218 264 318
#
# _framework density 19.507960000000001
#
# number of rings (size 3 to 8) (size 9 to 14) (size 15 to 20)
#    0.000    2.000    0.000    4.500    0.000   12.000 
#    0.000    2.500    0.000    1.000    0.000    0.000 
#    0.000    0.000    0.000    0.000    0.000    0.000 
#
# Total GULP energy -595218.458129 kJ/mol
# GULP energy per Si atom -12400.384544 kJ/mol
# Density = 1.946356 g / cm^3
# Si number density = 19.507960 Si / 1000 Ang^3
#
#
#
# Elastic Constant Matrix: (Units=GPa)
#
#
# Indices 1 2 3 4 5 6 
#
# 1 95.8304 42.8805 49.3693 0.0000 0.0000 0.0000
# 2 42.8805 54.0910 28.9841 0.0000 0.0000 0.0000
# 3 49.3693 28.9841 132.9747 0.0000 0.0000 0.0000
# 4 0.0000 0.0000 0.0000 43.0130 0.0000 0.0000
# 5 0.0000 0.0000 0.0000 0.0000 34.7319 0.0000
# 6 0.0000 0.0000 0.0000 0.0000 0.0000 27.9884
#
#
#
# Elastic Compliance Matrix: (Units=1/GPa)
#
#
# Indices 1 2 3 4 5 6 
#
# 1 0.017887 -0.012026 -0.004020 0.000000 0.000000 0.000000
# 2 -0.012026 0.029018 -0.001860 0.000000 0.000000 0.000000
# 3 -0.004020 -0.001860 0.009418 0.000000 0.000000 0.000000
# 4 0.000000 0.000000 0.000000 0.023249 0.000000 0.000000
# 5 0.000000 0.000000 0.000000 0.000000 0.028792 0.000000
# 6 0.000000 0.000000 0.000000 0.000000 0.000000 0.035729
#
#
# Mechanical properties :
#
#
# Convention : Reuss Voigt Hill
#
# Bulk Modulus (GPa) = 48.75343 58.37378 53.56360
# Shear Modulus (GPa) = 26.77499 31.92412 29.34956
#
# Velocity S-wave (km/s) = 3.70877 4.04971 3.88299
# Velocity P-wave (km/s) = 6.58679 7.20104 6.90075
#
# Compressibility (1/GPa) = 0.02051138
#
# Stress axis : x y z
#
# Youngs Moduli (GPa) = 55.90604 34.46171 106.17961
#
# Poissons Ratio (x) = 0.41444 0.42680
# Poissons Ratio (y) = 0.67233 0.19749
# Poissons Ratio (z) = 0.22472 0.06410
#
# Static dielectric constant tensor:
#      x y z
#    x 3.756440 0.000000 0.000000 
#    y 0.000000 3.323570 0.000000 
#    z 0.000000 0.000000 4.903650 
# 
# 
# High freq. dielectric constant tensor:
#      x y z
#    x 1.743060 0.000000 0.000000 
#    y 0.000000 1.762230 0.000000 
#    z 0.000000 0.000000 1.780830 
# 
# From -- ./inp_files/32825.got.cif
#   From: 2010.03.12/outbox.cif.g09.slc.cpg/sg59_17_cif.got.tgz:32825.got - 2010.04.16 16:29:54.
