data_PCOD8243420
_publ_section_title
;
Structure prediction by ZEFSAII (Michael W. Deem and Ramdas Pophale) SiO2 
 PCOD8243420
Probable space group: P M M N
;
_chemical_formula_sum "Si O2"
_cell_formula_units_Z 40
_cell_length_a 9.298626
_cell_length_b 14.220637
_cell_length_c 17.045964
_cell_angle_alpha 90.000000
_cell_angle_beta 90.000000
_cell_angle_gamma 90.000000
_cell_volume 2254.028473
_symmetry_space_group_name_H-M "P M M N"
_symmetry_group_IT_number 59
_space_group.IT_coordinate_system_code '2'
_symmetry_cell_setting 'orthorhombic'
loop_
_space_group_symop_operation_xyz
x,y,z
1/2-x,1/2-y,z
1/2+x,-y,-z
-x,1/2+y,-z
-x,-y,-z
1/2+x,1/2+y,-z
1/2-x,y,z
x,1/2-y,z
loop_
_atom_site_type_symbol
_atom_site_label
_atom_site_fract_x
_atom_site_fract_y
_atom_site_fract_z
Si Si1 0.916626 0.141278 0.517508
Si Si2 0.081525 0.052833 0.224280
Si Si3 0.081847 0.000006 0.620043
Si Si4 0.917144 0.750000 0.847687
Si Si5 0.584067 0.449344 0.931807
Si Si6 0.085793 0.750000 0.008759
O O1 0.750000 0.130765 0.541034
O O2 0.961120 0.250000 0.508071
O O3 0.948777 0.089161 0.435705
O O4 0.011588 0.094619 0.585517
O O5 0.250000 0.043289 0.244264
O O6 0.039430 0.159364 0.202735
O O7 0.988213 0.021607 0.297242
O O8 0.034565 0.985681 0.152855
O O9 0.250000 0.018548 0.630875
O O10 0.750000 0.750000 0.867732
O O11 0.992910 0.750000 0.930966
O O12 0.750000 0.474267 0.944719
O O13 0.551939 0.338742 0.936244
O O14 0.500000 0.500000 0.000000
O O15 0.250000 0.750000 0.980181
#
# Coordination Sequence:
#
# PCOD8243420 Si02
#       6
#     8   8   8   4   8   4
#     4   9  19  38  61  82 108 145 181 217 270 330
#     4  10  21  36  53  78 111 145 181 222 273 329
#     4  10  21  36  57  85 114 141 179 226 270 319
#     4  10  20  34  54  80 107 140 183 228 273 324
#     4  10  20  35  55  77 107 143 184 226 272 323
#     4  10  20  34  54  80 103 136 185 234 279 322
#
# _framework density 17.746006000000001
#
# number of rings (size 3 to 8) (size 9 to 14) (size 15 to 20)
#    0.000    2.200    2.000    0.600    1.400    2.800 
#    1.800    0.000    0.000    0.000    0.000    0.000 
#    0.000    0.000    0.000    0.000    0.000    0.000 
#
# Total GULP energy -496100.493368 kJ/mol
# GULP energy per Si atom -12402.512334 kJ/mol
# Density = 1.770562 g / cm^3
# Si number density = 17.746006 Si / 1000 Ang^3
#
#
#
# Elastic Constant Matrix: (Units=GPa)
#
#
# Indices 1 2 3 4 5 6 
#
# 1 75.1043 58.3707 74.3313 0.0000 0.0000 0.0000
# 2 58.3707 148.6122 80.2384 0.0000 0.0000 0.0000
# 3 74.3313 80.2384 152.9237 0.0000 0.0000 0.0000
# 4 0.0000 0.0000 0.0000 26.4560 0.0000 0.0000
# 5 0.0000 0.0000 0.0000 0.0000 36.7314 0.0000
# 6 0.0000 0.0000 0.0000 0.0000 0.0000 23.6893
#
#
#
# Elastic Compliance Matrix: (Units=1/GPa)
#
#
# Indices 1 2 3 4 5 6 
#
# 1 0.028207 -0.005130 -0.011019 0.000000 0.000000 0.000000
# 2 -0.005130 0.010321 -0.002922 0.000000 0.000000 0.000000
# 3 -0.011019 -0.002922 0.013429 0.000000 0.000000 0.000000
# 4 0.000000 0.000000 0.000000 0.037799 0.000000 0.000000
# 5 0.000000 0.000000 0.000000 0.000000 0.027225 0.000000
# 6 0.000000 0.000000 0.000000 0.000000 0.000000 0.042213
#
#
# Mechanical properties :
#
#
# Convention : Reuss Voigt Hill
#
# Bulk Modulus (GPa) = 72.38398 89.16899 80.77648
# Shear Modulus (GPa) = 24.75971 28.28866 26.52418
#
# Velocity S-wave (km/s) = 3.73933 3.99693 3.87027
# Velocity P-wave (km/s) = 7.71498 8.46505 8.09870
#
# Compressibility (1/GPa) = 0.01381521
#
# Stress axis : x y z
#
# Youngs Moduli (GPa) = 35.45187 96.88526 74.46783
#
# Poissons Ratio (x) = 0.49698 0.82058
# Poissons Ratio (y) = 0.18185 0.21762
# Poissons Ratio (z) = 0.39065 0.28313
#
# Static dielectric constant tensor:
#      x y z
#    x 3.315610 0.000000 0.000000 
#    y 0.000000 3.669680 0.000000 
#    z 0.000000 0.000000 3.160330 
# 
# 
# High freq. dielectric constant tensor:
#      x y z
#    x 1.686520 0.000000 0.000000 
#    y 0.000000 1.697710 0.000000 
#    z 0.000000 0.000000 1.682700 
# 
# From -- ./inp_files/19919.got.cif
#   From: 2010.03.12/outbox.cif.g09.slc.cpg/sg59_10_cif.got.tgz:19919.got - 2010.04.16 16:29:54.
