data_PCOD8243508
_publ_section_title
;
Structure prediction by ZEFSAII (Michael W. Deem and Ramdas Pophale) SiO2 
 PCOD8243508
Probable space group: P M M N
;
_chemical_formula_sum "Si O2"
_cell_formula_units_Z 64
_cell_length_a 8.817661
_cell_length_b 14.063480
_cell_length_c 26.675719
_cell_angle_alpha 90.000000
_cell_angle_beta 90.000000
_cell_angle_gamma 90.000000
_cell_volume 3307.975863
_symmetry_space_group_name_H-M "P M M N"
_symmetry_group_IT_number 59
_space_group.IT_coordinate_system_code '2'
_symmetry_cell_setting 'orthorhombic'
loop_
_space_group_symop_operation_xyz
x,y,z
1/2-x,1/2-y,z
1/2+x,-y,-z
-x,1/2+y,-z
-x,-y,-z
1/2+x,1/2+y,-z
1/2-x,y,z
x,1/2-y,z
loop_
_atom_site_type_symbol
_atom_site_label
_atom_site_fract_x
_atom_site_fract_y
_atom_site_fract_z
Si Si1 0.573292 0.014391 0.946338
Si Si2 0.429347 0.358222 0.476546
Si Si3 0.428460 0.028784 0.574418
Si Si4 0.428165 0.641450 0.337046
Si Si5 0.421205 0.352137 0.213905
Si Si6 0.920123 0.355888 0.111424
Si Si7 0.924670 0.442095 0.766792
Si Si8 0.071161 0.358522 0.864696
O O1 0.750000 0.034048 0.952645
O O2 0.501204 0.101898 0.915808
O O3 0.545009 0.917754 0.916372
O O4 0.500000 0.000000 0.000000
O O5 0.250000 0.361191 0.470875
O O6 0.489732 0.250000 0.471598
O O7 0.500804 0.423988 0.433257
O O8 0.481069 0.399707 0.530330
O O9 0.250000 0.017344 0.575539
O O10 0.483734 0.071383 0.626496
O O11 0.250000 0.622749 0.342906
O O12 0.471190 0.750000 0.349483
O O13 0.481678 0.619040 0.280422
O O14 0.250000 0.356655 0.191829
O O15 0.442263 0.250000 0.243054
O O16 0.542471 0.354839 0.169814
O O17 0.447483 0.445920 0.247817
O O18 0.750000 0.398032 0.104508
O O19 0.927531 0.250000 0.088896
O O20 0.750000 0.418489 0.778483
O O21 0.018654 0.417783 0.816340
O O22 0.250000 0.367751 0.869415
O O23 0.018686 0.250000 0.858130
#
# Coordination Sequence:
#
# PCOD8243508 Si02
#       8
#     8   8   8   8   8   8   8   8
#     4  12  25  41  61  84 113 148 184 227 276 332
#     4   9  18  34  56  81 111 150 195 241 291 350
#     4  10  20  34  54  82 115 149 191 243 295 347
#     4  10  21  36  54  79 114 155 199 243 287 338
#     4   9  17  31  54  83 110 139 178 222 270 323
#     4  10  20  35  57  84 112 141 175 218 268 323
#     4  10  20  36  59  85 114 152 194 237 279 328
#     4  11  24  41  61  86 116 149 187 232 282 337
#
# _framework density 19.347178
#
# number of rings (size 3 to 8) (size 9 to 14) (size 15 to 20)
#    0.000    1.875    1.250    3.000    0.000    4.750 
#    0.000    0.625    0.000    2.250    0.000    0.000 
#    0.000    0.000    0.000    0.000    0.000    0.000 
#
# Total GULP energy -793468.835667 kJ/mol
# GULP energy per Si atom -12397.950557 kJ/mol
# Density = 1.930314 g / cm^3
# Si number density = 19.347178 Si / 1000 Ang^3
#
#
#
# Elastic Constant Matrix: (Units=GPa)
#
#
# Indices 1 2 3 4 5 6 
#
# 1 68.6946 36.0533 27.2785 0.0000 0.0000 0.0000
# 2 36.0533 144.1384 37.3888 0.0000 0.0000 0.0000
# 3 27.2785 37.3888 76.2529 0.0000 0.0000 0.0000
# 4 0.0000 0.0000 0.0000 27.6347 0.0000 0.0000
# 5 0.0000 0.0000 0.0000 0.0000 28.2678 0.0000
# 6 0.0000 0.0000 0.0000 0.0000 0.0000 27.5326
#
#
#
# Elastic Compliance Matrix: (Units=1/GPa)
#
#
# Indices 1 2 3 4 5 6 
#
# 1 0.018232 -0.003287 -0.004911 0.000000 0.000000 0.000000
# 2 -0.003287 0.008541 -0.003012 0.000000 0.000000 0.000000
# 3 -0.004911 -0.003012 0.016348 0.000000 0.000000 0.000000
# 4 0.000000 0.000000 0.000000 0.036186 0.000000 0.000000
# 5 0.000000 0.000000 0.000000 0.000000 0.035376 0.000000
# 6 0.000000 0.000000 0.000000 0.000000 0.000000 0.036321
#
#
# Mechanical properties :
#
#
# Convention : Reuss Voigt Hill
#
# Bulk Modulus (GPa) = 48.30426 54.50301 51.40363
# Shear Modulus (GPa) = 27.72782 29.24471 28.48626
#
# Velocity S-wave (km/s) = 3.78983 3.89212 3.84131
# Velocity P-wave (km/s) = 6.64618 6.95919 6.80448
#
# Compressibility (1/GPa) = 0.02070211
#
# Stress axis : x y z
#
# Youngs Moduli (GPa) = 54.84816 117.07946 61.16943
#
# Poissons Ratio (x) = 0.38479 0.30039
# Poissons Ratio (y) = 0.18026 0.18426
# Poissons Ratio (z) = 0.26935 0.35267
#
# Static dielectric constant tensor:
#      x y z
#    x 3.466330 0.000000 0.000000 
#    y 0.000000 4.062610 0.000000 
#    z 0.000000 0.000000 3.452240 
# 
# 
# High freq. dielectric constant tensor:
#      x y z
#    x 1.753050 0.000000 0.000000 
#    y 0.000000 1.771950 0.000000 
#    z 0.000000 0.000000 1.725980 
# 
# From -- ./inp_files/31618.got.cif
#   From: 2010.03.12/outbox.cif.g09.slc.cpg/sg59_16_cif.got.tgz:31618.got - 2010.04.16 16:29:54.
