data_PCOD8243415
_publ_section_title
;
Structure prediction by ZEFSAII (Michael W. Deem and Ramdas Pophale) SiO2 
 PCOD8243415
Probable space group: P M M N
;
_chemical_formula_sum "Si O2"
_cell_formula_units_Z 64
_cell_length_a 9.206075
_cell_length_b 13.975110
_cell_length_c 25.723591
_cell_angle_alpha 90.000000
_cell_angle_beta 90.000000
_cell_angle_gamma 90.000000
_cell_volume 3309.492029
_symmetry_space_group_name_H-M "P M M N"
_symmetry_group_IT_number 59
_space_group.IT_coordinate_system_code '2'
_symmetry_cell_setting 'orthorhombic'
loop_
_space_group_symop_operation_xyz
x,y,z
1/2-x,1/2-y,z
1/2+x,-y,-z
-x,1/2+y,-z
-x,-y,-z
1/2+x,1/2+y,-z
1/2-x,y,z
x,1/2-y,z
loop_
_atom_site_type_symbol
_atom_site_label
_atom_site_fract_x
_atom_site_fract_y
_atom_site_fract_z
Si Si1 0.915633 0.137620 0.974538
Si Si2 0.420376 0.139693 0.366342
Si Si3 0.910601 0.136696 0.467094
Si Si4 0.418164 0.356470 0.075701
Si Si5 0.581329 0.041788 0.869154
Si Si6 0.578431 0.969115 0.327665
Si Si7 0.081689 0.861763 0.417488
Si Si8 0.578505 0.859155 0.224360
O O1 0.750000 0.106408 0.983263
O O2 0.934112 0.250000 0.968229
O O3 0.975907 0.091279 0.921775
O O4 0.004189 0.101517 0.024533
O O5 0.250000 0.121941 0.362603
O O6 0.460973 0.250000 0.355172
O O7 0.472479 0.106400 0.423750
O O8 0.502492 0.073695 0.324127
O O9 0.750000 0.097785 0.451451
O O10 0.901930 0.250000 0.471359
O O11 0.955618 0.099438 0.524420
O O12 0.250000 0.353237 0.061345
O O13 0.475661 0.250000 0.090559
O O14 0.445202 0.427510 0.124276
O O15 0.750000 0.065925 0.859416
O O16 0.490055 0.079343 0.821327
O O17 0.750000 0.983009 0.329762
O O18 0.524435 0.916366 0.379041
O O19 0.529939 0.906637 0.278358
O O20 0.250000 0.883002 0.404057
O O21 0.047968 0.750000 0.412366
O O22 0.750000 0.861857 0.217639
O O23 0.521044 0.750000 0.223012
#
# Coordination Sequence:
#
# PCOD8243415 Si02
#       8
#     8   8   8   8   8   8   8   8
#     4   9  17  29  47  75 109 142 179 222 266 314
#     4  10  21  37  57  81 108 138 176 221 265 314
#     4   8  15  30  52  78 109 143 176 213 261 316
#     4   9  18  32  50  76 111 147 181 217 258 306
#     4  10  20  34  54  79 107 142 182 222 266 314
#     4  11  23  38  57  79 105 140 179 221 271 324
#     4   9  18  33  54  81 112 144 179 220 266 319
#     4  10  23  42  60  80 106 134 170 218 267 316
#
# _framework density 19.338315999999999
#
# number of rings (size 3 to 8) (size 9 to 14) (size 15 to 20)
#    0.000    2.500    0.000    2.625    0.000    5.250 
#    0.000    3.125    0.000    2.250    0.000    0.000 
#    0.000    0.000    0.000    0.000    0.000    0.000 
#
# Total GULP energy -793528.401688 kJ/mol
# GULP energy per Si atom -12398.881276 kJ/mol
# Density = 1.929430 g / cm^3
# Si number density = 19.338316 Si / 1000 Ang^3
#
#
#
# Elastic Constant Matrix: (Units=GPa)
#
#
# Indices 1 2 3 4 5 6 
#
# 1 62.6556 37.6772 44.0758 0.0000 0.0000 0.0000
# 2 37.6772 87.4968 61.2504 0.0000 0.0000 0.0000
# 3 44.0758 61.2504 102.7060 0.0000 0.0000 0.0000
# 4 0.0000 0.0000 0.0000 31.9811 0.0000 0.0000
# 5 0.0000 0.0000 0.0000 0.0000 34.6577 0.0000
# 6 0.0000 0.0000 0.0000 0.0000 0.0000 28.0497
#
#
#
# Elastic Compliance Matrix: (Units=1/GPa)
#
#
# Indices 1 2 3 4 5 6 
#
# 1 0.024275 -0.005426 -0.007182 0.000000 0.000000 0.000000
# 2 -0.005426 0.020832 -0.010095 0.000000 0.000000 0.000000
# 3 -0.007182 -0.010095 0.018839 0.000000 0.000000 0.000000
# 4 0.000000 0.000000 0.000000 0.031268 0.000000 0.000000
# 5 0.000000 0.000000 0.000000 0.000000 0.028854 0.000000
# 6 0.000000 0.000000 0.000000 0.000000 0.000000 0.035651
#
#
# Mechanical properties :
#
#
# Convention : Reuss Voigt Hill
#
# Bulk Modulus (GPa) = 53.93489 59.87393 56.90441
# Shear Modulus (GPa) = 23.66240 26.26136 24.96188
#
# Velocity S-wave (km/s) = 3.50180 3.68910 3.59667
# Velocity P-wave (km/s) = 6.65589 7.01245 6.83649
#
# Compressibility (1/GPa) = 0.01854087
#
# Stress axis : x y z
#
# Youngs Moduli (GPa) = 41.19455 48.00215 53.08099
#
# Poissons Ratio (x) = 0.26044 0.38122
# Poissons Ratio (y) = 0.22351 0.53587
# Poissons Ratio (z) = 0.29585 0.48460
#
# Static dielectric constant tensor:
#      x y z
#    x 3.451780 0.000000 0.000000 
#    y 0.000000 3.810000 0.000000 
#    z 0.000000 0.000000 3.450440 
# 
# 
# High freq. dielectric constant tensor:
#      x y z
#    x 1.745680 0.000000 0.000000 
#    y 0.000000 1.766720 0.000000 
#    z 0.000000 0.000000 1.733500 
# 
# From -- ./inp_files/31637.got.cif
#   From: 2010.03.12/outbox.cif.g09.slc.cpg/sg59_16_cif.got.tgz:31637.got - 2010.04.16 16:29:54.
