data_PCOD8243004
_publ_section_title
;
Structure prediction by ZEFSAII (Michael W. Deem and Ramdas Pophale) SiO2 
 PCOD8243004
Probable space group: P M M N
;
_chemical_formula_sum "Si O2"
_cell_formula_units_Z 40
_cell_length_a 8.573590
_cell_length_b 10.160598
_cell_length_c 24.347670
_cell_angle_alpha 90.000000
_cell_angle_beta 90.000000
_cell_angle_gamma 90.000000
_cell_volume 2120.993741
_symmetry_space_group_name_H-M "P M M N"
_symmetry_group_IT_number 59
_space_group.IT_coordinate_system_code '2'
_symmetry_cell_setting 'orthorhombic'
loop_
_space_group_symop_operation_xyz
x,y,z
1/2-x,1/2-y,z
1/2+x,-y,-z
-x,1/2+y,-z
-x,-y,-z
1/2+x,1/2+y,-z
1/2-x,y,z
x,1/2-y,z
loop_
_atom_site_type_symbol
_atom_site_label
_atom_site_fract_x
_atom_site_fract_y
_atom_site_fract_z
Si Si1 0.568832 0.250000 0.551761
Si Si2 0.568613 0.601881 0.042711
Si Si3 0.065894 0.598142 0.274549
Si Si4 0.933574 0.750000 0.566273
Si Si5 0.077739 0.905799 0.154022
Si Si6 0.932254 0.988485 0.383022
O O1 0.750000 0.250000 0.534397
O O2 0.459168 0.250000 0.498770
O O3 0.534195 0.122435 0.587698
O O4 0.750000 0.606685 0.033157
O O5 0.498386 0.750000 0.034323
O O6 0.534567 0.550381 0.104467
O O7 0.500000 0.500000 0.000000
O O8 0.250000 0.580585 0.283632
O O9 0.017357 0.750000 0.281951
O O10 0.018488 0.544420 0.213689
O O11 0.970156 0.512167 0.318199
O O12 0.750000 0.750000 0.579140
O O13 0.017680 0.626113 0.592408
O O14 0.250000 0.962746 0.141397
O O15 0.087272 0.750000 0.158703
O O16 0.750000 0.963449 0.393280
#
# Coordination Sequence:
#
# PCOD8243004 Si02
#       6
#     4   8   8   4   8   8
#     4  12  24  42  64  88 116 148 189 234 277 334
#     4  10  20  33  52  79 110 145 184 228 277 330
#     4   9  17  32  56  84 113 146 186 229 275 329
#     4  12  26  44  62  82 114 154 189 230 285 342
#     4   8  15  29  51  79 109 143 182 226 273 324
#     4  12  24  39  60  89 118 149 188 233 282 334
#
# _framework density 18.859085
#
# number of rings (size 3 to 8) (size 9 to 14) (size 15 to 20)
#    0.000    1.800    1.000    6.000    0.000    2.000 
#    0.000    2.000    2.200    0.000    0.000    0.000 
#    0.000    0.000    0.000    0.000    0.000    0.000 
#
# Total GULP energy -495952.331855 kJ/mol
# GULP energy per Si atom -12398.808296 kJ/mol
# Density = 1.881616 g / cm^3
# Si number density = 18.859085 Si / 1000 Ang^3
#
#
#
# Elastic Constant Matrix: (Units=GPa)
#
#
# Indices 1 2 3 4 5 6 
#
# 1 71.4959 19.1455 28.9169 0.0000 0.0000 0.0000
# 2 19.1455 83.4645 48.0341 0.0000 0.0000 0.0000
# 3 28.9169 48.0341 143.3496 0.0000 0.0000 0.0000
# 4 0.0000 0.0000 0.0000 36.8171 0.0000 0.0000
# 5 0.0000 0.0000 0.0000 0.0000 37.2277 0.0000
# 6 0.0000 0.0000 0.0000 0.0000 0.0000 24.9051
#
#
#
# Elastic Compliance Matrix: (Units=1/GPa)
#
#
# Indices 1 2 3 4 5 6 
#
# 1 0.015544 -0.002182 -0.002404 0.000000 0.000000 0.000000
# 2 -0.002182 0.015150 -0.004636 0.000000 0.000000 0.000000
# 3 -0.002404 -0.004636 0.009015 0.000000 0.000000 0.000000
# 4 0.000000 0.000000 0.000000 0.027161 0.000000 0.000000
# 5 0.000000 0.000000 0.000000 0.000000 0.026862 0.000000
# 6 0.000000 0.000000 0.000000 0.000000 0.000000 0.040152
#
#
# Mechanical properties :
#
#
# Convention : Reuss Voigt Hill
#
# Bulk Modulus (GPa) = 47.03021 54.50033 50.76527
# Shear Modulus (GPa) = 31.36449 33.27088 32.31769
#
# Velocity S-wave (km/s) = 4.08253 4.20478 4.14410
# Velocity P-wave (km/s) = 6.87129 7.24810 7.06221
#
# Compressibility (1/GPa) = 0.02126293
#
# Stress axis : x y z
#
# Youngs Moduli (GPa) = 64.33544 66.00732 110.93177
#
# Poissons Ratio (x) = 0.14401 0.26673
# Poissons Ratio (y) = 0.14036 0.51432
# Poissons Ratio (z) = 0.15469 0.30603
#
# Static dielectric constant tensor:
#      x y z
#    x 3.520430 0.000000 0.000000 
#    y 0.000000 3.181470 0.000000 
#    z 0.000000 0.000000 3.829030 
# 
# 
# High freq. dielectric constant tensor:
#      x y z
#    x 1.733520 0.000000 0.000000 
#    y 0.000000 1.696700 0.000000 
#    z 0.000000 0.000000 1.750960 
# 
# From -- ./inp_files/28768.got.cif
#   From: 2010.03.12/outbox.cif.g09.slc.cpg/sg59_15_cif.got.tgz:28768.got - 2010.04.16 16:29:54.
