data_PCOD8243515
_publ_section_title
;
Structure prediction by ZEFSAII (Michael W. Deem and Ramdas Pophale) SiO2 
 PCOD8243515
Probable space group: P M M N
;
_chemical_formula_sum "Si O2"
_cell_formula_units_Z 48
_cell_length_a 17.860553
_cell_length_b 8.500988
_cell_length_c 16.021842
_cell_angle_alpha 90.000000
_cell_angle_beta 90.000000
_cell_angle_gamma 90.000000
_cell_volume 2432.633870
_symmetry_space_group_name_H-M "P M M N"
_symmetry_group_IT_number 59
_space_group.IT_coordinate_system_code '2'
_symmetry_cell_setting 'orthorhombic'
loop_
_space_group_symop_operation_xyz
x,y,z
1/2-x,1/2-y,z
1/2+x,-y,-z
-x,1/2+y,-z
-x,-y,-z
1/2+x,1/2+y,-z
1/2-x,y,z
x,1/2-y,z
loop_
_atom_site_type_symbol
_atom_site_label
_atom_site_fract_x
_atom_site_fract_y
_atom_site_fract_z
Si Si1 0.104180 0.434836 0.479559
Si Si2 0.250000 0.433565 0.382297
Si Si3 0.750000 0.066774 0.797891
Si Si4 0.837047 0.934059 0.062183
Si Si5 0.454853 0.936054 0.817216
Si Si6 0.032600 0.565032 0.629441
Si Si7 0.394785 0.934777 0.106752
O O1 0.095767 0.250000 0.491159
O O2 0.180783 0.484227 0.437763
O O3 0.102232 0.513280 0.571477
O O4 0.040575 0.502965 0.417591
O O5 0.250000 0.250000 0.358223
O O6 0.250000 0.534195 0.299231
O O7 0.750000 0.250000 0.817181
O O8 0.825367 0.995848 0.839064
O O9 0.750000 0.982310 0.072351
O O10 0.844798 0.750000 0.042861
O O11 0.881923 0.978168 0.145712
O O12 0.876129 0.033136 0.989252
O O13 0.441836 0.750000 0.819337
O O14 0.462054 0.003141 0.722843
O O15 0.529916 0.975669 0.867939
O O16 0.027681 0.750000 0.636735
O O17 0.407206 0.750000 0.121024
#
# Coordination Sequence:
#
# PCOD8243515 Si02
#       7
#     8   4   4   8   8   8   8
#     4   9  18  34  56  80 111 146 184 230 282 336
#     4  10  20  34  54  83 114 147 184 231 286 343
#     4  10  22  36  56  87 120 153 188 237 292 343
#     4  11  24  42  62  85 115 154 197 241 292 345
#     4  11  23  39  61  88 117 153 197 241 288 346
#     4   9  19  36  56  80 109 147 189 230 278 335
#     4  11  22  39  61  87 120 153 192 239 291 346
#
# _framework density 19.731698999999999
#
# number of rings (size 3 to 8) (size 9 to 14) (size 15 to 20)
#    0.000    1.833    0.833    3.000    0.000    5.667 
#    1.500    3.333    0.000    0.000    0.000    0.000 
#    0.000    0.000    0.000    0.000    0.000    0.000 
#
# Total GULP energy -595288.442653 kJ/mol
# GULP energy per Si atom -12401.842555 kJ/mol
# Density = 1.968679 g / cm^3
# Si number density = 19.731699 Si / 1000 Ang^3
#
#
#
# Elastic Constant Matrix: (Units=GPa)
#
#
# Indices 1 2 3 4 5 6 
#
# 1 105.4332 14.1808 69.8330 0.0000 0.0000 0.0000
# 2 14.1808 26.0711 11.5081 0.0000 0.0000 0.0000
# 3 69.8330 11.5081 139.0694 0.0000 0.0000 0.0000
# 4 0.0000 0.0000 0.0000 32.0402 0.0000 0.0000
# 5 0.0000 0.0000 0.0000 0.0000 32.6326 0.0000
# 6 0.0000 0.0000 0.0000 0.0000 0.0000 26.3933
#
#
#
# Elastic Compliance Matrix: (Units=1/GPa)
#
#
# Indices 1 2 3 4 5 6 
#
# 1 0.014802 -0.004951 -0.007023 0.000000 0.000000 0.000000
# 2 -0.004951 0.041467 -0.000945 0.000000 0.000000 0.000000
# 3 -0.007023 -0.000945 0.010796 0.000000 0.000000 0.000000
# 4 0.000000 0.000000 0.000000 0.031211 0.000000 0.000000
# 5 0.000000 0.000000 0.000000 0.000000 0.030644 0.000000
# 6 0.000000 0.000000 0.000000 0.000000 0.000000 0.037888
#
#
# Mechanical properties :
#
#
# Convention : Reuss Voigt Hill
#
# Bulk Modulus (GPa) = 24.25680 51.29084 37.77382
# Shear Modulus (GPa) = 24.22603 29.88334 27.05469
#
# Velocity S-wave (km/s) = 3.50776 3.89586 3.70689
# Velocity P-wave (km/s) = 5.35965 6.80349 6.12427
#
# Compressibility (1/GPa) = 0.04122555
#
# Stress axis : x y z
#
# Youngs Moduli (GPa) = 67.55654 24.11557 92.63086
#
# Poissons Ratio (x) = 0.11940 0.65057
# Poissons Ratio (y) = 0.33449 0.08755
# Poissons Ratio (z) = 0.47446 0.02279
#
# Static dielectric constant tensor:
#      x y z
#    x 3.771730 0.000000 0.000000 
#    y 0.000000 3.399940 0.000000 
#    z 0.000000 0.000000 3.727150 
# 
# 
# High freq. dielectric constant tensor:
#      x y z
#    x 1.772280 0.000000 0.000000 
#    y 0.000000 1.760450 0.000000 
#    z 0.000000 0.000000 1.776880 
# 
# From -- ./inp_files/20548.got.cif
#   From: 2010.03.12/outbox.cif.g09.slc.cpg/sg59_11_cif.got.tgz:20548.got - 2010.04.16 16:29:54.
