data_PCOD8243551
_publ_section_title
;
Structure prediction by ZEFSAII (Michael W. Deem and Ramdas Pophale) SiO2 
 PCOD8243551
Probable space group: P M M N
;
_chemical_formula_sum "Si O2"
_cell_formula_units_Z 48
_cell_length_a 9.488009
_cell_length_b 17.710984
_cell_length_c 15.224653
_cell_angle_alpha 90.000000
_cell_angle_beta 90.000000
_cell_angle_gamma 90.000000
_cell_volume 2558.380768
_symmetry_space_group_name_H-M "P M M N"
_symmetry_group_IT_number 59
_space_group.IT_coordinate_system_code '2'
_symmetry_cell_setting 'orthorhombic'
loop_
_space_group_symop_operation_xyz
x,y,z
1/2-x,1/2-y,z
1/2+x,-y,-z
-x,1/2+y,-z
-x,-y,-z
1/2+x,1/2+y,-z
1/2-x,y,z
x,1/2-y,z
loop_
_atom_site_type_symbol
_atom_site_label
_atom_site_fract_x
_atom_site_fract_y
_atom_site_fract_z
Si Si1 0.917516 0.665309 0.318643
Si Si2 0.586550 0.836155 0.665093
Si Si3 0.914331 0.923979 0.488401
Si Si4 0.412778 0.590592 0.817441
Si Si5 0.587162 0.336630 0.000681
Si Si6 0.915591 0.580664 0.145051
O O1 0.750000 0.668095 0.320789
O O2 0.979816 0.750000 0.322687
O O3 0.972177 0.617603 0.401496
O O4 0.971385 0.625944 0.229798
O O5 0.750000 0.841562 0.689703
O O6 0.533527 0.750000 0.667650
O O7 0.557457 0.867806 0.568546
O O8 0.502102 0.885830 0.733944
O O9 0.750000 0.944536 0.479565
O O10 0.000000 0.000000 0.500000
O O11 0.250000 0.594275 0.789777
O O12 0.446514 0.646167 0.897886
O O13 0.455719 0.506373 0.844363
O O14 0.750000 0.354225 0.980341
O O15 0.549140 0.250000 0.981877
O O16 0.492487 0.389483 0.940866
O O17 0.750000 0.592539 0.131420
#
# Coordination Sequence:
#
# PCOD8243551 Si02
#       6
#     8   8   8   8   8   8
#     4   9  17  31  52  76 102 134 171 210 254 305
#     4  10  21  36  55  81 110 141 180 224 267 311
#     4  10  20  35  55  78 106 139 174 214 260 311
#     4  10  21  37  56  79 108 142 178 216 265 323
#     4  10  21  36  53  75 106 143 178 215 266 322
#     4  10  20  34  55  81 105 134 177 223 262 309
#
# _framework density 18.761866000000001
#
# number of rings (size 3 to 8) (size 9 to 14) (size 15 to 20)
#    0.000    2.167    0.000    3.000    0.000    7.333 
#    0.000    0.833    0.000    2.500    0.000    0.000 
#    0.000    0.000    0.000    0.000    0.000    0.000 
#
# Total GULP energy -595395.503601 kJ/mol
# GULP energy per Si atom -12404.072992 kJ/mol
# Density = 1.871916 g / cm^3
# Si number density = 18.761866 Si / 1000 Ang^3
#
#
#
# Elastic Constant Matrix: (Units=GPa)
#
#
# Indices 1 2 3 4 5 6 
#
# 1 38.8753 31.2723 26.8820 0.0000 0.0000 0.0000
# 2 31.2723 94.4195 16.2304 0.0000 0.0000 0.0000
# 3 26.8820 16.2304 66.8864 0.0000 0.0000 0.0000
# 4 0.0000 0.0000 0.0000 38.9406 0.0000 0.0000
# 5 0.0000 0.0000 0.0000 0.0000 28.9819 0.0000
# 6 0.0000 0.0000 0.0000 0.0000 0.0000 26.3157
#
#
#
# Elastic Compliance Matrix: (Units=1/GPa)
#
#
# Indices 1 2 3 4 5 6 
#
# 1 0.046945 -0.012841 -0.015751 0.000000 0.000000 0.000000
# 2 -0.012841 0.014564 0.001627 0.000000 0.000000 0.000000
# 3 -0.015751 0.001627 0.020887 0.000000 0.000000 0.000000
# 4 0.000000 0.000000 0.000000 0.025680 0.000000 0.000000
# 5 0.000000 0.000000 0.000000 0.000000 0.034504 0.000000
# 6 0.000000 0.000000 0.000000 0.000000 0.000000 0.038000
#
#
# Mechanical properties :
#
#
# Convention : Reuss Voigt Hill
#
# Bulk Modulus (GPa) = 35.13144 38.77230 36.95187
# Shear Modulus (GPa) = 20.49185 27.23408 23.86296
#
# Velocity S-wave (km/s) = 3.30844 3.81407 3.57022
# Velocity P-wave (km/s) = 5.77581 6.33297 6.06080
#
# Compressibility (1/GPa) = 0.02846453
#
# Stress axis : x y z
#
# Youngs Moduli (GPa) = 21.30168 68.66090 47.87759
#
# Poissons Ratio (x) = 0.88165 0.75414
# Poissons Ratio (y) = 0.27353 -0.07788
# Poissons Ratio (z) = 0.33553 -0.11169
#
# Static dielectric constant tensor:
#      x y z
#    x 3.209080 0.000000 0.000000 
#    y 0.000000 3.716500 0.000000 
#    z 0.000000 0.000000 3.518620 
# 
# 
# High freq. dielectric constant tensor:
#      x y z
#    x 1.701200 0.000000 0.000000 
#    y 0.000000 1.746990 0.000000 
#    z 0.000000 0.000000 1.742100 
# 
# From -- ./inp_files/17628.got.cif
#   From: 2010.03.12/outbox.cif.g09.slc.cpg/sg59_9_cif.got.tgz:17628.got - 2010.04.16 16:29:54.
