data_PCOD8243865
_publ_section_title
;
Structure prediction by ZEFSAII (Michael W. Deem and Ramdas Pophale) SiO2 
 PCOD8243865
Probable space group: P M M N
;
_chemical_formula_sum "Si O2"
_cell_formula_units_Z 48
_cell_length_a 8.923676
_cell_length_b 23.558908
_cell_length_c 12.593613
_cell_angle_alpha 90.000000
_cell_angle_beta 90.000000
_cell_angle_gamma 90.000000
_cell_volume 2647.581228
_symmetry_space_group_name_H-M "P M M N"
_symmetry_group_IT_number 59
_space_group.IT_coordinate_system_code '2'
_symmetry_cell_setting 'orthorhombic'
loop_
_space_group_symop_operation_xyz
x,y,z
1/2-x,1/2-y,z
1/2+x,-y,-z
-x,1/2+y,-z
-x,-y,-z
1/2+x,1/2+y,-z
1/2-x,y,z
x,1/2-y,z
loop_
_atom_site_type_symbol
_atom_site_label
_atom_site_fract_x
_atom_site_fract_y
_atom_site_fract_z
Si Si1 0.573138 0.002361 0.615546
Si Si2 0.074244 0.118982 0.296383
Si Si3 0.925315 0.313466 0.115980
Si Si4 0.928352 0.813342 0.501936
Si Si5 0.427199 0.113111 0.695796
Si Si6 0.423508 0.815202 0.128321
O O1 0.750000 0.008817 0.599992
O O2 0.532234 0.945940 0.680912
O O3 0.500000 0.000000 0.500000
O O4 0.508251 0.052903 0.686410
O O5 0.250000 0.127642 0.287629
O O6 0.008940 0.157130 0.392143
O O7 0.003641 0.138779 0.186206
O O8 0.750000 0.316240 0.136765
O O9 0.984257 0.250000 0.144404
O O10 0.961758 0.327157 0.994014
O O11 0.750000 0.812584 0.502756
O O12 0.994478 0.750000 0.495655
O O13 0.985815 0.847952 0.400508
O O14 0.250000 0.103673 0.691707
O O15 0.471751 0.143047 0.805103
O O16 0.250000 0.828201 0.152354
O O17 0.460792 0.750000 0.157166
#
# Coordination Sequence:
#
# PCOD8243865 Si02
#       6
#     8   8   8   8   8   8
#     4  11  22  38  57  79 109 148 189 230 277 328
#     4  10  20  35  55  79 108 143 184 225 271 326
#     4   9  19  36  57  82 113 146 180 223 276 330
#     4   9  17  30  49  76 110 140 168 215 274 324
#     4  11  21  35  55  82 112 145 187 228 274 330
#     4   9  19  37  58  81 113 149 182 223 277 329
#
# _framework density 18.129754999999999
#
# number of rings (size 3 to 8) (size 9 to 14) (size 15 to 20)
#    0.000    2.167    1.667    3.000    0.000    4.000 
#    0.000    2.500    0.000    3.000    0.000    0.000 
#    0.000    0.000    0.000    0.000    0.000    0.000 
#
# Total GULP energy -595284.691839 kJ/mol
# GULP energy per Si atom -12401.764413 kJ/mol
# Density = 1.808849 g / cm^3
# Si number density = 18.129755 Si / 1000 Ang^3
#
#
#
# Elastic Constant Matrix: (Units=GPa)
#
#
# Indices 1 2 3 4 5 6 
#
# 1 51.6176 51.8964 38.4502 0.0000 0.0000 0.0000
# 2 51.8964 151.9777 74.8858 0.0000 0.0000 0.0000
# 3 38.4502 74.8858 109.6740 0.0000 0.0000 0.0000
# 4 0.0000 0.0000 0.0000 28.6527 0.0000 0.0000
# 5 0.0000 0.0000 0.0000 0.0000 32.9079 0.0000
# 6 0.0000 0.0000 0.0000 0.0000 0.0000 29.7392
#
#
#
# Elastic Compliance Matrix: (Units=1/GPa)
#
#
# Indices 1 2 3 4 5 6 
#
# 1 0.031628 -0.008042 -0.005597 0.000000 0.000000 0.000000
# 2 -0.008042 0.011961 -0.005348 0.000000 0.000000 0.000000
# 3 -0.005597 -0.005348 0.014732 0.000000 0.000000 0.000000
# 4 0.000000 0.000000 0.000000 0.034901 0.000000 0.000000
# 5 0.000000 0.000000 0.000000 0.000000 0.030388 0.000000
# 6 0.000000 0.000000 0.000000 0.000000 0.000000 0.033626
#
#
# Mechanical properties :
#
#
# Convention : Reuss Voigt Hill
#
# Bulk Modulus (GPa) = 49.14743 71.52603 60.33673
# Shear Modulus (GPa) = 24.75351 28.12909 26.44130
#
# Velocity S-wave (km/s) = 3.69908 3.94324 3.82311
# Velocity P-wave (km/s) = 6.73883 7.76338 7.26918
#
# Compressibility (1/GPa) = 0.02034694
#
# Stress axis : x y z
#
# Youngs Moduli (GPa) = 31.61725 83.60425 67.88150
#
# Poissons Ratio (x) = 0.67237 0.37994
# Poissons Ratio (y) = 0.25427 0.36300
# Poissons Ratio (z) = 0.17697 0.44708
#
# Static dielectric constant tensor:
#      x y z
#    x 3.145210 0.000000 0.000000 
#    y 0.000000 3.537570 0.000000 
#    z 0.000000 0.000000 3.346590 
# 
# 
# High freq. dielectric constant tensor:
#      x y z
#    x 1.687570 0.000000 0.000000 
#    y 0.000000 1.708480 0.000000 
#    z 0.000000 0.000000 1.703080 
# 
# From -- ./inp_files/14326.got.cif
#   From: 2010.03.12/outbox.cif.g09.slc.cpg/sg59_8_cif.got.tgz:14326.got - 2010.04.16 16:29:54.
