data_PCOD8243750
_publ_section_title
;
Structure prediction by ZEFSAII (Michael W. Deem and Ramdas Pophale) SiO2 
 PCOD8243750
Probable space group: P M M N
;
_chemical_formula_sum "Si O2"
_cell_formula_units_Z 64
_cell_length_a 13.332980
_cell_length_b 16.815499
_cell_length_c 15.907975
_cell_angle_alpha 90.000000
_cell_angle_beta 90.000000
_cell_angle_gamma 90.000000
_cell_volume 3566.579319
_symmetry_space_group_name_H-M "P M M N"
_symmetry_group_IT_number 59
_space_group.IT_coordinate_system_code '2'
_symmetry_cell_setting 'orthorhombic'
loop_
_space_group_symop_operation_xyz
x,y,z
1/2-x,1/2-y,z
1/2+x,-y,-z
-x,1/2+y,-z
-x,-y,-z
1/2+x,1/2+y,-z
1/2-x,y,z
x,1/2-y,z
loop_
_atom_site_type_symbol
_atom_site_label
_atom_site_fract_x
_atom_site_fract_y
_atom_site_fract_z
Si Si1 0.366675 0.159307 0.679229
Si Si2 0.632261 0.968820 0.676428
Si Si3 0.997631 0.340108 0.403875
Si Si4 0.639632 0.342504 0.254190
Si Si5 0.983077 0.073595 0.561997
Si Si6 0.635019 0.660665 0.963757
Si Si7 0.635744 0.589164 0.139895
Si Si8 0.509060 0.945822 0.842916
O O1 0.250000 0.152682 0.658309
O O2 0.404264 0.250000 0.664903
O O3 0.420551 0.096913 0.617555
O O4 0.389630 0.135777 0.774944
O O5 0.750000 0.960520 0.687757
O O6 0.592212 0.893975 0.622616
O O7 0.582088 0.972115 0.767764
O O8 0.606342 0.050461 0.626053
O O9 0.033106 0.250000 0.391110
O O10 0.902526 0.361550 0.346547
O O11 0.960380 0.352790 0.499908
O O12 0.750000 0.381128 0.249296
O O13 0.644712 0.250000 0.235877
O O14 0.568925 0.379068 0.184501
O O15 0.000000 0.000000 0.500000
O O16 0.750000 0.650328 0.935571
O O17 0.598201 0.750000 0.940321
O O18 0.572585 0.592096 0.917890
O O19 0.623999 0.650773 0.063747
O O20 0.750000 0.555234 0.142888
O O21 0.555147 0.519929 0.124533
#
# Coordination Sequence:
#
# PCOD8243750 Si02
#       8
#     8   8   8   8   8   8   8   8
#     4  10  20  36  60  86 111 141 179 225 277 326
#     4  10  21  35  51  75 108 146 182 219 266 319
#     4   9  19  34  53  76 104 138 181 228 276 323
#     4   9  18  32  50  75 107 141 179 224 271 322
#     4  10  20  35  50  77 109 141 176 224 273 321
#     4  10  21  36  55  82 114 143 176 221 270 323
#     4  10  20  35  57  86 113 140 179 225 275 322
#     4  11  19  34  54  81 108 145 181 218 268 325
#
# _framework density 17.944364
#
# number of rings (size 3 to 8) (size 9 to 14) (size 15 to 20)
#    0.000    2.125    1.250    2.250    0.000    4.750 
#    0.000    0.000    0.000    1.125    0.000    0.000 
#    0.000    0.000    0.000    0.000    0.000    0.000 
#
# Total GULP energy -793344.037746 kJ/mol
# GULP energy per Si atom -12396.000590 kJ/mol
# Density = 1.790352 g / cm^3
# Si number density = 17.944364 Si / 1000 Ang^3
#
#
#
# Elastic Constant Matrix: (Units=GPa)
#
#
# Indices 1 2 3 4 5 6 
#
# 1 103.5001 45.2148 34.6007 0.0000 0.0000 0.0000
# 2 45.2148 76.5289 31.3673 0.0000 0.0000 0.0000
# 3 34.6007 31.3673 91.0301 0.0000 0.0000 0.0000
# 4 0.0000 0.0000 0.0000 28.7683 0.0000 0.0000
# 5 0.0000 0.0000 0.0000 0.0000 22.7726 0.0000
# 6 0.0000 0.0000 0.0000 0.0000 0.0000 30.3621
#
#
#
# Elastic Compliance Matrix: (Units=1/GPa)
#
#
# Indices 1 2 3 4 5 6 
#
# 1 0.013608 -0.006894 -0.002797 0.000000 0.000000 0.000000
# 2 -0.006894 0.018708 -0.003826 0.000000 0.000000 0.000000
# 3 -0.002797 -0.003826 0.013367 0.000000 0.000000 0.000000
# 4 0.000000 0.000000 0.000000 0.034760 0.000000 0.000000
# 5 0.000000 0.000000 0.000000 0.000000 0.043912 0.000000
# 6 0.000000 0.000000 0.000000 0.000000 0.000000 0.032936
#
#
# Mechanical properties :
#
#
# Convention : Reuss Voigt Hill
#
# Bulk Modulus (GPa) = 53.62053 54.82498 54.22275
# Shear Modulus (GPa) = 26.24080 27.03902 26.63991
#
# Velocity S-wave (km/s) = 3.82821 3.88600 3.85721
# Velocity P-wave (km/s) = 7.03467 7.12416 7.07956
#
# Compressibility (1/GPa) = 0.01864957
#
# Stress axis : x y z
#
# Youngs Moduli (GPa) = 73.48351 53.45268 74.81092
#
# Poissons Ratio (x) = 0.36849 0.20926
# Poissons Ratio (y) = 0.50657 0.28624
# Poissons Ratio (z) = 0.20555 0.20452
#
# Static dielectric constant tensor:
#      x y z
#    x 3.260890 0.000000 0.000000 
#    y 0.000000 3.492310 0.000000 
#    z 0.000000 0.000000 3.450300 
# 
# 
# High freq. dielectric constant tensor:
#      x y z
#    x 1.681240 0.000000 0.000000 
#    y 0.000000 1.695670 0.000000 
#    z 0.000000 0.000000 1.701880 
# 
# From -- ./inp_files/22714.got.cif
#   From: 2010.03.12/outbox.cif.g09.slc.cpg/sg59_12_cif.got.tgz:22714.got - 2010.04.16 16:29:54.
