data_PCOD8243322
_publ_section_title
;
Structure prediction by ZEFSAII (Michael W. Deem and Ramdas Pophale) SiO2 
 PCOD8243322
Probable space group: P M M N
;
_chemical_formula_sum "Si O2"
_cell_formula_units_Z 64
_cell_length_a 22.571403
_cell_length_b 9.228265
_cell_length_c 16.178423
_cell_angle_alpha 90.000000
_cell_angle_beta 90.000000
_cell_angle_gamma 90.000000
_cell_volume 3369.882812
_symmetry_space_group_name_H-M "P M M N"
_symmetry_group_IT_number 59
_space_group.IT_coordinate_system_code '2'
_symmetry_cell_setting 'orthorhombic'
loop_
_space_group_symop_operation_xyz
x,y,z
1/2-x,1/2-y,z
1/2+x,-y,-z
-x,1/2+y,-z
-x,-y,-z
1/2+x,1/2+y,-z
1/2-x,y,z
x,1/2-y,z
loop_
_atom_site_type_symbol
_atom_site_label
_atom_site_fract_x
_atom_site_fract_y
_atom_site_fract_z
Si Si1 0.921637 0.084380 0.554119
Si Si2 0.009930 0.913561 0.082034
Si Si3 0.179960 0.579154 0.880487
Si Si4 0.317618 0.079291 0.382451
Si Si5 0.582102 0.576314 0.220335
Si Si6 0.144373 0.913304 0.061052
Si Si7 0.183205 0.403989 0.204344
Si Si8 0.973251 0.082919 0.372927
O O1 0.920825 0.250000 0.584867
O O2 0.940678 0.073879 0.459819
O O3 0.856636 0.014021 0.554645
O O4 0.963507 0.994714 0.616684
O O5 0.991375 0.750000 0.063076
O O6 0.079339 0.927887 0.100821
O O7 0.970604 0.971759 0.157722
O O8 0.000000 0.000000 0.000000
O O9 0.250000 0.543896 0.875197
O O10 0.168145 0.750000 0.867261
O O11 0.144821 0.488134 0.811188
O O12 0.153273 0.524055 0.968665
O O13 0.250000 0.032461 0.397920
O O14 0.326484 0.250000 0.397879
O O15 0.342784 0.035150 0.290575
O O16 0.586839 0.750000 0.229540
O O17 0.566858 0.503660 0.307439
O O18 0.166767 0.750000 0.056634
O O19 0.185378 0.992175 0.126289
O O20 0.250000 0.370536 0.230167
O O21 0.152405 0.250000 0.180045
O O22 0.982086 0.250000 0.344944
#
# Coordination Sequence:
#
# PCOD8243322 Si02
#       8
#     8   8   8   8   8   8   8   8
#     4  10  21  38  61  89 116 143 185 233 281 338
#     4  10  21  36  54  79 111 143 179 226 274 326
#     4  10  21  38  59  80 107 149 196 237 280 334
#     4   9  19  36  56  81 116 155 191 228 278 341
#     4  11  23  38  58  87 117 145 184 235 284 332
#     4  10  20  34  53  78 108 145 187 229 276 327
#     4   9  19  34  50  74 109 146 185 224 262 316
#     4  10  22  40  62  86 114 150 185 228 285 344
#
# _framework density 18.991758999999998
#
# number of rings (size 3 to 8) (size 9 to 14) (size 15 to 20)
#    0.000    2.125    1.250    2.250    1.750    4.750 
#    0.000    1.875    0.000    0.750    0.000    0.000 
#    0.000    0.000    0.000    0.000    0.000    0.000 
#
# Total GULP energy -793283.917681 kJ/mol
# GULP energy per Si atom -12395.061214 kJ/mol
# Density = 1.894853 g / cm^3
# Si number density = 18.991759 Si / 1000 Ang^3
#
#
#
# Elastic Constant Matrix: (Units=GPa)
#
#
# Indices 1 2 3 4 5 6 
#
# 1 101.9463 52.5276 39.1539 0.0000 0.0000 0.0000
# 2 52.5276 93.5716 40.6728 0.0000 0.0000 0.0000
# 3 39.1539 40.6728 54.1917 0.0000 0.0000 0.0000
# 4 0.0000 0.0000 0.0000 34.9673 0.0000 0.0000
# 5 0.0000 0.0000 0.0000 0.0000 29.3364 0.0000
# 6 0.0000 0.0000 0.0000 0.0000 0.0000 31.8715
#
#
#
# Elastic Compliance Matrix: (Units=1/GPa)
#
#
# Indices 1 2 3 4 5 6 
#
# 1 0.015346 -0.005633 -0.006860 0.000000 0.000000 0.000000
# 2 -0.005633 0.017929 -0.009387 0.000000 0.000000 0.000000
# 3 -0.006860 -0.009387 0.030454 0.000000 0.000000 0.000000
# 4 0.000000 0.000000 0.000000 0.028598 0.000000 0.000000
# 5 0.000000 0.000000 0.000000 0.000000 0.034087 0.000000
# 6 0.000000 0.000000 0.000000 0.000000 0.000000 0.031376
#
#
# Mechanical properties :
#
#
# Convention : Reuss Voigt Hill
#
# Bulk Modulus (GPa) = 50.07360 57.15758 53.61559
# Shear Modulus (GPa) = 24.01453 27.05873 25.53663
#
# Velocity S-wave (km/s) = 3.55980 3.77870 3.67088
# Velocity P-wave (km/s) = 6.58175 7.01423 6.80143
#
# Compressibility (1/GPa) = 0.01997061
#
# Stress axis : x y z
#
# Youngs Moduli (GPa) = 65.16324 55.77489 32.83591
#
# Poissons Ratio (x) = 0.31417 0.22525
# Poissons Ratio (y) = 0.36706 0.30822
# Poissons Ratio (z) = 0.44702 0.52354
#
# Static dielectric constant tensor:
#      x y z
#    x 4.933750 0.000000 0.000000 
#    y 0.000000 3.529740 0.000000 
#    z 0.000000 0.000000 3.330500 
# 
# 
# High freq. dielectric constant tensor:
#      x y z
#    x 1.736610 0.000000 0.000000 
#    y 0.000000 1.739950 0.000000 
#    z 0.000000 0.000000 1.730500 
# 
# From -- ./inp_files/24710.got.cif
#   From: 2010.03.12/outbox.cif.g09.slc.cpg/sg59_13_cif.got.tgz:24710.got - 2010.04.16 16:29:54.
