data_PCOD8243782
_publ_section_title
;
Structure prediction by ZEFSAII (Michael W. Deem and Ramdas Pophale) SiO2 
 PCOD8243782
Probable space group: P M M N
;
_chemical_formula_sum "Si O2"
_cell_formula_units_Z 64
_cell_length_a 15.180595
_cell_length_b 9.018006
_cell_length_c 23.623453
_cell_angle_alpha 90.000000
_cell_angle_beta 90.000000
_cell_angle_gamma 90.000000
_cell_volume 3234.019929
_symmetry_space_group_name_H-M "P M M N"
_symmetry_group_IT_number 59
_space_group.IT_coordinate_system_code '2'
_symmetry_cell_setting 'orthorhombic'
loop_
_space_group_symop_operation_xyz
x,y,z
1/2-x,1/2-y,z
1/2+x,-y,-z
-x,1/2+y,-z
-x,-y,-z
1/2+x,1/2+y,-z
1/2-x,y,z
x,1/2-y,z
loop_
_atom_site_type_symbol
_atom_site_label
_atom_site_fract_x
_atom_site_fract_y
_atom_site_fract_z
Si Si1 0.512935 0.926332 0.635946
Si Si2 0.476834 0.573560 0.248588
Si Si3 0.152744 0.425931 0.455304
Si Si4 0.086027 0.924382 0.025764
Si Si5 0.648699 0.923251 0.416854
Si Si6 0.652220 0.590628 0.071053
Si Si7 0.651871 0.573788 0.191989
Si Si8 0.650107 0.426058 0.852469
O O1 0.511934 0.750000 0.639138
O O2 0.578628 0.986790 0.587150
O O3 0.551107 0.992342 0.694051
O O4 0.414606 0.985089 0.624458
O O5 0.470758 0.750000 0.256063
O O6 0.577239 0.520205 0.235766
O O7 0.409960 0.518940 0.199501
O O8 0.250000 0.485402 0.437537
O O9 0.154594 0.250000 0.454383
O O10 0.131039 0.478379 0.519035
O O11 0.077819 0.750000 0.026167
O O12 0.109418 0.985311 0.088126
O O13 0.158612 0.975497 0.980526
O O14 0.000000 0.000000 0.000000
O O15 0.750000 0.954474 0.399673
O O16 0.627185 0.750000 0.409949
O O17 0.750000 0.628716 0.090035
O O18 0.605802 0.750000 0.054604
O O19 0.612755 0.525358 0.129807
O O20 0.750000 0.507629 0.206240
O O21 0.656379 0.750000 0.193524
O O22 0.750000 0.487130 0.845361
O O23 0.651981 0.250000 0.854914
#
# Coordination Sequence:
#
# PCOD8243782 Si02
#       8
#     8   8   8   8   8   8   8   8
#     4  11  22  34  52  80 113 143 173 219 275 320
#     4  10  20  35  54  73  97 136 187 229 256 299
#     4   8  16  33  56  80 107 141 178 214 258 316
#     4  11  21  33  52  77 105 134 168 213 267 325
#     4   9  18  35  59  83 107 140 181 217 253 312
#     4   9  17  31  52  77 102 126 158 204 259 319
#     4   8  15  30  52  74  97 131 174 215 256 309
#     4   9  19  36  56  76 101 138 183 228 270 312
#
# _framework density 19.789611000000001
#
# number of rings (size 3 to 8) (size 9 to 14) (size 15 to 20)
#    0.000    2.625    0.000    3.750    0.000    4.000 
#    0.000    5.000    0.000    4.875    0.000    0.000 
#    0.000    0.000    0.000    0.000    0.000    0.000 
#
# Total GULP energy -792962.343727 kJ/mol
# GULP energy per Si atom -12390.036621 kJ/mol
# Density = 1.974457 g / cm^3
# Si number density = 19.789611 Si / 1000 Ang^3
#
#
#
# Elastic Constant Matrix: (Units=GPa)
#
#
# Indices 1 2 3 4 5 6 
#
# 1 107.5278 22.3736 46.5423 0.0000 0.0000 0.0000
# 2 22.3736 41.1895 26.7543 0.0000 0.0000 0.0000
# 3 46.5423 26.7543 109.7397 0.0000 0.0000 0.0000
# 4 0.0000 0.0000 0.0000 30.6389 0.0000 0.0000
# 5 0.0000 0.0000 0.0000 0.0000 26.8602 0.0000
# 6 0.0000 0.0000 0.0000 0.0000 0.0000 19.0986
#
#
#
# Elastic Compliance Matrix: (Units=1/GPa)
#
#
# Indices 1 2 3 4 5 6 
#
# 1 0.011865 -0.003774 -0.004112 0.000000 0.000000 0.000000
# 2 -0.003774 0.030046 -0.005725 0.000000 0.000000 0.000000
# 3 -0.004112 -0.005725 0.012252 0.000000 0.000000 0.000000
# 4 0.000000 0.000000 0.000000 0.032638 0.000000 0.000000
# 5 0.000000 0.000000 0.000000 0.000000 0.037230 0.000000
# 6 0.000000 0.000000 0.000000 0.000000 0.000000 0.052360
#
#
# Mechanical properties :
#
#
# Convention : Reuss Voigt Hill
#
# Bulk Modulus (GPa) = 37.11648 49.97748 43.54698
# Shear Modulus (GPa) = 23.51905 26.17200 24.84553
#
# Velocity S-wave (km/s) = 3.45114 3.64058 3.54712
# Velocity P-wave (km/s) = 5.88869 6.55599 6.23128
#
# Compressibility (1/GPa) = 0.02694221
#
# Stress axis : x y z
#
# Youngs Moduli (GPa) = 84.28119 33.28179 81.61849
#
# Poissons Ratio (x) = 0.12560 0.33562
# Poissons Ratio (y) = 0.31808 0.46724
# Poissons Ratio (z) = 0.34657 0.19053
#
# Static dielectric constant tensor:
#      x y z
#    x 3.682010 0.000000 0.000000 
#    y 0.000000 3.972760 0.000000 
#    z 0.000000 0.000000 4.370300 
# 
# 
# High freq. dielectric constant tensor:
#      x y z
#    x 1.782890 0.000000 0.000000 
#    y 0.000000 1.720570 0.000000 
#    z 0.000000 0.000000 1.776180 
# 
# From -- ./inp_files/32246.got.cif
#   From: 2010.03.12/outbox.cif.g09.slc.cpg/sg59_17_cif.got.tgz:32246.got - 2010.04.16 16:29:54.
