data_PCOD8243624
_publ_section_title
;
Structure prediction by ZEFSAII (Michael W. Deem and Ramdas Pophale) SiO2 
 PCOD8243624
Probable space group: P M M N
;
_chemical_formula_sum "Si O2"
_cell_formula_units_Z 56
_cell_length_a 14.254247
_cell_length_b 8.839506
_cell_length_c 22.745003
_cell_angle_alpha 90.000000
_cell_angle_beta 90.000000
_cell_angle_gamma 90.000000
_cell_volume 2865.881793
_symmetry_space_group_name_H-M "P M M N"
_symmetry_group_IT_number 59
_space_group.IT_coordinate_system_code '2'
_symmetry_cell_setting 'orthorhombic'
loop_
_space_group_symop_operation_xyz
x,y,z
1/2-x,1/2-y,z
1/2+x,-y,-z
-x,1/2+y,-z
-x,-y,-z
1/2+x,1/2+y,-z
1/2-x,y,z
x,1/2-y,z
loop_
_atom_site_type_symbol
_atom_site_label
_atom_site_fract_x
_atom_site_fract_y
_atom_site_fract_z
Si Si1 0.143070 0.427837 0.905148
Si Si2 0.146125 0.929753 0.468514
Si Si3 0.142387 0.924735 0.028440
Si Si4 0.141338 0.073738 0.252470
Si Si5 0.467591 0.571377 0.358305
Si Si6 0.143583 0.571787 0.599926
Si Si7 0.033704 0.072309 0.134341
O O1 0.250000 0.472654 0.889376
O O2 0.126737 0.250000 0.898954
O O3 0.074419 0.517179 0.860497
O O4 0.118166 0.477367 0.971261
O O5 0.250000 0.989912 0.452979
O O6 0.146679 0.750000 0.468141
O O7 0.076208 0.993566 0.419095
O O8 0.118487 0.985745 0.533872
O O9 0.250000 0.948180 0.047002
O O10 0.120099 0.750000 0.014667
O O11 0.079021 0.981548 0.081142
O O12 0.250000 0.028354 0.245941
O O13 0.129434 0.250000 0.266109
O O14 0.088147 0.027638 0.193199
O O15 0.095889 0.980612 0.304786
O O16 0.471103 0.750000 0.357887
O O17 0.573308 0.507343 0.354058
O O18 0.250000 0.525234 0.616030
O O19 0.131043 0.750000 0.605107
O O20 0.039536 0.250000 0.122096
#
# Coordination Sequence:
#
# PCOD8243624 Si02
#       7
#     8   8   8   8   8   8   8
#     4  10  21  37  57  82 113 146 180 221 269 321
#     4   8  15  29  50  78 110 142 176 216 266 322
#     4  10  20  34  55  84 116 148 182 221 267 321
#     4  10  23  42  60  79 106 142 183 222 262 317
#     4  11  21  33  54  82 111 142 177 223 275 321
#     4   9  18  34  55  77 106 145 184 221 264 319
#     4  11  22  37  58  81 108 143 183 227 272 318
#
# _framework density 19.540234000000002
#
# number of rings (size 3 to 8) (size 9 to 14) (size 15 to 20)
#    0.000    2.143    0.000    4.286    0.000    4.571 
#    0.000    1.429    0.000    2.571    0.000    0.000 
#    0.000    0.000    0.000    0.000    0.000    0.000 
#
# Total GULP energy -694446.035582 kJ/mol
# GULP energy per Si atom -12400.822064 kJ/mol
# Density = 1.949576 g / cm^3
# Si number density = 19.540234 Si / 1000 Ang^3
#
#
#
# Elastic Constant Matrix: (Units=GPa)
#
#
# Indices 1 2 3 4 5 6 
#
# 1 134.1119 39.1514 61.7670 0.0000 0.0000 0.0000
# 2 39.1514 47.7121 25.5463 0.0000 0.0000 0.0000
# 3 61.7670 25.5463 64.1982 0.0000 0.0000 0.0000
# 4 0.0000 0.0000 0.0000 29.1335 0.0000 0.0000
# 5 0.0000 0.0000 0.0000 0.0000 35.8081 0.0000
# 6 0.0000 0.0000 0.0000 0.0000 0.0000 32.2617
#
#
#
# Elastic Compliance Matrix: (Units=1/GPa)
#
#
# Indices 1 2 3 4 5 6 
#
# 1 0.014487 -0.005623 -0.011701 0.000000 0.000000 0.000000
# 2 -0.005623 0.028816 -0.006057 0.000000 0.000000 0.000000
# 3 -0.011701 -0.006057 0.029245 0.000000 0.000000 0.000000
# 4 0.000000 0.000000 0.000000 0.034325 0.000000 0.000000
# 5 0.000000 0.000000 0.000000 0.000000 0.027927 0.000000
# 6 0.000000 0.000000 0.000000 0.000000 0.000000 0.030997
#
#
# Mechanical properties :
#
#
# Convention : Reuss Voigt Hill
#
# Bulk Modulus (GPa) = 38.77979 55.43907 47.10943
# Shear Modulus (GPa) = 22.60891 27.41116 25.01004
#
# Velocity S-wave (km/s) = 3.40523 3.74947 3.58149
# Velocity P-wave (km/s) = 5.94558 6.86863 6.42371
#
# Compressibility (1/GPa) = 0.02578663
#
# Stress axis : x y z
#
# Youngs Moduli (GPa) = 69.02802 34.70308 34.19422
#
# Poissons Ratio (x) = 0.19512 0.40010
# Poissons Ratio (y) = 0.38812 0.20711
# Poissons Ratio (z) = 0.80769 0.21019
#
# Static dielectric constant tensor:
#      x y z
#    x 3.905910 0.000000 0.000000 
#    y 0.000000 3.370300 0.000000 
#    z 0.000000 0.000000 3.445330 
# 
# 
# High freq. dielectric constant tensor:
#      x y z
#    x 1.780820 0.000000 0.000000 
#    y 0.000000 1.751260 0.000000 
#    z 0.000000 0.000000 1.740060 
# 
# From -- ./inp_files/30284.got.cif
#   From: 2010.03.12/outbox.cif.g09.slc.cpg/sg59_16_cif.got.tgz:30284.got - 2010.04.16 16:29:54.
