data_PCOD8243780
_publ_section_title
;
Structure prediction by ZEFSAII (Michael W. Deem and Ramdas Pophale) SiO2 
 PCOD8243780
Probable space group: P M M N
;
_chemical_formula_sum "Si O2"
_cell_formula_units_Z 64
_cell_length_a 22.013946
_cell_length_b 8.498948
_cell_length_c 16.867065
_cell_angle_alpha 90.000000
_cell_angle_beta 90.000000
_cell_angle_gamma 90.000000
_cell_volume 3155.749975
_symmetry_space_group_name_H-M "P M M N"
_symmetry_group_IT_number 59
_space_group.IT_coordinate_system_code '2'
_symmetry_cell_setting 'orthorhombic'
loop_
_space_group_symop_operation_xyz
x,y,z
1/2-x,1/2-y,z
1/2+x,-y,-z
-x,1/2+y,-z
-x,-y,-z
1/2+x,1/2+y,-z
1/2-x,y,z
x,1/2-y,z
loop_
_atom_site_type_symbol
_atom_site_label
_atom_site_fract_x
_atom_site_fract_y
_atom_site_fract_z
Si Si1 0.866016 0.065073 0.937889
Si Si2 0.179237 0.423874 0.744906
Si Si3 0.386273 0.566445 0.889906
Si Si4 0.681284 0.937558 0.432328
Si Si5 0.981452 0.562868 0.854526
Si Si6 0.435778 0.434637 0.469909
Si Si7 0.425840 0.933063 0.297163
Si Si8 0.317850 0.072132 0.211692
O O1 0.853793 0.250000 0.930331
O O2 0.934181 0.026540 0.910381
O O3 0.819123 0.973988 0.881163
O O4 0.856466 0.003008 0.028209
O O5 0.250000 0.412164 0.759553
O O6 0.149922 0.250000 0.752402
O O7 0.153142 0.534330 0.812735
O O8 0.166578 0.494722 0.657408
O O9 0.393765 0.750000 0.899968
O O10 0.453397 0.496069 0.880103
O O11 0.750000 0.997220 0.457910
O O12 0.683046 0.750000 0.434057
O O13 0.625443 0.002791 0.486376
O O14 0.974154 0.750000 0.862885
O O15 0.973059 0.512373 0.763073
O O16 0.500000 0.500000 0.500000
O O17 0.436981 0.250000 0.483524
O O18 0.430249 0.475534 0.378710
O O19 0.440601 0.750000 0.309351
O O20 0.358053 0.952965 0.262733
O O21 0.250000 0.059896 0.244369
O O22 0.342876 0.250000 0.221231
#
# Coordination Sequence:
#
# PCOD8243780 Si02
#       8
#     8   8   8   8   8   8   8   8
#     4  10  20  35  53  78 112 147 186 232 283 338
#     4   9  19  36  57  81 107 139 185 233 273 326
#     4  10  22  35  52  80 111 146 185 230 285 337
#     4   8  17  37  62  85 111 148 194 239 284 339
#     4  10  20  36  56  79 110 146 187 233 280 334
#     4  11  23  39  61  91 125 156 193 244 299 355
#     4  11  23  39  58  84 116 150 189 233 286 345
#     4  10  21  38  60  84 112 149 192 237 287 340
#
# _framework density 20.280441
#
# number of rings (size 3 to 8) (size 9 to 14) (size 15 to 20)
#    0.000    2.125    0.000    5.250    1.750    4.250 
#    0.000    4.375    0.000    2.625    0.000    0.000 
#    0.000    0.000    0.000    0.000    0.000    0.000 
#
# Total GULP energy -793269.112915 kJ/mol
# GULP energy per Si atom -12394.829889 kJ/mol
# Density = 2.023428 g / cm^3
# Si number density = 20.280441 Si / 1000 Ang^3
#
#
#
# Elastic Constant Matrix: (Units=GPa)
#
#
# Indices 1 2 3 4 5 6 
#
# 1 79.8073 9.6456 37.0897 0.0000 0.0000 0.0000
# 2 9.6456 38.0242 4.6933 0.0000 0.0000 0.0000
# 3 37.0897 4.6933 111.1860 0.0000 0.0000 0.0000
# 4 0.0000 0.0000 0.0000 26.6666 0.0000 0.0000
# 5 0.0000 0.0000 0.0000 0.0000 16.3391 0.0000
# 6 0.0000 0.0000 0.0000 0.0000 0.0000 27.1622
#
#
#
# Elastic Compliance Matrix: (Units=1/GPa)
#
#
# Indices 1 2 3 4 5 6 
#
# 1 0.015219 -0.003251 -0.004939 0.000000 0.000000 0.000000
# 2 -0.003251 0.027131 -0.000061 0.000000 0.000000 0.000000
# 3 -0.004939 -0.000061 0.010644 0.000000 0.000000 0.000000
# 4 0.000000 0.000000 0.000000 0.037500 0.000000 0.000000
# 5 0.000000 0.000000 0.000000 0.000000 0.061203 0.000000
# 6 0.000000 0.000000 0.000000 0.000000 0.000000 0.036816
#
#
# Mechanical properties :
#
#
# Convention : Reuss Voigt Hill
#
# Bulk Modulus (GPa) = 27.40338 36.87495 32.13916
# Shear Modulus (GPa) = 23.02248 25.87285 24.44766
#
# Velocity S-wave (km/s) = 3.37294 3.57564 3.47577
# Velocity P-wave (km/s) = 5.35822 5.93877 5.65595
#
# Compressibility (1/GPa) = 0.03649185
#
# Stress axis : x y z
#
# Youngs Moduli (GPa) = 65.70893 36.85795 93.94774
#
# Poissons Ratio (x) = 0.11982 0.46405
# Poissons Ratio (y) = 0.21361 0.00571
# Poissons Ratio (z) = 0.32457 0.00224
#
# Static dielectric constant tensor:
#      x y z
#    x 3.832710 0.000000 0.000000 
#    y 0.000000 3.557570 0.000000 
#    z 0.000000 0.000000 4.075360 
# 
# 
# High freq. dielectric constant tensor:
#      x y z
#    x 1.792800 0.000000 0.000000 
#    y 0.000000 1.776600 0.000000 
#    z 0.000000 0.000000 1.798480 
# 
# From -- ./inp_files/28473.got.cif
#   From: 2010.03.12/outbox.cif.g09.slc.cpg/sg59_15_cif.got.tgz:28473.got - 2010.04.16 16:29:54.
