data_PCOD8243841
_publ_section_title
;
Structure prediction by ZEFSAII (Michael W. Deem and Ramdas Pophale) SiO2 
 PCOD8243841
Probable space group: P M M N
;
_chemical_formula_sum "Si O2"
_cell_formula_units_Z 52
_cell_length_a 10.791666
_cell_length_b 28.123640
_cell_length_c 9.752933
_cell_angle_alpha 90.000000
_cell_angle_beta 90.000000
_cell_angle_gamma 90.000000
_cell_volume 2960.024232
_symmetry_space_group_name_H-M "P M M N"
_symmetry_group_IT_number 59
_space_group.IT_coordinate_system_code '2'
_symmetry_cell_setting 'orthorhombic'
loop_
_space_group_symop_operation_xyz
x,y,z
1/2-x,1/2-y,z
1/2+x,-y,-z
-x,1/2+y,-z
-x,-y,-z
1/2+x,1/2+y,-z
1/2-x,y,z
x,1/2-y,z
loop_
_atom_site_type_symbol
_atom_site_label
_atom_site_fract_x
_atom_site_fract_y
_atom_site_fract_z
Si Si1 0.963782 0.053770 0.840673
Si Si2 0.442697 0.696087 0.679455
Si Si3 0.602652 0.965264 0.431165
Si Si4 0.250000 0.696269 0.444982
Si Si5 0.750000 0.194810 0.085241
Si Si6 0.389463 0.449830 0.103782
Si Si7 0.108285 0.390457 0.350286
Si Si8 0.750000 0.371321 0.815572
O O1 0.870989 0.095919 0.801562
O O2 0.067027 0.042725 0.725943
O O3 0.888293 0.006392 0.876016
O O4 0.035008 0.069798 0.975768
O O5 0.490336 0.750000 0.684690
O O6 0.366686 0.686773 0.541436
O O7 0.368390 0.684584 0.818791
O O8 0.558596 0.662224 0.665169
O O9 0.750000 0.982321 0.444812
O O10 0.586606 0.913844 0.501579
O O11 0.500000 0.000000 0.500000
O O12 0.250000 0.750000 0.389249
O O13 0.250000 0.662674 0.314544
O O14 0.750000 0.250000 0.036136
O O15 0.750000 0.159493 0.955440
O O16 0.250000 0.432978 0.080959
O O17 0.451341 0.425881 0.237660
O O18 0.250000 0.385539 0.315718
#
# Coordination Sequence:
#
# PCOD8243841 Si02
#       8
#     8   8   8   4   4   8   8   4
#     4  11  22  34  52  77 106 142 185 226 269 325
#     4   9  18  36  55  78 107 140 180 223 280 338
#     4  11  23  39  56  78 111 148 189 232 279 326
#     4   9  19  35  55  77 109 139 167 226 284 326
#     4   9  19  35  55  81 115 143 179 236 285 324
#     4  10  20  37  51  70 107 143 181 222 273 316
#     4  10  20  35  55  77 107 142 178 230 275 322
#     4  12  21  32  56  84 110 138 195 226 271 346
#
# _framework density 17.567423000000002
#
# number of rings (size 3 to 8) (size 9 to 14) (size 15 to 20)
#    0.000    1.846    2.308    3.462    1.077    0.308 
#    2.769    0.000    0.000    0.000    0.000    0.000 
#    0.000   22.154    0.000    0.000    0.000    0.000 
#
# Total GULP energy -644444.520265 kJ/mol
# GULP energy per Si atom -12393.163851 kJ/mol
# Density = 1.752744 g / cm^3
# Si number density = 17.567423 Si / 1000 Ang^3
#
#
#
# Elastic Constant Matrix: (Units=GPa)
#
#
# Indices 1 2 3 4 5 6 
#
# 1 76.1980 39.2850 35.7089 0.0000 0.0000 0.0000
# 2 39.2850 86.3747 37.5083 0.0000 0.0000 0.0000
# 3 35.7089 37.5083 105.9091 0.0000 0.0000 0.0000
# 4 0.0000 0.0000 0.0000 30.3649 0.0000 0.0000
# 5 0.0000 0.0000 0.0000 0.0000 15.4629 0.0000
# 6 0.0000 0.0000 0.0000 0.0000 0.0000 34.2759
#
#
#
# Elastic Compliance Matrix: (Units=1/GPa)
#
#
# Indices 1 2 3 4 5 6 
#
# 1 0.018366 -0.006693 -0.003822 0.000000 0.000000 0.000000
# 2 -0.006693 0.016121 -0.003453 0.000000 0.000000 0.000000
# 3 -0.003822 -0.003453 0.011953 0.000000 0.000000 0.000000
# 4 0.000000 0.000000 0.000000 0.032933 0.000000 0.000000
# 5 0.000000 0.000000 0.000000 0.000000 0.064671 0.000000
# 6 0.000000 0.000000 0.000000 0.000000 0.000000 0.029175
#
#
# Mechanical properties :
#
#
# Convention : Reuss Voigt Hill
#
# Bulk Modulus (GPa) = 54.04083 54.83181 54.43632
# Shear Modulus (GPa) = 24.11702 26.41937 25.26820
#
# Velocity S-wave (km/s) = 3.70919 3.88220 3.79668
# Velocity P-wave (km/s) = 7.01233 7.16766 7.09042
#
# Compressibility (1/GPa) = 0.01850453
#
# Stress axis : x y z
#
# Youngs Moduli (GPa) = 54.44962 62.03058 83.65854
#
# Poissons Ratio (x) = 0.41520 0.31972
# Poissons Ratio (y) = 0.36446 0.28884
# Poissons Ratio (z) = 0.20809 0.21416
#
# Static dielectric constant tensor:
#      x y z
#    x 3.201720 0.000000 0.000000 
#    y 0.000000 3.212660 0.000000 
#    z 0.000000 0.000000 3.379900 
# 
# 
# High freq. dielectric constant tensor:
#      x y z
#    x 1.673050 0.000000 0.000000 
#    y 0.000000 1.673710 0.000000 
#    z 0.000000 0.000000 1.691430 
# 
# From -- ./inp_files/7807.got.cif
#   From: 2010.03.12/outbox.cif.g09.slc.cpg/sg59_4_cif.got.tgz:7807.got - 2010.04.16 16:29:54.
