data_PCOD8243481
_publ_section_title
;
Structure prediction by ZEFSAII (Michael W. Deem and Ramdas Pophale) SiO2 
 PCOD8243481
Probable space group: P M M N
;
_chemical_formula_sum "Si O2"
_cell_formula_units_Z 64
_cell_length_a 14.655881
_cell_length_b 8.634226
_cell_length_c 24.820824
_cell_angle_alpha 90.000000
_cell_angle_beta 90.000000
_cell_angle_gamma 90.000000
_cell_volume 3140.881396
_symmetry_space_group_name_H-M "P M M N"
_symmetry_group_IT_number 59
_space_group.IT_coordinate_system_code '2'
_symmetry_cell_setting 'orthorhombic'
loop_
_space_group_symop_operation_xyz
x,y,z
1/2-x,1/2-y,z
1/2+x,-y,-z
-x,1/2+y,-z
-x,-y,-z
1/2+x,1/2+y,-z
1/2-x,y,z
x,1/2-y,z
loop_
_atom_site_type_symbol
_atom_site_label
_atom_site_fract_x
_atom_site_fract_y
_atom_site_fract_z
Si Si1 0.348743 0.926966 0.778709
Si Si2 0.649476 0.574951 0.109160
Si Si3 0.350661 0.067378 0.580498
Si Si4 0.469533 0.932235 0.250927
Si Si5 0.515611 0.928220 0.941932
Si Si6 0.531235 0.067204 0.631140
Si Si7 0.145330 0.933759 0.147266
Si Si8 0.855529 0.070954 0.532121
O O1 0.250000 0.941628 0.748383
O O2 0.362978 0.750000 0.798149
O O3 0.345499 0.045604 0.827945
O O4 0.433845 0.980717 0.743672
O O5 0.750000 0.555062 0.082858
O O6 0.612958 0.750000 0.099105
O O7 0.581675 0.447773 0.086013
O O8 0.250000 0.993979 0.592863
O O9 0.342263 0.250000 0.582648
O O10 0.426307 0.007859 0.623435
O O11 0.385410 0.020334 0.521190
O O12 0.485780 0.750000 0.243784
O O13 0.427041 0.972829 0.309609
O O14 0.406777 0.994006 0.201449
O O15 0.541904 0.750000 0.947759
O O16 0.595457 0.007240 0.906713
O O17 0.500000 0.000000 0.000000
O O18 0.531633 0.250000 0.624146
O O19 0.593649 0.996627 0.583953
O O20 0.250000 0.994683 0.148291
O O21 0.144202 0.750000 0.146282
O O22 0.750000 0.047582 0.544274
O O23 0.880732 0.250000 0.523425
#
# Coordination Sequence:
#
# PCOD8243481 Si02
#       8
#     8   8   8   8   8   8   8   8
#     4  10  20  34  54  81 112 146 182 223 277 336
#     4  10  20  36  60  88 117 148 184 227 277 335
#     4   9  17  30  48  70 100 138 179 224 276 334
#     4  10  20  35  57  82 111 149 193 237 282 338
#     4  12  25  41  64  91 122 156 192 238 288 340
#     4   9  18  31  49  76 105 137 180 228 276 329
#     4  10  22  41  63  87 118 156 198 242 288 340
#     4   9  17  30  49  72 100 134 176 227 280 333
#
# _framework density 20.376445
#
# number of rings (size 3 to 8) (size 9 to 14) (size 15 to 20)
#    0.000    2.125    1.250    2.250    0.000    3.250 
#    0.000    5.000    0.000    1.500    0.000    1.750 
#    0.000    0.000    0.000    0.000    0.000    0.000 
#
# Total GULP energy -793016.886730 kJ/mol
# GULP energy per Si atom -12390.888855 kJ/mol
# Density = 2.033007 g / cm^3
# Si number density = 20.376445 Si / 1000 Ang^3
#
#
#
# Elastic Constant Matrix: (Units=GPa)
#
#
# Indices 1 2 3 4 5 6 
#
# 1 106.4434 20.8246 51.1223 0.0000 0.0000 0.0000
# 2 20.8246 34.3992 10.8610 0.0000 0.0000 0.0000
# 3 51.1223 10.8610 115.0119 0.0000 0.0000 0.0000
# 4 0.0000 0.0000 0.0000 23.9835 0.0000 0.0000
# 5 0.0000 0.0000 0.0000 0.0000 18.5302 0.0000
# 6 0.0000 0.0000 0.0000 0.0000 0.0000 23.1212
#
#
#
# Elastic Compliance Matrix: (Units=1/GPa)
#
#
# Indices 1 2 3 4 5 6 
#
# 1 0.013149 -0.006303 -0.005249 0.000000 0.000000 0.000000
# 2 -0.006303 0.032985 -0.000313 0.000000 0.000000 0.000000
# 3 -0.005249 -0.000313 0.011058 0.000000 0.000000 0.000000
# 4 0.000000 0.000000 0.000000 0.041695 0.000000 0.000000
# 5 0.000000 0.000000 0.000000 0.000000 0.053966 0.000000
# 6 0.000000 0.000000 0.000000 0.000000 0.000000 0.043250
#
#
# Mechanical properties :
#
#
# Convention : Reuss Voigt Hill
#
# Bulk Modulus (GPa) = 29.88596 46.83002 38.35799
# Shear Modulus (GPa) = 21.64618 24.66342 23.15480
#
# Velocity S-wave (km/s) = 3.26285 3.48284 3.37464
# Velocity P-wave (km/s) = 5.37529 6.26146 5.83522
#
# Compressibility (1/GPa) = 0.03346052
#
# Stress axis : x y z
#
# Youngs Moduli (GPa) = 76.05197 30.31694 90.43473
#
# Poissons Ratio (x) = 0.19108 0.47473
# Poissons Ratio (y) = 0.47933 0.02834
# Poissons Ratio (z) = 0.39923 0.00950
#
# Static dielectric constant tensor:
#      x y z
#    x 1.998160 0.000000 0.000000 
#    y 0.000000 3.424990 0.000000 
#    z 0.000000 0.000000 6.013070 
# 
# 
# High freq. dielectric constant tensor:
#      x y z
#    x 1.803880 0.000000 0.000000 
#    y 0.000000 1.771300 0.000000 
#    z 0.000000 0.000000 1.789300 
# 
# From -- ./inp_files/32256.got.cif
#   From: 2010.03.12/outbox.cif.g09.slc.cpg/sg59_17_cif.got.tgz:32256.got - 2010.04.16 16:29:54.
