data_PCOD8243238
_publ_section_title
;
Structure prediction by ZEFSAII (Michael W. Deem and Ramdas Pophale) SiO2 
 PCOD8243238
Probable space group: P M M N
;
_chemical_formula_sum "Si O2"
_cell_formula_units_Z 56
_cell_length_a 15.226751
_cell_length_b 9.121623
_cell_length_c 21.417430
_cell_angle_alpha 90.000000
_cell_angle_beta 90.000000
_cell_angle_gamma 90.000000
_cell_volume 2974.724297
_symmetry_space_group_name_H-M "P M M N"
_symmetry_group_IT_number 59
_space_group.IT_coordinate_system_code '2'
_symmetry_cell_setting 'orthorhombic'
loop_
_space_group_symop_operation_xyz
x,y,z
1/2-x,1/2-y,z
1/2+x,-y,-z
-x,1/2+y,-z
-x,-y,-z
1/2+x,1/2+y,-z
1/2-x,y,z
x,1/2-y,z
loop_
_atom_site_type_symbol
_atom_site_label
_atom_site_fract_x
_atom_site_fract_y
_atom_site_fract_z
Si Si1 0.084420 0.421373 0.972243
Si Si2 0.481111 0.422060 0.708909
Si Si3 0.492915 0.079262 0.847148
Si Si4 0.352635 0.577803 0.615213
Si Si5 0.654802 0.416830 0.923323
Si Si6 0.350065 0.919526 0.368914
Si Si7 0.645922 0.914348 0.507994
O O1 0.081915 0.250000 0.986402
O O2 0.086410 0.448955 0.896942
O O3 0.163448 0.495126 0.010728
O O4 0.000000 0.500000 0.000000
O O5 0.458340 0.250000 0.704259
O O6 0.472741 0.487372 0.779289
O O7 0.408574 0.510262 0.670982
O O8 0.581305 0.451806 0.686625
O O9 0.508864 0.250000 0.835842
O O10 0.583378 0.013448 0.876102
O O11 0.250000 0.541908 0.626570
O O12 0.369173 0.750000 0.611217
O O13 0.388159 0.506398 0.551102
O O14 0.750000 0.423989 0.890681
O O15 0.627447 0.250000 0.939283
O O16 0.250000 0.964847 0.349134
O O17 0.351303 0.750000 0.388290
O O18 0.385215 0.010145 0.428196
O O19 0.750000 0.911487 0.506871
O O20 0.607067 0.750000 0.504618
#
# Coordination Sequence:
#
# PCOD8243238 Si02
#       7
#     8   8   8   8   8   8   8
#     4   9  16  29  49  70  94 124 159 199 241 284
#     4  10  20  34  53  76 102 136 176 210 246 300
#     4   8  16  31  49  70  97 130 166 202 242 290
#     4  10  21  37  55  74  98 128 166 216 268 311
#     4   9  17  30  50  76 103 130 163 204 248 294
#     4   9  18  32  50  75 106 135 164 203 251 301
#     4   9  17  31  53  77  99 128 167 210 256 304
#
# _framework density 18.825274
#
# number of rings (size 3 to 8) (size 9 to 14) (size 15 to 20)
#    0.000    2.857    0.000    2.143    0.000    4.571 
#    0.000    7.143    0.000    4.286    0.000    4.000 
#    0.000    0.000    0.000    0.000    0.000    0.000 
#
# Total GULP energy -693912.179603 kJ/mol
# GULP energy per Si atom -12391.288921 kJ/mol
# Density = 1.878243 g / cm^3
# Si number density = 18.825274 Si / 1000 Ang^3
#
#
#
# Elastic Constant Matrix: (Units=GPa)
#
#
# Indices 1 2 3 4 5 6 
#
# 1 44.4049 20.6126 21.0723 0.0000 0.0000 0.0000
# 2 20.6126 78.2978 44.7817 0.0000 0.0000 0.0000
# 3 21.0723 44.7817 130.8233 0.0000 0.0000 0.0000
# 4 0.0000 0.0000 0.0000 25.1595 0.0000 0.0000
# 5 0.0000 0.0000 0.0000 0.0000 22.5582 0.0000
# 6 0.0000 0.0000 0.0000 0.0000 0.0000 22.4210
#
#
#
# Elastic Compliance Matrix: (Units=1/GPa)
#
#
# Indices 1 2 3 4 5 6 
#
# 1 0.026206 -0.005576 -0.002312 0.000000 0.000000 0.000000
# 2 -0.005576 0.017068 -0.004944 0.000000 0.000000 0.000000
# 3 -0.002312 -0.004944 0.009709 0.000000 0.000000 0.000000
# 4 0.000000 0.000000 0.000000 0.039746 0.000000 0.000000
# 5 0.000000 0.000000 0.000000 0.000000 0.044330 0.000000
# 6 0.000000 0.000000 0.000000 0.000000 0.000000 0.044601
#
#
# Mechanical properties :
#
#
# Convention : Reuss Voigt Hill
#
# Bulk Modulus (GPa) = 36.60784 47.38435 41.99609
# Shear Modulus (GPa) = 23.10208 25.16502 24.13355
#
# Velocity S-wave (km/s) = 3.50692 3.66015 3.58435
# Velocity P-wave (km/s) = 5.99052 6.56411 6.28386
#
# Compressibility (1/GPa) = 0.02731655
#
# Stress axis : x y z
#
# Youngs Moduli (GPa) = 38.15933 58.59069 102.99994
#
# Poissons Ratio (x) = 0.32673 0.23816
# Poissons Ratio (y) = 0.21280 0.50924
# Poissons Ratio (z) = 0.08823 0.28968
#
# Static dielectric constant tensor:
#      x y z
#    x 3.087590 0.000000 0.000000 
#    y 0.000000 3.572040 0.000000 
#    z 0.000000 0.000000 3.804240 
# 
# 
# High freq. dielectric constant tensor:
#      x y z
#    x 1.717840 0.000000 0.000000 
#    y 0.000000 1.717400 0.000000 
#    z 0.000000 0.000000 1.726930 
# 
# From -- ./inp_files/30623.got.cif
#   From: 2010.03.12/outbox.cif.g09.slc.cpg/sg59_16_cif.got.tgz:30623.got - 2010.04.16 16:29:54.
