data_PCOD8243643
_publ_section_title
;
Structure prediction by ZEFSAII (Michael W. Deem and Ramdas Pophale) SiO2 
 PCOD8243643
Probable space group: P M M N
;
_chemical_formula_sum "Si O2"
_cell_formula_units_Z 64
_cell_length_a 13.801861
_cell_length_b 8.864370
_cell_length_c 26.597655
_cell_angle_alpha 90.000000
_cell_angle_beta 90.000000
_cell_angle_gamma 90.000000
_cell_volume 3254.084850
_symmetry_space_group_name_H-M "P M M N"
_symmetry_group_IT_number 59
_space_group.IT_coordinate_system_code '2'
_symmetry_cell_setting 'orthorhombic'
loop_
_space_group_symop_operation_xyz
x,y,z
1/2-x,1/2-y,z
1/2+x,-y,-z
-x,1/2+y,-z
-x,-y,-z
1/2+x,1/2+y,-z
1/2-x,y,z
x,1/2-y,z
loop_
_atom_site_type_symbol
_atom_site_label
_atom_site_fract_x
_atom_site_fract_y
_atom_site_fract_z
Si Si1 0.859832 0.076180 0.668274
Si Si2 0.449047 0.072240 0.239836
Si Si3 0.359321 0.582757 0.873093
Si Si4 0.998199 0.926277 0.054074
Si Si5 0.139040 0.925442 0.142730
Si Si6 0.640599 0.076325 0.484673
Si Si7 0.858006 0.573128 0.230777
Si Si8 0.955732 0.925057 0.576452
O O1 0.750000 0.052462 0.649117
O O2 0.883281 0.250000 0.677887
O O3 0.870877 0.989928 0.720900
O O4 0.934253 0.015016 0.627019
O O5 0.446847 0.250000 0.240793
O O6 0.423305 0.015928 0.183871
O O7 0.555505 0.015449 0.258728
O O8 0.250000 0.602483 0.890036
O O9 0.401543 0.750000 0.859068
O O10 0.409874 0.509424 0.920162
O O11 0.369384 0.467773 0.827330
O O12 0.977029 0.750000 0.048757
O O13 0.095164 0.955044 0.087252
O O14 0.000000 0.000000 0.000000
O O15 0.250000 0.981915 0.142609
O O16 0.132551 0.750000 0.157083
O O17 0.750000 0.043014 0.466141
O O18 0.628195 0.250000 0.501460
O O19 0.566670 0.038786 0.439413
O O20 0.617488 0.973853 0.532573
O O21 0.750000 0.524807 0.250148
O O22 0.873429 0.750000 0.238098
O O23 0.939590 0.750000 0.587396
#
# Coordination Sequence:
#
# PCOD8243643 Si02
#       8
#     8   8   8   8   8   8   8   8
#     4  11  24  41  60  82 114 157 200 243 296 355
#     4  12  24  38  61  90 119 150 190 240 292 344
#     4  10  20  35  57  84 112 142 179 225 276 329
#     4  11  23  38  58  83 115 152 188 232 286 341
#     4  10  22  41  62  83 112 152 193 233 284 345
#     4   9  18  34  56  82 116 159 200 238 292 358
#     4  10  20  36  60  87 114 146 184 225 273 332
#     4  10  20  34  55  85 118 152 197 252 300 345
#
# _framework density 19.667589
#
# number of rings (size 3 to 8) (size 9 to 14) (size 15 to 20)
#    0.000    1.625    1.250    3.750    0.000    7.500 
#    0.000    1.875    0.000    2.250    0.000    0.000 
#    0.000    0.000    0.000    0.000    0.000    0.000 
#
# Total GULP energy -793614.125577 kJ/mol
# GULP energy per Si atom -12400.220712 kJ/mol
# Density = 1.962282 g / cm^3
# Si number density = 19.667589 Si / 1000 Ang^3
#
#
#
# Elastic Constant Matrix: (Units=GPa)
#
#
# Indices 1 2 3 4 5 6 
#
# 1 117.0227 49.9881 32.2846 0.0000 0.0000 0.0000
# 2 49.9881 111.2446 35.3435 0.0000 0.0000 0.0000
# 3 32.2846 35.3435 75.5724 0.0000 0.0000 0.0000
# 4 0.0000 0.0000 0.0000 35.8010 0.0000 0.0000
# 5 0.0000 0.0000 0.0000 0.0000 27.7385 0.0000
# 6 0.0000 0.0000 0.0000 0.0000 0.0000 28.5372
#
#
#
# Elastic Compliance Matrix: (Units=1/GPa)
#
#
# Indices 1 2 3 4 5 6 
#
# 1 0.011065 -0.004076 -0.002821 0.000000 0.000000 0.000000
# 2 -0.004076 0.012059 -0.003899 0.000000 0.000000 0.000000
# 3 -0.002821 -0.003899 0.016261 0.000000 0.000000 0.000000
# 4 0.000000 0.000000 0.000000 0.027932 0.000000 0.000000
# 5 0.000000 0.000000 0.000000 0.000000 0.036051 0.000000
# 6 0.000000 0.000000 0.000000 0.000000 0.000000 0.035042
#
#
# Mechanical properties :
#
#
# Convention : Reuss Voigt Hill
#
# Bulk Modulus (GPa) = 56.19772 59.89692 58.04732
# Shear Modulus (GPa) = 30.13297 30.83025 30.48161
#
# Velocity S-wave (km/s) = 3.91847 3.96355 3.94107
# Velocity P-wave (km/s) = 7.00773 7.17405 7.09138
#
# Compressibility (1/GPa) = 0.01779432
#
# Stress axis : x y z
#
# Youngs Moduli (GPa) = 90.37877 82.92351 61.49808
#
# Poissons Ratio (x) = 0.33797 0.17347
# Poissons Ratio (y) = 0.36836 0.23976
# Poissons Ratio (z) = 0.25493 0.32329
#
# Static dielectric constant tensor:
#      x y z
#    x 3.916240 0.000000 0.000000 
#    y 0.000000 3.726180 0.000000 
#    z 0.000000 0.000000 3.337840 
# 
# 
# High freq. dielectric constant tensor:
#      x y z
#    x 1.779000 0.000000 0.000000 
#    y 0.000000 1.776730 0.000000 
#    z 0.000000 0.000000 1.745130 
# 
# From -- ./inp_files/32101.got.cif
#   From: 2010.03.12/outbox.cif.g09.slc.cpg/sg59_17_cif.got.tgz:32101.got - 2010.04.16 16:29:54.
