data_PCOD8243294
_publ_section_title
;
Structure prediction by ZEFSAII (Michael W. Deem and Ramdas Pophale) SiO2 
 PCOD8243294
Probable space group: P M M N
;
_chemical_formula_sum "Si O2"
_cell_formula_units_Z 64
_cell_length_a 18.391208
_cell_length_b 8.959457
_cell_length_c 21.696618
_cell_angle_alpha 90.000000
_cell_angle_beta 90.000000
_cell_angle_gamma 90.000000
_cell_volume 3575.065379
_symmetry_space_group_name_H-M "P M M N"
_symmetry_group_IT_number 59
_space_group.IT_coordinate_system_code '2'
_symmetry_cell_setting 'orthorhombic'
loop_
_space_group_symop_operation_xyz
x,y,z
1/2-x,1/2-y,z
1/2+x,-y,-z
-x,1/2+y,-z
-x,-y,-z
1/2+x,1/2+y,-z
1/2-x,y,z
x,1/2-y,z
loop_
_atom_site_type_symbol
_atom_site_label
_atom_site_fract_x
_atom_site_fract_y
_atom_site_fract_z
Si Si1 0.956371 0.924232 0.554683
Si Si2 0.166976 0.075260 0.631522
Si Si3 0.166793 0.579987 0.501578
Si Si4 0.537291 0.427989 0.798590
Si Si5 0.108710 0.915060 0.019673
Si Si6 0.033612 0.575219 0.682841
Si Si7 0.454296 0.085415 0.915720
Si Si8 0.833316 0.922731 0.866854
O O1 0.949557 0.750000 0.542321
O O2 0.993595 0.959538 0.619124
O O3 0.876493 0.998879 0.553447
O O4 0.000000 0.000000 0.500000
O O5 0.250000 0.045022 0.652333
O O6 0.150254 0.250000 0.627339
O O7 0.151617 0.003488 0.565380
O O8 0.113694 0.999167 0.681392
O O9 0.250000 0.572923 0.481759
O O10 0.140001 0.750000 0.510385
O O11 0.542508 0.250000 0.793616
O O12 0.516045 0.500070 0.734277
O O13 0.475160 0.476128 0.847967
O O14 0.616148 0.487878 0.819173
O O15 0.143392 0.750000 0.016014
O O16 0.028064 0.905514 0.045858
O O17 0.158106 0.017494 0.063400
O O18 0.104433 0.981490 0.950263
O O19 0.041721 0.750000 0.696031
O O20 0.419668 0.250000 0.910437
O O21 0.750000 0.944203 0.845937
O O22 0.856288 0.750000 0.866118
#
# Coordination Sequence:
#
# PCOD8243294 Si02
#       8
#     8   8   8   8   8   8   8   8
#     4  11  22  35  54  79 107 140 177 223 277 330
#     4  10  20  34  55  81 106 134 169 212 264 323
#     4  10  20  34  53  78 107 137 171 215 270 329
#     4  10  21  36  55  78 105 142 186 230 273 324
#     4   9  16  26  46  75 102 131 167 209 257 305
#     4  11  23  37  55  80 109 143 182 225 274 330
#     4   8  15  28  46  71 101 130 163 206 257 308
#     4  10  20  34  53  77 108 146 186 229 275 321
#
# _framework density 17.901769999999999
#
# number of rings (size 3 to 8) (size 9 to 14) (size 15 to 20)
#    0.000    2.125    1.250    3.375    0.000    7.500 
#    0.000    0.625    0.000    1.500    0.000    5.250 
#    0.000    0.000    0.000    0.000    0.000    0.000 
#
# Total GULP energy -793541.129895 kJ/mol
# GULP energy per Si atom -12399.080155 kJ/mol
# Density = 1.786102 g / cm^3
# Si number density = 17.901770 Si / 1000 Ang^3
#
#
#
# Elastic Constant Matrix: (Units=GPa)
#
#
# Indices 1 2 3 4 5 6 
#
# 1 87.2343 58.2490 48.4849 0.0000 0.0000 0.0000
# 2 58.2490 132.1415 67.0017 0.0000 0.0000 0.0000
# 3 48.4849 67.0017 98.1406 0.0000 0.0000 0.0000
# 4 0.0000 0.0000 0.0000 30.5494 0.0000 0.0000
# 5 0.0000 0.0000 0.0000 0.0000 20.8846 0.0000
# 6 0.0000 0.0000 0.0000 0.0000 0.0000 29.9486
#
#
#
# Elastic Compliance Matrix: (Units=1/GPa)
#
#
# Indices 1 2 3 4 5 6 
#
# 1 0.017869 -0.005201 -0.005277 0.000000 0.000000 0.000000
# 2 -0.005201 0.013088 -0.006366 0.000000 0.000000 0.000000
# 3 -0.005277 -0.006366 0.017143 0.000000 0.000000 0.000000
# 4 0.000000 0.000000 0.000000 0.032734 0.000000 0.000000
# 5 0.000000 0.000000 0.000000 0.000000 0.047882 0.000000
# 6 0.000000 0.000000 0.000000 0.000000 0.000000 0.033391
#
#
# Mechanical properties :
#
#
# Convention : Reuss Voigt Hill
#
# Bulk Modulus (GPa) = 69.38810 73.88752 71.63781
# Shear Modulus (GPa) = 24.92531 25.86191 25.39361
#
# Velocity S-wave (km/s) = 3.73545 3.80499 3.77038
# Velocity P-wave (km/s) = 7.57954 7.78893 7.68495
#
# Compressibility (1/GPa) = 0.01441169
#
# Stress axis : x y z
#
# Youngs Moduli (GPa) = 55.96132 76.40494 58.33416
#
# Poissons Ratio (x) = 0.39740 0.30784
# Poissons Ratio (y) = 0.29107 0.37135
# Poissons Ratio (z) = 0.29532 0.48638
#
# Static dielectric constant tensor:
#      x y z
#    x 3.329170 0.000000 0.000000 
#    y 0.000000 3.592350 0.000000 
#    z 0.000000 0.000000 3.257280 
# 
# 
# High freq. dielectric constant tensor:
#      x y z
#    x 1.678250 0.000000 0.000000 
#    y 0.000000 1.712640 0.000000 
#    z 0.000000 0.000000 1.669690 
# 
# From -- ./inp_files/30805.got.cif
#   From: 2010.03.12/outbox.cif.g09.slc.cpg/sg59_16_cif.got.tgz:30805.got - 2010.04.16 16:29:54.
