data_PCOD8243562
_publ_section_title
;
Structure prediction by ZEFSAII (Michael W. Deem and Ramdas Pophale) SiO2 
 PCOD8243562
Probable space group: P M M N
;
_chemical_formula_sum "Si O2"
_cell_formula_units_Z 40
_cell_length_a 29.053728
_cell_length_b 9.078092
_cell_length_c 7.765408
_cell_angle_alpha 90.000000
_cell_angle_beta 90.000000
_cell_angle_gamma 90.000000
_cell_volume 2048.145119
_symmetry_space_group_name_H-M "P M M N"
_symmetry_group_IT_number 59
_space_group.IT_coordinate_system_code '2'
_symmetry_cell_setting 'orthorhombic'
loop_
_space_group_symop_operation_xyz
x,y,z
1/2-x,1/2-y,z
1/2+x,-y,-z
-x,1/2+y,-z
-x,-y,-z
1/2+x,1/2+y,-z
1/2-x,y,z
x,1/2-y,z
loop_
_atom_site_type_symbol
_atom_site_label
_atom_site_fract_x
_atom_site_fract_y
_atom_site_fract_z
Si Si1 0.698715 0.575135 0.999986
Si Si2 0.864762 0.919007 0.692192
Si Si3 0.453884 0.578704 0.799272
Si Si4 0.864757 0.580993 0.307799
Si Si5 0.453888 0.578704 0.200747
O O1 0.750000 0.506502 0.999969
O O2 0.702098 0.750000 0.999967
O O3 0.672275 0.519325 0.170903
O O4 0.672264 0.519307 0.829102
O O5 0.877132 0.750000 0.736730
O O6 0.843647 0.932331 0.499999
O O7 0.910964 0.013624 0.697237
O O8 0.458417 0.750000 0.757775
O O9 0.410954 0.513644 0.697270
O O10 0.499995 0.499990 0.732688
O O11 0.446114 0.546843 0.000011
O O12 0.877130 0.750000 0.263266
O O13 0.458416 0.750000 0.242245
#
# Coordination Sequence:
#
# PCOD8243562 Si02
#       5
#     8   8   8   8   8
#     4   9  18  34  56  81 110 141 176 225 276 319
#     4  10  20  34  55  82 111 144 181 221 268 321
#     4  10  20  34  55  81 110 146 184 222 267 319
#     4  10  20  34  55  82 111 144 181 221 268 321
#     4  10  20  34  55  81 110 146 184 222 267 319
#
# _framework density 19.529865999999998
#
# number of rings (size 3 to 8) (size 9 to 14) (size 15 to 20)
#    0.000    2.200    2.000    1.200    0.000    4.000 
#    0.000    4.000    0.000    2.400    0.000    2.800 
#    0.000    0.000    0.000    0.000    0.000    0.000 
#
# Total GULP energy -496089.091831 kJ/mol
# GULP energy per Si atom -12402.227296 kJ/mol
# Density = 1.948541 g / cm^3
# Si number density = 19.529866 Si / 1000 Ang^3
#
#
#
# Elastic Constant Matrix: (Units=GPa)
#
#
# Indices 1 2 3 4 5 6 
#
# 1 154.6885 39.4716 69.1930 0.0000 0.0000 0.0000
# 2 39.4716 66.8275 32.3993 0.0000 0.0000 0.0000
# 3 69.1930 32.3993 123.6481 0.0000 0.0000 0.0000
# 4 0.0000 0.0000 0.0000 17.7647 0.0000 0.0000
# 5 0.0000 0.0000 0.0000 0.0000 11.3881 0.0000
# 6 0.0000 0.0000 0.0000 0.0000 0.0000 21.4251
#
#
#
# Elastic Compliance Matrix: (Units=1/GPa)
#
#
# Indices 1 2 3 4 5 6 
#
# 1 0.009245 -0.003382 -0.004287 0.000000 0.000000 0.000000
# 2 -0.003382 0.018379 -0.002923 0.000000 0.000000 0.000000
# 3 -0.004287 -0.002923 0.011253 0.000000 0.000000 0.000000
# 4 0.000000 0.000000 0.000000 0.056291 0.000000 0.000000
# 5 0.000000 0.000000 0.000000 0.000000 0.087811 0.000000
# 6 0.000000 0.000000 0.000000 0.000000 0.000000 0.046674
#
#
# Mechanical properties :
#
#
# Convention : Reuss Voigt Hill
#
# Bulk Modulus (GPa) = 56.52480 69.69907 63.11194
# Shear Modulus (GPa) = 19.47525 23.72226 21.59875
#
# Velocity S-wave (km/s) = 3.16128 3.48899 3.32917
# Velocity P-wave (km/s) = 6.50619 7.21087 6.86757
#
# Compressibility (1/GPa) = 0.01769135
#
# Stress axis : x y z
#
# Youngs Moduli (GPa) = 108.16142 54.41065 88.86777
#
# Poissons Ratio (x) = 0.18402 0.38102
# Poissons Ratio (y) = 0.36582 0.25977
# Poissons Ratio (z) = 0.46374 0.15905
#
# Static dielectric constant tensor:
#      x y z
#    x 3.588630 0.000000 0.000000 
#    y 0.000000 3.287240 0.000000 
#    z 0.000000 0.000000 3.605700 
# 
# 
# High freq. dielectric constant tensor:
#      x y z
#    x 1.752930 0.000000 0.000000 
#    y 0.000000 1.734030 0.000000 
#    z 0.000000 0.000000 1.767230 
# 
# From -- ./inp_files/5831.got.cif
#   From: 2010.03.12/outbox.cif.g09.slc.cpg/sg59_3_cif.got.tgz:5831.got - 2010.04.16 16:29:54.
