data_PCOD8243092
_publ_section_title
;
Structure prediction by ZEFSAII (Michael W. Deem and Ramdas Pophale) SiO2 
 PCOD8243092
Probable space group: P M M N
;
_chemical_formula_sum "Si O2"
_cell_formula_units_Z 40
_cell_length_a 23.169068
_cell_length_b 10.048206
_cell_length_c 9.065237
_cell_angle_alpha 90.000000
_cell_angle_beta 90.000000
_cell_angle_gamma 90.000000
_cell_volume 2110.455780
_symmetry_space_group_name_H-M "P M M N"
_symmetry_group_IT_number 59
_space_group.IT_coordinate_system_code '2'
_symmetry_cell_setting 'orthorhombic'
loop_
_space_group_symop_operation_xyz
x,y,z
1/2-x,1/2-y,z
1/2+x,-y,-z
-x,1/2+y,-z
-x,-y,-z
1/2+x,1/2+y,-z
1/2-x,y,z
x,1/2-y,z
loop_
_atom_site_type_symbol
_atom_site_label
_atom_site_fract_x
_atom_site_fract_y
_atom_site_fract_z
Si Si1 0.686885 0.250000 0.181175
Si Si2 0.120327 0.495562 0.812577
Si Si3 0.320138 0.250000 0.656302
Si Si4 0.315817 0.750000 0.169002
Si Si5 0.816572 0.750000 0.676414
Si Si6 0.000002 0.089082 0.145520
Si Si7 0.623989 0.982237 0.835947
O O1 0.750000 0.250000 0.249884
O O2 0.656239 0.379321 0.242234
O O3 0.688082 0.250000 0.005571
O O4 0.149160 0.373930 0.731318
O O5 0.054549 0.531499 0.763228
O O6 0.124221 0.471911 0.987579
O O7 0.250000 0.250000 0.678333
O O8 0.342291 0.250000 0.488175
O O9 0.250000 0.750000 0.233739
O O10 0.353351 0.624066 0.222045
O O11 0.750000 0.750000 0.650460
O O12 0.831991 0.621980 0.770386
O O13 0.994228 0.250000 0.115080
O O14 0.060217 0.054925 0.227271
O O15 0.000000 0.000000 0.000000
#
# Coordination Sequence:
#
# PCOD8243092 Si02
#       7
#     4   8   4   4   4   8   8
#     4   9  16  29  51  79 109 137 174 233 288 330
#     4  10  20  35  58  86 114 147 188 239 288 345
#     4  11  25  40  55  81 117 155 202 243 288 341
#     4   9  18  31  51  85 113 137 182 235 282 336
#     4  11  23  40  57  79 115 159 198 245 288 337
#     4  10  20  33  57  91 121 145 185 235 289 343
#     4  10  20  35  61  85 115 147 189 235 289 348
#
# _framework density 18.953254000000001
#
# number of rings (size 3 to 8) (size 9 to 14) (size 15 to 20)
#    0.000    2.000    2.000    1.800    8.400    3.200 
#    0.000    2.000    0.000    3.600    0.000    0.000 
#    0.000    0.000    0.000    0.000    0.000    0.000 
#
# Total GULP energy -495565.839758 kJ/mol
# GULP energy per Si atom -12389.145994 kJ/mol
# Density = 1.891012 g / cm^3
# Si number density = 18.953254 Si / 1000 Ang^3
#
#
#
# Elastic Constant Matrix: (Units=GPa)
#
#
# Indices 1 2 3 4 5 6 
#
# 1 117.6919 64.9403 21.9872 0.0000 0.0000 0.0000
# 2 64.9403 182.0112 33.8784 0.0000 0.0000 0.0000
# 3 21.9872 33.8784 37.8325 0.0000 0.0000 0.0000
# 4 0.0000 0.0000 0.0000 -30.1457 0.0000 0.0000
# 5 0.0000 0.0000 0.0000 0.0000 14.7612 0.0000
# 6 0.0000 0.0000 0.0000 0.0000 0.0000 63.3968
#
#
#
# Elastic Compliance Matrix: (Units=1/GPa)
#
#
# Indices 1 2 3 4 5 6 
#
# 1 0.010939 -0.003264 -0.003435 0.000000 0.000000 0.000000
# 2 -0.003264 0.007567 -0.004879 0.000000 0.000000 0.000000
# 3 -0.003435 -0.004879 0.032798 0.000000 0.000000 0.000000
# 4 0.000000 0.000000 0.000000 -0.033172 0.000000 0.000000
# 5 0.000000 0.000000 0.000000 0.000000 0.067745 0.000000
# 6 0.000000 0.000000 0.000000 0.000000 0.000000 0.015774
#
#
# Mechanical properties :
#
#
# Convention : Reuss Voigt Hill
#
# Bulk Modulus (GPa) = 35.52626 64.34972 49.93799
# Shear Modulus (GPa) = 37.26077 24.05110 30.65594
#
# Velocity S-wave (km/s) = 4.43869 3.56612 4.02612
# Velocity P-wave (km/s) = 6.71224 7.14016 6.92950
#
# Compressibility (1/GPa) = 0.02814819
#
# Stress axis : x y z
#
# Youngs Moduli (GPa) = 91.41307 132.15596 30.48973
#
# Poissons Ratio (x) = 0.43132 0.10473
# Poissons Ratio (y) = 0.29835 0.14877
# Poissons Ratio (z) = 0.31401 0.64481
#
# Static dielectric constant tensor:
#      x y z
#    x 4.211770 0.000000 0.000000 
#    y 0.000000 3.448250 0.000000 
#    z 0.000000 0.000000 2.986520 
# 
# 
# High freq. dielectric constant tensor:
#      x y z
#    x 1.763370 0.000000 0.000000 
#    y 0.000000 1.758040 0.000000 
#    z 0.000000 0.000000 1.674940 
# 
# From -- ./inp_files/12470.got.cif
#   From: 2010.03.12/outbox.cif.g09.slc.cpg/sg59_7_cif.got.tgz:12470.got - 2010.04.16 16:29:54.
