data_PCOD8243942
_publ_section_title
;
Structure prediction by ZEFSAII (Michael W. Deem and Ramdas Pophale) SiO2 
 PCOD8243942
Probable space group: P M M N
;
_chemical_formula_sum "Si O2"
_cell_formula_units_Z 64
_cell_length_a 19.422724
_cell_length_b 8.942472
_cell_length_c 20.046761
_cell_angle_alpha 90.000000
_cell_angle_beta 90.000000
_cell_angle_gamma 90.000000
_cell_volume 3481.865096
_symmetry_space_group_name_H-M "P M M N"
_symmetry_group_IT_number 59
_space_group.IT_coordinate_system_code '2'
_symmetry_cell_setting 'orthorhombic'
loop_
_space_group_symop_operation_xyz
x,y,z
1/2-x,1/2-y,z
1/2+x,-y,-z
-x,1/2+y,-z
-x,-y,-z
1/2+x,1/2+y,-z
1/2-x,y,z
x,1/2-y,z
loop_
_atom_site_type_symbol
_atom_site_label
_atom_site_fract_x
_atom_site_fract_y
_atom_site_fract_z
Si Si1 0.670907 0.076885 0.436815
Si Si2 0.572410 0.423896 0.674633
Si Si3 0.070153 0.926064 0.681283
Si Si4 0.670891 0.923351 0.932982
Si Si5 0.420903 0.075477 0.820146
Si Si6 0.830843 0.922020 0.571824
Si Si7 0.421638 0.920632 0.171916
Si Si8 0.830734 0.077470 0.069025
O O1 0.750000 0.041840 0.419421
O O2 0.660091 0.250000 0.454952
O O3 0.626612 0.028880 0.373271
O O4 0.645350 0.980803 0.499718
O O5 0.559280 0.250000 0.661421
O O6 0.502526 0.509765 0.656942
O O7 0.633578 0.482879 0.629241
O O8 0.594053 0.452464 0.750850
O O9 0.063451 0.750000 0.690126
O O10 0.095130 0.994597 0.750815
O O11 0.750000 0.958453 0.915299
O O12 0.659747 0.750000 0.949388
O O13 0.625214 0.968075 0.870088
O O14 0.646596 0.017569 0.996847
O O15 0.408793 0.250000 0.808727
O O16 0.498763 0.043994 0.843735
O O17 0.369341 0.015849 0.875232
O O18 0.750000 0.945861 0.581002
O O19 0.852581 0.750000 0.578376
O O20 0.403548 0.750000 0.153179
O O21 0.750000 0.053082 0.080126
O O22 0.851962 0.250000 0.074267
#
# Coordination Sequence:
#
# PCOD8243942 Si02
#       8
#     8   8   8   8   8   8   8   8
#     4   9  19  36  56  78 106 140 177 217 263 317
#     4  10  21  37  56  78 107 143 181 220 264 318
#     4  10  20  35  56  81 109 141 178 222 268 315
#     4  10  21  36  55  80 108 138 174 218 267 316
#     4  10  21  37  56  80 110 142 178 220 266 318
#     4  10  21  36  55  80 108 138 176 222 269 318
#     4   9  20  37  55  77 105 139 178 216 258 313
#     4  10  21  37  57  80 107 141 180 220 263 314
#
# _framework density 18.380953999999999
#
# number of rings (size 3 to 8) (size 9 to 14) (size 15 to 20)
#    0.000    2.250    0.000    3.000    0.000    8.250 
#    0.000    3.750    0.000    0.000    0.000    0.000 
#    0.000    0.000    0.000    0.000    0.000    0.000 
#
# Total GULP energy -793892.201986 kJ/mol
# GULP energy per Si atom -12404.565656 kJ/mol
# Density = 1.833912 g / cm^3
# Si number density = 18.380954 Si / 1000 Ang^3
#
#
#
# Elastic Constant Matrix: (Units=GPa)
#
#
# Indices 1 2 3 4 5 6 
#
# 1 69.2793 47.1569 65.0949 0.0000 0.0000 0.0000
# 2 47.1569 96.6220 60.6787 0.0000 0.0000 0.0000
# 3 65.0949 60.6787 112.1466 0.0000 0.0000 0.0000
# 4 0.0000 0.0000 0.0000 37.4284 0.0000 0.0000
# 5 0.0000 0.0000 0.0000 0.0000 51.2131 0.0000
# 6 0.0000 0.0000 0.0000 0.0000 0.0000 31.8196
#
#
#
# Elastic Compliance Matrix: (Units=1/GPa)
#
#
# Indices 1 2 3 4 5 6 
#
# 1 0.034174 -0.006395 -0.016376 0.000000 0.000000 0.000000
# 2 -0.006395 0.016873 -0.005418 0.000000 0.000000 0.000000
# 3 -0.016376 -0.005418 0.021354 0.000000 0.000000 0.000000
# 4 0.000000 0.000000 0.000000 0.026718 0.000000 0.000000
# 5 0.000000 0.000000 0.000000 0.000000 0.019526 0.000000
# 6 0.000000 0.000000 0.000000 0.000000 0.000000 0.031427
#
#
# Mechanical properties :
#
#
# Convention : Reuss Voigt Hill
#
# Bulk Modulus (GPa) = 62.40753 69.32320 65.86537
# Shear Modulus (GPa) = 23.60830 31.10005 27.35417
#
# Velocity S-wave (km/s) = 3.58773 4.11782 3.86188
# Velocity P-wave (km/s) = 7.15460 7.77208 7.46972
#
# Compressibility (1/GPa) = 0.01602371
#
# Stress axis : x y z
#
# Youngs Moduli (GPa) = 29.26190 59.26713 46.83017
#
# Poissons Ratio (x) = 0.37898 0.76691
# Poissons Ratio (y) = 0.18712 0.25371
# Poissons Ratio (z) = 0.47920 0.32109
#
# Static dielectric constant tensor:
#      x y z
#    x 3.350700 0.000000 0.000000 
#    y 0.000000 3.481730 0.000000 
#    z 0.000000 0.000000 3.372300 
# 
# 
# High freq. dielectric constant tensor:
#      x y z
#    x 1.709800 0.000000 0.000000 
#    y 0.000000 1.726580 0.000000 
#    z 0.000000 0.000000 1.717570 
# 
# From -- ./inp_files/28228.got.cif
#   From: 2010.03.12/outbox.cif.g09.slc.cpg/sg59_15_cif.got.tgz:28228.got - 2010.04.16 16:29:54.
