data_PCOD8243609
_publ_section_title
;
Structure prediction by ZEFSAII (Michael W. Deem and Ramdas Pophale) SiO2 
 PCOD8243609
Probable space group: P M M N
;
_chemical_formula_sum "Si O2"
_cell_formula_units_Z 48
_cell_length_a 9.099537
_cell_length_b 16.841104
_cell_length_c 15.230295
_cell_angle_alpha 90.000000
_cell_angle_beta 90.000000
_cell_angle_gamma 90.000000
_cell_volume 2333.985579
_symmetry_space_group_name_H-M "P M M N"
_symmetry_group_IT_number 59
_space_group.IT_coordinate_system_code '2'
_symmetry_cell_setting 'orthorhombic'
loop_
_space_group_symop_operation_xyz
x,y,z
1/2-x,1/2-y,z
1/2+x,-y,-z
-x,1/2+y,-z
-x,-y,-z
1/2+x,1/2+y,-z
1/2-x,y,z
x,1/2-y,z
loop_
_atom_site_type_symbol
_atom_site_label
_atom_site_fract_x
_atom_site_fract_y
_atom_site_fract_z
Si Si1 0.411119 0.340745 0.773154
Si Si2 0.919534 0.918899 0.894351
Si Si3 0.588272 0.341787 0.613155
Si Si4 0.575889 0.659780 0.713751
Si Si5 0.924681 0.919855 0.533896
Si Si6 0.418835 0.601776 0.068920
O O1 0.250000 0.382068 0.778565
O O2 0.388737 0.250000 0.745896
O O3 0.509822 0.382660 0.697612
O O4 0.491902 0.342349 0.866073
O O5 0.750000 0.895641 0.910373
O O6 0.979192 0.882280 0.803183
O O7 0.940069 0.013179 0.894386
O O8 0.016983 0.883396 0.972365
O O9 0.750000 0.382189 0.600752
O O10 0.612696 0.250000 0.631484
O O11 0.484433 0.350864 0.529011
O O12 0.750000 0.664277 0.713558
O O13 0.512292 0.750000 0.707261
O O14 0.524508 0.605181 0.631903
O O15 0.750000 0.926957 0.526459
O O16 0.000000 0.000000 0.500000
O O17 0.250000 0.627467 0.067704
#
# Coordination Sequence:
#
# PCOD8243609 Si02
#       6
#     8   8   8   8   8   8
#     4  10  21  36  56  83 113 149 193 238 285 344
#     4   9  19  36  57  82 112 152 196 238 287 345
#     4  10  21  38  59  83 115 153 191 237 294 353
#     4   9  19  37  61  86 113 150 197 246 294 346
#     4  11  23  38  59  88 118 153 196 245 296 353
#     4  10  20  34  55  83 118 155 191 239 291 346
#
# _framework density 20.565678999999999
#
# number of rings (size 3 to 8) (size 9 to 14) (size 15 to 20)
#    0.000    2.167    0.000    2.500    2.333    4.000 
#    0.000    3.333    0.000    2.000    0.000    0.000 
#    0.000    0.000    0.000    0.000    0.000    0.000 
#
# Total GULP energy -595079.319730 kJ/mol
# GULP energy per Si atom -12397.485828 kJ/mol
# Density = 2.051887 g / cm^3
# Si number density = 20.565679 Si / 1000 Ang^3
#
#
#
# Elastic Constant Matrix: (Units=GPa)
#
#
# Indices 1 2 3 4 5 6 
#
# 1 129.7126 26.4392 74.8669 0.0000 0.0000 0.0000
# 2 26.4392 58.1475 47.2744 0.0000 0.0000 0.0000
# 3 74.8669 47.2744 190.4053 0.0000 0.0000 0.0000
# 4 0.0000 0.0000 0.0000 35.2952 0.0000 0.0000
# 5 0.0000 0.0000 0.0000 0.0000 34.7968 0.0000
# 6 0.0000 0.0000 0.0000 0.0000 0.0000 23.8643
#
#
#
# Elastic Compliance Matrix: (Units=1/GPa)
#
#
# Indices 1 2 3 4 5 6 
#
# 1 0.010106 -0.001710 -0.003549 0.000000 0.000000 0.000000
# 2 -0.001710 0.021836 -0.004749 0.000000 0.000000 0.000000
# 3 -0.003549 -0.004749 0.007827 0.000000 0.000000 0.000000
# 4 0.000000 0.000000 0.000000 0.028332 0.000000 0.000000
# 5 0.000000 0.000000 0.000000 0.000000 0.028738 0.000000
# 6 0.000000 0.000000 0.000000 0.000000 0.000000 0.041904
#
#
# Mechanical properties :
#
#
# Convention : Reuss Voigt Hill
#
# Bulk Modulus (GPa) = 50.62593 75.04739 62.83666
# Shear Modulus (GPa) = 30.23987 34.10359 32.17173
#
# Velocity S-wave (km/s) = 3.83875 4.07661 3.95947
# Velocity P-wave (km/s) = 6.65718 7.66349 7.17800
#
# Compressibility (1/GPa) = 0.01975272
#
# Stress axis : x y z
#
# Youngs Moduli (GPa) = 98.94701 45.79536 127.76739
#
# Poissons Ratio (x) = 0.07830 0.45349
# Poissons Ratio (y) = 0.16917 0.60681
# Poissons Ratio (z) = 0.35120 0.21750
#
# Static dielectric constant tensor:
#      x y z
#    x 3.915640 0.000000 0.000000 
#    y 0.000000 3.528880 0.000000 
#    z 0.000000 0.000000 3.903700 
# 
# 
# High freq. dielectric constant tensor:
#      x y z
#    x 1.798780 0.000000 0.000000 
#    y 0.000000 1.784710 0.000000 
#    z 0.000000 0.000000 1.816100 
# 
# From -- ./inp_files/20454.got.cif
#   From: 2010.03.12/outbox.cif.g09.slc.cpg/sg59_11_cif.got.tgz:20454.got - 2010.04.16 16:29:54.
