data_PCOD8243027
_publ_section_title
;
Structure prediction by ZEFSAII (Michael W. Deem and Ramdas Pophale) SiO2 
 PCOD8243027
Probable space group: P M M N
;
_chemical_formula_sum "Si O2"
_cell_formula_units_Z 56
_cell_length_a 13.399333
_cell_length_b 9.642102
_cell_length_c 23.073036
_cell_angle_alpha 90.000000
_cell_angle_beta 90.000000
_cell_angle_gamma 90.000000
_cell_volume 2980.984003
_symmetry_space_group_name_H-M "P M M N"
_symmetry_group_IT_number 59
_space_group.IT_coordinate_system_code '2'
_symmetry_cell_setting 'orthorhombic'
loop_
_space_group_symop_operation_xyz
x,y,z
1/2-x,1/2-y,z
1/2+x,-y,-z
-x,1/2+y,-z
-x,-y,-z
1/2+x,1/2+y,-z
1/2-x,y,z
x,1/2-y,z
loop_
_atom_site_type_symbol
_atom_site_label
_atom_site_fract_x
_atom_site_fract_y
_atom_site_fract_z
Si Si1 0.750000 0.914840 0.595913
Si Si2 0.056610 0.412710 0.200564
Si Si3 0.639411 0.601472 0.375101
Si Si4 0.904295 0.589046 0.502827
Si Si5 0.049688 0.912107 0.085761
Si Si6 0.750000 0.586767 0.725447
Si Si7 0.362137 0.406477 0.987738
Si Si8 0.134728 0.909598 0.724614
O O1 0.750000 0.750000 0.597830
O O2 0.655509 0.965791 0.558658
O O3 0.750000 0.979449 0.660499
O O4 0.066320 0.250000 0.184664
O O5 0.068985 0.507336 0.144683
O O6 0.147939 0.458722 0.242449
O O7 0.946193 0.444682 0.225828
O O8 0.750000 0.620449 0.350689
O O9 0.582095 0.750000 0.369054
O O10 0.650197 0.558453 0.442100
O O11 0.592409 0.486488 0.332915
O O12 0.929301 0.750000 0.510037
O O13 0.000000 0.500000 0.500000
O O14 0.077385 0.750000 0.092828
O O15 0.934842 0.932487 0.066599
O O16 0.120401 0.980548 0.037505
O O17 0.750000 0.750000 0.718476
O O18 0.250000 0.424293 0.964213
O O19 0.379474 0.250000 0.012370
O O20 0.250000 0.947046 0.743288
O O21 0.128816 0.750000 0.707829
#
# Coordination Sequence:
#
# PCOD8243027 Si02
#       8
#     4   8   8   8   8   4   8   8
#     4   9  18  36  57  77 105 141 186 227 266 329
#     4  10  21  37  56  78 107 147 193 232 269 323
#     4   9  17  32  51  73 101 133 168 210 270 340
#     4  10  20  33  53  78 103 134 172 220 275 330
#     4  10  21  36  56  86 117 145 185 231 276 322
#     4   9  20  36  55  77 101 145 200 231 254 309
#     4   9  19  37  60  84 114 151 185 222 267 324
#     4   9  19  34  53  79 107 137 177 231 285 330
#
# _framework density 18.785741999999999
#
# number of rings (size 3 to 8) (size 9 to 14) (size 15 to 20)
#    0.000    2.571    0.714    0.429    3.000    2.571 
#    0.000    0.357    0.000    0.857    0.000    0.000 
#    0.000    0.000    0.000    0.000    0.000    0.000 
#
# Total GULP energy -693804.525911 kJ/mol
# GULP energy per Si atom -12389.366534 kJ/mol
# Density = 1.874299 g / cm^3
# Si number density = 18.785742 Si / 1000 Ang^3
#
#
#
# Elastic Constant Matrix: (Units=GPa)
#
#
# Indices 1 2 3 4 5 6 
#
# 1 113.8211 31.1870 38.8919 0.0000 0.0000 0.0000
# 2 31.1870 60.5505 44.4669 0.0000 0.0000 0.0000
# 3 38.8919 44.4669 111.1509 0.0000 0.0000 0.0000
# 4 0.0000 0.0000 0.0000 32.7574 0.0000 0.0000
# 5 0.0000 0.0000 0.0000 0.0000 17.6457 0.0000
# 6 0.0000 0.0000 0.0000 0.0000 0.0000 22.1978
#
#
#
# Elastic Compliance Matrix: (Units=1/GPa)
#
#
# Indices 1 2 3 4 5 6 
#
# 1 0.010582 -0.003867 -0.002155 0.000000 0.000000 0.000000
# 2 -0.003867 0.024799 -0.008568 0.000000 0.000000 0.000000
# 3 -0.002155 -0.008568 0.013179 0.000000 0.000000 0.000000
# 4 0.000000 0.000000 0.000000 0.030527 0.000000 0.000000
# 5 0.000000 0.000000 0.000000 0.000000 0.056671 0.000000
# 6 0.000000 0.000000 0.000000 0.000000 0.000000 0.045050
#
#
# Mechanical properties :
#
#
# Convention : Reuss Voigt Hill
#
# Bulk Modulus (GPa) = 51.60437 57.17935 54.39186
# Shear Modulus (GPa) = 23.10017 25.91862 24.50940
#
# Velocity S-wave (km/s) = 3.51046 3.71846 3.61596
# Velocity P-wave (km/s) = 6.63029 6.99568 6.81544
#
# Compressibility (1/GPa) = 0.01937820
#
# Stress axis : x y z
#
# Youngs Moduli (GPa) = 94.50116 40.32393 75.88036
#
# Poissons Ratio (x) = 0.15595 0.16356
# Poissons Ratio (y) = 0.36547 0.65014
# Poissons Ratio (z) = 0.20369 0.34549
#
# Static dielectric constant tensor:
#      x y z
#    x 3.517490 0.000000 0.000000 
#    y 0.000000 3.486280 0.000000 
#    z 0.000000 0.000000 3.429130 
# 
# 
# High freq. dielectric constant tensor:
#      x y z
#    x 1.728800 0.000000 0.000000 
#    y 0.000000 1.715620 0.000000 
#    z 0.000000 0.000000 1.723850 
# 
# From -- ./inp_files/30465.got.cif
#   From: 2010.03.12/outbox.cif.g09.slc.cpg/sg59_16_cif.got.tgz:30465.got - 2010.04.16 16:29:54.
