data_PCOD8243252
_publ_section_title
;
Structure prediction by ZEFSAII (Michael W. Deem and Ramdas Pophale) SiO2 
 PCOD8243252
Probable space group: P M M N
;
_chemical_formula_sum "Si O2"
_cell_formula_units_Z 64
_cell_length_a 9.247239
_cell_length_b 23.708995
_cell_length_c 14.946175
_cell_angle_alpha 90.000000
_cell_angle_beta 90.000000
_cell_angle_gamma 90.000000
_cell_volume 3276.840408
_symmetry_space_group_name_H-M "P M M N"
_symmetry_group_IT_number 59
_space_group.IT_coordinate_system_code '2'
_symmetry_cell_setting 'orthorhombic'
loop_
_space_group_symop_operation_xyz
x,y,z
1/2-x,1/2-y,z
1/2+x,-y,-z
-x,1/2+y,-z
-x,-y,-z
1/2+x,1/2+y,-z
1/2-x,y,z
x,1/2-y,z
loop_
_atom_site_type_symbol
_atom_site_label
_atom_site_fract_x
_atom_site_fract_y
_atom_site_fract_z
Si Si1 0.078558 0.111015 0.159279
Si Si2 0.578444 0.003527 0.218582
Si Si3 0.422029 0.314150 0.992062
Si Si4 0.414565 0.687897 0.712252
Si Si5 0.921426 0.686085 0.357212
Si Si6 0.587699 0.024920 0.418666
Si Si7 0.578579 0.877192 0.183047
Si Si8 0.090121 0.849123 0.525272
O O1 0.250000 0.102772 0.160307
O O2 0.025085 0.147512 0.074476
O O3 0.003346 0.049782 0.158115
O O4 0.028913 0.144655 0.246884
O O5 0.750000 0.014088 0.212370
O O6 0.525464 0.006638 0.321879
O O7 0.532552 0.942655 0.179708
O O8 0.250000 0.312233 0.989789
O O9 0.482520 0.250000 0.999763
O O10 0.483668 0.343646 0.902410
O O11 0.250000 0.666678 0.730413
O O12 0.438605 0.750000 0.754044
O O13 0.441645 0.694189 0.605662
O O14 0.750000 0.684449 0.358402
O O15 0.979276 0.750000 0.352694
O O16 0.983847 0.652207 0.272298
O O17 0.974681 0.656088 0.446975
O O18 0.750000 0.001479 0.427208
O O19 0.580484 0.091563 0.424807
O O20 0.500000 0.000000 0.500000
O O21 0.750000 0.872451 0.184154
O O22 0.250000 0.839354 0.484121
#
# Coordination Sequence:
#
# PCOD8243252 Si02
#       8
#     8   8   8   8   8   8   8   8
#     4  11  22  35  55  83 115 147 183 231 279 323
#     4  10  20  37  57  79 111 149 189 228 272 333
#     4   9  18  34  56  84 115 144 179 226 285 344
#     4  10  20  36  57  78 106 146 187 223 268 333
#     4  10  20  34  55  84 112 139 181 235 281 325
#     4  10  20  34  53  76 107 145 187 229 270 320
#     4   9  18  34  58  82 108 146 185 226 279 337
#     4  10  20  35  53  75 107 148 184 217 271 336
#
# _framework density 19.531008
#
# number of rings (size 3 to 8) (size 9 to 14) (size 15 to 20)
#    0.000    2.125    1.250    2.250    0.000    6.000 
#    0.000    0.625    0.000    2.250    0.000    0.000 
#    0.000    0.000    0.000    0.000    0.000    0.000 
#
# Total GULP energy -793536.993318 kJ/mol
# GULP energy per Si atom -12399.015521 kJ/mol
# Density = 1.948655 g / cm^3
# Si number density = 19.531008 Si / 1000 Ang^3
#
#
#
# Elastic Constant Matrix: (Units=GPa)
#
#
# Indices 1 2 3 4 5 6 
#
# 1 36.5740 30.8618 29.1754 0.0000 0.0000 0.0000
# 2 30.8618 125.9707 63.9435 0.0000 0.0000 0.0000
# 3 29.1754 63.9435 122.4596 0.0000 0.0000 0.0000
# 4 0.0000 0.0000 0.0000 38.2885 0.0000 0.0000
# 5 0.0000 0.0000 0.0000 0.0000 17.7358 0.0000
# 6 0.0000 0.0000 0.0000 0.0000 0.0000 25.5150
#
#
#
# Elastic Compliance Matrix: (Units=1/GPa)
#
#
# Indices 1 2 3 4 5 6 
#
# 1 0.037057 -0.006255 -0.005563 0.000000 0.000000 0.000000
# 2 -0.006255 0.011857 -0.004701 0.000000 0.000000 0.000000
# 3 -0.005563 -0.004701 0.011946 0.000000 0.000000 0.000000
# 4 0.000000 0.000000 0.000000 0.026118 0.000000 0.000000
# 5 0.000000 0.000000 0.000000 0.000000 0.056383 0.000000
# 6 0.000000 0.000000 0.000000 0.000000 0.000000 0.039193
#
#
# Mechanical properties :
#
#
# Convention : Reuss Voigt Hill
#
# Bulk Modulus (GPa) = 35.94171 59.21841 47.58006
# Shear Modulus (GPa) = 22.23554 27.04277 24.63916
#
# Velocity S-wave (km/s) = 3.37779 3.72507 3.55567
# Velocity P-wave (km/s) = 5.80129 6.99196 6.42427
#
# Compressibility (1/GPa) = 0.02782282
#
# Stress axis : x y z
#
# Youngs Moduli (GPa) = 26.98527 84.33771 83.71080
#
# Poissons Ratio (x) = 0.52755 0.46564
# Poissons Ratio (y) = 0.16880 0.39353
# Poissons Ratio (z) = 0.15011 0.39647
#
# Static dielectric constant tensor:
#      x y z
#    x 3.281050 0.000000 0.000000 
#    y 0.000000 3.985750 0.000000 
#    z 0.000000 0.000000 3.597660 
# 
# 
# High freq. dielectric constant tensor:
#      x y z
#    x 1.720340 0.000000 0.000000 
#    y 0.000000 1.778210 0.000000 
#    z 0.000000 0.000000 1.761470 
# 
# From -- ./inp_files/21470.got.cif
#   From: 2010.03.12/outbox.cif.g09.slc.cpg/sg59_11_cif.got.tgz:21470.got - 2010.04.16 16:29:54.
