data_PCOD8243081
_publ_section_title
;
Structure prediction by ZEFSAII (Michael W. Deem and Ramdas Pophale) SiO2 
 PCOD8243081
Probable space group: P M M N
;
_chemical_formula_sum "Si O2"
_cell_formula_units_Z 56
_cell_length_a 14.036847
_cell_length_b 9.055166
_cell_length_c 22.640527
_cell_angle_alpha 90.000000
_cell_angle_beta 90.000000
_cell_angle_gamma 90.000000
_cell_volume 2877.746365
_symmetry_space_group_name_H-M "P M M N"
_symmetry_group_IT_number 59
_space_group.IT_coordinate_system_code '2'
_symmetry_cell_setting 'orthorhombic'
loop_
_space_group_symop_operation_xyz
x,y,z
1/2-x,1/2-y,z
1/2+x,-y,-z
-x,1/2+y,-z
-x,-y,-z
1/2+x,1/2+y,-z
1/2-x,y,z
x,1/2-y,z
loop_
_atom_site_type_symbol
_atom_site_label
_atom_site_fract_x
_atom_site_fract_y
_atom_site_fract_z
Si Si1 0.452038 0.922441 0.086351
Si Si2 0.091149 0.918173 0.524194
Si Si3 0.641502 0.920706 0.021413
Si Si4 0.359296 0.424707 0.195968
Si Si5 0.024890 0.422383 0.310382
Si Si6 0.146767 0.585506 0.397982
Si Si7 0.642917 0.918915 0.357887
O O1 0.433224 0.750000 0.093709
O O2 0.564007 0.955379 0.072652
O O3 0.424359 0.003066 0.146193
O O4 0.383156 0.980381 0.034886
O O5 0.068392 0.750000 0.543236
O O6 0.161707 0.924341 0.468378
O O7 0.137169 0.000446 0.579336
O O8 0.000000 0.000000 0.500000
O O9 0.750000 0.956194 0.042823
O O10 0.633038 0.750000 0.002139
O O11 0.250000 0.481288 0.193161
O O12 0.362560 0.250000 0.187865
O O13 0.405692 0.473728 0.257903
O O14 0.005517 0.250000 0.308225
O O15 0.072399 0.466257 0.372981
O O16 0.923622 0.505622 0.308041
O O17 0.250000 0.554293 0.369307
O O18 0.110542 0.750000 0.380654
O O19 0.750000 0.931053 0.333580
O O20 0.611814 0.750000 0.366935
#
# Coordination Sequence:
#
# PCOD8243081 Si02
#       7
#     8   8   8   8   8   8   8
#     4  10  20  33  54  86 117 148 192 238 276 322
#     4  11  21  35  57  84 113 145 180 222 277 336
#     4   9  18  34  55  80 116 158 191 226 277 331
#     4  10  22  40  59  81 112 149 185 224 278 339
#     4  11  23  39  60  82 107 142 186 235 280 330
#     4  10  21  36  55  80 111 143 175 219 276 334
#     4  11  24  41  60  82 110 146 186 229 281 341
#
# _framework density 19.459672000000001
#
# number of rings (size 3 to 8) (size 9 to 14) (size 15 to 20)
#    0.000    1.714    1.429    3.000    0.000    7.143 
#    0.000    0.714    0.000    2.571    0.000    0.000 
#    0.000    0.000    0.000    0.000    0.000    0.000 
#
# Total GULP energy -694286.533341 kJ/mol
# GULP energy per Si atom -12397.973810 kJ/mol
# Density = 1.941538 g / cm^3
# Si number density = 19.459672 Si / 1000 Ang^3
#
#
#
# Elastic Constant Matrix: (Units=GPa)
#
#
# Indices 1 2 3 4 5 6 
#
# 1 142.5642 50.8300 44.9216 0.0000 0.0000 0.0000
# 2 50.8300 86.3467 39.9730 0.0000 0.0000 0.0000
# 3 44.9216 39.9730 87.4001 0.0000 0.0000 0.0000
# 4 0.0000 0.0000 0.0000 32.4174 0.0000 0.0000
# 5 0.0000 0.0000 0.0000 0.0000 27.9864 0.0000
# 6 0.0000 0.0000 0.0000 0.0000 0.0000 29.7320
#
#
#
# Elastic Compliance Matrix: (Units=1/GPa)
#
#
# Indices 1 2 3 4 5 6 
#
# 1 0.009434 -0.004198 -0.002929 0.000000 0.000000 0.000000
# 2 -0.004198 0.016560 -0.005416 0.000000 0.000000 0.000000
# 3 -0.002929 -0.005416 0.015424 0.000000 0.000000 0.000000
# 4 0.000000 0.000000 0.000000 0.030848 0.000000 0.000000
# 5 0.000000 0.000000 0.000000 0.000000 0.035732 0.000000
# 6 0.000000 0.000000 0.000000 0.000000 0.000000 0.033634
#
#
# Mechanical properties :
#
#
# Convention : Reuss Voigt Hill
#
# Bulk Modulus (GPa) = 61.22888 65.30669 63.26779
# Shear Modulus (GPa) = 29.04270 30.06625 29.55447
#
# Velocity S-wave (km/s) = 3.86742 3.93498 3.90135
# Velocity P-wave (km/s) = 7.17464 7.36738 7.27165
#
# Compressibility (1/GPa) = 0.01633216
#
# Stress axis : x y z
#
# Youngs Moduli (GPa) = 106.00064 60.38813 64.83314
#
# Poissons Ratio (x) = 0.25348 0.18990
# Poissons Ratio (y) = 0.44494 0.35115
# Poissons Ratio (z) = 0.31048 0.32707
#
# Static dielectric constant tensor:
#      x y z
#    x 3.797330 0.000000 0.000000 
#    y 0.000000 3.701510 0.000000 
#    z 0.000000 0.000000 3.543320 
# 
# 
# High freq. dielectric constant tensor:
#      x y z
#    x 1.772230 0.000000 0.000000 
#    y 0.000000 1.763140 0.000000 
#    z 0.000000 0.000000 1.732640 
# 
# From -- ./inp_files/30327.got.cif
#   From: 2010.03.12/outbox.cif.g09.slc.cpg/sg59_16_cif.got.tgz:30327.got - 2010.04.16 16:29:54.
