data_PCOD8243712
_publ_section_title
;
Structure prediction by ZEFSAII (Michael W. Deem and Ramdas Pophale) SiO2 
 PCOD8243712
Probable space group: P M M N
;
_chemical_formula_sum "Si O2"
_cell_formula_units_Z 48
_cell_length_a 33.876334
_cell_length_b 9.106584
_cell_length_c 7.904085
_cell_angle_alpha 90.000000
_cell_angle_beta 90.000000
_cell_angle_gamma 90.000000
_cell_volume 2438.391894
_symmetry_space_group_name_H-M "P M M N"
_symmetry_group_IT_number 59
_space_group.IT_coordinate_system_code '2'
_symmetry_cell_setting 'orthorhombic'
loop_
_space_group_symop_operation_xyz
x,y,z
1/2-x,1/2-y,z
1/2+x,-y,-z
-x,1/2+y,-z
-x,-y,-z
1/2+x,1/2+y,-z
1/2-x,y,z
x,1/2-y,z
loop_
_atom_site_type_symbol
_atom_site_label
_atom_site_fract_x
_atom_site_fract_y
_atom_site_fract_z
Si Si1 0.921308 0.081103 0.698104
Si Si2 0.346880 0.420560 0.183064
Si Si3 0.497368 0.076291 0.179080
Si Si4 0.294184 0.424735 0.495306
Si Si5 0.418174 0.584208 0.689760
Si Si6 0.344995 0.080507 0.806290
O O1 0.928535 0.250000 0.751252
O O2 0.907216 0.067104 0.505853
O O3 0.887102 0.012825 0.813050
O O4 0.961236 0.990274 0.717436
O O5 0.357220 0.250000 0.214179
O O6 0.316474 0.477955 0.325339
O O7 0.327870 0.443492 0.996075
O O8 0.491586 0.250000 0.158861
O O9 0.536894 0.034897 0.280797
O O10 0.500000 0.000000 0.000000
O O11 0.250000 0.490292 0.491555
O O12 0.292378 0.250000 0.500661
O O13 0.315753 0.487327 0.664219
O O14 0.412682 0.750000 0.752643
O O15 0.388499 0.487333 0.798860
O O16 0.350418 0.250000 0.764654
#
# Coordination Sequence:
#
# PCOD8243712 Si02
#       6
#     8   8   8   8   8   8
#     4  11  22  37  57  81 110 149 192 235 283 332
#     4  10  20  35  57  85 114 149 190 231 281 338
#     4  11  23  38  55  80 113 149 191 237 282 333
#     4   9  18  34  56  84 117 147 180 230 285 336
#     4  10  22  38  56  79 110 149 190 232 281 332
#     4  10  20  34  57  85 112 147 188 229 278 335
#
# _framework density 19.685105
#
# number of rings (size 3 to 8) (size 9 to 14) (size 15 to 20)
#    0.000    1.833    1.667    2.500    0.000    6.000 
#    0.000    3.333    0.000    2.000    0.000    2.333 
#    0.000    0.000    0.000    0.000    0.000    0.000 
#
# Total GULP energy -595256.059792 kJ/mol
# GULP energy per Si atom -12401.167912 kJ/mol
# Density = 1.964030 g / cm^3
# Si number density = 19.685105 Si / 1000 Ang^3
#
#
#
# Elastic Constant Matrix: (Units=GPa)
#
#
# Indices 1 2 3 4 5 6 
#
# 1 140.9889 41.4079 58.8576 0.0000 0.0000 0.0000
# 2 41.4079 63.1494 35.3555 0.0000 0.0000 0.0000
# 3 58.8576 35.3555 126.6656 0.0000 0.0000 0.0000
# 4 0.0000 0.0000 0.0000 20.5495 0.0000 0.0000
# 5 0.0000 0.0000 0.0000 0.0000 23.5178 0.0000
# 6 0.0000 0.0000 0.0000 0.0000 0.0000 21.5216
#
#
#
# Elastic Compliance Matrix: (Units=1/GPa)
#
#
# Indices 1 2 3 4 5 6 
#
# 1 0.009811 -0.004600 -0.003275 0.000000 0.000000 0.000000
# 2 -0.004600 0.020925 -0.003703 0.000000 0.000000 0.000000
# 3 -0.003275 -0.003703 0.010450 0.000000 0.000000 0.000000
# 4 0.000000 0.000000 0.000000 0.048663 0.000000 0.000000
# 5 0.000000 0.000000 0.000000 0.000000 0.042521 0.000000
# 6 0.000000 0.000000 0.000000 0.000000 0.000000 0.046465
#
#
# Mechanical properties :
#
#
# Convention : Reuss Voigt Hill
#
# Bulk Modulus (GPa) = 55.46245 66.89399 61.17822
# Shear Modulus (GPa) = 24.03837 26.12995 25.08416
#
# Velocity S-wave (km/s) = 3.49828 3.64730 3.57357
# Velocity P-wave (km/s) = 6.67482 7.19673 6.94068
#
# Compressibility (1/GPa) = 0.01803022
#
# Stress axis : x y z
#
# Youngs Moduli (GPa) = 101.92869 47.79008 95.69131
#
# Poissons Ratio (x) = 0.21981 0.31338
# Poissons Ratio (y) = 0.46882 0.35438
# Poissons Ratio (z) = 0.33381 0.17699
#
# Static dielectric constant tensor:
#      x y z
#    x 3.773150 0.000000 0.000000 
#    y 0.000000 3.519290 0.000000 
#    z 0.000000 0.000000 3.822860 
# 
# 
# High freq. dielectric constant tensor:
#      x y z
#    x 1.762120 0.000000 0.000000 
#    y 0.000000 1.744540 0.000000 
#    z 0.000000 0.000000 1.783100 
# 
# From -- ./inp_files/12928.got.cif
#   From: 2010.03.12/outbox.cif.g09.slc.cpg/sg59_7_cif.got.tgz:12928.got - 2010.04.16 16:29:54.
