data_PCOD8243815
_publ_section_title
;
Structure prediction by ZEFSAII (Michael W. Deem and Ramdas Pophale) SiO2 
 PCOD8243815
Probable space group: P M M N
;
_chemical_formula_sum "Si O2"
_cell_formula_units_Z 64
_cell_length_a 13.616681
_cell_length_b 13.442809
_cell_length_c 18.705590
_cell_angle_alpha 90.000000
_cell_angle_beta 90.000000
_cell_angle_gamma 90.000000
_cell_volume 3423.991693
_symmetry_space_group_name_H-M "P M M N"
_symmetry_group_IT_number 59
_space_group.IT_coordinate_system_code '2'
_symmetry_cell_setting 'orthorhombic'
loop_
_space_group_symop_operation_xyz
x,y,z
1/2-x,1/2-y,z
1/2+x,-y,-z
-x,1/2+y,-z
-x,-y,-z
1/2+x,1/2+y,-z
1/2-x,y,z
x,1/2-y,z
loop_
_atom_site_type_symbol
_atom_site_label
_atom_site_fract_x
_atom_site_fract_y
_atom_site_fract_z
Si Si1 0.364606 0.051602 0.790970
Si Si2 0.859345 0.862767 0.813386
Si Si3 0.472817 0.634531 0.571225
Si Si4 0.135920 0.474704 0.501375
Si Si5 0.448640 0.637760 0.734321
Si Si6 0.862825 0.994817 0.949199
Si Si7 0.633626 0.639970 0.357626
Si Si8 0.459052 0.131698 0.932068
O O1 0.250000 0.073313 0.804508
O O2 0.405563 0.095698 0.716639
O O3 0.428318 0.103663 0.851893
O O4 0.382829 0.932978 0.784844
O O5 0.750000 0.886268 0.784135
O O6 0.865297 0.750000 0.842334
O O7 0.887663 0.934183 0.878082
O O8 0.935695 0.879973 0.749272
O O9 0.488244 0.750000 0.554518
O O10 0.577254 0.577717 0.562989
O O11 0.394939 0.589784 0.513660
O O12 0.430495 0.617747 0.650706
O O13 0.250000 0.464004 0.484335
O O14 0.099373 0.423272 0.574738
O O15 0.417535 0.750000 0.754320
O O16 0.750000 0.030195 0.952025
O O17 0.882145 0.922399 0.015956
O O18 0.931415 0.092489 0.950154
O O19 0.750000 0.641564 0.354829
O O20 0.590005 0.750000 0.366838
O O21 0.456154 0.250000 0.943023
#
# Coordination Sequence:
#
# PCOD8243815 Si02
#       8
#     8   8   8   8   8   8   8   8
#     4  11  21  35  53  80 114 146 184 226 271 323
#     4   9  17  32  56  80 104 140 184 226 268 318
#     4  10  21  35  54  80 109 144 183 227 278 333
#     4  10  20  35  54  79 109 141 180 228 278 331
#     4  10  20  35  54  80 113 144 180 224 274 331
#     4  10  21  38  59  84 114 148 185 228 276 326
#     4   9  17  30  50  74 102 139 180 221 266 318
#     4  11  23  38  59  86 115 148 187 231 276 325
#
# _framework density 18.691635000000002
#
# number of rings (size 3 to 8) (size 9 to 14) (size 15 to 20)
#    0.000    2.000    2.500    1.500    0.000    4.000 
#    0.000    2.500    0.000    1.500    0.000    0.000 
#    0.000    0.000    0.000    0.000    0.000    0.000 
#
# Total GULP energy -793508.191159 kJ/mol
# GULP energy per Si atom -12398.565487 kJ/mol
# Density = 1.864909 g / cm^3
# Si number density = 18.691635 Si / 1000 Ang^3
#
#
#
# Elastic Constant Matrix: (Units=GPa)
#
#
# Indices 1 2 3 4 5 6 
#
# 1 67.8853 24.2066 8.8355 0.0000 0.0000 0.0000
# 2 24.2066 80.3186 16.3123 0.0000 0.0000 0.0000
# 3 8.8355 16.3123 43.6357 0.0000 0.0000 0.0000
# 4 0.0000 0.0000 0.0000 27.6402 0.0000 0.0000
# 5 0.0000 0.0000 0.0000 0.0000 23.7503 0.0000
# 6 0.0000 0.0000 0.0000 0.0000 0.0000 21.4737
#
#
#
# Elastic Compliance Matrix: (Units=1/GPa)
#
#
# Indices 1 2 3 4 5 6 
#
# 1 0.016609 -0.004678 -0.001614 0.000000 0.000000 0.000000
# 2 -0.004678 0.014791 -0.004582 0.000000 0.000000 0.000000
# 3 -0.001614 -0.004582 0.024957 0.000000 0.000000 0.000000
# 4 0.000000 0.000000 0.000000 0.036179 0.000000 0.000000
# 5 0.000000 0.000000 0.000000 0.000000 0.042105 0.000000
# 6 0.000000 0.000000 0.000000 0.000000 0.000000 0.046569
#
#
# Mechanical properties :
#
#
# Convention : Reuss Voigt Hill
#
# Bulk Modulus (GPa) = 28.89493 32.28315 30.58904
# Shear Modulus (GPa) = 23.31075 24.07185 23.69130
#
# Velocity S-wave (km/s) = 3.53529 3.59254 3.56403
# Velocity P-wave (km/s) = 5.67069 5.87515 5.77383
#
# Compressibility (1/GPa) = 0.03460815
#
# Stress axis : x y z
#
# Youngs Moduli (GPa) = 60.20893 67.60955 40.06927
#
# Poissons Ratio (x) = 0.31626 0.06468
# Poissons Ratio (y) = 0.28164 0.18360
# Poissons Ratio (z) = 0.09720 0.30979
#
# Static dielectric constant tensor:
#      x y z
#    x 3.273450 0.000000 0.000000 
#    y 0.000000 3.527050 0.000000 
#    z 0.000000 0.000000 3.398470 
# 
# 
# High freq. dielectric constant tensor:
#      x y z
#    x 1.713210 0.000000 0.000000 
#    y 0.000000 1.730070 0.000000 
#    z 0.000000 0.000000 1.720490 
# 
# From -- ./inp_files/27681.got.cif
#   From: 2010.03.12/outbox.cif.g09.slc.cpg/sg59_14_cif.got.tgz:27681.got - 2010.04.16 16:29:54.
