data_PCOD8243490
_publ_section_title
;
Structure prediction by ZEFSAII (Michael W. Deem and Ramdas Pophale) SiO2 
 PCOD8243490
Probable space group: P M M N
;
_chemical_formula_sum "Si O2"
_cell_formula_units_Z 48
_cell_length_a 9.592297
_cell_length_b 8.874169
_cell_length_c 29.513725
_cell_angle_alpha 90.000000
_cell_angle_beta 90.000000
_cell_angle_gamma 90.000000
_cell_volume 2512.316430
_symmetry_space_group_name_H-M "P M M N"
_symmetry_group_IT_number 59
_space_group.IT_coordinate_system_code '2'
_symmetry_cell_setting 'orthorhombic'
loop_
_space_group_symop_operation_xyz
x,y,z
1/2-x,1/2-y,z
1/2+x,-y,-z
-x,1/2+y,-z
-x,-y,-z
1/2+x,1/2+y,-z
1/2-x,y,z
x,1/2-y,z
loop_
_atom_site_type_symbol
_atom_site_label
_atom_site_fract_x
_atom_site_fract_y
_atom_site_fract_z
Si Si1 0.909119 0.928643 0.126240
Si Si2 0.912547 0.429082 0.959532
Si Si3 0.507273 0.572388 0.393345
Si Si4 0.910405 0.426438 0.788835
Si Si5 0.750000 0.072762 0.447013
Si Si6 0.750000 0.072753 0.547829
Si Si7 0.587302 0.575772 0.695152
O O1 0.750000 0.993574 0.123186
O O2 0.902153 0.750000 0.125150
O O3 0.006896 0.986002 0.085338
O O4 0.985367 0.982944 0.171984
O O5 0.750000 0.483616 0.959212
O O6 0.917186 0.250000 0.963662
O O7 0.000000 0.500000 0.000000
O O8 0.534703 0.750000 0.394714
O O9 0.623333 0.480820 0.417987
O O10 0.377659 0.517938 0.422560
O O11 0.496346 0.521482 0.341415
O O12 0.750000 0.461368 0.802707
O O13 0.928680 0.250000 0.778997
O O14 0.955868 0.517822 0.744551
O O15 0.750000 0.250000 0.451644
O O16 0.750000 0.999304 0.497566
O O17 0.750000 0.250000 0.542294
O O18 0.750000 0.547858 0.687061
O O19 0.546504 0.750000 0.690655
#
# Coordination Sequence:
#
# PCOD8243490 Si02
#       7
#     8   8   8   8   4   4   8
#     4   9  17  31  52  78 107 140 182 231 280 332
#     4  10  20  34  54  81 113 150 192 237 284 335
#     4  11  21  38  60  84 111 147 189 230 273 330
#     4   9  17  31  53  77 100 132 176 225 273 328
#     4  11  23  39  55  83 119 149 179 227 284 333
#     4   9  20  37  61  85 111 143 187 233 274 325
#     4  10  20  35  56  82 109 141 181 227 280 335
#
# _framework density 19.105872999999999
#
# number of rings (size 3 to 8) (size 9 to 14) (size 15 to 20)
#    0.000    2.167    0.833    2.750    0.000    3.667 
#    1.500    3.333    0.000    3.000    0.000    0.000 
#    0.000    0.000    0.000    0.000    0.000    0.000 
#
# Total GULP energy -595037.312889 kJ/mol
# GULP energy per Si atom -12396.610685 kJ/mol
# Density = 1.906239 g / cm^3
# Si number density = 19.105873 Si / 1000 Ang^3
#
#
#
# Elastic Constant Matrix: (Units=GPa)
#
#
# Indices 1 2 3 4 5 6 
#
# 1 142.1051 25.4195 75.3469 0.0000 0.0000 0.0000
# 2 25.4195 44.4577 32.6322 0.0000 0.0000 0.0000
# 3 75.3469 32.6322 158.7412 0.0000 0.0000 0.0000
# 4 0.0000 0.0000 0.0000 27.7659 0.0000 0.0000
# 5 0.0000 0.0000 0.0000 0.0000 24.4778 0.0000
# 6 0.0000 0.0000 0.0000 0.0000 0.0000 22.4605
#
#
#
# Elastic Compliance Matrix: (Units=1/GPa)
#
#
# Indices 1 2 3 4 5 6 
#
# 1 0.009640 -0.002536 -0.004055 0.000000 0.000000 0.000000
# 2 -0.002536 0.027158 -0.004379 0.000000 0.000000 0.000000
# 3 -0.004055 -0.004379 0.009124 0.000000 0.000000 0.000000
# 4 0.000000 0.000000 0.000000 0.036015 0.000000 0.000000
# 5 0.000000 0.000000 0.000000 0.000000 0.040853 0.000000
# 6 0.000000 0.000000 0.000000 0.000000 0.000000 0.044523
#
#
# Mechanical properties :
#
#
# Convention : Reuss Voigt Hill
#
# Bulk Modulus (GPa) = 41.69607 68.01124 54.85365
# Shear Modulus (GPa) = 25.34890 29.06787 27.20839
#
# Velocity S-wave (km/s) = 3.64642 3.90476 3.77780
# Velocity P-wave (km/s) = 6.29282 7.48357 6.91388
#
# Compressibility (1/GPa) = 0.02398308
#
# Stress axis : x y z
#
# Youngs Moduli (GPa) = 103.72921 36.82219 109.59809
#
# Poissons Ratio (x) = 0.09338 0.44437
# Poissons Ratio (y) = 0.26306 0.47993
# Poissons Ratio (z) = 0.42057 0.16124
#
# Static dielectric constant tensor:
#      x y z
#    x 3.589260 0.000000 0.000000 
#    y 0.000000 3.234970 0.000000 
#    z 0.000000 0.000000 3.706940 
# 
# 
# High freq. dielectric constant tensor:
#      x y z
#    x 1.745560 0.000000 0.000000 
#    y 0.000000 1.717040 0.000000 
#    z 0.000000 0.000000 1.760080 
# 
# From -- ./inp_files/33065.got.cif
#   From: 2010.03.12/outbox.cif.g09.slc.cpg/sg59_17_cif.got.tgz:33065.got - 2010.04.16 16:29:54.
