data_PCOD8243675
_publ_section_title
;
Structure prediction by ZEFSAII (Michael W. Deem and Ramdas Pophale) SiO2 
 PCOD8243675
Probable space group: P M M N
;
_chemical_formula_sum "Si O2"
_cell_formula_units_Z 64
_cell_length_a 15.831092
_cell_length_b 8.971399
_cell_length_c 23.804710
_cell_angle_alpha 90.000000
_cell_angle_beta 90.000000
_cell_angle_gamma 90.000000
_cell_volume 3380.912569
_symmetry_space_group_name_H-M "P M M N"
_symmetry_group_IT_number 59
_space_group.IT_coordinate_system_code '2'
_symmetry_cell_setting 'orthorhombic'
loop_
_space_group_symop_operation_xyz
x,y,z
1/2-x,1/2-y,z
1/2+x,-y,-z
-x,1/2+y,-z
-x,-y,-z
1/2+x,1/2+y,-z
1/2-x,y,z
x,1/2-y,z
loop_
_atom_site_type_symbol
_atom_site_label
_atom_site_fract_x
_atom_site_fract_y
_atom_site_fract_z
Si Si1 0.501538 0.072934 0.735688
Si Si2 0.504644 0.074362 0.860979
Si Si3 0.156440 0.078012 0.661572
Si Si4 0.913993 0.422880 0.438783
Si Si5 0.343385 0.077331 0.077259
Si Si6 0.408882 0.577117 0.434481
Si Si7 0.074908 0.077825 0.968847
Si Si8 0.345434 0.423687 0.329498
O O1 0.510679 0.250000 0.734251
O O2 0.491195 0.008133 0.798887
O O3 0.416623 0.021320 0.703645
O O4 0.586310 0.005605 0.709238
O O5 0.509848 0.250000 0.854742
O O6 0.426473 0.025192 0.903008
O O7 0.592875 0.020615 0.886890
O O8 0.250000 0.057296 0.688793
O O9 0.141196 0.250000 0.645656
O O10 0.155657 0.978683 0.605148
O O11 0.936522 0.250000 0.429599
O O12 0.878503 0.449122 0.501588
O O13 0.995974 0.521577 0.426823
O O14 0.250000 0.037256 0.098380
O O15 0.365244 0.250000 0.088102
O O16 0.344656 0.045731 0.008943
O O17 0.405745 0.750000 0.417674
O O18 0.348516 0.486202 0.392961
O O19 0.052772 0.250000 0.967248
O O20 0.000000 0.000000 0.000000
O O21 0.250000 0.450710 0.306585
O O22 0.367535 0.250000 0.330314
#
# Coordination Sequence:
#
# PCOD8243675 Si02
#       8
#     8   8   8   8   8   8   8   8
#     4  10  21  38  57  77 105 143 184 227 274 323
#     4   9  18  32  51  73  98 133 177 216 255 308
#     4  10  21  37  57  80 106 139 180 226 277 329
#     4  10  20  34  56  84 111 139 175 219 271 330
#     4   9  17  29  47  74 106 136 167 207 257 310
#     4  10  20  35  56  82 111 142 175 217 271 329
#     4   8  14  27  46  68  95 126 160 199 243 293
#     4  11  24  39  56  80 109 143 184 227 272 324
#
# _framework density 18.929801000000001
#
# number of rings (size 3 to 8) (size 9 to 14) (size 15 to 20)
#    0.000    2.375    1.250    1.125    0.000    4.500 
#    0.000    5.625    0.000    3.750    0.000    0.000 
#    0.000    5.000    0.000    0.000    0.000    0.000 
#
# Total GULP energy -792951.360612 kJ/mol
# GULP energy per Si atom -12389.865010 kJ/mol
# Density = 1.888672 g / cm^3
# Si number density = 18.929801 Si / 1000 Ang^3
#
#
#
# Elastic Constant Matrix: (Units=GPa)
#
#
# Indices 1 2 3 4 5 6 
#
# 1 81.3770 18.4730 47.9520 0.0000 0.0000 0.0000
# 2 18.4730 35.0948 31.9330 0.0000 0.0000 0.0000
# 3 47.9520 31.9330 140.4749 0.0000 0.0000 0.0000
# 4 0.0000 0.0000 0.0000 22.2500 0.0000 0.0000
# 5 0.0000 0.0000 0.0000 0.0000 16.3860 0.0000
# 6 0.0000 0.0000 0.0000 0.0000 0.0000 22.2630
#
#
#
# Elastic Compliance Matrix: (Units=1/GPa)
#
#
# Indices 1 2 3 4 5 6 
#
# 1 0.015886 -0.004322 -0.004440 0.000000 0.000000 0.000000
# 2 -0.004322 0.037101 -0.006959 0.000000 0.000000 0.000000
# 3 -0.004440 -0.006959 0.010216 0.000000 0.000000 0.000000
# 4 0.000000 0.000000 0.000000 0.044944 0.000000 0.000000
# 5 0.000000 0.000000 0.000000 0.000000 0.061028 0.000000
# 6 0.000000 0.000000 0.000000 0.000000 0.000000 0.044918
#
#
# Mechanical properties :
#
#
# Convention : Reuss Voigt Hill
#
# Bulk Modulus (GPa) = 31.48435 50.40697 40.94566
# Shear Modulus (GPa) = 19.52203 22.75237 21.13720
#
# Velocity S-wave (km/s) = 3.21485 3.47065 3.34520
# Velocity P-wave (km/s) = 5.51802 6.53810 6.04960
#
# Compressibility (1/GPa) = 0.03176181
#
# Stress axis : x y z
#
# Youngs Moduli (GPa) = 62.94825 26.95365 97.88274
#
# Poissons Ratio (x) = 0.11648 0.43464
# Poissons Ratio (y) = 0.27204 0.68113
# Poissons Ratio (z) = 0.27952 0.18756
#
# Static dielectric constant tensor:
#      x y z
#    x 3.463160 0.000000 0.000000 
#    y 0.000000 3.417180 0.000000 
#    z 0.000000 0.000000 3.917340 
# 
# 
# High freq. dielectric constant tensor:
#      x y z
#    x 1.717530 0.000000 0.000000 
#    y 0.000000 1.731300 0.000000 
#    z 0.000000 0.000000 1.739120 
# 
# From -- ./inp_files/32334.got.cif
#   From: 2010.03.12/outbox.cif.g09.slc.cpg/sg59_17_cif.got.tgz:32334.got - 2010.04.16 16:29:54.
