data_PCOD8243459
_publ_section_title
;
Structure prediction by ZEFSAII (Michael W. Deem and Ramdas Pophale) SiO2 
 PCOD8243459
Probable space group: P M M N
;
_chemical_formula_sum "Si O2"
_cell_formula_units_Z 64
_cell_length_a 28.087694
_cell_length_b 9.193720
_cell_length_c 12.935534
_cell_angle_alpha 90.000000
_cell_angle_beta 90.000000
_cell_angle_gamma 90.000000
_cell_volume 3340.348042
_symmetry_space_group_name_H-M "P M M N"
_symmetry_group_IT_number 59
_space_group.IT_coordinate_system_code '2'
_symmetry_cell_setting 'orthorhombic'
loop_
_space_group_symop_operation_xyz
x,y,z
1/2-x,1/2-y,z
1/2+x,-y,-z
-x,1/2+y,-z
-x,-y,-z
1/2+x,1/2+y,-z
1/2-x,y,z
x,1/2-y,z
loop_
_atom_site_type_symbol
_atom_site_label
_atom_site_fract_x
_atom_site_fract_y
_atom_site_fract_z
Si Si1 0.635844 0.577556 0.575841
Si Si2 0.049861 0.585244 0.748663
Si Si3 0.854435 0.081042 0.366709
Si Si4 0.146982 0.419881 0.023561
Si Si5 0.194162 0.416607 0.815969
Si Si6 0.304014 0.423225 0.228551
Si Si7 0.544879 0.918864 0.045381
Si Si8 0.027681 0.082666 0.412019
O O1 0.640071 0.750000 0.560505
O O2 0.655548 0.499776 0.474008
O O3 0.667669 0.521492 0.671121
O O4 0.581748 0.528385 0.599122
O O5 0.053033 0.750000 0.791811
O O6 0.090513 0.557256 0.663658
O O7 0.057378 0.472751 0.840414
O O8 0.998514 0.557344 0.697254
O O9 0.841964 0.250000 0.379315
O O10 0.819943 0.013721 0.281229
O O11 0.158504 0.250000 0.022212
O O12 0.169312 0.484628 0.918200
O O13 0.090379 0.449238 0.027485
O O14 0.171035 0.489082 0.125590
O O15 0.250000 0.425424 0.833703
O O16 0.177626 0.250000 0.796653
O O17 0.250000 0.480684 0.234046
O O18 0.305653 0.250000 0.224860
O O19 0.532666 0.750000 0.050704
O O20 0.500000 0.000000 0.000000
O O21 0.026365 0.250000 0.444281
O O22 0.000000 0.000000 0.500000
#
# Coordination Sequence:
#
# PCOD8243459 Si02
#       8
#     8   8   8   8   8   8   8   8
#     4  10  21  35  57  85 114 150 194 240 284 337
#     4  10  21  37  56  79 113 153 191 233 284 340
#     4  11  22  37  57  82 117 154 189 234 289 349
#     4   9  18  34  58  85 113 146 185 232 285 337
#     4  10  20  36  60  88 114 142 187 242 290 343
#     4   9  18  34  57  84 111 142 186 239 290 334
#     4  11  23  37  57  85 119 153 186 228 282 345
#     4  10  20  34  54  80 111 147 189 233 277 333
#
# _framework density 19.159680000000002
#
# number of rings (size 3 to 8) (size 9 to 14) (size 15 to 20)
#    0.000    2.000    2.500    1.125    1.750    3.250 
#    0.000    1.250    0.000    0.750    0.000    0.000 
#    0.000    0.000    0.000    0.000    0.000    0.000 
#
# Total GULP energy -793734.412990 kJ/mol
# GULP energy per Si atom -12402.100203 kJ/mol
# Density = 1.911607 g / cm^3
# Si number density = 19.159680 Si / 1000 Ang^3
#
#
#
# Elastic Constant Matrix: (Units=GPa)
#
#
# Indices 1 2 3 4 5 6 
#
# 1 117.3922 39.9388 66.4258 0.0000 0.0000 0.0000
# 2 39.9388 59.6399 46.1096 0.0000 0.0000 0.0000
# 3 66.4258 46.1096 147.8087 0.0000 0.0000 0.0000
# 4 0.0000 0.0000 0.0000 21.8019 0.0000 0.0000
# 5 0.0000 0.0000 0.0000 0.0000 34.2378 0.0000
# 6 0.0000 0.0000 0.0000 0.0000 0.0000 24.5430
#
#
#
# Elastic Compliance Matrix: (Units=1/GPa)
#
#
# Indices 1 2 3 4 5 6 
#
# 1 0.012598 -0.005349 -0.003993 0.000000 0.000000 0.000000
# 2 -0.005349 0.024368 -0.005198 0.000000 0.000000 0.000000
# 3 -0.003993 -0.005198 0.010181 0.000000 0.000000 0.000000
# 4 0.000000 0.000000 0.000000 0.045868 0.000000 0.000000
# 5 0.000000 0.000000 0.000000 0.000000 0.029207 0.000000
# 6 0.000000 0.000000 0.000000 0.000000 0.000000 0.040745
#
#
# Mechanical properties :
#
#
# Convention : Reuss Voigt Hill
#
# Bulk Modulus (GPa) = 55.34791 69.97657 62.66224
# Shear Modulus (GPa) = 25.24376 27.60766 26.42571
#
# Velocity S-wave (km/s) = 3.63374 3.80007 3.71783
# Velocity P-wave (km/s) = 6.82318 7.47370 7.15584
#
# Compressibility (1/GPa) = 0.01806753
#
# Stress axis : x y z
#
# Youngs Moduli (GPa) = 79.38010 41.03728 98.21956
#
# Poissons Ratio (x) = 0.21952 0.39216
# Poissons Ratio (y) = 0.42463 0.51052
# Poissons Ratio (z) = 0.31694 0.21330
#
# Static dielectric constant tensor:
#      x y z
#    x 3.643660 0.000000 0.000000 
#    y 0.000000 3.302070 0.000000 
#    z 0.000000 0.000000 3.612040 
# 
# 
# High freq. dielectric constant tensor:
#      x y z
#    x 1.755520 0.000000 0.000000 
#    y 0.000000 1.712850 0.000000 
#    z 0.000000 0.000000 1.750980 
# 
# From -- ./inp_files/15009.got.cif
#   From: 2010.03.12/outbox.cif.g09.slc.cpg/sg59_8_cif.got.tgz:15009.got - 2010.04.16 16:29:54.
