data_PCOD8243599
_publ_section_title
;
Structure prediction by ZEFSAII (Michael W. Deem and Ramdas Pophale) SiO2 
 PCOD8243599
Probable space group: P M M N
;
_chemical_formula_sum "Si O2"
_cell_formula_units_Z 64
_cell_length_a 8.992296
_cell_length_b 15.871397
_cell_length_c 23.608859
_cell_angle_alpha 90.000000
_cell_angle_beta 90.000000
_cell_angle_gamma 90.000000
_cell_volume 3369.463433
_symmetry_space_group_name_H-M "P M M N"
_symmetry_group_IT_number 59
_space_group.IT_coordinate_system_code '2'
_symmetry_cell_setting 'orthorhombic'
loop_
_space_group_symop_operation_xyz
x,y,z
1/2-x,1/2-y,z
1/2+x,-y,-z
-x,1/2+y,-z
-x,-y,-z
1/2+x,1/2+y,-z
1/2-x,y,z
x,1/2-y,z
loop_
_atom_site_type_symbol
_atom_site_label
_atom_site_fract_x
_atom_site_fract_y
_atom_site_fract_z
Si Si1 0.074522 0.507618 0.263748
Si Si2 0.922138 0.656042 0.667147
Si Si3 0.577583 0.655733 0.333219
Si Si4 0.426541 0.995526 0.134866
Si Si5 0.078413 0.071733 0.964351
Si Si6 0.577417 0.839912 0.926815
Si Si7 0.922549 0.407299 0.562976
Si Si8 0.077156 0.916061 0.565060
O O1 0.250000 0.518351 0.267758
O O2 0.025539 0.416957 0.289340
O O3 0.019053 0.511637 0.199164
O O4 0.002175 0.585996 0.295450
O O5 0.750000 0.642958 0.651254
O O6 0.946836 0.750000 0.693447
O O7 0.019914 0.652040 0.610039
O O8 0.750000 0.632660 0.336241
O O9 0.553403 0.750000 0.308132
O O10 0.510889 0.656190 0.396625
O O11 0.250000 0.989544 0.129680
O O12 0.498151 0.920078 0.097036
O O13 0.491986 0.083318 0.109261
O O14 0.250000 0.049626 0.954234
O O15 0.059039 0.153041 0.004689
O O16 0.000000 0.000000 0.000000
O O17 0.750000 0.839220 0.911054
O O18 0.505159 0.750000 0.908943
O O19 0.750000 0.405204 0.579283
O O20 0.949014 0.379866 0.498027
O O21 0.981097 0.500747 0.574831
O O22 0.250000 0.937156 0.574752
#
# Coordination Sequence:
#
# PCOD8243599 Si02
#       8
#     8   8   8   8   8   8   8   8
#     4  10  21  38  58  80 109 147 188 232 280 330
#     4  10  21  36  55  81 113 149 188 229 276 333
#     4  11  24  40  59  83 108 139 184 236 287 337
#     4   9  18  32  52  76 102 136 179 220 261 316
#     4   9  16  28  48  73 101 134 169 207 253 304
#     4   8  14  26  47  76 106 134 167 209 254 303
#     4  10  20  35  57  83 110 141 179 225 281 340
#     4  10  20  34  55  83 113 145 180 222 276 338
#
# _framework density 18.994122000000001
#
# number of rings (size 3 to 8) (size 9 to 14) (size 15 to 20)
#    0.000    2.375    1.250    2.250    0.000    4.250 
#    0.000    5.625    0.000   11.625    0.000    3.500 
#    0.000    0.000    0.000    0.000    0.000    0.000 
#
# Total GULP energy -793172.746127 kJ/mol
# GULP energy per Si atom -12393.324158 kJ/mol
# Density = 1.895089 g / cm^3
# Si number density = 18.994122 Si / 1000 Ang^3
#
#
#
# Elastic Constant Matrix: (Units=GPa)
#
#
# Indices 1 2 3 4 5 6 
#
# 1 49.1153 26.0769 41.0432 0.0000 0.0000 0.0000
# 2 26.0769 88.1540 43.8298 0.0000 0.0000 0.0000
# 3 41.0432 43.8298 128.1690 0.0000 0.0000 0.0000
# 4 0.0000 0.0000 0.0000 14.6068 0.0000 0.0000
# 5 0.0000 0.0000 0.0000 0.0000 30.0088 0.0000
# 6 0.0000 0.0000 0.0000 0.0000 0.0000 21.5766
#
#
#
# Elastic Compliance Matrix: (Units=1/GPa)
#
#
# Indices 1 2 3 4 5 6 
#
# 1 0.029420 -0.004842 -0.007765 0.000000 0.000000 0.000000
# 2 -0.004842 0.014464 -0.003396 0.000000 0.000000 0.000000
# 3 -0.007765 -0.003396 0.011450 0.000000 0.000000 0.000000
# 4 0.000000 0.000000 0.000000 0.068461 0.000000 0.000000
# 5 0.000000 0.000000 0.000000 0.000000 0.033324 0.000000
# 6 0.000000 0.000000 0.000000 0.000000 0.000000 0.046346
#
#
# Mechanical properties :
#
#
# Convention : Reuss Voigt Hill
#
# Bulk Modulus (GPa) = 42.86600 54.14866 48.50733
# Shear Modulus (GPa) = 20.55510 23.53766 22.04638
#
# Velocity S-wave (km/s) = 3.29322 3.52406 3.41059
# Velocity P-wave (km/s) = 6.08913 6.71779 6.41117
#
# Compressibility (1/GPa) = 0.02332851
#
# Stress axis : x y z
#
# Youngs Moduli (GPa) = 33.99036 69.13480 87.33489
#
# Poissons Ratio (x) = 0.33474 0.67819
# Poissons Ratio (y) = 0.16458 0.29658
# Poissons Ratio (z) = 0.26395 0.23478
#
# Static dielectric constant tensor:
#      x y z
#    x 3.436880 0.000000 0.000000 
#    y 0.000000 3.515950 0.000000 
#    z 0.000000 0.000000 3.716730 
# 
# 
# High freq. dielectric constant tensor:
#      x y z
#    x 1.727630 0.000000 0.000000 
#    y 0.000000 1.725020 0.000000 
#    z 0.000000 0.000000 1.735150 
# 
# From -- ./inp_files/31422.got.cif
#   From: 2010.03.12/outbox.cif.g09.slc.cpg/sg59_16_cif.got.tgz:31422.got - 2010.04.16 16:29:54.
