data_PCOD8243864
_publ_section_title
;
Structure prediction by ZEFSAII (Michael W. Deem and Ramdas Pophale) SiO2 
 PCOD8243864
Probable space group: P M M N
;
_chemical_formula_sum "Si O2"
_cell_formula_units_Z 40
_cell_length_a 8.983754
_cell_length_b 25.353817
_cell_length_c 9.219180
_cell_angle_alpha 90.000000
_cell_angle_beta 90.000000
_cell_angle_gamma 90.000000
_cell_volume 2099.875261
_symmetry_space_group_name_H-M "P M M N"
_symmetry_group_IT_number 59
_space_group.IT_coordinate_system_code '2'
_symmetry_cell_setting 'orthorhombic'
loop_
_space_group_symop_operation_xyz
x,y,z
1/2-x,1/2-y,z
1/2+x,-y,-z
-x,1/2+y,-z
-x,-y,-z
1/2+x,1/2+y,-z
1/2-x,y,z
x,1/2-y,z
loop_
_atom_site_type_symbol
_atom_site_label
_atom_site_fract_x
_atom_site_fract_y
_atom_site_fract_z
Si Si1 0.924847 0.843759 0.338166
Si Si2 0.074500 0.750000 0.838361
Si Si3 0.924209 0.441176 0.150126
Si Si4 0.923108 0.940339 0.143381
Si Si5 0.574339 0.347843 0.354000
Si Si6 0.572351 0.250000 0.834104
O O1 0.750000 0.831305 0.333943
O O2 0.962091 0.901588 0.275200
O O3 0.981905 0.841315 0.500843
O O4 0.011455 0.801622 0.243192
O O5 0.250000 0.750000 0.848933
O O6 0.020390 0.698088 0.754048
O O7 0.010556 0.750000 0.001308
O O8 0.750000 0.437640 0.123743
O O9 0.977022 0.500731 0.186915
O O10 0.970275 0.403682 0.282885
O O11 0.997252 0.420502 0.002122
O O12 0.750000 0.940393 0.108177
O O13 0.750000 0.343913 0.387626
O O14 0.750000 0.250000 0.825670
#
# Coordination Sequence:
#
# PCOD8243864 Si02
#       6
#     8   4   8   8   8   4
#     4  11  23  37  53  79 114 145 175 217 272 327
#     4   9  19  35  56  80 102 129 172 225 270 310
#     4   9  18  34  56  80 106 142 189 232 268 313
#     4   9  19  35  54  78 110 145 182 227 274 319
#     4  10  20  35  55  79 108 142 182 225 267 316
#     4  11  22  39  62  82 102 135 180 223 266 320
#
# _framework density 19.048750999999999
#
# number of rings (size 3 to 8) (size 9 to 14) (size 15 to 20)
#    0.000    2.200    0.000    2.700    0.000    5.600 
#    0.000    2.000    0.000    0.000    0.000    0.000 
#    0.000    0.000    0.000    0.000    0.000    0.000 
#
# Total GULP energy -496074.532989 kJ/mol
# GULP energy per Si atom -12401.863325 kJ/mol
# Density = 1.900540 g / cm^3
# Si number density = 19.048751 Si / 1000 Ang^3
#
#
#
# Elastic Constant Matrix: (Units=GPa)
#
#
# Indices 1 2 3 4 5 6 
#
# 1 54.5895 43.1145 51.3262 0.0000 0.0000 0.0000
# 2 43.1145 121.5551 79.6851 0.0000 0.0000 0.0000
# 3 51.3262 79.6851 166.6062 0.0000 0.0000 0.0000
# 4 0.0000 0.0000 0.0000 -88.3628 0.0000 0.0000
# 5 0.0000 0.0000 0.0000 0.0000 32.5253 0.0000
# 6 0.0000 0.0000 0.0000 0.0000 0.0000 19.9436
#
#
#
# Elastic Compliance Matrix: (Units=1/GPa)
#
#
# Indices 1 2 3 4 5 6 
#
# 1 0.028863 -0.006422 -0.005820 0.000000 0.000000 0.000000
# 2 -0.006422 0.013413 -0.004437 0.000000 0.000000 0.000000
# 3 -0.005820 -0.004437 0.009917 0.000000 0.000000 0.000000
# 4 0.000000 0.000000 0.000000 -0.011317 0.000000 0.000000
# 5 0.000000 0.000000 0.000000 0.000000 0.030745 0.000000
# 6 0.000000 0.000000 0.000000 0.000000 0.000000 0.050141
#
#
# Mechanical properties :
#
#
# Convention : Reuss Voigt Hill
#
# Bulk Modulus (GPa) = 53.09221 76.77805 64.93513
# Shear Modulus (GPa) = 30.97900 4.06287 17.52093
#
# Velocity S-wave (km/s) = 4.03712 1.46202 3.03610
# Velocity P-wave (km/s) = 7.04722 6.57599 6.81568
#
# Compressibility (1/GPa) = 0.01883516
#
# Stress axis : x y z
#
# Youngs Moduli (GPa) = 34.64656 74.55389 100.83391
#
# Poissons Ratio (x) = 0.47878 0.58688
# Poissons Ratio (y) = 0.22250 0.44739
# Poissons Ratio (z) = 0.20165 0.33079
#
# Static dielectric constant tensor:
#      x y z
#    x 3.356370 0.000000 0.000000 
#    y 0.000000 3.986880 0.000000 
#    z 0.000000 0.000000 3.514710 
# 
# 
# High freq. dielectric constant tensor:
#      x y z
#    x 1.727960 0.000000 0.000000 
#    y 0.000000 1.756960 0.000000 
#    z 0.000000 0.000000 1.742980 
# 
# From -- ./inp_files/5958.got.cif
#   From: 2010.03.12/outbox.cif.g09.slc.cpg/sg59_3_cif.got.tgz:5958.got - 2010.04.16 16:29:54.
