data_PCOD8243668
_publ_section_title
;
Structure prediction by ZEFSAII (Michael W. Deem and Ramdas Pophale) SiO2 
 PCOD8243668
Probable space group: P M M N
;
_chemical_formula_sum "Si O2"
_cell_formula_units_Z 56
_cell_length_a 14.912732
_cell_length_b 8.725098
_cell_length_c 21.393589
_cell_angle_alpha 90.000000
_cell_angle_beta 90.000000
_cell_angle_gamma 90.000000
_cell_volume 2783.627863
_symmetry_space_group_name_H-M "P M M N"
_symmetry_group_IT_number 59
_space_group.IT_coordinate_system_code '2'
_symmetry_cell_setting 'orthorhombic'
loop_
_space_group_symop_operation_xyz
x,y,z
1/2-x,1/2-y,z
1/2+x,-y,-z
-x,1/2+y,-z
-x,-y,-z
1/2+x,1/2+y,-z
1/2-x,y,z
x,1/2-y,z
loop_
_atom_site_type_symbol
_atom_site_label
_atom_site_fract_x
_atom_site_fract_y
_atom_site_fract_z
Si Si1 0.996991 0.928736 0.774990
Si Si2 0.850381 0.422231 0.694208
Si Si3 0.508417 0.429789 0.909062
Si Si4 0.848347 0.076080 0.316536
Si Si5 0.411766 0.426883 0.565889
Si Si6 0.399270 0.074444 0.428093
Si Si7 0.352944 0.068658 0.001083
O O1 0.001676 0.750000 0.791929
O O2 0.081604 0.984471 0.734409
O O3 0.908368 0.961276 0.734983
O O4 0.998417 0.027698 0.837146
O O5 0.750000 0.428620 0.720730
O O6 0.889244 0.250000 0.699828
O O7 0.847687 0.469566 0.621367
O O8 0.520460 0.250000 0.917176
O O9 0.416071 0.484638 0.943033
O O10 0.598222 0.507347 0.936691
O O11 0.750000 0.066852 0.285771
O O12 0.872487 0.250000 0.335943
O O13 0.845567 0.969304 0.377956
O O14 0.442307 0.250000 0.570121
O O15 0.495732 0.538466 0.574260
O O16 0.364043 0.456837 0.498777
O O17 0.383688 0.250000 0.408806
O O18 0.250000 0.004729 0.994783
O O19 0.348608 0.250000 0.005436
#
# Coordination Sequence:
#
# PCOD8243668 Si02
#       7
#     8   8   8   8   8   8   8
#     4  11  23  40  61  84 116 158 198 237 285 342
#     4  11  24  40  59  84 113 148 193 245 298 350
#     4  10  21  37  60  90 122 156 193 236 285 333
#     4  10  22  39  58  82 113 150 193 241 294 350
#     4  10  20  34  56  83 111 145 189 239 294 353
#     4  10  20  35  56  82 111 146 187 237 297 357
#     4   9  19  38  63  91 123 157 194 234 277 330
#
# _framework density 20.117630999999999
#
# number of rings (size 3 to 8) (size 9 to 14) (size 15 to 20)
#    0.000    1.857    1.429    2.143    0.000    6.286 
#    0.000    2.857    0.000    0.000    0.000    0.000 
#    0.000    0.000    0.000    0.000    0.000    0.000 
#
# Total GULP energy -694371.251542 kJ/mol
# GULP energy per Si atom -12399.486635 kJ/mol
# Density = 2.007184 g / cm^3
# Si number density = 20.117631 Si / 1000 Ang^3
#
#
#
# Elastic Constant Matrix: (Units=GPa)
#
#
# Indices 1 2 3 4 5 6 
#
# 1 123.7694 20.9249 48.6834 0.0000 0.0000 0.0000
# 2 20.9249 35.2834 15.7084 0.0000 0.0000 0.0000
# 3 48.6834 15.7084 117.6326 0.0000 0.0000 0.0000
# 4 0.0000 0.0000 0.0000 30.3733 0.0000 0.0000
# 5 0.0000 0.0000 0.0000 0.0000 -8.3619 0.0000
# 6 0.0000 0.0000 0.0000 0.0000 0.0000 24.6162
#
#
#
# Elastic Compliance Matrix: (Units=1/GPa)
#
#
# Indices 1 2 3 4 5 6 
#
# 1 0.010272 -0.004465 -0.003655 0.000000 0.000000 0.000000
# 2 -0.004465 0.032074 -0.002435 0.000000 0.000000 0.000000
# 3 -0.003655 -0.002435 0.010339 0.000000 0.000000 0.000000
# 4 0.000000 0.000000 0.000000 0.032924 0.000000 0.000000
# 5 0.000000 0.000000 0.000000 0.000000 -0.119590 0.000000
# 6 0.000000 0.000000 0.000000 0.000000 0.000000 0.040624
#
#
# Mechanical properties :
#
#
# Convention : Reuss Voigt Hill
#
# Bulk Modulus (GPa) = 31.67066 49.70208 40.68637
# Shear Modulus (GPa) = 130.62714 22.08344 76.35529
#
# Velocity S-wave (km/s) = 8.06676 3.31677 6.16740
# Velocity P-wave (km/s) = 10.12622 6.27912 8.42519
#
# Compressibility (1/GPa) = 0.03157496
#
# Stress axis : x y z
#
# Youngs Moduli (GPa) = 97.35208 31.17794 96.72211
#
# Poissons Ratio (x) = 0.13920 0.35352
# Poissons Ratio (y) = 0.43464 0.23555
# Poissons Ratio (z) = 0.35582 0.07593
#
# Static dielectric constant tensor:
#      x y z
#    x 3.634660 0.000000 0.000000 
#    y 0.000000 3.590540 0.000000 
#    z 0.000000 0.000000 3.639680 
# 
# 
# High freq. dielectric constant tensor:
#      x y z
#    x 1.781760 0.000000 0.000000 
#    y 0.000000 1.786710 0.000000 
#    z 0.000000 0.000000 1.779800 
# 
# From -- ./inp_files/29133.got.cif
#   From: 2010.03.12/outbox.cif.g09.slc.cpg/sg59_15_cif.got.tgz:29133.got - 2010.04.16 16:29:54.
