data_PCOD8243580
_publ_section_title
;
Structure prediction by ZEFSAII (Michael W. Deem and Ramdas Pophale) SiO2 
 PCOD8243580
Probable space group: P M M N
;
_chemical_formula_sum "Si O2"
_cell_formula_units_Z 64
_cell_length_a 9.127401
_cell_length_b 24.923867
_cell_length_c 13.773137
_cell_angle_alpha 90.000000
_cell_angle_beta 90.000000
_cell_angle_gamma 90.000000
_cell_volume 3133.252707
_symmetry_space_group_name_H-M "P M M N"
_symmetry_group_IT_number 59
_space_group.IT_coordinate_system_code '2'
_symmetry_cell_setting 'orthorhombic'
loop_
_space_group_symop_operation_xyz
x,y,z
1/2-x,1/2-y,z
1/2+x,-y,-z
-x,1/2+y,-z
-x,-y,-z
1/2+x,1/2+y,-z
1/2-x,y,z
x,1/2-y,z
loop_
_atom_site_type_symbol
_atom_site_label
_atom_site_fract_x
_atom_site_fract_y
_atom_site_fract_z
Si Si1 0.575153 0.093499 0.049841
Si Si2 0.577084 0.906524 0.148730
Si Si3 0.576748 0.312414 0.737846
Si Si4 0.405770 0.190086 0.351060
Si Si5 0.578510 0.043615 0.437962
Si Si6 0.578844 0.479402 0.225468
Si Si7 0.077091 0.188366 0.142105
Si Si8 0.080147 0.842497 0.475135
O O1 0.750000 0.091963 0.038128
O O2 0.514557 0.053611 0.134113
O O3 0.520946 0.153995 0.068789
O O4 0.498464 0.075273 0.950845
O O5 0.750000 0.897370 0.133907
O O6 0.506786 0.851363 0.188151
O O7 0.545410 0.956776 0.220282
O O8 0.750000 0.323241 0.746159
O O9 0.540302 0.250000 0.760435
O O10 0.516766 0.327187 0.630159
O O11 0.250000 0.162770 0.381752
O O12 0.370793 0.250000 0.317155
O O13 0.467050 0.165461 0.250198
O O14 0.514960 0.194106 0.440705
O O15 0.750000 0.031901 0.436991
O O16 0.515576 0.043149 0.327830
O O17 0.538735 0.097983 0.492745
O O18 0.500000 0.000000 0.500000
O O19 0.750000 0.468599 0.223534
O O20 0.250000 0.179427 0.123472
O O21 0.032329 0.250000 0.124070
O O22 0.250000 0.830662 0.473251
#
# Coordination Sequence:
#
# PCOD8243580 Si02
#       8
#     8   8   8   8   8   8   8   8
#     4  11  22  38  61  86 112 145 188 239 296 351
#     4  11  23  40  61  83 110 146 190 239 293 349
#     4  10  22  40  59  82 115 153 195 242 288 338
#     4   9  18  32  51  77 109 143 178 218 265 320
#     4  10  20  35  55  82 115 148 184 223 269 327
#     4   9  20  38  59  85 118 152 186 233 288 344
#     4   9  19  36  55  79 115 153 188 230 280 337
#     4  10  20  34  55  82 112 147 185 227 275 328
#
# _framework density 20.426055999999999
#
# number of rings (size 3 to 8) (size 9 to 14) (size 15 to 20)
#    0.000    2.125    0.000    3.750    0.000    4.250 
#    0.000    5.000    0.000    0.000    0.000    0.000 
#    0.000    0.000    0.000    0.000    0.000    0.000 
#
# Total GULP energy -793211.808036 kJ/mol
# GULP energy per Si atom -12393.934501 kJ/mol
# Density = 2.037957 g / cm^3
# Si number density = 20.426056 Si / 1000 Ang^3
#
#
#
# Elastic Constant Matrix: (Units=GPa)
#
#
# Indices 1 2 3 4 5 6 
#
# 1 40.2188 45.8606 26.6992 0.0000 0.0000 0.0000
# 2 45.8606 82.9989 27.7922 0.0000 0.0000 0.0000
# 3 26.6992 27.7922 87.2081 0.0000 0.0000 0.0000
# 4 0.0000 0.0000 0.0000 30.9006 0.0000 0.0000
# 5 0.0000 0.0000 0.0000 0.0000 32.5253 0.0000
# 6 0.0000 0.0000 0.0000 0.0000 0.0000 28.7485
#
#
#
# Elastic Compliance Matrix: (Units=1/GPa)
#
#
# Indices 1 2 3 4 5 6 
#
# 1 0.075602 -0.038088 -0.011008 0.000000 0.000000 0.000000
# 2 -0.038088 0.032676 0.001247 0.000000 0.000000 0.000000
# 3 -0.011008 0.001247 0.014439 0.000000 0.000000 0.000000
# 4 0.000000 0.000000 0.000000 0.032362 0.000000 0.000000
# 5 0.000000 0.000000 0.000000 0.000000 0.030745 0.000000
# 6 0.000000 0.000000 0.000000 0.000000 0.000000 0.034784
#
#
# Mechanical properties :
#
#
# Convention : Reuss Voigt Hill
#
# Bulk Modulus (GPa) = 37.00826 45.68111 41.34468
# Shear Modulus (GPa) = 15.36985 25.77313 20.57149
#
# Velocity S-wave (km/s) = 2.74608 3.55600 3.17696
# Velocity P-wave (km/s) = 5.31151 6.26681 5.80883
#
# Compressibility (1/GPa) = 0.02702100
#
# Stress axis : x y z
#
# Youngs Moduli (GPa) = 13.22713 30.60372 69.25470
#
# Poissons Ratio (x) = 1.16562 0.76235
# Poissons Ratio (y) = 0.50379 -0.08638
# Poissons Ratio (z) = 0.14560 -0.03817
#
# Static dielectric constant tensor:
#      x y z
#    x 3.360660 0.000000 0.000000 
#    y 0.000000 3.538860 0.000000 
#    z 0.000000 0.000000 3.862340 
# 
# 
# High freq. dielectric constant tensor:
#      x y z
#    x 1.779170 0.000000 0.000000 
#    y 0.000000 1.803320 0.000000 
#    z 0.000000 0.000000 1.806870 
# 
# From -- ./inp_files/21617.got.cif
#   From: 2010.03.12/outbox.cif.g09.slc.cpg/sg59_11_cif.got.tgz:21617.got - 2010.04.16 16:29:54.
