data_PCOD8243099
_publ_section_title
;
Structure prediction by ZEFSAII (Michael W. Deem and Ramdas Pophale) SiO2 
 PCOD8243099
Probable space group: P M M N
;
_chemical_formula_sum "Si O2"
_cell_formula_units_Z 64
_cell_length_a 29.301786
_cell_length_b 9.007920
_cell_length_c 13.913734
_cell_angle_alpha 90.000000
_cell_angle_beta 90.000000
_cell_angle_gamma 90.000000
_cell_volume 3672.504267
_symmetry_space_group_name_H-M "P M M N"
_symmetry_group_IT_number 59
_space_group.IT_coordinate_system_code '2'
_symmetry_cell_setting 'orthorhombic'
loop_
_space_group_symop_operation_xyz
x,y,z
1/2-x,1/2-y,z
1/2+x,-y,-z
-x,1/2+y,-z
-x,-y,-z
1/2+x,1/2+y,-z
1/2-x,y,z
x,1/2-y,z
loop_
_atom_site_type_symbol
_atom_site_label
_atom_site_fract_x
_atom_site_fract_y
_atom_site_fract_z
Si Si1 0.149045 0.083936 0.831142
Si Si2 0.883056 0.426329 0.874698
Si Si3 0.423905 0.427052 0.296538
Si Si4 0.937896 0.582178 0.032093
Si Si5 0.987918 0.084475 0.183469
Si Si6 0.198583 0.922096 0.990116
Si Si7 0.049733 0.927948 0.489310
Si Si8 0.901365 0.415585 0.319236
O O1 0.165667 0.250000 0.812575
O O2 0.103886 0.076679 0.894714
O O3 0.188986 0.001068 0.888685
O O4 0.139436 0.012730 0.726325
O O5 0.887822 0.250000 0.863729
O O6 0.883654 0.505966 0.770427
O O7 0.925542 0.489275 0.936769
O O8 0.835500 0.473591 0.925139
O O9 0.419004 0.250000 0.308523
O O10 0.471240 0.477890 0.247963
O O11 0.422836 0.507185 0.399014
O O12 0.949153 0.750000 0.001556
O O13 0.981640 0.511349 0.086303
O O14 0.999682 0.250000 0.149128
O O15 0.943187 0.082694 0.246850
O O16 0.250000 0.958598 0.023616
O O17 0.190989 0.750000 0.969836
O O18 0.044160 0.750000 0.484052
O O19 0.081037 0.977542 0.579091
O O20 0.000000 0.000000 0.500000
O O21 0.882161 0.250000 0.332180
#
# Coordination Sequence:
#
# PCOD8243099 Si02
#       8
#     8   8   8   8   8   8   8   8
#     4   9  17  28  46  75 103 127 158 199 245 293
#     4  10  20  34  50  70  96 128 163 202 248 300
#     4  11  22  35  48  67  96 131 171 215 255 294
#     4   9  17  29  45  66  92 125 163 202 243 289
#     4   9  17  30  45  63  89 126 168 206 244 288
#     4   9  18  34  56  79 103 131 161 195 241 302
#     4  11  21  34  51  72  97 131 176 221 259 293
#     4   9  17  31  48  67  95 131 168 206 249 293
#
# _framework density 17.426801999999999
#
# number of rings (size 3 to 8) (size 9 to 14) (size 15 to 20)
#    0.000    2.375    1.250    1.875    0.000    6.250 
#    0.000    0.000    0.000    0.000    0.000    0.875 
#    0.000    3.000    0.000    0.000    0.000    0.000 
#
# Total GULP energy -793469.987469 kJ/mol
# GULP energy per Si atom -12397.968554 kJ/mol
# Density = 1.738714 g / cm^3
# Si number density = 17.426802 Si / 1000 Ang^3
#
#
#
# Elastic Constant Matrix: (Units=GPa)
#
#
# Indices 1 2 3 4 5 6 
#
# 1 43.3459 23.9404 31.1885 0.0000 0.0000 0.0000
# 2 23.9404 85.6608 49.8139 0.0000 0.0000 0.0000
# 3 31.1885 49.8139 122.1312 0.0000 0.0000 0.0000
# 4 0.0000 0.0000 0.0000 28.3863 0.0000 0.0000
# 5 0.0000 0.0000 0.0000 0.0000 15.4684 0.0000
# 6 0.0000 0.0000 0.0000 0.0000 0.0000 16.8895
#
#
#
# Elastic Compliance Matrix: (Units=1/GPa)
#
#
# Indices 1 2 3 4 5 6 
#
# 1 0.029891 -0.005132 -0.005540 0.000000 0.000000 0.000000
# 2 -0.005132 0.016185 -0.005291 0.000000 0.000000 0.000000
# 3 -0.005540 -0.005291 0.011761 0.000000 0.000000 0.000000
# 4 0.000000 0.000000 0.000000 0.035228 0.000000 0.000000
# 5 0.000000 0.000000 0.000000 0.000000 0.064648 0.000000
# 6 0.000000 0.000000 0.000000 0.000000 0.000000 0.059208
#
#
# Mechanical properties :
#
#
# Convention : Reuss Voigt Hill
#
# Bulk Modulus (GPa) = 38.59422 51.22483 44.90953
# Shear Modulus (GPa) = 19.41870 21.89519 20.65694
#
# Velocity S-wave (km/s) = 3.34174 3.54843 3.44663
# Velocity P-wave (km/s) = 6.08968 6.80048 6.45487
#
# Compressibility (1/GPa) = 0.02591062
#
# Stress axis : x y z
#
# Youngs Moduli (GPa) = 33.45489 61.78541 85.02977
#
# Poissons Ratio (x) = 0.31710 0.47105
# Poissons Ratio (y) = 0.17170 0.44987
# Poissons Ratio (z) = 0.18534 0.32689
#
# Static dielectric constant tensor:
#      x y z
#    x 2.993290 0.000000 0.000000 
#    y 0.000000 3.393160 0.000000 
#    z 0.000000 0.000000 3.359720 
# 
# 
# High freq. dielectric constant tensor:
#      x y z
#    x 1.632660 0.000000 0.000000 
#    y 0.000000 1.681620 0.000000 
#    z 0.000000 0.000000 1.672340 
# 
# From -- ./inp_files/25057.got.cif
#   From: 2010.03.12/outbox.cif.g09.slc.cpg/sg59_13_cif.got.tgz:25057.got - 2010.04.16 16:29:54.
