data_PCOD8243795
_publ_section_title
;
Structure prediction by ZEFSAII (Michael W. Deem and Ramdas Pophale) SiO2 
 PCOD8243795
Probable space group: P M M N
;
_chemical_formula_sum "Si O2"
_cell_formula_units_Z 64
_cell_length_a 23.993054
_cell_length_b 8.814394
_cell_length_c 15.121708
_cell_angle_alpha 90.000000
_cell_angle_beta 90.000000
_cell_angle_gamma 90.000000
_cell_volume 3198.002791
_symmetry_space_group_name_H-M "P M M N"
_symmetry_group_IT_number 59
_space_group.IT_coordinate_system_code '2'
_symmetry_cell_setting 'orthorhombic'
loop_
_space_group_symop_operation_xyz
x,y,z
1/2-x,1/2-y,z
1/2+x,-y,-z
-x,1/2+y,-z
-x,-y,-z
1/2+x,1/2+y,-z
1/2-x,y,z
x,1/2-y,z
loop_
_atom_site_type_symbol
_atom_site_label
_atom_site_fract_x
_atom_site_fract_y
_atom_site_fract_z
Si Si1 0.313785 0.430090 0.991297
Si Si2 0.858795 0.573287 0.540063
Si Si3 0.810954 0.421268 0.692336
Si Si4 0.187616 0.430462 0.646620
Si Si5 0.614266 0.071581 0.854609
Si Si6 0.001104 0.069747 0.778510
Si Si7 0.623580 0.569381 0.182529
Si Si8 0.528576 0.072127 0.584415
O O1 0.250000 0.492233 0.000800
O O2 0.312334 0.250000 0.991357
O O3 0.354897 0.483793 0.067763
O O4 0.341092 0.491921 0.900453
O O5 0.874862 0.750000 0.539086
O O6 0.809641 0.536844 0.609102
O O7 0.842381 0.516016 0.442837
O O8 0.907165 0.469174 0.579349
O O9 0.750000 0.429844 0.736949
O O10 0.823854 0.250000 0.660149
O O11 0.855716 0.473567 0.764030
O O12 0.250000 0.497724 0.650551
O O13 0.190480 0.250000 0.648729
O O14 0.152648 0.494509 0.729027
O O15 0.618591 0.250000 0.874135
O O16 0.549948 0.016813 0.842129
O O17 0.999304 0.250000 0.773471
O O18 0.995575 0.008348 0.677595
O O19 0.059425 0.010868 0.820086
O O20 0.624024 0.750000 0.183804
O O21 0.518798 0.250000 0.579610
O O22 0.500000 0.000000 0.500000
#
# Coordination Sequence:
#
# PCOD8243795 Si02
#       8
#     8   8   8   8   8   8   8   8
#     4  10  21  36  56  85 114 138 174 229 287 334
#     4  11  21  33  52  81 113 146 187 234 284 333
#     4  10  20  35  54  76 106 147 189 227 274 334
#     4   9  17  30  50  78 111 146 187 231 275 332
#     4  10  20  37  58  79 107 148 189 224 269 334
#     4   9  18  34  56  80 109 144 187 230 271 331
#     4   9  17  32  55  80 107 142 181 226 282 337
#     4  11  21  36  56  80 112 150 193 236 276 330
#
# _framework density 20.012492000000002
#
# number of rings (size 3 to 8) (size 9 to 14) (size 15 to 20)
#    0.000    2.125    1.250    2.625    0.000    6.000 
#    0.000    0.000    0.000    4.500    0.000    0.000 
#    0.000    0.000    0.000    0.000    0.000    0.000 
#
# Total GULP energy -793346.981783 kJ/mol
# GULP energy per Si atom -12396.046590 kJ/mol
# Density = 1.996694 g / cm^3
# Si number density = 20.012492 Si / 1000 Ang^3
#
#
#
# Elastic Constant Matrix: (Units=GPa)
#
#
# Indices 1 2 3 4 5 6 
#
# 1 145.9558 18.2907 72.0739 0.0000 0.0000 0.0000
# 2 18.2907 23.0201 23.2901 0.0000 0.0000 0.0000
# 3 72.0739 23.2901 141.0540 0.0000 0.0000 0.0000
# 4 0.0000 0.0000 0.0000 24.7650 0.0000 0.0000
# 5 0.0000 0.0000 0.0000 0.0000 39.6384 0.0000
# 6 0.0000 0.0000 0.0000 0.0000 0.0000 22.0722
#
#
#
# Elastic Compliance Matrix: (Units=1/GPa)
#
#
# Indices 1 2 3 4 5 6 
#
# 1 0.009346 -0.003115 -0.004261 0.000000 0.000000 0.000000
# 2 -0.003115 0.053191 -0.007191 0.000000 0.000000 0.000000
# 3 -0.004261 -0.007191 0.010454 0.000000 0.000000 0.000000
# 4 0.000000 0.000000 0.000000 0.040380 0.000000 0.000000
# 5 0.000000 0.000000 0.000000 0.000000 0.025228 0.000000
# 6 0.000000 0.000000 0.000000 0.000000 0.000000 0.045306
#
#
# Mechanical properties :
#
#
# Convention : Reuss Voigt Hill
#
# Bulk Modulus (GPa) = 22.80148 59.70437 41.25293
# Shear Modulus (GPa) = 21.96288 30.38679 26.17483
#
# Velocity S-wave (km/s) = 3.31638 3.90088 3.62045
# Velocity P-wave (km/s) = 5.10714 7.08431 6.17537
#
# Compressibility (1/GPa) = 0.04385680
#
# Stress axis : x y z
#
# Youngs Moduli (GPa) = 106.99882 18.80033 95.65590
#
# Poissons Ratio (x) = 0.05856 0.40761
# Poissons Ratio (y) = 0.33327 0.68787
# Poissons Ratio (z) = 0.45594 0.13519
#
# Static dielectric constant tensor:
#      x y z
#    x 4.683460 0.000000 0.000000 
#    y 0.000000 3.147020 0.000000 
#    z 0.000000 0.000000 3.809440 
# 
# 
# High freq. dielectric constant tensor:
#      x y z
#    x 1.801140 0.000000 0.000000 
#    y 0.000000 1.729800 0.000000 
#    z 0.000000 0.000000 1.785840 
# 
# From -- ./inp_files/21515.got.cif
#   From: 2010.03.12/outbox.cif.g09.slc.cpg/sg59_11_cif.got.tgz:21515.got - 2010.04.16 16:29:54.
