data_PCOD8243581
_publ_section_title
;
Structure prediction by ZEFSAII (Michael W. Deem and Ramdas Pophale) SiO2 
 PCOD8243581
Probable space group: P M M N
;
_chemical_formula_sum "Si O2"
_cell_formula_units_Z 64
_cell_length_a 8.681407
_cell_length_b 18.461306
_cell_length_c 21.323297
_cell_angle_alpha 90.000000
_cell_angle_beta 90.000000
_cell_angle_gamma 90.000000
_cell_volume 3417.487180
_symmetry_space_group_name_H-M "P M M N"
_symmetry_group_IT_number 59
_space_group.IT_coordinate_system_code '2'
_symmetry_cell_setting 'orthorhombic'
loop_
_space_group_symop_operation_xyz
x,y,z
1/2-x,1/2-y,z
1/2+x,-y,-z
-x,1/2+y,-z
-x,-y,-z
1/2+x,1/2+y,-z
1/2-x,y,z
x,1/2-y,z
loop_
_atom_site_type_symbol
_atom_site_label
_atom_site_fract_x
_atom_site_fract_y
_atom_site_fract_z
Si Si1 0.431655 0.966998 0.689448
Si Si2 0.925895 0.666351 0.890464
Si Si3 0.931986 0.330360 0.239567
Si Si4 0.933358 0.964493 0.438269
Si Si5 0.567864 0.921516 0.009347
Si Si6 0.427995 0.667904 0.375835
Si Si7 0.568801 0.885395 0.250414
Si Si8 0.568986 0.167261 0.877980
O O1 0.250000 0.960251 0.686931
O O2 0.501892 0.890043 0.712485
O O3 0.491748 0.986330 0.620068
O O4 0.476386 0.030556 0.738113
O O5 0.750000 0.645053 0.876159
O O6 0.943011 0.750000 0.906881
O O7 0.026063 0.644749 0.830382
O O8 0.991934 0.624736 0.950439
O O9 0.750000 0.327687 0.245314
O O10 0.001141 0.250000 0.254254
O O11 0.750000 0.959831 0.441521
O O12 0.001027 0.883870 0.429454
O O13 0.000000 0.000000 0.500000
O O14 0.750000 0.925523 0.011152
O O15 0.512979 0.885608 0.073492
O O16 0.500000 0.000000 0.000000
O O17 0.250000 0.647733 0.364136
O O18 0.445159 0.750000 0.400273
O O19 0.521474 0.660300 0.311308
O O20 0.750000 0.875602 0.238621
O O21 0.475333 0.856164 0.191714
O O22 0.750000 0.159269 0.886388
O O23 0.515737 0.250000 0.889575
#
# Coordination Sequence:
#
# PCOD8243581 Si02
#       8
#     8   8   8   8   8   8   8   8
#     4   8  17  33  52  78 109 141 178 221 268 320
#     4   9  19  36  55  75 101 134 173 218 270 326
#     4   9  17  31  54  80 104 134 175 221 268 319
#     4  10  20  36  57  80 112 151 191 232 275 329
#     4  11  24  40  57  78 106 142 183 228 278 336
#     4  10  20  35  56  83 114 147 187 234 282 334
#     4  10  20  34  55  82 112 148 185 227 280 339
#     4  11  24  40  57  80 111 144 183 232 281 334
#
# _framework density 18.727209999999999
#
# number of rings (size 3 to 8) (size 9 to 14) (size 15 to 20)
#    0.000    2.250    0.000    3.375    1.750    5.000 
#    0.000    5.000    0.000    2.250    0.000    0.000 
#    0.000    0.000    0.000    0.000    0.000    0.000 
#
# Total GULP energy -793572.406637 kJ/mol
# GULP energy per Si atom -12399.568854 kJ/mol
# Density = 1.868459 g / cm^3
# Si number density = 18.727210 Si / 1000 Ang^3
#
#
#
# Elastic Constant Matrix: (Units=GPa)
#
#
# Indices 1 2 3 4 5 6 
#
# 1 44.9638 36.5301 21.0131 0.0000 0.0000 0.0000
# 2 36.5301 130.7350 72.1108 0.0000 0.0000 0.0000
# 3 21.0131 72.1108 99.3864 0.0000 0.0000 0.0000
# 4 0.0000 0.0000 0.0000 32.4056 0.0000 0.0000
# 5 0.0000 0.0000 0.0000 0.0000 32.1056 0.0000
# 6 0.0000 0.0000 0.0000 0.0000 0.0000 27.3444
#
#
#
# Elastic Compliance Matrix: (Units=1/GPa)
#
#
# Indices 1 2 3 4 5 6 
#
# 1 0.028782 -0.007812 -0.000417 0.000000 0.000000 0.000000
# 2 -0.007812 0.014873 -0.009140 0.000000 0.000000 0.000000
# 3 -0.000417 -0.009140 0.016781 0.000000 0.000000 0.000000
# 4 0.000000 0.000000 0.000000 0.030859 0.000000 0.000000
# 5 0.000000 0.000000 0.000000 0.000000 0.031147 0.000000
# 6 0.000000 0.000000 0.000000 0.000000 0.000000 0.036571
#
#
# Mechanical properties :
#
#
# Convention : Reuss Voigt Hill
#
# Bulk Modulus (GPa) = 38.91276 59.37703 49.14490
# Shear Modulus (GPa) = 24.71362 28.06651 26.39007
#
# Velocity S-wave (km/s) = 3.63666 3.87551 3.75798
# Velocity P-wave (km/s) = 6.20142 7.19730 6.71784
#
# Compressibility (1/GPa) = 0.02569851
#
# Stress axis : x y z
#
# Youngs Moduli (GPa) = 34.74396 67.23473 59.59002
#
# Poissons Ratio (x) = 0.52526 0.02485
# Poissons Ratio (y) = 0.27143 0.54464
# Poissons Ratio (z) = 0.01449 0.61451
#
# Static dielectric constant tensor:
#      x y z
#    x 3.405450 0.000000 0.000000 
#    y 0.000000 3.880200 0.000000 
#    z 0.000000 0.000000 3.503350 
# 
# 
# High freq. dielectric constant tensor:
#      x y z
#    x 1.722550 0.000000 0.000000 
#    y 0.000000 1.737650 0.000000 
#    z 0.000000 0.000000 1.719200 
# 
# From -- ./inp_files/29356.got.cif
#   From: 2010.03.12/outbox.cif.g09.slc.cpg/sg59_15_cif.got.tgz:29356.got - 2010.04.16 16:29:54.
