data_PCOD8243634
_publ_section_title
;
Structure prediction by ZEFSAII (Michael W. Deem and Ramdas Pophale) SiO2 
 PCOD8243634
Probable space group: P M M N
;
_chemical_formula_sum "Si O2"
_cell_formula_units_Z 56
_cell_length_a 21.760380
_cell_length_b 9.159447
_cell_length_c 14.787911
_cell_angle_alpha 90.000000
_cell_angle_beta 90.000000
_cell_angle_gamma 90.000000
_cell_volume 2947.423605
_symmetry_space_group_name_H-M "P M M N"
_symmetry_group_IT_number 59
_space_group.IT_coordinate_system_code '2'
_symmetry_cell_setting 'orthorhombic'
loop_
_space_group_symop_operation_xyz
x,y,z
1/2-x,1/2-y,z
1/2+x,-y,-z
-x,1/2+y,-z
-x,-y,-z
1/2+x,1/2+y,-z
1/2-x,y,z
x,1/2-y,z
loop_
_atom_site_type_symbol
_atom_site_label
_atom_site_fract_x
_atom_site_fract_y
_atom_site_fract_z
Si Si1 0.680198 0.581189 0.295574
Si Si2 0.452838 0.417719 0.198464
Si Si3 0.321553 0.919872 0.521203
Si Si4 0.074781 0.418258 0.839929
Si Si5 0.250000 0.586354 0.047978
Si Si6 0.140331 0.080563 0.351222
Si Si7 0.373271 0.420627 0.030987
Si Si8 0.250000 0.585384 0.261184
O O1 0.750000 0.549447 0.264578
O O2 0.672052 0.750000 0.323064
O O3 0.662359 0.483140 0.381129
O O4 0.636495 0.535633 0.213063
O O5 0.464809 0.250000 0.175199
O O6 0.517687 0.496074 0.200362
O O7 0.423637 0.437689 0.297839
O O8 0.407863 0.481027 0.120266
O O9 0.250000 0.946940 0.496289
O O10 0.338220 0.750000 0.520297
O O11 0.363938 0.003585 0.448657
O O12 0.060493 0.250000 0.823671
O O13 0.082911 0.452424 0.945689
O O14 0.250000 0.750000 0.008047
O O15 0.310105 0.503994 0.013180
O O16 0.250000 0.591333 0.154879
O O17 0.157741 0.250000 0.363523
O O18 0.190696 0.001524 0.291291
O O19 0.357386 0.250000 0.040526
O O20 0.250000 0.750000 0.302604
#
# Coordination Sequence:
#
# PCOD8243634 Si02
#       8
#     8   8   8   8   4   8   8   4
#     4   9  19  37  59  84 111 142 186 236 285 339
#     4  10  22  38  56  82 116 154 191 229 277 338
#     4  10  20  34  55  85 116 146 182 231 288 337
#     4  10  22  38  61  85 108 149 196 238 283 331
#     4  11  23  35  53  86 119 150 187 237 288 326
#     4  11  21  34  56  84 114 153 190 224 278 340
#     4  10  21  38  59  83 115 154 193 232 281 339
#     4  11  21  33  51  80 117 150 185 235 282 326
#
# _framework density 18.999644
#
# number of rings (size 3 to 8) (size 9 to 14) (size 15 to 20)
#    0.000    1.857    2.143    1.714    1.000    4.000 
#    0.000    0.714    0.000    0.000    0.000    0.000 
#    0.000    0.000    0.000    0.000    0.000    0.000 
#
# Total GULP energy -694576.766580 kJ/mol
# GULP energy per Si atom -12403.156546 kJ/mol
# Density = 1.895640 g / cm^3
# Si number density = 18.999644 Si / 1000 Ang^3
#
#
#
# Elastic Constant Matrix: (Units=GPa)
#
#
# Indices 1 2 3 4 5 6 
#
# 1 99.6376 45.8759 31.5697 0.0000 0.0000 0.0000
# 2 45.8759 92.2842 39.9626 0.0000 0.0000 0.0000
# 3 31.5697 39.9626 88.1379 0.0000 0.0000 0.0000
# 4 0.0000 0.0000 0.0000 25.6028 0.0000 0.0000
# 5 0.0000 0.0000 0.0000 0.0000 11.1700 0.0000
# 6 0.0000 0.0000 0.0000 0.0000 0.0000 31.0053
#
#
#
# Elastic Compliance Matrix: (Units=1/GPa)
#
#
# Indices 1 2 3 4 5 6 
#
# 1 0.013351 -0.005682 -0.002206 0.000000 0.000000 0.000000
# 2 -0.005682 0.015902 -0.005175 0.000000 0.000000 0.000000
# 3 -0.002206 -0.005175 0.014482 0.000000 0.000000 0.000000
# 4 0.000000 0.000000 0.000000 0.039058 0.000000 0.000000
# 5 0.000000 0.000000 0.000000 0.000000 0.089526 0.000000
# 6 0.000000 0.000000 0.000000 0.000000 0.000000 0.032253
#
#
# Mechanical properties :
#
#
# Convention : Reuss Voigt Hill
#
# Bulk Modulus (GPa) = 56.78628 57.20844 56.99736
# Shear Modulus (GPa) = 21.13563 24.39904 22.76734
#
# Velocity S-wave (km/s) = 3.33892 3.58744 3.46541
# Velocity P-wave (km/s) = 6.69458 6.88006 6.78796
#
# Compressibility (1/GPa) = 0.01760989
#
# Stress axis : x y z
#
# Youngs Moduli (GPa) = 74.89814 62.88708 69.04979
#
# Poissons Ratio (x) = 0.35732 0.15233
# Poissons Ratio (y) = 0.42556 0.35731
# Poissons Ratio (z) = 0.16523 0.32542
#
# Static dielectric constant tensor:
#      x y z
#    x 3.300100 0.000000 0.000000 
#    y 0.000000 3.566970 0.000000 
#    z 0.000000 0.000000 3.513930 
# 
# 
# High freq. dielectric constant tensor:
#      x y z
#    x 1.723840 0.000000 0.000000 
#    y 0.000000 1.740740 0.000000 
#    z 0.000000 0.000000 1.742680 
# 
# From -- ./inp_files/21161.got.cif
#   From: 2010.03.12/outbox.cif.g09.slc.cpg/sg59_11_cif.got.tgz:21161.got - 2010.04.16 16:29:54.
