data_PCOD8243730
_publ_section_title
;
Structure prediction by ZEFSAII (Michael W. Deem and Ramdas Pophale) SiO2 
 PCOD8243730
Probable space group: P M M N
;
_chemical_formula_sum "Si O2"
_cell_formula_units_Z 48
_cell_length_a 9.228288
_cell_length_b 7.781602
_cell_length_c 34.363653
_cell_angle_alpha 90.000000
_cell_angle_beta 90.000000
_cell_angle_gamma 90.000000
_cell_volume 2467.683624
_symmetry_space_group_name_H-M "P M M N"
_symmetry_group_IT_number 59
_space_group.IT_coordinate_system_code '2'
_symmetry_cell_setting 'orthorhombic'
loop_
_space_group_symop_operation_xyz
x,y,z
1/2-x,1/2-y,z
1/2+x,-y,-z
-x,1/2+y,-z
-x,-y,-z
1/2+x,1/2+y,-z
1/2-x,y,z
x,1/2-y,z
loop_
_atom_site_type_symbol
_atom_site_label
_atom_site_fract_x
_atom_site_fract_y
_atom_site_fract_z
Si Si1 0.580864 0.250000 0.243857
Si Si2 0.415128 0.443002 0.812382
Si Si3 0.577087 0.057598 0.621322
Si Si4 0.092787 0.549020 0.463299
Si Si5 0.077513 0.250000 0.324927
Si Si6 0.082665 0.047143 0.113000
Si Si7 0.912259 0.452161 0.038068
O O1 0.750000 0.250000 0.254345
O O2 0.536414 0.420411 0.220061
O O3 0.487952 0.250000 0.282456
O O4 0.250000 0.482716 0.825430
O O5 0.428604 0.250000 0.795101
O O6 0.518606 0.455589 0.849356
O O7 0.750000 0.060070 0.619910
O O8 0.519611 0.250000 0.631916
O O9 0.521751 0.996344 0.578368
O O10 0.520804 0.920634 0.652888
O O11 0.250000 0.459675 0.468110
O O12 0.114170 0.750000 0.461919
O O13 0.000000 0.500000 0.500000
O O14 0.250000 0.250000 0.321882
O O15 0.250000 0.995764 0.108325
O O16 0.062656 0.250000 0.117659
O O17 0.997336 0.974893 0.075466
O O18 0.750000 0.531892 0.036351
O O19 0.901746 0.250000 0.041703
O O20 0.000000 0.500000 0.000000
#
# Coordination Sequence:
#
# PCOD8243730 Si02
#       7
#     4   8   8   8   4   8   8
#     4  10  22  40  58  82 118 146 174 230 286 332
#     4  10  21  38  61  85 110 147 188 222 271 337
#     4   8  16  32  51  74 105 138 179 227 269 320
#     4   9  18  31  48  73 104 138 178 225 273 321
#     4  10  20  34  58  82 100 140 188 220 270 334
#     4  10  20  35  57  83 112 146 184 231 285 333
#     4  10  21  36  55  79 110 150 193 235 279 327
#
# _framework density 19.451438
#
# number of rings (size 3 to 8) (size 9 to 14) (size 15 to 20)
#    0.000    2.500    0.833    2.000    1.167    4.333 
#    0.000    0.833    0.000    1.000    0.000    0.000 
#    0.000    0.000    0.000    0.000    0.000    0.000 
#
# Total GULP energy -595032.087667 kJ/mol
# GULP energy per Si atom -12396.501826 kJ/mol
# Density = 1.940717 g / cm^3
# Si number density = 19.451438 Si / 1000 Ang^3
#
#
#
# Elastic Constant Matrix: (Units=GPa)
#
#
# Indices 1 2 3 4 5 6 
#
# 1 91.6229 35.2906 65.2974 0.0000 0.0000 0.0000
# 2 35.2906 93.5608 67.3927 0.0000 0.0000 0.0000
# 3 65.2974 67.3927 170.1386 0.0000 0.0000 0.0000
# 4 0.0000 0.0000 0.0000 28.4087 0.0000 0.0000
# 5 0.0000 0.0000 0.0000 0.0000 38.3211 0.0000
# 6 0.0000 0.0000 0.0000 0.0000 0.0000 18.7367
#
#
#
# Elastic Compliance Matrix: (Units=1/GPa)
#
#
# Indices 1 2 3 4 5 6 
#
# 1 0.015329 -0.002161 -0.005027 0.000000 0.000000 0.000000
# 2 -0.002161 0.015260 -0.005215 0.000000 0.000000 0.000000
# 3 -0.005027 -0.005215 0.009873 0.000000 0.000000 0.000000
# 4 0.000000 0.000000 0.000000 0.035200 0.000000 0.000000
# 5 0.000000 0.000000 0.000000 0.000000 0.026095 0.000000
# 6 0.000000 0.000000 0.000000 0.000000 0.000000 0.053371
#
#
# Mechanical properties :
#
#
# Convention : Reuss Voigt Hill
#
# Bulk Modulus (GPa) = 63.87646 76.80929 70.34288
# Shear Modulus (GPa) = 27.00449 29.58274 28.29362
#
# Velocity S-wave (km/s) = 3.73004 3.90404 3.81803
# Velocity P-wave (km/s) = 7.17364 7.73922 7.46179
#
# Compressibility (1/GPa) = 0.01565522
#
# Stress axis : x y z
#
# Youngs Moduli (GPa) = 65.23370 65.53139 101.28899
#
# Poissons Ratio (x) = 0.14161 0.50921
# Poissons Ratio (y) = 0.14097 0.52824
# Poissons Ratio (z) = 0.32795 0.34176
#
# Static dielectric constant tensor:
#      x y z
#    x 3.373360 0.000000 0.000000 
#    y 0.000000 3.955640 0.000000 
#    z 0.000000 0.000000 3.141920 
# 
# 
# High freq. dielectric constant tensor:
#      x y z
#    x 1.736760 0.000000 0.000000 
#    y 0.000000 1.759370 0.000000 
#    z 0.000000 0.000000 1.757150 
# 
# From -- ./inp_files/33077.got.cif
#   From: 2010.03.12/outbox.cif.g09.slc.cpg/sg59_17_cif.got.tgz:33077.got - 2010.04.16 16:29:54.
