data_PCOD8243346
_publ_section_title
;
Structure prediction by ZEFSAII (Michael W. Deem and Ramdas Pophale) SiO2 
 PCOD8243346
Probable space group: P M M N
;
_chemical_formula_sum "Si O2"
_cell_formula_units_Z 56
_cell_length_a 15.580657
_cell_length_b 9.124421
_cell_length_c 20.978523
_cell_angle_alpha 90.000000
_cell_angle_beta 90.000000
_cell_angle_gamma 90.000000
_cell_volume 2982.400686
_symmetry_space_group_name_H-M "P M M N"
_symmetry_group_IT_number 59
_space_group.IT_coordinate_system_code '2'
_symmetry_cell_setting 'orthorhombic'
loop_
_space_group_symop_operation_xyz
x,y,z
1/2-x,1/2-y,z
1/2+x,-y,-z
-x,1/2+y,-z
-x,-y,-z
1/2+x,1/2+y,-z
1/2-x,y,z
x,1/2-y,z
loop_
_atom_site_type_symbol
_atom_site_label
_atom_site_fract_x
_atom_site_fract_y
_atom_site_fract_z
Si Si1 0.412468 0.577742 0.819432
Si Si2 0.656624 0.416382 0.854500
Si Si3 0.750000 0.424062 0.406189
Si Si4 0.583499 0.918721 0.746869
Si Si5 0.906570 0.423097 0.496456
Si Si6 0.652744 0.584881 0.615153
Si Si7 0.995460 0.575580 0.067711
Si Si8 0.750000 0.423884 0.260640
O O1 0.406729 0.750000 0.835424
O O2 0.490144 0.538810 0.772445
O O3 0.420909 0.490189 0.886475
O O4 0.330917 0.520566 0.780054
O O5 0.750000 0.436791 0.886393
O O6 0.635810 0.250000 0.838279
O O7 0.655360 0.498711 0.787357
O O8 0.586086 0.475425 0.903081
O O9 0.750000 0.250000 0.407322
O O10 0.839545 0.476109 0.440671
O O11 0.750000 0.485981 0.333374
O O12 0.603912 0.750000 0.755964
O O13 0.589865 0.961042 0.672742
O O14 0.921887 0.250000 0.491533
O O15 0.858506 0.464515 0.561071
O O16 0.000000 0.500000 0.500000
O O17 0.750000 0.580561 0.640226
O O18 0.630021 0.750000 0.590804
O O19 0.983629 0.750000 0.061043
O O20 0.000000 0.500000 0.000000
O O21 0.750000 0.250000 0.265778
#
# Coordination Sequence:
#
# PCOD8243346 Si02
#       8
#     8   8   4   8   8   8   8   4
#     4   9  18  34  57  83 109 140 184 228 275 329
#     4   9  18  33  52  76 104 136 173 216 262 313
#     4   9  20  38  61  85 113 148 197 248 293 347
#     4   9  18  31  52  80 108 141 177 220 271 325
#     4  11  23  39  58  82 111 148 193 243 296 351
#     4  10  20  34  53  79 113 147 182 228 284 341
#     4  10  20  36  57  79 111 145 178 218 266 320
#     4   9  18  34  59  85 107 142 191 240 279 329
#
# _framework density 18.776820000000001
#
# number of rings (size 3 to 8) (size 9 to 14) (size 15 to 20)
#    0.000    2.429    0.714    1.286    2.000    2.000 
#    1.286    0.357    0.000    1.714    0.000    0.000 
#    0.000    0.000    0.000    0.000    0.000    0.000 
#
# Total GULP energy -694017.512789 kJ/mol
# GULP energy per Si atom -12393.169871 kJ/mol
# Density = 1.873408 g / cm^3
# Si number density = 18.776820 Si / 1000 Ang^3
#
#
#
# Elastic Constant Matrix: (Units=GPa)
#
#
# Indices 1 2 3 4 5 6 
#
# 1 111.6915 33.7020 66.1135 0.0000 0.0000 0.0000
# 2 33.7020 50.6755 47.5525 0.0000 0.0000 0.0000
# 3 66.1135 47.5525 150.7972 0.0000 0.0000 0.0000
# 4 0.0000 0.0000 0.0000 31.8546 0.0000 0.0000
# 5 0.0000 0.0000 0.0000 0.0000 25.6156 0.0000
# 6 0.0000 0.0000 0.0000 0.0000 0.0000 25.5563
#
#
#
# Elastic Compliance Matrix: (Units=1/GPa)
#
#
# Indices 1 2 3 4 5 6 
#
# 1 0.012808 -0.004614 -0.004160 0.000000 0.000000 0.000000
# 2 -0.004614 0.029689 -0.007339 0.000000 0.000000 0.000000
# 3 -0.004160 -0.007339 0.010770 0.000000 0.000000 0.000000
# 4 0.000000 0.000000 0.000000 0.031393 0.000000 0.000000
# 5 0.000000 0.000000 0.000000 0.000000 0.039039 0.000000
# 6 0.000000 0.000000 0.000000 0.000000 0.000000 0.039129
#
#
# Mechanical properties :
#
#
# Convention : Reuss Voigt Hill
#
# Bulk Modulus (GPa) = 47.52972 67.54447 57.53710
# Shear Modulus (GPa) = 24.74411 27.65836 26.20124
#
# Velocity S-wave (km/s) = 3.63409 3.84214 3.73956
# Velocity P-wave (km/s) = 6.55567 7.46546 7.02530
#
# Compressibility (1/GPa) = 0.02103947
#
# Stress axis : x y z
#
# Youngs Moduli (GPa) = 78.07507 33.68261 92.85213
#
# Poissons Ratio (x) = 0.15542 0.38630
# Poissons Ratio (y) = 0.36025 0.68146
# Poissons Ratio (z) = 0.32483 0.24720
#
# Static dielectric constant tensor:
#      x y z
#    x 3.815320 0.000000 0.000000 
#    y 0.000000 3.343290 0.000000 
#    z 0.000000 0.000000 3.551290 
# 
# 
# High freq. dielectric constant tensor:
#      x y z
#    x 1.735300 0.000000 0.000000 
#    y 0.000000 1.710790 0.000000 
#    z 0.000000 0.000000 1.727870 
# 
# From -- ./inp_files/30452.got.cif
#   From: 2010.03.12/outbox.cif.g09.slc.cpg/sg59_16_cif.got.tgz:30452.got - 2010.04.16 16:29:54.
