data_PCOD8243556
_publ_section_title
;
Structure prediction by ZEFSAII (Michael W. Deem and Ramdas Pophale) SiO2 
 PCOD8243556
Probable space group: P M M N
;
_chemical_formula_sum "Si O2"
_cell_formula_units_Z 64
_cell_length_a 19.089099
_cell_length_b 9.064671
_cell_length_c 19.990888
_cell_angle_alpha 90.000000
_cell_angle_beta 90.000000
_cell_angle_gamma 90.000000
_cell_volume 3459.151335
_symmetry_space_group_name_H-M "P M M N"
_symmetry_group_IT_number 59
_space_group.IT_coordinate_system_code '2'
_symmetry_cell_setting 'orthorhombic'
loop_
_space_group_symop_operation_xyz
x,y,z
1/2-x,1/2-y,z
1/2+x,-y,-z
-x,1/2+y,-z
-x,-y,-z
1/2+x,1/2+y,-z
1/2-x,y,z
x,1/2-y,z
loop_
_atom_site_type_symbol
_atom_site_label
_atom_site_fract_x
_atom_site_fract_y
_atom_site_fract_z
Si Si1 0.333017 0.418581 0.332656
Si Si2 0.167083 0.586988 0.461773
Si Si3 0.901405 0.421275 0.035924
Si Si4 0.054423 0.077964 0.091436
Si Si5 0.330041 0.417953 0.851079
Si Si6 0.069108 0.923265 0.231744
Si Si7 0.084893 0.077659 0.723803
Si Si8 0.829268 0.075200 0.389691
O O1 0.250000 0.435395 0.325849
O O2 0.357076 0.250000 0.324574
O O3 0.359825 0.474820 0.405111
O O4 0.366935 0.517501 0.275344
O O5 0.250000 0.599923 0.459484
O O6 0.134944 0.750000 0.448105
O O7 0.145952 0.529326 0.535529
O O8 0.889478 0.250000 0.021577
O O9 0.840534 0.482578 0.083468
O O10 0.974017 0.452998 0.073619
O O11 0.897169 0.506759 0.965814
O O12 0.071608 0.250000 0.096288
O O13 0.072456 0.002050 0.160764
O O14 0.250000 0.428129 0.828229
O O15 0.352040 0.250000 0.868108
O O16 0.376537 0.480452 0.790406
O O17 0.077529 0.750000 0.219867
O O18 0.996934 0.959913 0.269918
O O19 0.099213 0.250000 0.714518
O O20 0.115270 0.995075 0.660073
O O21 0.750000 0.017975 0.375305
O O22 0.831074 0.250000 0.382201
#
# Coordination Sequence:
#
# PCOD8243556 Si02
#       8
#     8   8   8   8   8   8   8   8
#     4  10  21  37  58  84 110 136 172 221 277 335
#     4   8  15  31  54  78 105 139 180 223 269 323
#     4  10  20  34  55  81 107 138 179 224 266 316
#     4  10  20  35  57  81 107 139 176 220 269 319
#     4  10  20  35  54  77 111 151 187 227 272 316
#     4  11  22  37  58  82 110 144 182 224 269 323
#     4  10  21  35  52  77 110 147 187 226 267 320
#     4   9  18  32  52  79 110 145 185 229 273 317
#
# _framework density 18.501647999999999
#
# number of rings (size 3 to 8) (size 9 to 14) (size 15 to 20)
#    0.000    2.250    1.250    2.625    0.000    4.750 
#    0.000    2.500    0.000    3.750    0.000    0.000 
#    0.000    0.000    0.000    0.000    0.000    0.000 
#
# Total GULP energy -793710.673196 kJ/mol
# GULP energy per Si atom -12401.729269 kJ/mol
# Density = 1.845954 g / cm^3
# Si number density = 18.501648 Si / 1000 Ang^3
#
#
#
# Elastic Constant Matrix: (Units=GPa)
#
#
# Indices 1 2 3 4 5 6 
#
# 1 45.3442 32.4982 37.8311 0.0000 0.0000 0.0000
# 2 32.4982 87.0560 66.9124 0.0000 0.0000 0.0000
# 3 37.8311 66.9124 147.9804 0.0000 0.0000 0.0000
# 4 0.0000 0.0000 0.0000 38.6950 0.0000 0.0000
# 5 0.0000 0.0000 0.0000 0.0000 27.4245 0.0000
# 6 0.0000 0.0000 0.0000 0.0000 0.0000 26.2771
#
#
#
# Elastic Compliance Matrix: (Units=1/GPa)
#
#
# Indices 1 2 3 4 5 6 
#
# 1 0.031744 -0.008602 -0.004226 0.000000 0.000000 0.000000
# 2 -0.008602 0.019937 -0.006816 0.000000 0.000000 0.000000
# 3 -0.004226 -0.006816 0.010920 0.000000 0.000000 0.000000
# 4 0.000000 0.000000 0.000000 0.025843 0.000000 0.000000
# 5 0.000000 0.000000 0.000000 0.000000 0.036464 0.000000
# 6 0.000000 0.000000 0.000000 0.000000 0.000000 0.038056
#
#
# Mechanical properties :
#
#
# Convention : Reuss Voigt Hill
#
# Bulk Modulus (GPa) = 42.89350 61.65154 52.27252
# Shear Modulus (GPa) = 23.80703 28.02191 25.91447
#
# Velocity S-wave (km/s) = 3.59102 3.89596 3.74660
# Velocity P-wave (km/s) = 6.35829 7.32342 6.85786
#
# Compressibility (1/GPa) = 0.02331356
#
# Stress axis : x y z
#
# Youngs Moduli (GPa) = 31.50171 50.15887 91.57702
#
# Poissons Ratio (x) = 0.43148 0.38698
# Poissons Ratio (y) = 0.27099 0.62415
# Poissons Ratio (z) = 0.13312 0.34186
#
# Static dielectric constant tensor:
#      x y z
#    x 3.158070 0.000000 0.000000 
#    y 0.000000 3.474790 0.000000 
#    z 0.000000 0.000000 3.566900 
# 
# 
# High freq. dielectric constant tensor:
#      x y z
#    x 1.690400 0.000000 0.000000 
#    y 0.000000 1.721180 0.000000 
#    z 0.000000 0.000000 1.727960 
# 
# From -- ./inp_files/28196.got.cif
#   From: 2010.03.12/outbox.cif.g09.slc.cpg/sg59_15_cif.got.tgz:28196.got - 2010.04.16 16:29:54.
