data_PCOD8243104
_publ_section_title
;
Structure prediction by ZEFSAII (Michael W. Deem and Ramdas Pophale) SiO2 
 PCOD8243104
Probable space group: P M M N
;
_chemical_formula_sum "Si O2"
_cell_formula_units_Z 64
_cell_length_a 15.053641
_cell_length_b 9.291960
_cell_length_c 24.075150
_cell_angle_alpha 90.000000
_cell_angle_beta 90.000000
_cell_angle_gamma 90.000000
_cell_volume 3367.579740
_symmetry_space_group_name_H-M "P M M N"
_symmetry_group_IT_number 59
_space_group.IT_coordinate_system_code '2'
_symmetry_cell_setting 'orthorhombic'
loop_
_space_group_symop_operation_xyz
x,y,z
1/2-x,1/2-y,z
1/2+x,-y,-z
-x,1/2+y,-z
-x,-y,-z
1/2+x,1/2+y,-z
1/2-x,y,z
x,1/2-y,z
loop_
_atom_site_type_symbol
_atom_site_label
_atom_site_fract_x
_atom_site_fract_y
_atom_site_fract_z
Si Si1 0.984358 0.420805 0.247316
Si Si2 0.347859 0.079056 0.315046
Si Si3 0.652083 0.579493 0.047629
Si Si4 0.505909 0.578002 0.134786
Si Si5 0.651216 0.421260 0.341289
Si Si6 0.144131 0.590528 0.537355
Si Si7 0.144763 0.408524 0.436310
Si Si8 0.646906 0.916506 0.922265
O O1 0.977604 0.250000 0.235892
O O2 0.914610 0.474090 0.293405
O O3 0.082326 0.466547 0.268129
O O4 0.962749 0.510550 0.192578
O O5 0.250000 0.020133 0.298132
O O6 0.344284 0.250000 0.320850
O O7 0.377064 0.020402 0.376029
O O8 0.750000 0.519103 0.064261
O O9 0.656001 0.750000 0.048791
O O10 0.577789 0.522384 0.089758
O O11 0.628267 0.530557 0.985138
O O12 0.501713 0.750000 0.138777
O O13 0.409809 0.516019 0.118716
O O14 0.750000 0.480889 0.327990
O O15 0.653714 0.250000 0.343776
O O16 0.617947 0.475619 0.402122
O O17 0.250000 0.595001 0.533603
O O18 0.104619 0.750000 0.531194
O O19 0.102722 0.499026 0.486811
O O20 0.250000 0.399016 0.442831
O O21 0.102152 0.250000 0.440140
O O22 0.750000 0.937066 0.907003
O O23 0.619261 0.750000 0.914184
#
# Coordination Sequence:
#
# PCOD8243104 Si02
#       8
#     8   8   8   8   8   8   8   8
#     4  10  20  34  51  68  90 128 175 209 235 281
#     4   8  15  29  48  67  87 116 157 201 239 279
#     4   8  16  33  56  80 106 137 170 202 242 296
#     4  11  22  34  51  77 109 138 164 206 259 298
#     4   8  15  29  48  68  91 121 159 204 247 286
#     4   8  13  23  41  64  88 114 145 184 237 298
#     4   8  13  23  41  64  87 110 141 186 238 288
#     4   9  18  35  59  82 103 133 173 207 237 289
#
# _framework density 19.004746999999998
#
# number of rings (size 3 to 8) (size 9 to 14) (size 15 to 20)
#    0.000    3.250    0.000    3.000    0.000    1.250 
#    0.000    3.750    0.000    4.125    0.000    0.000 
#    0.000    0.000    0.000    0.000    0.000    0.000 
#
# Total GULP energy -793167.471884 kJ/mol
# GULP energy per Si atom -12393.241748 kJ/mol
# Density = 1.896149 g / cm^3
# Si number density = 19.004747 Si / 1000 Ang^3
#
#
#
# Elastic Constant Matrix: (Units=GPa)
#
#
# Indices 1 2 3 4 5 6 
#
# 1 47.8265 11.8728 11.3258 0.0000 0.0000 0.0000
# 2 11.8728 44.4561 22.4025 0.0000 0.0000 0.0000
# 3 11.3258 22.4025 75.5113 0.0000 0.0000 0.0000
# 4 0.0000 0.0000 0.0000 31.8403 0.0000 0.0000
# 5 0.0000 0.0000 0.0000 0.0000 15.5996 0.0000
# 6 0.0000 0.0000 0.0000 0.0000 0.0000 13.5014
#
#
#
# Elastic Compliance Matrix: (Units=1/GPa)
#
#
# Indices 1 2 3 4 5 6 
#
# 1 0.022619 -0.005092 -0.001882 0.000000 0.000000 0.000000
# 2 -0.005092 0.027595 -0.007423 0.000000 0.000000 0.000000
# 3 -0.001882 -0.007423 0.015727 0.000000 0.000000 0.000000
# 4 0.000000 0.000000 0.000000 0.031407 0.000000 0.000000
# 5 0.000000 0.000000 0.000000 0.000000 0.064104 0.000000
# 6 0.000000 0.000000 0.000000 0.000000 0.000000 0.074066
#
#
# Mechanical properties :
#
#
# Convention : Reuss Voigt Hill
#
# Bulk Modulus (GPa) = 26.92029 28.77734 27.84882
# Shear Modulus (GPa) = 18.07046 20.33446 19.20246
#
# Velocity S-wave (km/s) = 3.08691 3.27458 3.18213
# Velocity P-wave (km/s) = 5.18663 5.42884 5.30912
#
# Compressibility (1/GPa) = 0.03714670
#
# Stress axis : x y z
#
# Youngs Moduli (GPa) = 44.21119 36.23883 63.58298
#
# Poissons Ratio (x) = 0.18455 0.11965
# Poissons Ratio (y) = 0.22514 0.47197
# Poissons Ratio (z) = 0.08319 0.26900
#
# Static dielectric constant tensor:
#      x y z
#    x 3.616730 0.000000 0.000000 
#    y 0.000000 3.139100 0.000000 
#    z 0.000000 0.000000 3.654340 
# 
# 
# High freq. dielectric constant tensor:
#      x y z
#    x 1.734890 0.000000 0.000000 
#    y 0.000000 1.686630 0.000000 
#    z 0.000000 0.000000 1.744690 
# 
# From -- ./inp_files/32186.got.cif
#   From: 2010.03.12/outbox.cif.g09.slc.cpg/sg59_17_cif.got.tgz:32186.got - 2010.04.16 16:29:54.
