data_PCOD8243949
_publ_section_title
;
Structure prediction by ZEFSAII (Michael W. Deem and Ramdas Pophale) SiO2 
 PCOD8243949
Probable space group: P M M N
;
_chemical_formula_sum "Si O2"
_cell_formula_units_Z 64
_cell_length_a 9.415490
_cell_length_b 28.441218
_cell_length_c 12.594853
_cell_angle_alpha 90.000000
_cell_angle_beta 90.000000
_cell_angle_gamma 90.000000
_cell_volume 3372.750541
_symmetry_space_group_name_H-M "P M M N"
_symmetry_group_IT_number 59
_space_group.IT_coordinate_system_code '2'
_symmetry_cell_setting 'orthorhombic'
loop_
_space_group_symop_operation_xyz
x,y,z
1/2-x,1/2-y,z
1/2+x,-y,-z
-x,1/2+y,-z
-x,-y,-z
1/2+x,1/2+y,-z
1/2-x,y,z
x,1/2-y,z
loop_
_atom_site_type_symbol
_atom_site_label
_atom_site_fract_x
_atom_site_fract_y
_atom_site_fract_z
Si Si1 0.412670 0.455188 0.465311
Si Si2 0.081260 0.122648 0.836356
Si Si3 0.913577 0.194877 0.435109
Si Si4 0.414371 0.303467 0.009198
Si Si5 0.583832 0.980297 0.099039
Si Si6 0.912544 0.864334 0.399858
Si Si7 0.412368 0.837769 0.794843
Si Si8 0.910921 0.060151 0.264032
O O1 0.500000 0.500000 0.500000
O O2 0.250000 0.469315 0.443646
O O3 0.423860 0.417336 0.558372
O O4 0.479543 0.433668 0.359383
O O5 0.250000 0.121365 0.831643
O O6 0.025749 0.071545 0.873003
O O7 0.023893 0.135558 0.719395
O O8 0.025088 0.162051 0.918216
O O9 0.750000 0.180483 0.448585
O O10 0.937654 0.250000 0.442426
O O11 0.969492 0.176560 0.321494
O O12 0.998997 0.171512 0.530064
O O13 0.250000 0.314565 0.030648
O O14 0.436608 0.250000 0.970520
O O15 0.495482 0.311162 0.118609
O O16 0.750000 0.979807 0.070812
O O17 0.552012 0.013591 0.198903
O O18 0.500000 0.000000 0.000000
O O19 0.750000 0.847006 0.401466
O O20 0.250000 0.821035 0.808219
O O21 0.426850 0.893959 0.810443
O O22 0.750000 0.057256 0.309162
#
# Coordination Sequence:
#
# PCOD8243949 Si02
#       8
#     8   8   8   8   8   8   8   8
#     4  11  22  35  55  83 114 149 190 235 283 337
#     4   9  19  37  57  78 111 149 183 230 287 336
#     4  10  21  37  57  82 114 151 187 229 289 350
#     4  10  21  36  56  81 107 141 187 235 282 338
#     4  10  20  35  56  82 113 148 188 234 283 339
#     4  10  21  38  59  83 111 148 195 239 281 336
#     4  10  20  36  58  82 113 148 182 230 289 347
#     4  10  20  35  56  81 111 148 189 231 281 343
#
# _framework density 18.975611000000001
#
# number of rings (size 3 to 8) (size 9 to 14) (size 15 to 20)
#    0.000    2.000    1.250    2.250    0.000    5.500 
#    0.000    2.500    0.000    0.000    0.000    0.000 
#    0.000    0.000    0.000    0.000    0.000    0.000 
#
# Total GULP energy -793802.215185 kJ/mol
# GULP energy per Si atom -12403.159612 kJ/mol
# Density = 1.893242 g / cm^3
# Si number density = 18.975611 Si / 1000 Ang^3
#
#
#
# Elastic Constant Matrix: (Units=GPa)
#
#
# Indices 1 2 3 4 5 6 
#
# 1 67.1008 36.7804 54.0495 0.0000 0.0000 0.0000
# 2 36.7804 111.7186 65.2559 0.0000 0.0000 0.0000
# 3 54.0495 65.2559 146.8443 0.0000 0.0000 0.0000
# 4 0.0000 0.0000 0.0000 33.5569 0.0000 0.0000
# 5 0.0000 0.0000 0.0000 0.0000 29.5980 0.0000
# 6 0.0000 0.0000 0.0000 0.0000 0.0000 28.1366
#
#
#
# Elastic Compliance Matrix: (Units=1/GPa)
#
#
# Indices 1 2 3 4 5 6 
#
# 1 0.022105 -0.003410 -0.006621 0.000000 0.000000 0.000000
# 2 -0.003410 0.012615 -0.004351 0.000000 0.000000 0.000000
# 3 -0.006621 -0.004351 0.011180 0.000000 0.000000 0.000000
# 4 0.000000 0.000000 0.000000 0.029800 0.000000 0.000000
# 5 0.000000 0.000000 0.000000 0.000000 0.033786 0.000000
# 6 0.000000 0.000000 0.000000 0.000000 0.000000 0.035541
#
#
# Mechanical properties :
#
#
# Convention : Reuss Voigt Hill
#
# Bulk Modulus (GPa) = 58.35352 70.87056 64.61204
# Shear Modulus (GPa) = 27.85449 29.56350 28.70899
#
# Velocity S-wave (km/s) = 3.83549 3.95140 3.89387
# Velocity P-wave (km/s) = 7.10164 7.63200 7.37159
#
# Compressibility (1/GPa) = 0.01713693
#
# Stress axis : x y z
#
# Youngs Moduli (GPa) = 45.23785 79.26983 89.44260
#
# Poissons Ratio (x) = 0.27033 0.59219
# Poissons Ratio (y) = 0.15427 0.38915
# Poissons Ratio (z) = 0.29952 0.34489
#
# Static dielectric constant tensor:
#      x y z
#    x 3.117270 0.000000 0.000000 
#    y 0.000000 3.648170 0.000000 
#    z 0.000000 0.000000 5.369670 
# 
# 
# High freq. dielectric constant tensor:
#      x y z
#    x 1.718740 0.000000 0.000000 
#    y 0.000000 1.751960 0.000000 
#    z 0.000000 0.000000 1.739390 
# 
# From -- ./inp_files/15005.got.cif
#   From: 2010.03.12/outbox.cif.g09.slc.cpg/sg59_8_cif.got.tgz:15005.got - 2010.04.16 16:29:54.
