data_PCOD8243736
_publ_section_title
;
Structure prediction by ZEFSAII (Michael W. Deem and Ramdas Pophale) SiO2 
 PCOD8243736
Probable space group: P M M N
;
_chemical_formula_sum "Si O2"
_cell_formula_units_Z 48
_cell_length_a 14.571523
_cell_length_b 9.628118
_cell_length_c 19.381950
_cell_angle_alpha 90.000000
_cell_angle_beta 90.000000
_cell_angle_gamma 90.000000
_cell_volume 2719.216703
_symmetry_space_group_name_H-M "P M M N"
_symmetry_group_IT_number 59
_space_group.IT_coordinate_system_code '2'
_symmetry_cell_setting 'orthorhombic'
loop_
_space_group_symop_operation_xyz
x,y,z
1/2-x,1/2-y,z
1/2+x,-y,-z
-x,1/2+y,-z
-x,-y,-z
1/2+x,1/2+y,-z
1/2-x,y,z
x,1/2-y,z
loop_
_atom_site_type_symbol
_atom_site_label
_atom_site_fract_x
_atom_site_fract_y
_atom_site_fract_z
Si Si1 0.646024 0.090632 0.421992
Si Si2 0.942774 0.411464 0.807847
Si Si3 0.750000 0.908950 0.009428
Si Si4 0.551102 0.910331 0.056758
Si Si5 0.856216 0.910142 0.550472
Si Si6 0.516182 0.589663 0.675230
Si Si7 0.250000 0.911761 0.127313
O O1 0.750000 0.050648 0.402361
O O2 0.637307 0.250000 0.445705
O O3 0.585402 0.062667 0.354482
O O4 0.609550 0.998720 0.485337
O O5 0.949696 0.250000 0.789155
O O6 0.971956 0.498137 0.742198
O O7 0.839340 0.452067 0.828777
O O8 0.012922 0.452102 0.868578
O O9 0.750000 0.750000 0.983596
O O10 0.660161 0.939739 0.055588
O O11 0.750000 0.005443 0.943290
O O12 0.528554 0.750000 0.040853
O O13 0.500000 0.000000 0.000000
O O14 0.750000 0.938338 0.565662
O O15 0.876757 0.750000 0.533310
O O16 0.910397 0.957946 0.618130
O O17 0.530944 0.750000 0.695320
O O18 0.250000 0.750000 0.107568
#
# Coordination Sequence:
#
# PCOD8243736 Si02
#       7
#     8   8   4   8   8   8   4
#     4   9  18  34  54  75 101 134 174 218 259 302
#     4  10  22  37  53  77 109 140 172 212 258 312
#     4  10  20  34  58  86 106 133 176 223 266 311
#     4  10  20  36  57  81 109 139 176 220 263 312
#     4   9  18  32  51  77 104 130 167 214 260 308
#     4  10  21  35  52  75 105 140 174 211 257 308
#     4  10  20  36  56  80 108 137 170 213 264 315
#
# _framework density 17.652142000000001
#
# number of rings (size 3 to 8) (size 9 to 14) (size 15 to 20)
#    0.000    2.333    1.667    0.500    1.167    2.667 
#    1.500    0.000    0.000    0.000    0.000    0.000 
#    0.000    0.000    0.000    0.000    0.000    0.000 
#
# Total GULP energy -595309.017184 kJ/mol
# GULP energy per Si atom -12402.271191 kJ/mol
# Density = 1.761196 g / cm^3
# Si number density = 17.652142 Si / 1000 Ang^3
#
#
#
# Elastic Constant Matrix: (Units=GPa)
#
#
# Indices 1 2 3 4 5 6 
#
# 1 125.6141 50.1650 79.3427 0.0000 0.0000 0.0000
# 2 50.1650 69.2867 76.9126 0.0000 0.0000 0.0000
# 3 79.3427 76.9126 151.3912 0.0000 0.0000 0.0000
# 4 0.0000 0.0000 0.0000 40.8265 0.0000 0.0000
# 5 0.0000 0.0000 0.0000 0.0000 24.7534 0.0000
# 6 0.0000 0.0000 0.0000 0.0000 0.0000 19.0907
#
#
#
# Elastic Compliance Matrix: (Units=1/GPa)
#
#
# Indices 1 2 3 4 5 6 
#
# 1 0.012374 -0.004037 -0.004434 0.000000 0.000000 0.000000
# 2 -0.004037 0.034416 -0.015369 0.000000 0.000000 0.000000
# 3 -0.004434 -0.015369 0.016737 0.000000 0.000000 0.000000
# 4 0.000000 0.000000 0.000000 0.024494 0.000000 0.000000
# 5 0.000000 0.000000 0.000000 0.000000 0.040399 0.000000
# 6 0.000000 0.000000 0.000000 0.000000 0.000000 0.052381
#
#
# Mechanical properties :
#
#
# Convention : Reuss Voigt Hill
#
# Bulk Modulus (GPa) = 63.10195 84.34806 73.72501
# Shear Modulus (GPa) = 21.38910 26.25889 23.82400
#
# Velocity S-wave (km/s) = 3.48472 3.86109 3.67773
# Velocity P-wave (km/s) = 7.21222 8.23193 7.73889
#
# Compressibility (1/GPa) = 0.01584737
#
# Stress axis : x y z
#
# Youngs Moduli (GPa) = 80.81615 29.05609 59.74612
#
# Poissons Ratio (x) = 0.11729 0.26493
# Poissons Ratio (y) = 0.32622 0.91825
# Poissons Ratio (z) = 0.35836 0.44657
#
# Static dielectric constant tensor:
#      x y z
#    x 3.672790 0.000000 0.000000 
#    y 0.000000 3.289560 0.000000 
#    z 0.000000 0.000000 3.099130 
# 
# 
# High freq. dielectric constant tensor:
#      x y z
#    x 1.700560 0.000000 0.000000 
#    y 0.000000 1.681830 0.000000 
#    z 0.000000 0.000000 1.669000 
# 
# From -- ./inp_files/25566.got.cif
#   From: 2010.03.12/outbox.cif.g09.slc.cpg/sg59_13_cif.got.tgz:25566.got - 2010.04.16 16:29:54.
