data_PCOD8243891
_publ_section_title
;
Structure prediction by ZEFSAII (Michael W. Deem and Ramdas Pophale) SiO2 
 PCOD8243891
Probable space group: P M M N
;
_chemical_formula_sum "Si O2"
_cell_formula_units_Z 40
_cell_length_a 20.645209
_cell_length_b 12.729354
_cell_length_c 8.022275
_cell_angle_alpha 90.000000
_cell_angle_beta 90.000000
_cell_angle_gamma 90.000000
_cell_volume 2108.255264
_symmetry_space_group_name_H-M "P M M N"
_symmetry_group_IT_number 59
_space_group.IT_coordinate_system_code '2'
_symmetry_cell_setting 'orthorhombic'
loop_
_space_group_symop_operation_xyz
x,y,z
1/2-x,1/2-y,z
1/2+x,-y,-z
-x,1/2+y,-z
-x,-y,-z
1/2+x,1/2+y,-z
1/2-x,y,z
x,1/2-y,z
loop_
_atom_site_type_symbol
_atom_site_label
_atom_site_fract_x
_atom_site_fract_y
_atom_site_fract_z
Si Si1 0.573822 0.534584 0.011882
Si Si2 0.675834 0.128335 0.127862
Si Si3 0.325340 0.634488 0.487410
Si Si4 0.536772 0.630575 0.336851
Si Si5 0.916939 0.972598 0.653092
O O1 0.623244 0.436910 0.024670
O O2 0.581088 0.611622 0.171042
O O3 0.500000 0.500000 0.000000
O O4 0.589778 0.587554 0.831459
O O5 0.750000 0.092165 0.090877
O O6 0.667955 0.250000 0.078649
O O7 0.658715 0.110327 0.320736
O O8 0.250000 0.634060 0.453663
O O9 0.353365 0.750000 0.442092
O O10 0.354771 0.545380 0.371785
O O11 0.512005 0.750000 0.335789
O O12 0.578577 0.611927 0.504623
O O13 0.477953 0.550344 0.341226
#
# Coordination Sequence:
#
# PCOD8243891 Si02
#       5
#     8   8   8   8   8
#     4  10  21  35  53  82 115 148 186 227 276 335
#     4   9  18  34  57  84 115 150 184 227 288 346
#     4   9  17  31  55  85 114 144 179 224 281 340
#     4  10  21  37  54  76 109 145 181 223 273 324
#     4  10  20  35  55  81 107 141 181 224 273 326
#
# _framework density 18.973033999999998
#
# number of rings (size 3 to 8) (size 9 to 14) (size 15 to 20)
#    0.000    2.400    2.000    1.800    0.000    5.600 
#    0.000    2.000    0.000    2.400    0.000    2.800 
#    0.000    0.000    0.000    0.000    0.000    0.000 
#
# Total GULP energy -495646.625381 kJ/mol
# GULP energy per Si atom -12391.165635 kJ/mol
# Density = 1.892985 g / cm^3
# Si number density = 18.973034 Si / 1000 Ang^3
#
#
#
# Elastic Constant Matrix: (Units=GPa)
#
#
# Indices 1 2 3 4 5 6 
#
# 1 59.7595 15.0570 26.1154 0.0000 0.0000 0.0000
# 2 15.0570 56.1246 35.9324 0.0000 0.0000 0.0000
# 3 26.1154 35.9324 154.0704 0.0000 0.0000 0.0000
# 4 0.0000 0.0000 0.0000 9.3613 0.0000 0.0000
# 5 0.0000 0.0000 0.0000 0.0000 27.3444 0.0000
# 6 0.0000 0.0000 0.0000 0.0000 0.0000 23.4485
#
#
#
# Elastic Compliance Matrix: (Units=1/GPa)
#
#
# Indices 1 2 3 4 5 6 
#
# 1 0.018640 -0.003501 -0.002343 0.000000 0.000000 0.000000
# 2 -0.003501 0.021602 -0.004445 0.000000 0.000000 0.000000
# 3 -0.002343 -0.004445 0.007924 0.000000 0.000000 0.000000
# 4 0.000000 0.000000 0.000000 0.106822 0.000000 0.000000
# 5 0.000000 0.000000 0.000000 0.000000 0.036571 0.000000
# 6 0.000000 0.000000 0.000000 0.000000 0.000000 0.042647
#
#
# Mechanical properties :
#
#
# Convention : Reuss Voigt Hill
#
# Bulk Modulus (GPa) = 36.24563 47.12935 41.68749
# Shear Modulus (GPa) = 18.94091 24.88749 21.91420
#
# Velocity S-wave (km/s) = 3.16303 3.62571 3.40224
# Velocity P-wave (km/s) = 5.69955 6.51320 6.11991
#
# Compressibility (1/GPa) = 0.02758953
#
# Stress axis : x y z
#
# Youngs Moduli (GPa) = 53.64903 46.29144 126.19401
#
# Poissons Ratio (x) = 0.16204 0.29568
# Poissons Ratio (y) = 0.18780 0.56090
# Poissons Ratio (z) = 0.12570 0.20575
#
# Static dielectric constant tensor:
#      x y z
#    x 3.313900 0.000000 0.000000 
#    y 0.000000 3.191060 0.000000 
#    z 0.000000 0.000000 4.206300 
# 
# 
# High freq. dielectric constant tensor:
#      x y z
#    x 1.721660 0.000000 0.000000 
#    y 0.000000 1.698330 0.000000 
#    z 0.000000 0.000000 1.758550 
# 
# From -- ./inp_files/7363.got.cif
#   From: 2010.03.12/outbox.cif.g09.slc.cpg/sg59_4_cif.got.tgz:7363.got - 2010.04.16 16:29:54.
