data_PCOD8243984
_publ_section_title
;
Structure prediction by ZEFSAII (Michael W. Deem and Ramdas Pophale) SiO2 
 PCOD8243984
Probable space group: P M M N
;
_chemical_formula_sum "Si O2"
_cell_formula_units_Z 48
_cell_length_a 23.165411
_cell_length_b 8.979650
_cell_length_c 11.087020
_cell_angle_alpha 90.000000
_cell_angle_beta 90.000000
_cell_angle_gamma 90.000000
_cell_volume 2306.291776
_symmetry_space_group_name_H-M "P M M N"
_symmetry_group_IT_number 59
_space_group.IT_coordinate_system_code '2'
_symmetry_cell_setting 'orthorhombic'
loop_
_space_group_symop_operation_xyz
x,y,z
1/2-x,1/2-y,z
1/2+x,-y,-z
-x,1/2+y,-z
-x,-y,-z
1/2+x,1/2+y,-z
1/2-x,y,z
x,1/2-y,z
loop_
_atom_site_type_symbol
_atom_site_label
_atom_site_fract_x
_atom_site_fract_y
_atom_site_fract_z
Si Si1 0.619272 0.920483 0.071628
Si Si2 0.405188 0.422491 0.305959
Si Si3 0.684229 0.919555 0.319772
Si Si4 0.410904 0.576545 0.549934
Si Si5 0.525219 0.420992 0.208211
Si Si6 0.316536 0.926350 0.146488
O O1 0.613589 0.750000 0.028475
O O2 0.659590 0.938910 0.186633
O O3 0.555140 0.980396 0.104202
O O4 0.649231 0.015318 0.968573
O O5 0.390316 0.250000 0.322636
O O6 0.429192 0.486325 0.431509
O O7 0.456015 0.443985 0.205957
O O8 0.347522 0.508046 0.265127
O O9 0.750000 0.968821 0.315455
O O10 0.676270 0.750000 0.364266
O O11 0.653834 0.029542 0.413709
O O12 0.413534 0.750000 0.520180
O O13 0.452984 0.530257 0.659049
O O14 0.542442 0.250000 0.185053
O O15 0.250000 0.980268 0.143699
O O16 0.320307 0.750000 0.150524
#
# Coordination Sequence:
#
# PCOD8243984 Si02
#       6
#     8   8   8   8   8   8
#     4  10  20  36  61  89 115 146 186 234 286 337
#     4  11  23  39  60  84 113 151 192 233 278 333
#     4   9  18  33  54  81 112 146 187 234 281 332
#     4  10  20  35  56  83 116 150 186 231 282 337
#     4   9  20  38  60  88 118 148 185 230 282 337
#     4  11  25  43  61  82 112 151 192 234 282 336
#
# _framework density 20.812631
#
# number of rings (size 3 to 8) (size 9 to 14) (size 15 to 20)
#    0.000    2.000    0.000    3.000    0.000    6.333 
#    0.000    0.000    0.000    0.000    0.000    0.000 
#    0.000    0.000    0.000    0.000    0.000    0.000 
#
# Total GULP energy -595334.994765 kJ/mol
# GULP energy per Si atom -12402.812391 kJ/mol
# Density = 2.076526 g / cm^3
# Si number density = 20.812631 Si / 1000 Ang^3
#
#
#
# Elastic Constant Matrix: (Units=GPa)
#
#
# Indices 1 2 3 4 5 6 
#
# 1 95.0773 37.0066 13.6660 0.0000 0.0000 0.0000
# 2 37.0066 90.8722 29.4146 0.0000 0.0000 0.0000
# 3 13.6660 29.4146 42.7764 0.0000 0.0000 0.0000
# 4 0.0000 0.0000 0.0000 39.0544 0.0000 0.0000
# 5 0.0000 0.0000 0.0000 0.0000 23.1410 0.0000
# 6 0.0000 0.0000 0.0000 0.0000 0.0000 33.4619
#
#
#
# Elastic Compliance Matrix: (Units=1/GPa)
#
#
# Indices 1 2 3 4 5 6 
#
# 1 0.012512 -0.004890 -0.000635 0.000000 0.000000 0.000000
# 2 -0.004890 0.016066 -0.009486 0.000000 0.000000 0.000000
# 3 -0.000635 -0.009486 0.030103 0.000000 0.000000 0.000000
# 4 0.000000 0.000000 0.000000 0.025605 0.000000 0.000000
# 5 0.000000 0.000000 0.000000 0.000000 0.043213 0.000000
# 6 0.000000 0.000000 0.000000 0.000000 0.000000 0.029885
#
#
# Mechanical properties :
#
#
# Convention : Reuss Voigt Hill
#
# Bulk Modulus (GPa) = 34.89101 43.21113 39.05107
# Shear Modulus (GPa) = 25.38600 29.04071 27.21336
#
# Velocity S-wave (km/s) = 3.49627 3.73948 3.61992
# Velocity P-wave (km/s) = 5.75319 6.28108 6.02292
#
# Compressibility (1/GPa) = 0.02866068
#
# Stress axis : x y z
#
# Youngs Moduli (GPa) = 79.92118 62.24230 33.21952
#
# Poissons Ratio (x) = 0.30437 0.02109
# Poissons Ratio (y) = 0.39081 0.31510
# Poissons Ratio (z) = 0.05074 0.59040
#
# Static dielectric constant tensor:
#      x y z
#    x 3.909870 0.000000 0.000000 
#    y 0.000000 3.749080 0.000000 
#    z 0.000000 0.000000 3.653700 
# 
# 
# High freq. dielectric constant tensor:
#      x y z
#    x 1.820600 0.000000 0.000000 
#    y 0.000000 1.816270 0.000000 
#    z 0.000000 0.000000 1.811530 
# 
# From -- ./inp_files/18619.got.cif
#   From: 2010.03.12/outbox.cif.g09.slc.cpg/sg59_10_cif.got.tgz:18619.got - 2010.04.16 16:29:54.
