data_PCOD8243592
_publ_section_title
;
Structure prediction by ZEFSAII (Michael W. Deem and Ramdas Pophale) SiO2 
 PCOD8243592
Probable space group: P M M N
;
_chemical_formula_sum "Si O2"
_cell_formula_units_Z 48
_cell_length_a 9.242439
_cell_length_b 14.922630
_cell_length_c 18.921239
_cell_angle_alpha 90.000000
_cell_angle_beta 90.000000
_cell_angle_gamma 90.000000
_cell_volume 2609.645617
_symmetry_space_group_name_H-M "P M M N"
_symmetry_group_IT_number 59
_space_group.IT_coordinate_system_code '2'
_symmetry_cell_setting 'orthorhombic'
loop_
_space_group_symop_operation_xyz
x,y,z
1/2-x,1/2-y,z
1/2+x,-y,-z
-x,1/2+y,-z
-x,-y,-z
1/2+x,1/2+y,-z
1/2-x,y,z
x,1/2-y,z
loop_
_atom_site_type_symbol
_atom_site_label
_atom_site_fract_x
_atom_site_fract_y
_atom_site_fract_z
Si Si1 0.580113 0.104630 0.161473
Si Si2 0.081216 0.250000 0.421919
Si Si3 0.579133 0.911028 0.477145
Si Si4 0.582189 0.250000 0.275666
Si Si5 0.578142 0.250000 0.052161
Si Si6 0.919161 0.423849 0.810994
Si Si7 0.922532 0.250000 0.893211
Si Si8 0.413989 0.853772 0.340959
O O1 0.750000 0.085711 0.157727
O O2 0.541759 0.161251 0.231581
O O3 0.526189 0.160873 0.093304
O O4 0.498066 0.011332 0.160873
O O5 0.250000 0.250000 0.407078
O O6 0.034234 0.163428 0.466135
O O7 0.004681 0.250000 0.347445
O O8 0.750000 0.926418 0.474350
O O9 0.527475 0.880775 0.400323
O O10 0.500000 0.000000 0.500000
O O11 0.750000 0.250000 0.294745
O O12 0.750000 0.250000 0.052275
O O13 0.515566 0.250000 0.972998
O O14 0.750000 0.435395 0.825279
O O15 0.980602 0.338394 0.853672
O O16 0.950918 0.411515 0.728092
O O17 0.750000 0.250000 0.891914
O O18 0.250000 0.873624 0.366845
O O19 0.430780 0.750000 0.320768
#
# Coordination Sequence:
#
# PCOD8243592 Si02
#       8
#     8   4   8   4   4   8   4   8
#     4   9  19  36  55  80 109 142 182 223 269 324
#     4  10  23  40  56  78 109 138 176 230 278 318
#     4  11  24  41  58  82 112 145 184 229 278 332
#     4   9  20  37  56  76 104 142 184 221 264 328
#     4   8  16  34  58  78 109 149 182 219 267 324
#     4  10  20  34  55  83 111 141 183 227 267 320
#     4   9  17  33  56  82 110 147 186 220 265 324
#     4  10  20  37  58  79 108 146 185 229 276 328
#
# _framework density 18.393301999999998
#
# number of rings (size 3 to 8) (size 9 to 14) (size 15 to 20)
#    0.000    2.333    1.667    1.500    2.333    3.333 
#    0.000    1.667    0.000    1.000    0.000    0.000 
#    0.000    0.000    0.000    0.000    0.000    0.000 
#
# Total GULP energy -595251.654575 kJ/mol
# GULP energy per Si atom -12401.076137 kJ/mol
# Density = 1.835144 g / cm^3
# Si number density = 18.393302 Si / 1000 Ang^3
#
#
#
# Elastic Constant Matrix: (Units=GPa)
#
#
# Indices 1 2 3 4 5 6 
#
# 1 48.2793 51.1616 44.4082 0.0000 0.0000 0.0000
# 2 51.1616 156.2539 67.8034 0.0000 0.0000 0.0000
# 3 44.4082 67.8034 130.9178 0.0000 0.0000 0.0000
# 4 0.0000 0.0000 0.0000 28.1757 0.0000 0.0000
# 5 0.0000 0.0000 0.0000 0.0000 18.1760 0.0000
# 6 0.0000 0.0000 0.0000 0.0000 0.0000 35.8845
#
#
#
# Elastic Compliance Matrix: (Units=1/GPa)
#
#
# Indices 1 2 3 4 5 6 
#
# 1 0.037497 -0.008717 -0.008205 0.000000 0.000000 0.000000
# 2 -0.008717 0.010282 -0.002368 0.000000 0.000000 0.000000
# 3 -0.008205 -0.002368 0.011648 0.000000 0.000000 0.000000
# 4 0.000000 0.000000 0.000000 0.035492 0.000000 0.000000
# 5 0.000000 0.000000 0.000000 0.000000 0.055018 0.000000
# 6 0.000000 0.000000 0.000000 0.000000 0.000000 0.027867
#
#
# Mechanical properties :
#
#
# Convention : Reuss Voigt Hill
#
# Bulk Modulus (GPa) = 47.96854 73.57750 60.77302
# Shear Modulus (GPa) = 22.38819 27.91907 25.15363
#
# Velocity S-wave (km/s) = 3.49261 3.90024 3.70204
# Velocity P-wave (km/s) = 6.51156 7.76992 7.16841
#
# Compressibility (1/GPa) = 0.02084700
#
# Stress axis : x y z
#
# Youngs Moduli (GPa) = 26.66859 97.26045 85.85308
#
# Poissons Ratio (x) = 0.84786 0.70438
# Poissons Ratio (y) = 0.23248 0.20330
# Poissons Ratio (z) = 0.21880 0.23031
#
# Static dielectric constant tensor:
#      x y z
#    x 3.082410 0.000000 0.000000 
#    y 0.000000 3.477390 0.000000 
#    z 0.000000 0.000000 3.729290 
# 
# 
# High freq. dielectric constant tensor:
#      x y z
#    x 1.691000 0.000000 0.000000 
#    y 0.000000 1.724250 0.000000 
#    z 0.000000 0.000000 1.721160 
# 
# From -- ./inp_files/25698.got.cif
#   From: 2010.03.12/outbox.cif.g09.slc.cpg/sg59_13_cif.got.tgz:25698.got - 2010.04.16 16:29:54.
