data_PCOD8243184
_publ_section_title
;
Structure prediction by ZEFSAII (Michael W. Deem and Ramdas Pophale) SiO2 
 PCOD8243184
Probable space group: P M M N
;
_chemical_formula_sum "Si O2"
_cell_formula_units_Z 64
_cell_length_a 9.214119
_cell_length_b 22.232849
_cell_length_c 16.611106
_cell_angle_alpha 90.000000
_cell_angle_beta 90.000000
_cell_angle_gamma 90.000000
_cell_volume 3402.886664
_symmetry_space_group_name_H-M "P M M N"
_symmetry_group_IT_number 59
_space_group.IT_coordinate_system_code '2'
_symmetry_cell_setting 'orthorhombic'
loop_
_space_group_symop_operation_xyz
x,y,z
1/2-x,1/2-y,z
1/2+x,-y,-z
-x,1/2+y,-z
-x,-y,-z
1/2+x,1/2+y,-z
1/2-x,y,z
x,1/2-y,z
loop_
_atom_site_type_symbol
_atom_site_label
_atom_site_fract_x
_atom_site_fract_y
_atom_site_fract_z
Si Si1 0.092011 0.817683 0.790082
Si Si2 0.421495 0.317050 0.886363
Si Si3 0.915986 0.821388 0.640240
Si Si4 0.417192 0.463105 0.610483
Si Si5 0.579409 0.567519 0.207110
Si Si6 0.418491 0.589315 0.535562
Si Si7 0.587308 0.649720 0.936144
Si Si8 0.086060 0.011193 0.080770
O O1 0.250000 0.850819 0.792638
O O2 0.118738 0.750000 0.762435
O O3 0.987994 0.846702 0.722684
O O4 0.019249 0.815139 0.877425
O O5 0.250000 0.312528 0.885490
O O6 0.487143 0.250000 0.870027
O O7 0.471610 0.364983 0.818519
O O8 0.472943 0.342294 0.973176
O O9 0.750000 0.842599 0.641315
O O10 0.927659 0.750000 0.630120
O O11 0.998156 0.851943 0.566127
O O12 0.250000 0.447214 0.591512
O O13 0.459569 0.443938 0.700448
O O14 0.444820 0.534010 0.597053
O O15 0.520428 0.425445 0.552372
O O16 0.750000 0.558938 0.189827
O O17 0.493639 0.518675 0.155732
O O18 0.250000 0.605024 0.527518
O O19 0.750000 0.676865 0.930501
O O20 0.588157 0.581927 0.905337
O O21 0.250000 0.986013 0.073101
O O22 0.000000 0.000000 0.000000
#
# Coordination Sequence:
#
# PCOD8243184 Si02
#       8
#     8   8   8   8   8   8   8   8
#     4  10  21  35  51  76 110 145 183 225 271 323
#     4   9  17  32  55  78 103 140 184 228 271 318
#     4  10  21  37  57  81 112 149 187 229 277 333
#     4   9  20  37  58  83 112 146 180 226 282 338
#     4  10  20  37  57  81 112 143 184 231 277 327
#     4  10  20  36  58  85 113 144 183 226 278 336
#     4  10  20  34  52  76 105 142 186 225 268 324
#     4  11  22  36  54  79 109 143 181 223 275 328
#
# _framework density 18.807561
#
# number of rings (size 3 to 8) (size 9 to 14) (size 15 to 20)
#    0.000    2.125    1.250    1.875    1.750    4.000 
#    0.000    0.625    0.000    2.625    0.000    0.000 
#    0.000    0.000    0.000    0.000    0.000    0.000 
#
# Total GULP energy -793496.085778 kJ/mol
# GULP energy per Si atom -12398.376340 kJ/mol
# Density = 1.876475 g / cm^3
# Si number density = 18.807561 Si / 1000 Ang^3
#
#
#
# Elastic Constant Matrix: (Units=GPa)
#
#
# Indices 1 2 3 4 5 6 
#
# 1 117.5937 33.5183 68.7747 0.0000 0.0000 0.0000
# 2 33.5183 76.5036 52.3371 0.0000 0.0000 0.0000
# 3 68.7747 52.3371 135.5456 0.0000 0.0000 0.0000
# 4 0.0000 0.0000 0.0000 29.1852 0.0000 0.0000
# 5 0.0000 0.0000 0.0000 0.0000 30.1411 0.0000
# 6 0.0000 0.0000 0.0000 0.0000 0.0000 24.7698
#
#
#
# Elastic Compliance Matrix: (Units=1/GPa)
#
#
# Indices 1 2 3 4 5 6 
#
# 1 0.012219 -0.001511 -0.005616 0.000000 0.000000 0.000000
# 2 -0.001511 0.017950 -0.006164 0.000000 0.000000 0.000000
# 3 -0.005616 -0.006164 0.012607 0.000000 0.000000 0.000000
# 4 0.000000 0.000000 0.000000 0.034264 0.000000 0.000000
# 5 0.000000 0.000000 0.000000 0.000000 0.033177 0.000000
# 6 0.000000 0.000000 0.000000 0.000000 0.000000 0.040372
#
#
# Mechanical properties :
#
#
# Convention : Reuss Voigt Hill
#
# Bulk Modulus (GPa) = 61.75396 70.98922 66.37159
# Shear Modulus (GPa) = 27.38643 28.48675 27.93659
#
# Velocity S-wave (km/s) = 3.82008 3.89606 3.85826
# Velocity P-wave (km/s) = 7.23625 7.62011 7.43066
#
# Compressibility (1/GPa) = 0.01619329
#
# Stress axis : x y z
#
# Youngs Moduli (GPa) = 81.83679 55.70886 79.31798
#
# Poissons Ratio (x) = 0.08420 0.44549
# Poissons Ratio (y) = 0.12368 0.48893
# Poissons Ratio (z) = 0.45963 0.34340
#
# Static dielectric constant tensor:
#      x y z
#    x 3.571120 0.000000 0.000000 
#    y 0.000000 13.834770 0.000000 
#    z 0.000000 0.000000 3.412930 
# 
# 
# High freq. dielectric constant tensor:
#      x y z
#    x 1.726360 0.000000 0.000000 
#    y 0.000000 1.723990 0.000000 
#    z 0.000000 0.000000 1.724220 
# 
# From -- ./inp_files/26180.got.cif
#   From: 2010.03.12/outbox.cif.g09.slc.cpg/sg59_14_cif.got.tgz:26180.got - 2010.04.16 16:29:54.
