data_PCOD8243824
_publ_section_title
;
Structure prediction by ZEFSAII (Michael W. Deem and Ramdas Pophale) SiO2 
 PCOD8243824
Probable space group: P M M N
;
_chemical_formula_sum "Si O2"
_cell_formula_units_Z 32
_cell_length_a 13.622263
_cell_length_b 23.914433
_cell_length_c 5.025311
_cell_angle_alpha 90.000000
_cell_angle_beta 90.000000
_cell_angle_gamma 90.000000
_cell_volume 1637.089011
_symmetry_space_group_name_H-M "P M M N"
_symmetry_group_IT_number 59
_space_group.IT_coordinate_system_code '2'
_symmetry_cell_setting 'orthorhombic'
loop_
_space_group_symop_operation_xyz
x,y,z
1/2-x,1/2-y,z
1/2+x,-y,-z
-x,1/2+y,-z
-x,-y,-z
1/2+x,1/2+y,-z
1/2-x,y,z
x,1/2-y,z
loop_
_atom_site_type_symbol
_atom_site_label
_atom_site_fract_x
_atom_site_fract_y
_atom_site_fract_z
Si Si1 0.356156 0.432850 0.341802
Si Si2 0.636120 0.315111 0.743077
Si Si3 0.440464 0.877491 0.767802
Si Si4 0.395485 0.998184 0.867744
O O1 0.250000 0.403399 0.404897
O O2 0.443099 0.389264 0.276790
O O3 0.391187 0.468716 0.592782
O O4 0.328876 0.473350 0.092477
O O5 0.750000 0.326024 0.810244
O O6 0.613971 0.250000 0.711680
O O7 0.606887 0.344483 0.472081
O O8 0.567110 0.339416 0.972450
O O9 0.373970 0.933218 0.807371
O O10 0.500000 0.000000 0.000000
#
# Coordination Sequence:
#
# PCOD8243824 Si02
#       4
#     8   8   8   8
#     4  11  22  36  57  86 121 154 185 223 272 337
#     4  11  24  40  59  83 108 141 189 242 292 334
#     4  11  21  38  60  82 114 150 186 229 280 336
#     4  10  20  35  54  82 117 151 187 224 265 325
#
# _framework density 19.546892
#
# number of rings (size 3 to 8) (size 9 to 14) (size 15 to 20)
#    0.000    1.250    0.000    9.750    0.000    8.000 
#    0.000    0.000    0.000    4.500    0.000    0.000 
#    0.000    0.000    0.000    0.000    0.000    0.000 
#
# Total GULP energy -396518.761887 kJ/mol
# GULP energy per Si atom -12391.211309 kJ/mol
# Density = 1.950240 g / cm^3
# Si number density = 19.546892 Si / 1000 Ang^3
#
#
#
# Elastic Constant Matrix: (Units=GPa)
#
#
# Indices 1 2 3 4 5 6 
#
# 1 114.4173 47.9138 25.2041 0.0000 0.0000 0.0000
# 2 47.9138 115.1939 65.5788 0.0000 0.0000 0.0000
# 3 25.2041 65.5788 158.4286 0.0000 0.0000 0.0000
# 4 0.0000 0.0000 0.0000 49.5295 0.0000 0.0000
# 5 0.0000 0.0000 0.0000 0.0000 52.1757 0.0000
# 6 0.0000 0.0000 0.0000 0.0000 0.0000 289.6771
#
#
#
# Elastic Compliance Matrix: (Units=1/GPa)
#
#
# Indices 1 2 3 4 5 6 
#
# 1 0.010587 -0.004507 0.000181 0.000000 0.000000 0.000000
# 2 -0.004507 0.013276 -0.004778 0.000000 0.000000 0.000000
# 3 0.000181 -0.004778 0.008261 0.000000 0.000000 0.000000
# 4 0.000000 0.000000 0.000000 0.020190 0.000000 0.000000
# 5 0.000000 0.000000 0.000000 0.000000 0.019166 0.000000
# 6 0.000000 0.000000 0.000000 0.000000 0.000000 0.003452
#
#
# Mechanical properties :
#
#
# Convention : Reuss Voigt Hill
#
# Bulk Modulus (GPa) = 71.85809 73.93700 72.89754
# Shear Modulus (GPa) = 51.13567 94.89932 73.01749
#
# Velocity S-wave (km/s) = 5.12028 6.97531 6.11851
# Velocity P-wave (km/s) = 8.47338 10.13809 9.34288
#
# Compressibility (1/GPa) = 0.01391632
#
# Stress axis : x y z
#
# Youngs Moduli (GPa) = 94.45252 75.32466 121.04973
#
# Poissons Ratio (x) = 0.33948 -0.02194
# Poissons Ratio (y) = 0.42569 0.57842
# Poissons Ratio (z) = -0.01712 0.35993
#
# Static dielectric constant tensor:
#      x y z
#    x 4.083140 0.000000 0.000000 
#    y 0.000000 3.763190 0.000000 
#    z 0.000000 0.000000 4.211240 
# 
# 
# High freq. dielectric constant tensor:
#      x y z
#    x 1.770370 0.000000 0.000000 
#    y 0.000000 1.735810 0.000000 
#    z 0.000000 0.000000 1.789470 
# 
# From -- ./inp_files/1894.got.cif
#   From: 2010.03.12/outbox.cif.g09.slc.cpg/sg59_1_cif.got.tgz:1894.got - 2010.04.16 16:29:54.
