data_PCOD8243352
_publ_section_title
;
Structure prediction by ZEFSAII (Michael W. Deem and Ramdas Pophale) SiO2 
 PCOD8243352
Probable space group: P M M N
;
_chemical_formula_sum "Si O2"
_cell_formula_units_Z 56
_cell_length_a 14.317898
_cell_length_b 8.901701
_cell_length_c 23.675682
_cell_angle_alpha 90.000000
_cell_angle_beta 90.000000
_cell_angle_gamma 90.000000
_cell_volume 3017.552015
_symmetry_space_group_name_H-M "P M M N"
_symmetry_group_IT_number 59
_space_group.IT_coordinate_system_code '2'
_symmetry_cell_setting 'orthorhombic'
loop_
_space_group_symop_operation_xyz
x,y,z
1/2-x,1/2-y,z
1/2+x,-y,-z
-x,1/2+y,-z
-x,-y,-z
1/2+x,1/2+y,-z
1/2-x,y,z
x,1/2-y,z
loop_
_atom_site_type_symbol
_atom_site_label
_atom_site_fract_x
_atom_site_fract_y
_atom_site_fract_z
Si Si1 0.855644 0.927296 0.150626
Si Si2 0.009437 0.925213 0.766645
Si Si3 0.140801 0.076522 0.560842
Si Si4 0.641287 0.423665 0.554703
Si Si5 0.643147 0.574418 0.856562
Si Si6 0.496535 0.072339 0.362166
Si Si7 0.992318 0.072746 0.939378
O O1 0.750000 0.988140 0.143042
O O2 0.856052 0.750000 0.156696
O O3 0.917194 0.978235 0.096830
O O4 0.900371 0.993135 0.207531
O O5 0.030466 0.750000 0.769829
O O6 0.995774 0.979008 0.702740
O O7 0.915089 0.967351 0.800457
O O8 0.250000 0.053681 0.569264
O O9 0.110912 0.250000 0.563884
O O10 0.107484 0.011958 0.500799
O O11 0.092732 0.983260 0.610461
O O12 0.750000 0.447133 0.565359
O O13 0.614750 0.250000 0.546833
O O14 0.590578 0.491695 0.608728
O O15 0.750000 0.525146 0.846597
O O16 0.635614 0.750000 0.870516
O O17 0.602088 0.484476 0.909691
O O18 0.486462 0.250000 0.368717
O O19 0.987149 0.250000 0.945775
O O20 0.000000 0.000000 0.000000
#
# Coordination Sequence:
#
# PCOD8243352 Si02
#       7
#     8   8   8   8   8   8   8
#     4   9  19  36  56  76 102 139 177 214 260 308
#     4   9  20  36  53  77 105 135 174 217 259 305
#     4  10  21  37  56  77 103 137 176 217 263 317
#     4  10  21  37  56  78 105 136 172 216 264 315
#     4   9  18  35  57  77 102 139 178 216 260 307
#     4  11  22  35  54  79 108 140 173 214 263 315
#     4  10  20  34  53  80 112 141 174 216 258 306
#
# _framework density 18.558088999999999
#
# number of rings (size 3 to 8) (size 9 to 14) (size 15 to 20)
#    0.000    2.286    0.000    2.143    0.000    5.714 
#    0.000    5.714    0.000    0.000    0.000    0.000 
#    0.000    0.000    0.000    0.000    0.000    0.000 
#
# Total GULP energy -694573.942806 kJ/mol
# GULP energy per Si atom -12403.106122 kJ/mol
# Density = 1.851585 g / cm^3
# Si number density = 18.558089 Si / 1000 Ang^3
#
#
#
# Elastic Constant Matrix: (Units=GPa)
#
#
# Indices 1 2 3 4 5 6 
#
# 1 127.8171 32.4948 60.6644 0.0000 0.0000 0.0000
# 2 32.4948 46.8869 36.9482 0.0000 0.0000 0.0000
# 3 60.6644 36.9482 147.8699 0.0000 0.0000 0.0000
# 4 0.0000 0.0000 0.0000 33.2051 0.0000 0.0000
# 5 0.0000 0.0000 0.0000 0.0000 -18.3966 0.0000
# 6 0.0000 0.0000 0.0000 0.0000 0.0000 31.2486
#
#
#
# Elastic Compliance Matrix: (Units=1/GPa)
#
#
# Indices 1 2 3 4 5 6 
#
# 1 0.010532 -0.004849 -0.003109 0.000000 0.000000 0.000000
# 2 -0.004849 0.028790 -0.005204 0.000000 0.000000 0.000000
# 3 -0.003109 -0.005204 0.009339 0.000000 0.000000 0.000000
# 4 0.000000 0.000000 0.000000 0.030116 0.000000 0.000000
# 5 0.000000 0.000000 0.000000 0.000000 -0.054358 0.000000
# 6 0.000000 0.000000 0.000000 0.000000 0.000000 0.032001
#
#
# Mechanical properties :
#
#
# Convention : Reuss Voigt Hill
#
# Bulk Modulus (GPa) = 44.77228 64.75431 54.76329
# Shear Modulus (GPa) = 55.43828 22.04252 38.74040
#
# Velocity S-wave (km/s) = 5.47153 3.45013 4.57390
# Velocity P-wave (km/s) = 8.00592 7.13019 7.58071
#
# Compressibility (1/GPa) = 0.02233525
#
# Stress axis : x y z
#
# Youngs Moduli (GPa) = 94.94727 34.73465 107.08153
#
# Poissons Ratio (x) = 0.16843 0.33294
# Poissons Ratio (y) = 0.46041 0.55729
# Poissons Ratio (z) = 0.29521 0.18077
#
# Static dielectric constant tensor:
#      x y z
#    x 3.557510 0.000000 0.000000 
#    y 0.000000 3.459450 0.000000 
#    z 0.000000 0.000000 3.484530 
# 
# 
# High freq. dielectric constant tensor:
#      x y z
#    x 1.728010 0.000000 0.000000 
#    y 0.000000 1.724830 0.000000 
#    z 0.000000 0.000000 1.718880 
# 
# From -- ./inp_files/29027.got.cif
#   From: 2010.03.12/outbox.cif.g09.slc.cpg/sg59_15_cif.got.tgz:29027.got - 2010.04.16 16:29:54.
