data_PCOD8243367
_publ_section_title
;
Structure prediction by ZEFSAII (Michael W. Deem and Ramdas Pophale) SiO2 
 PCOD8243367
Probable space group: P M M N
;
_chemical_formula_sum "Si O2"
_cell_formula_units_Z 64
_cell_length_a 8.889930
_cell_length_b 15.918050
_cell_length_c 22.180719
_cell_angle_alpha 90.000000
_cell_angle_beta 90.000000
_cell_angle_gamma 90.000000
_cell_volume 3138.801314
_symmetry_space_group_name_H-M "P M M N"
_symmetry_group_IT_number 59
_space_group.IT_coordinate_system_code '2'
_symmetry_cell_setting 'orthorhombic'
loop_
_space_group_symop_operation_xyz
x,y,z
1/2-x,1/2-y,z
1/2+x,-y,-z
-x,1/2+y,-z
-x,-y,-z
1/2+x,1/2+y,-z
1/2-x,y,z
x,1/2-y,z
loop_
_atom_site_type_symbol
_atom_site_label
_atom_site_fract_x
_atom_site_fract_y
_atom_site_fract_z
Si Si1 0.579197 0.150393 0.119000
Si Si2 0.576300 0.343728 0.354113
Si Si3 0.080308 0.849651 0.121250
Si Si4 0.924741 0.918309 0.238108
Si Si5 0.929114 0.001079 0.434787
Si Si6 0.419924 0.149871 0.998611
Si Si7 0.925578 0.841313 0.362183
Si Si8 0.927219 0.591386 0.759957
O O1 0.750000 0.117799 0.120406
O O2 0.572271 0.250000 0.121104
O O3 0.491305 0.113953 0.175194
O O4 0.501409 0.115608 0.058442
O O5 0.750000 0.361367 0.338897
O O6 0.554095 0.250000 0.381813
O O7 0.516874 0.413944 0.400889
O O8 0.486412 0.346174 0.291444
O O9 0.250000 0.884505 0.128253
O O10 0.080423 0.750000 0.120910
O O11 0.977232 0.880966 0.175189
O O12 0.010399 0.884626 0.059196
O O13 0.750000 0.943108 0.233740
O O14 0.954142 0.851235 0.290834
O O15 0.020150 0.998719 0.257437
O O16 0.750000 0.999453 0.439544
O O17 0.994371 0.919168 0.399758
O O18 0.000000 0.000000 0.500000
O O19 0.250000 0.115330 0.996683
O O20 0.420560 0.250000 0.998473
O O21 0.750000 0.840524 0.375828
O O22 0.994748 0.750000 0.381171
O O23 0.750000 0.597828 0.763080
#
# Coordination Sequence:
#
# PCOD8243367 Si02
#       8
#     8   8   8   8   8   8   8   8
#     4  10  20  35  56  81 110 148 193 241 299 363
#     4  10  21  40  64  88 119 162 207 247 294 355
#     4  10  20  34  53  81 116 151 191 242 302 363
#     4  11  21  37  59  82 112 151 199 247 300 361
#     4  10  21  39  61  90 126 162 200 243 292 348
#     4   9  17  31  52  78 109 147 194 245 296 355
#     4   9  18  35  61  89 117 153 198 246 295 350
#     4  12  24  37  56  84 118 151 192 247 307 360
#
# _framework density 20.389949000000001
#
# number of rings (size 3 to 8) (size 9 to 14) (size 15 to 20)
#    0.000    1.875    1.250    3.375    0.000    6.250 
#    0.000    0.625    0.000    1.500    0.000    0.000 
#    0.000    0.000    0.000    0.000    0.000    0.000 
#
# Total GULP energy -793625.018803 kJ/mol
# GULP energy per Si atom -12400.390919 kJ/mol
# Density = 2.034354 g / cm^3
# Si number density = 20.389949 Si / 1000 Ang^3
#
#
#
# Elastic Constant Matrix: (Units=GPa)
#
#
# Indices 1 2 3 4 5 6 
#
# 1 78.6349 31.6129 29.3042 0.0000 0.0000 0.0000
# 2 31.6129 105.9480 60.8626 0.0000 0.0000 0.0000
# 3 29.3042 60.8626 136.3465 0.0000 0.0000 0.0000
# 4 0.0000 0.0000 0.0000 24.3938 0.0000 0.0000
# 5 0.0000 0.0000 0.0000 0.0000 38.4216 0.0000
# 6 0.0000 0.0000 0.0000 0.0000 0.0000 19.5868
#
#
#
# Elastic Compliance Matrix: (Units=1/GPa)
#
#
# Indices 1 2 3 4 5 6 
#
# 1 0.014711 -0.003461 -0.001617 0.000000 0.000000 0.000000
# 2 -0.003461 0.013508 -0.005286 0.000000 0.000000 0.000000
# 3 -0.001617 -0.005286 0.010041 0.000000 0.000000 0.000000
# 4 0.000000 0.000000 0.000000 0.040994 0.000000 0.000000
# 5 0.000000 0.000000 0.000000 0.000000 0.026027 0.000000
# 6 0.000000 0.000000 0.000000 0.000000 0.000000 0.051055
#
#
# Mechanical properties :
#
#
# Convention : Reuss Voigt Hill
#
# Bulk Modulus (GPa) = 57.03519 62.72098 59.87809
# Shear Modulus (GPa) = 27.33636 29.75709 28.54672
#
# Velocity S-wave (km/s) = 3.66550 3.82435 3.74577
# Velocity P-wave (km/s) = 6.77845 7.09425 6.93815
#
# Compressibility (1/GPa) = 0.01753303
#
# Stress axis : x y z
#
# Youngs Moduli (GPa) = 67.97730 74.03232 99.58897
#
# Poissons Ratio (x) = 0.25619 0.16104
# Poissons Ratio (y) = 0.23524 0.52641
# Poissons Ratio (z) = 0.10992 0.39132
#
# Static dielectric constant tensor:
#      x y z
#    x 3.730500 0.000000 0.000000 
#    y 0.000000 3.829700 0.000000 
#    z 0.000000 0.000000 3.750780 
# 
# 
# High freq. dielectric constant tensor:
#      x y z
#    x 1.786330 0.000000 0.000000 
#    y 0.000000 1.793100 0.000000 
#    z 0.000000 0.000000 1.800430 
# 
# From -- ./inp_files/31531.got.cif
#   From: 2010.03.12/outbox.cif.g09.slc.cpg/sg59_16_cif.got.tgz:31531.got - 2010.04.16 16:29:54.
