data_PCOD8243310
_publ_section_title
;
Structure prediction by ZEFSAII (Michael W. Deem and Ramdas Pophale) SiO2 
 PCOD8243310
Probable space group: P M M N
;
_chemical_formula_sum "Si O2"
_cell_formula_units_Z 64
_cell_length_a 22.645486
_cell_length_b 9.215931
_cell_length_c 15.999961
_cell_angle_alpha 90.000000
_cell_angle_beta 90.000000
_cell_angle_gamma 90.000000
_cell_volume 3339.179644
_symmetry_space_group_name_H-M "P M M N"
_symmetry_group_IT_number 59
_space_group.IT_coordinate_system_code '2'
_symmetry_cell_setting 'orthorhombic'
loop_
_space_group_symop_operation_xyz
x,y,z
1/2-x,1/2-y,z
1/2+x,-y,-z
-x,1/2+y,-z
-x,-y,-z
1/2+x,1/2+y,-z
1/2-x,y,z
x,1/2-y,z
loop_
_atom_site_type_symbol
_atom_site_label
_atom_site_fract_x
_atom_site_fract_y
_atom_site_fract_z
Si Si1 0.680964 0.089441 0.009832
Si Si2 0.534923 0.081898 0.604862
Si Si3 0.180528 0.578569 0.659387
Si Si4 0.407504 0.078408 0.540000
Si Si5 0.816545 0.580537 0.850548
Si Si6 0.992178 0.583202 0.087510
Si Si7 0.412685 0.911803 0.222496
Si Si8 0.111706 0.580262 0.827346
O O1 0.750000 0.086935 0.021633
O O2 0.658584 0.250000 0.984148
O O3 0.655457 0.041473 0.097832
O O4 0.659956 0.978953 0.938983
O O5 0.545159 0.250000 0.581813
O O6 0.466859 0.038283 0.590823
O O7 0.544870 0.045294 0.701571
O O8 0.581664 0.986811 0.552177
O O9 0.250000 0.534617 0.665603
O O10 0.174867 0.750000 0.644757
O O11 0.149636 0.495376 0.582369
O O12 0.145259 0.531232 0.743040
O O13 0.396335 0.250000 0.534346
O O14 0.750000 0.528602 0.833752
O O15 0.822531 0.750000 0.852682
O O16 0.856515 0.517822 0.776553
O O17 0.973812 0.750000 0.069833
O O18 0.054319 0.575458 0.134358
O O19 0.946776 0.510873 0.152850
O O20 0.000000 0.500000 0.000000
O O21 0.388413 0.750000 0.235962
O O22 0.095386 0.750000 0.823764
#
# Coordination Sequence:
#
# PCOD8243310 Si02
#       8
#     8   8   8   8   8   8   8   8
#     4   9  17  31  51  72  97 134 179 221 258 301
#     4   9  19  37  60  84 109 139 177 222 272 326
#     4  10  21  37  57  82 115 154 192 230 276 336
#     4  10  20  36  59  86 113 140 175 222 274 327
#     4  10  21  35  51  74 103 132 166 213 264 309
#     4  11  23  37  53  78 113 149 185 228 277 326
#     4  10  21  37  56  77 103 137 177 216 256 311
#     4  10  20  34  53  78 107 142 186 230 271 318
#
# _framework density 19.166383
#
# number of rings (size 3 to 8) (size 9 to 14) (size 15 to 20)
#    0.000    2.125    0.000    3.000    0.000    9.500 
#    0.000    0.625    0.000    3.000    0.000    0.000 
#    0.000    0.000    0.000    0.000    0.000    0.000 
#
# Total GULP energy -793493.674188 kJ/mol
# GULP energy per Si atom -12398.338659 kJ/mol
# Density = 1.912276 g / cm^3
# Si number density = 19.166383 Si / 1000 Ang^3
#
#
#
# Elastic Constant Matrix: (Units=GPa)
#
#
# Indices 1 2 3 4 5 6 
#
# 1 87.6592 48.3551 43.7204 0.0000 0.0000 0.0000
# 2 48.3551 66.6189 34.4024 0.0000 0.0000 0.0000
# 3 43.7204 34.4024 75.0056 0.0000 0.0000 0.0000
# 4 0.0000 0.0000 0.0000 25.5071 0.0000 0.0000
# 5 0.0000 0.0000 0.0000 0.0000 35.6540 0.0000
# 6 0.0000 0.0000 0.0000 0.0000 0.0000 32.3993
#
#
#
# Elastic Compliance Matrix: (Units=1/GPa)
#
#
# Indices 1 2 3 4 5 6 
#
# 1 0.021543 -0.011993 -0.007057 0.000000 0.000000 0.000000
# 2 -0.011993 0.026346 -0.005093 0.000000 0.000000 0.000000
# 3 -0.007057 -0.005093 0.019782 0.000000 0.000000 0.000000
# 4 0.000000 0.000000 0.000000 0.039205 0.000000 0.000000
# 5 0.000000 0.000000 0.000000 0.000000 0.028047 0.000000
# 6 0.000000 0.000000 0.000000 0.000000 0.000000 0.030865
#
#
# Mechanical properties :
#
#
# Convention : Reuss Voigt Hill
#
# Bulk Modulus (GPa) = 51.58617 53.58216 52.58416
# Shear Modulus (GPa) = 22.67219 25.56580 24.11900
#
# Velocity S-wave (km/s) = 3.44308 3.65620 3.55124
# Velocity P-wave (km/s) = 6.54063 6.77058 6.65660
#
# Compressibility (1/GPa) = 0.01938504
#
# Stress axis : x y z
#
# Youngs Moduli (GPa) = 46.41925 37.95657 50.55168
#
# Poissons Ratio (x) = 0.45520 0.35672
# Poissons Ratio (y) = 0.55669 0.25748
# Poissons Ratio (z) = 0.32756 0.19333
#
# Static dielectric constant tensor:
#      x y z
#    x 3.593000 0.000000 0.000000 
#    y 0.000000 3.531040 0.000000 
#    z 0.000000 0.000000 3.482030 
# 
# 
# High freq. dielectric constant tensor:
#      x y z
#    x 1.746360 0.000000 0.000000 
#    y 0.000000 1.743700 0.000000 
#    z 0.000000 0.000000 1.740660 
# 
# From -- ./inp_files/24772.got.cif
#   From: 2010.03.12/outbox.cif.g09.slc.cpg/sg59_13_cif.got.tgz:24772.got - 2010.04.16 16:29:54.
