data_PCOD8243118
_publ_section_title
;
Structure prediction by ZEFSAII (Michael W. Deem and Ramdas Pophale) SiO2 
 PCOD8243118
Probable space group: P M M N
;
_chemical_formula_sum "Si O2"
_cell_formula_units_Z 56
_cell_length_a 9.151070
_cell_length_b 15.390105
_cell_length_c 20.443186
_cell_angle_alpha 90.000000
_cell_angle_beta 90.000000
_cell_angle_gamma 90.000000
_cell_volume 2879.135075
_symmetry_space_group_name_H-M "P M M N"
_symmetry_group_IT_number 59
_space_group.IT_coordinate_system_code '2'
_symmetry_cell_setting 'orthorhombic'
loop_
_space_group_symop_operation_xyz
x,y,z
1/2-x,1/2-y,z
1/2+x,-y,-z
-x,1/2+y,-z
-x,-y,-z
1/2+x,1/2+y,-z
1/2-x,y,z
x,1/2-y,z
loop_
_atom_site_type_symbol
_atom_site_label
_atom_site_fract_x
_atom_site_fract_y
_atom_site_fract_z
Si Si1 0.089340 0.382405 0.469860
Si Si2 0.579788 0.652219 0.914221
Si Si3 0.078553 0.980857 0.159771
Si Si4 0.579982 0.151503 0.952787
Si Si5 0.081392 0.155510 0.329107
Si Si6 0.923797 0.512304 0.290632
Si Si7 0.087540 0.574456 0.414596
O O1 0.250000 0.351087 0.491226
O O2 0.036930 0.331820 0.405174
O O3 0.094324 0.482627 0.449905
O O4 0.984850 0.361674 0.531567
O O5 0.750000 0.647902 0.929849
O O6 0.534887 0.750000 0.890737
O O7 0.539738 0.580650 0.859442
O O8 0.500434 0.626125 0.980787
O O9 0.250000 0.971628 0.175985
O O10 0.029546 0.915070 0.102984
O O11 0.984147 0.951751 0.222206
O O12 0.750000 0.141071 0.967071
O O13 0.541319 0.250000 0.930991
O O14 0.250000 0.121897 0.323864
O O15 0.065079 0.250000 0.295010
O O16 0.974995 0.087818 0.294628
O O17 0.750000 0.517975 0.293751
O O18 0.990532 0.569953 0.349106
O O19 0.250000 0.607871 0.396657
#
# Coordination Sequence:
#
# PCOD8243118 Si02
#       7
#     8   8   8   8   8   8   8
#     4   8  14  25  44  69  91 114 150 195 239 282
#     4   9  18  32  51  76 104 134 167 202 244 300
#     4  10  20  34  51  72 102 138 173 208 252 309
#     4   9  18  33  54  78 101 127 163 211 263 307
#     4   9  18  33  51  70  97 134 170 204 249 306
#     4  11  22  33  47  70  99 131 170 213 253 296
#     4   9  16  28  46  66  90 120 154 194 242 294
#
# _framework density 19.450285999999998
#
# number of rings (size 3 to 8) (size 9 to 14) (size 15 to 20)
#    0.000    2.714    0.000    3.000    0.000    5.429 
#    0.000    1.429    0.000    0.857    0.000    0.000 
#    0.000    0.000    0.000    0.000    0.000    0.000 
#
# Total GULP energy -694100.599890 kJ/mol
# GULP energy per Si atom -12394.653569 kJ/mol
# Density = 1.940602 g / cm^3
# Si number density = 19.450286 Si / 1000 Ang^3
#
#
#
# Elastic Constant Matrix: (Units=GPa)
#
#
# Indices 1 2 3 4 5 6 
#
# 1 93.5596 9.4145 46.6967 0.0000 0.0000 0.0000
# 2 9.4145 35.6368 8.8275 0.0000 0.0000 0.0000
# 3 46.6967 8.8275 91.5153 0.0000 0.0000 0.0000
# 4 0.0000 0.0000 0.0000 -68.9524 0.0000 0.0000
# 5 0.0000 0.0000 0.0000 0.0000 37.9092 0.0000
# 6 0.0000 0.0000 0.0000 0.0000 0.0000 13.9897
#
#
#
# Elastic Compliance Matrix: (Units=1/GPa)
#
#
# Indices 1 2 3 4 5 6 
#
# 1 0.014485 -0.002045 -0.007194 0.000000 0.000000 0.000000
# 2 -0.002045 0.029036 -0.001758 0.000000 0.000000 0.000000
# 3 -0.007194 -0.001758 0.014767 0.000000 0.000000 0.000000
# 4 0.000000 0.000000 0.000000 -0.014503 0.000000 0.000000
# 5 0.000000 0.000000 0.000000 0.000000 0.026379 0.000000
# 6 0.000000 0.000000 0.000000 0.000000 0.000000 0.071481
#
#
# Mechanical properties :
#
#
# Convention : Reuss Voigt Hill
#
# Bulk Modulus (GPa) = 27.55076 38.95434 33.25255
# Shear Modulus (GPa) = 28.45174 6.97416 17.71295
#
# Velocity S-wave (km/s) = 3.82880 1.89563 3.02102
# Velocity P-wave (km/s) = 5.80876 4.98622 5.41313
#
# Compressibility (1/GPa) = 0.03629664
#
# Stress axis : x y z
#
# Youngs Moduli (GPa) = 69.03899 34.43954 67.71704
#
# Poissons Ratio (x) = 0.07041 0.48714
# Poissons Ratio (y) = 0.14116 0.11902
# Poissons Ratio (z) = 0.49665 0.06053
#
# Static dielectric constant tensor:
#      x y z
#    x 3.570520 0.000000 0.000000 
#    y 0.000000 3.669950 0.000000 
#    z 0.000000 0.000000 3.518740 
# 
# 
# High freq. dielectric constant tensor:
#      x y z
#    x 1.747080 0.000000 0.000000 
#    y 0.000000 1.735540 0.000000 
#    z 0.000000 0.000000 1.752130 
# 
# From -- ./inp_files/29047.got.cif
#   From: 2010.03.12/outbox.cif.g09.slc.cpg/sg59_15_cif.got.tgz:29047.got - 2010.04.16 16:29:54.
