data_PCOD8243623
_publ_section_title
;
Structure prediction by ZEFSAII (Michael W. Deem and Ramdas Pophale) SiO2 
 PCOD8243623
Probable space group: P M M N
;
_chemical_formula_sum "Si O2"
_cell_formula_units_Z 56
_cell_length_a 8.639393
_cell_length_b 14.310939
_cell_length_c 22.855449
_cell_angle_alpha 90.000000
_cell_angle_beta 90.000000
_cell_angle_gamma 90.000000
_cell_volume 2825.798032
_symmetry_space_group_name_H-M "P M M N"
_symmetry_group_IT_number 59
_space_group.IT_coordinate_system_code '2'
_symmetry_cell_setting 'orthorhombic'
loop_
_space_group_symop_operation_xyz
x,y,z
1/2-x,1/2-y,z
1/2+x,-y,-z
-x,1/2+y,-z
-x,-y,-z
1/2+x,1/2+y,-z
1/2-x,y,z
x,1/2-y,z
loop_
_atom_site_type_symbol
_atom_site_label
_atom_site_fract_x
_atom_site_fract_y
_atom_site_fract_z
Si Si1 0.929764 0.541991 0.856701
Si Si2 0.432408 0.645173 0.748051
Si Si3 0.429963 0.644422 0.412023
Si Si4 0.574343 0.358600 0.037441
Si Si5 0.071774 0.141852 0.463666
Si Si6 0.933545 0.351923 0.906557
Si Si7 0.568648 0.027933 0.361241
O O1 0.750000 0.550565 0.840596
O O2 0.982984 0.433000 0.861232
O O3 0.029013 0.592308 0.807532
O O4 0.959475 0.588429 0.919225
O O5 0.250000 0.652831 0.742093
O O6 0.504221 0.750000 0.748068
O O7 0.499583 0.587042 0.693171
O O8 0.250000 0.631621 0.425659
O O9 0.466363 0.750000 0.391093
O O10 0.524278 0.618973 0.470253
O O11 0.484788 0.573084 0.361659
O O12 0.750000 0.396591 0.044349
O O13 0.571024 0.250000 0.053538
O O14 0.507512 0.375153 0.972107
O O15 0.250000 0.113465 0.454789
O O16 0.042783 0.250000 0.449562
O O17 0.965241 0.082661 0.420793
O O18 0.750000 0.346757 0.911170
O O19 0.997583 0.250000 0.885760
O O20 0.750000 0.011367 0.354402
#
# Coordination Sequence:
#
# PCOD8243623 Si02
#       7
#     8   8   8   8   8   8   8
#     4  11  21  32  52  80 106 134 172 221 267 303
#     4  10  23  42  59  75 101 140 179 212 256 318
#     4  10  21  37  57  82 113 146 179 216 261 318
#     4   9  17  31  52  75 103 141 176 206 252 317
#     4  10  20  34  55  84 116 147 179 219 268 320
#     4   8  16  32  52  75 104 138 174 210 254 312
#     4  11  22  37  58  80 105 140 183 229 271 314
#
# _framework density 19.817409999999999
#
# number of rings (size 3 to 8) (size 9 to 14) (size 15 to 20)
#    0.000    2.143    0.000    4.286    0.000    5.714 
#    0.000    1.429    0.000    6.000    0.000    0.000 
#    0.000    0.000    0.000    0.000    0.000    0.000 
#
# Total GULP energy -694408.817714 kJ/mol
# GULP energy per Si atom -12400.157459 kJ/mol
# Density = 1.977230 g / cm^3
# Si number density = 19.817410 Si / 1000 Ang^3
#
#
#
# Elastic Constant Matrix: (Units=GPa)
#
#
# Indices 1 2 3 4 5 6 
#
# 1 32.9106 20.4041 9.8702 0.0000 0.0000 0.0000
# 2 20.4041 144.1321 75.3245 0.0000 0.0000 0.0000
# 3 9.8702 75.3245 72.8845 0.0000 0.0000 0.0000
# 4 0.0000 0.0000 0.0000 33.5820 0.0000 0.0000
# 5 0.0000 0.0000 0.0000 0.0000 22.9813 0.0000
# 6 0.0000 0.0000 0.0000 0.0000 0.0000 27.4755
#
#
#
# Elastic Compliance Matrix: (Units=1/GPa)
#
#
# Indices 1 2 3 4 5 6 
#
# 1 0.033330 -0.005130 0.000789 0.000000 0.000000 0.000000
# 2 -0.005130 0.015876 -0.015713 0.000000 0.000000 0.000000
# 3 0.000789 -0.015713 0.029852 0.000000 0.000000 0.000000
# 4 0.000000 0.000000 0.000000 0.029778 0.000000 0.000000
# 5 0.000000 0.000000 0.000000 0.000000 0.043514 0.000000
# 6 0.000000 0.000000 0.000000 0.000000 0.000000 0.036396
#
#
# Mechanical properties :
#
#
# Convention : Reuss Voigt Hill
#
# Bulk Modulus (GPa) = 25.67467 51.23607 38.45537
# Shear Modulus (GPa) = 20.67507 26.42966 23.55236
#
# Velocity S-wave (km/s) = 3.23349 3.65589 3.45116
# Velocity P-wave (km/s) = 5.18886 6.61294 5.94370
#
# Compressibility (1/GPa) = 0.03894890
#
# Stress axis : x y z
#
# Youngs Moduli (GPa) = 30.00329 62.98851 33.49837
#
# Poissons Ratio (x) = 0.32316 -0.02642
# Poissons Ratio (y) = 0.15393 0.52635
# Poissons Ratio (z) = -0.02366 0.98971
#
# Static dielectric constant tensor:
#      x y z
#    x 3.375590 0.000000 0.000000 
#    y 0.000000 4.107220 0.000000 
#    z 0.000000 0.000000 3.420780 
# 
# 
# High freq. dielectric constant tensor:
#      x y z
#    x 1.756410 0.000000 0.000000 
#    y 0.000000 1.792180 0.000000 
#    z 0.000000 0.000000 1.749670 
# 
# From -- ./inp_files/28967.got.cif
#   From: 2010.03.12/outbox.cif.g09.slc.cpg/sg59_15_cif.got.tgz:28967.got - 2010.04.16 16:29:54.
