data_PCOD8243749
_publ_section_title
;
Structure prediction by ZEFSAII (Michael W. Deem and Ramdas Pophale) SiO2 
 PCOD8243749
Probable space group: P M M N
;
_chemical_formula_sum "Si O2"
_cell_formula_units_Z 40
_cell_length_a 8.823912
_cell_length_b 16.847638
_cell_length_c 14.391275
_cell_angle_alpha 90.000000
_cell_angle_beta 90.000000
_cell_angle_gamma 90.000000
_cell_volume 2139.436805
_symmetry_space_group_name_H-M "P M M N"
_symmetry_group_IT_number 59
_space_group.IT_coordinate_system_code '2'
_symmetry_cell_setting 'orthorhombic'
loop_
_space_group_symop_operation_xyz
x,y,z
1/2-x,1/2-y,z
1/2+x,-y,-z
-x,1/2+y,-z
-x,-y,-z
1/2+x,1/2+y,-z
1/2-x,y,z
x,1/2-y,z
loop_
_atom_site_type_symbol
_atom_site_label
_atom_site_fract_x
_atom_site_fract_y
_atom_site_fract_z
Si Si1 0.580837 0.162691 0.852168
Si Si2 0.574632 0.841283 0.467264
Si Si3 0.573722 0.750000 0.998488
Si Si4 0.073121 0.885636 0.658034
Si Si5 0.569895 0.053687 0.687625
Si Si6 0.077238 0.750000 0.802996
O O1 0.750000 0.136123 0.879285
O O2 0.581816 0.250000 0.803349
O O3 0.511752 0.100248 0.779364
O O4 0.486898 0.170276 0.948641
O O5 0.750000 0.865975 0.457198
O O6 0.549960 0.750000 0.439086
O O7 0.524008 0.854242 0.572441
O O8 0.472094 0.896561 0.403186
O O9 0.750000 0.750000 0.006715
O O10 0.528830 0.750000 0.891957
O O11 0.250000 0.886440 0.630942
O O12 0.041043 0.827983 0.743845
O O13 0.018623 0.971808 0.688346
O O14 0.750000 0.040437 0.688456
O O15 0.250000 0.750000 0.837278
#
# Coordination Sequence:
#
# PCOD8243749 Si02
#       6
#     8   8   4   8   8   4
#     4   8  17  36  58  82 114 150 186 224 278 342
#     4  11  23  38  58  86 119 155 194 237 280 332
#     4  10  20  34  61  90 113 142 185 240 286 336
#     4  11  23  40  60  83 114 152 197 240 283 339
#     4  11  22  37  59  87 119 155 190 233 287 338
#     4  10  22  42  63  80 107 152 193 232 290 348
#
# _framework density 18.69651
#
# number of rings (size 3 to 8) (size 9 to 14) (size 15 to 20)
#    0.600    1.200    1.000    3.600    0.000    5.200 
#    0.000    1.000    0.000    0.000    0.000    0.000 
#    0.000    0.000    0.000    0.000    0.000    0.000 
#
# Total GULP energy -495917.143585 kJ/mol
# GULP energy per Si atom -12397.928590 kJ/mol
# Density = 1.865396 g / cm^3
# Si number density = 18.696510 Si / 1000 Ang^3
#
#
#
# Elastic Constant Matrix: (Units=GPa)
#
#
# Indices 1 2 3 4 5 6 
#
# 1 60.2403 31.6850 33.4173 0.0000 0.0000 0.0000
# 2 31.6850 97.5866 33.1643 0.0000 0.0000 0.0000
# 3 33.4173 33.1643 94.8027 0.0000 0.0000 0.0000
# 4 0.0000 0.0000 0.0000 5.4774 0.0000 0.0000
# 5 0.0000 0.0000 0.0000 0.0000 23.0102 0.0000
# 6 0.0000 0.0000 0.0000 0.0000 0.0000 62.7341
#
#
#
# Elastic Compliance Matrix: (Units=1/GPa)
#
#
# Indices 1 2 3 4 5 6 
#
# 1 0.022825 -0.005308 -0.006189 0.000000 0.000000 0.000000
# 2 -0.005308 0.012864 -0.002629 0.000000 0.000000 0.000000
# 3 -0.006189 -0.002629 0.013650 0.000000 0.000000 0.000000
# 4 0.000000 0.000000 0.000000 0.182570 0.000000 0.000000
# 5 0.000000 0.000000 0.000000 0.000000 0.043459 0.000000
# 6 0.000000 0.000000 0.000000 0.000000 0.000000 0.015940
#
#
# Mechanical properties :
#
#
# Convention : Reuss Voigt Hill
#
# Bulk Modulus (GPa) = 47.42252 49.90699 48.66476
# Shear Modulus (GPa) = 15.30978 28.53520 21.92249
#
# Velocity S-wave (km/s) = 2.86467 3.91094 3.42796
# Velocity P-wave (km/s) = 6.03003 6.86623 6.46167
#
# Compressibility (1/GPa) = 0.02108703
#
# Stress axis : x y z
#
# Youngs Moduli (GPa) = 43.81137 77.73509 73.26246
#
# Poissons Ratio (x) = 0.41260 0.45342
# Poissons Ratio (y) = 0.23254 0.19263
# Poissons Ratio (z) = 0.27115 0.20439
#
# Static dielectric constant tensor:
#      x y z
#    x 3.438160 0.000000 0.000000 
#    y 0.000000 3.475090 0.000000 
#    z 0.000000 0.000000 3.321800 
# 
# 
# High freq. dielectric constant tensor:
#      x y z
#    x 1.733260 0.000000 0.000000 
#    y 0.000000 1.721690 0.000000 
#    z 0.000000 0.000000 1.721210 
# 
# From -- ./inp_files/19964.got.cif
#   From: 2010.03.12/outbox.cif.g09.slc.cpg/sg59_10_cif.got.tgz:19964.got - 2010.04.16 16:29:54.
