data_PCOD8243391
_publ_section_title
;
Structure prediction by ZEFSAII (Michael W. Deem and Ramdas Pophale) SiO2 
 PCOD8243391
Probable space group: P M M N
;
_chemical_formula_sum "Si O2"
_cell_formula_units_Z 64
_cell_length_a 19.927500
_cell_length_b 9.001741
_cell_length_c 19.786478
_cell_angle_alpha 90.000000
_cell_angle_beta 90.000000
_cell_angle_gamma 90.000000
_cell_volume 3549.341831
_symmetry_space_group_name_H-M "P M M N"
_symmetry_group_IT_number 59
_space_group.IT_coordinate_system_code '2'
_symmetry_cell_setting 'orthorhombic'
loop_
_space_group_symop_operation_xyz
x,y,z
1/2-x,1/2-y,z
1/2+x,-y,-z
-x,1/2+y,-z
-x,-y,-z
1/2+x,1/2+y,-z
1/2-x,y,z
x,1/2-y,z
loop_
_atom_site_type_symbol
_atom_site_label
_atom_site_fract_x
_atom_site_fract_y
_atom_site_fract_z
Si Si1 0.327647 0.576648 0.552357
Si Si2 0.431898 0.421482 0.021343
Si Si3 0.942839 0.922403 0.684710
Si Si4 0.579671 0.575131 0.338082
Si Si5 0.173821 0.422824 0.413882
Si Si6 0.672848 0.419755 0.070847
Si Si7 0.471354 0.418989 0.166217
Si Si8 0.894692 0.576414 0.186023
O O1 0.250000 0.541853 0.567588
O O2 0.343424 0.750000 0.554794
O O3 0.371506 0.494912 0.607658
O O4 0.347919 0.516341 0.479005
O O5 0.435576 0.250000 0.999638
O O6 0.421911 0.438501 0.102461
O O7 0.500000 0.500000 0.000000
O O8 0.368399 0.495032 0.986208
O O9 0.958538 0.750000 0.672755
O O10 0.874458 0.970194 0.647549
O O11 0.932809 0.958837 0.764246
O O12 0.004701 0.012991 0.653428
O O13 0.576744 0.750000 0.348824
O O14 0.609186 0.532482 0.264681
O O15 0.250000 0.460347 0.391972
O O16 0.166148 0.250000 0.432085
O O17 0.750000 0.432934 0.050442
O O18 0.648633 0.250000 0.073335
O O19 0.662985 0.491128 0.145026
O O20 0.498785 0.250000 0.169622
O O21 0.533942 0.528159 0.155218
O O22 0.885075 0.750000 0.174932
#
# Coordination Sequence:
#
# PCOD8243391 Si02
#       8
#     8   8   8   8   8   8   8   8
#     4  10  21  36  54  76 103 139 181 220 263 320
#     4  11  21  34  57  84 109 142 183 225 270 323
#     4   9  18  34  55  80 109 140 175 219 268 319
#     4  10  21  35  53  80 110 140 176 219 268 319
#     4   9  18  34  56  79 104 137 177 221 269 318
#     4  11  24  39  54  76 109 147 185 227 274 323
#     4   9  18  33  54  80 108 137 174 217 263 318
#     4  10  20  34  54  78 104 137 176 219 267 320
#
# _framework density 18.031511999999999
#
# number of rings (size 3 to 8) (size 9 to 14) (size 15 to 20)
#    0.000    2.125    1.250    1.875    0.000    5.250 
#    0.000    3.125    0.000    2.250    0.000    1.750 
#    0.000    0.000    0.000    0.000    0.000    0.000 
#
# Total GULP energy -793700.595976 kJ/mol
# GULP energy per Si atom -12401.571812 kJ/mol
# Density = 1.799047 g / cm^3
# Si number density = 18.031512 Si / 1000 Ang^3
#
#
#
# Elastic Constant Matrix: (Units=GPa)
#
#
# Indices 1 2 3 4 5 6 
#
# 1 94.7640 52.4340 69.3132 0.0000 0.0000 0.0000
# 2 52.4340 93.2784 50.1229 0.0000 0.0000 0.0000
# 3 69.3132 50.1229 111.9262 0.0000 0.0000 0.0000
# 4 0.0000 0.0000 0.0000 27.5702 0.0000 0.0000
# 5 0.0000 0.0000 0.0000 0.0000 33.7361 0.0000
# 6 0.0000 0.0000 0.0000 0.0000 0.0000 25.2407
#
#
#
# Elastic Compliance Matrix: (Units=1/GPa)
#
#
# Indices 1 2 3 4 5 6 
#
# 1 0.022037 -0.006656 -0.010666 0.000000 0.000000 0.000000
# 2 -0.006656 0.016128 -0.003101 0.000000 0.000000 0.000000
# 3 -0.010666 -0.003101 0.016928 0.000000 0.000000 0.000000
# 4 0.000000 0.000000 0.000000 0.036271 0.000000 0.000000
# 5 0.000000 0.000000 0.000000 0.000000 0.029642 0.000000
# 6 0.000000 0.000000 0.000000 0.000000 0.000000 0.039619
#
#
# Mechanical properties :
#
#
# Convention : Reuss Voigt Hill
#
# Bulk Modulus (GPa) = 70.18675 71.52319 70.85497
# Shear Modulus (GPa) = 24.24593 25.84930 25.04762
#
# Velocity S-wave (km/s) = 3.67091 3.79035 3.73111
# Velocity P-wave (km/s) = 7.54828 7.67512 7.61196
#
# Compressibility (1/GPa) = 0.01424770
#
# Stress axis : x y z
#
# Youngs Moduli (GPa) = 45.37822 62.00307 59.07246
#
# Poissons Ratio (x) = 0.41269 0.63008
# Poissons Ratio (y) = 0.30204 0.18316
# Poissons Ratio (z) = 0.48402 0.19225
#
# Static dielectric constant tensor:
#      x y z
#    x 3.195920 0.000000 0.000000 
#    y 0.000000 3.470060 0.000000 
#    z 0.000000 0.000000 3.580370 
# 
# 
# High freq. dielectric constant tensor:
#      x y z
#    x 1.680020 0.000000 0.000000 
#    y 0.000000 1.708620 0.000000 
#    z 0.000000 0.000000 1.706870 
# 
# From -- ./inp_files/28259.got.cif
#   From: 2010.03.12/outbox.cif.g09.slc.cpg/sg59_15_cif.got.tgz:28259.got - 2010.04.16 16:29:54.
